data_PCOD9083910
_publ_section_title
;
Structure prediction by ZEFSAII (Michael W. Deem and Ramdas Pophale) SiO2 
 PCOD9083910
Probable space group: P -1
;
_chemical_formula_sum "Si O2"
_cell_formula_units_Z 16
_cell_length_a 16.678157
_cell_length_b 19.181141
_cell_length_c 5.509773
_cell_angle_alpha 103.774712
_cell_angle_beta 78.405132
_cell_angle_gamma 161.132391
_cell_volume 551.941555
_symmetry_space_group_name_H-M "P -1"
_symmetry_group_IT_number 2
_symmetry_cell_setting 'triclinic'
loop_
_space_group_symop_operation_xyz
x,y,z
-x,-y,-z
loop_
_atom_site_type_symbol
_atom_site_label
_atom_site_fract_x
_atom_site_fract_y
_atom_site_fract_z
Si Si1 0.994760 0.659813 0.988944
Si Si2 0.611068 0.205567 0.637158
Si Si3 0.949341 0.036281 0.957706
Si Si4 0.586085 0.489164 0.439278
Si Si5 0.901041 0.304818 0.544212
Si Si6 0.499999 0.837656 0.828684
Si Si7 0.160693 0.998142 0.500805
Si Si8 0.346851 0.491790 0.082293
O O1 0.932439 0.589045 0.249012
O O2 0.278608 0.921377 0.067213
O O3 0.003411 0.610171 0.721546
O O4 0.840700 0.598295 0.918477
O O5 0.775996 0.275196 0.681068
O O6 0.672805 0.275029 0.375476
O O7 0.328683 0.941447 0.554785
O O8 0.591667 0.245822 0.906133
O O9 0.201963 0.295469 0.018527
O O10 0.801362 0.955295 0.198214
O O11 0.894888 0.989595 0.665038
O O12 0.000000 0.000000 0.000000
O O13 0.500000 0.500000 0.500000
O O14 0.516093 0.391915 0.648938
O O15 0.887534 0.732350 0.450725
O O16 0.495041 0.380524 0.153065
O O17 0.635631 0.883060 0.654219
#
# Coordination Sequence:
#
# PCOD9083910 Si02
#       8
#     2   2   2   2   2   2   2   2
#     4  10  16  25  40  51  75 105 131 171 197 217
#     4   9  17  24  34  53  74 100 135 170 190 214
#     4  10  19  30  44  60  78 100 132 178 215 243
#     4  10  19  30  44  60  78 100 132 178 215 243
#     4   9  17  24  34  53  74 100 135 170 190 214
#     4  10  16  25  40  51  75 105 131 171 197 217
#     4  10  19  30  44  62  80 106 140 175 204 242
#     4  10  19  30  44  62  80 106 140 175 204 242
#
# _framework density 28.988579999999999
#
# number of rings (size 3 to 8) (size 9 to 14) (size 15 to 20)
#    0.000    2.250    2.500    3.000    7.000    3.000 
#    0.000    0.000    0.000    0.000    0.000    0.000 
#    0.000    0.000    0.000    0.000    0.000    0.000 
#
# Total GULP energy -89627.182299 kJ/mol
# GULP energy per Si atom -5601.698894 kJ/mol
# Density = 2.892260 g / cm^3
# Si number density = 28.988580 Si / 1000 Ang^3
#
#
#
# Elastic Constant Matrix: (Units=GPa)
#
#
# Indices 1 2 3 4 5 6 
#
# 1 105.2910 4.1171 59.8359 27.5928 5.7527 19.2444
# 2 4.1171 56.3474 57.6914 -6.5971 11.8255 9.0702
# 3 59.8359 57.6914 287.4988 20.1004 10.7118 11.1759
# 4 27.5928 -6.5971 20.1004 78.4413 -9.8044 19.9891
# 5 5.7527 11.8255 10.7118 -9.8044 62.1918 -11.5484
# 6 19.2444 9.0702 11.1759 19.9891 -11.5484 47.2041
#
#
#
# Elastic Compliance Matrix: (Units=1/GPa)
#
#
# Indices 1 2 3 4 5 6 
#
# 1 0.012597 0.002815 -0.002733 -0.002655 -0.002486 -0.004514
# 2 0.002815 0.026053 -0.005602 0.003979 -0.005061 -0.007750
# 3 -0.002733 -0.005602 0.005171 -0.001174 0.000538 0.001595
# 4 -0.002655 0.003979 -0.001174 0.015958 0.001113 -0.005889
# 5 -0.002486 -0.005061 0.000538 0.001113 0.018450 0.005901
# 6 -0.004514 -0.007750 0.001595 -0.005889 0.005901 0.028074
#
#
# Mechanical properties :
#
#
# Convention : Reuss Voigt Hill
#
# Bulk Modulus (GPa) = 30.50506 76.93624 53.72065
# Shear Modulus (GPa) = 38.98039 59.40030 49.19034
#
# Velocity S-wave (km/s) = 3.67097 4.53160 4.12380
# Velocity P-wave (km/s) = 5.33985 7.34700 6.42232
#
# Compressibility (1/GPa) = 0.03278144
#
# Stress axis : x y z
#
# Youngs Moduli (GPa) = 79.38349 38.38364 193.37589
#
# Poissons Ratio (x) = -0.10806 0.52850
# Poissons Ratio (y) = -0.22349 1.08333
# Poissons Ratio (z) = 0.21696 0.21503
#
# Static dielectric constant tensor:
#      x y z
#    x 2.148740 -0.138890 0.028790 
#    y -0.138890 2.502150 -0.006020 
#    z 0.028790 -0.006020 2.217350 
# 
# From -- ./inp_files/100243.got.cif
#   From: 2010.05.17/outbox.cif.g08.bks.cpg/sg2_51_cif.got.tgz:100243.got - 2010.06.03 11:33:40.
