data_PCOD9083253
_publ_section_title
;
Structure prediction by ZEFSAII (Michael W. Deem and Ramdas Pophale) SiO2 
 PCOD9083253
Probable space group: P -1
;
_chemical_formula_sum "Si O2"
_cell_formula_units_Z 16
_cell_length_a 14.940129
_cell_length_b 15.493112
_cell_length_c 12.202258
_cell_angle_alpha 141.844835
_cell_angle_beta 152.197005
_cell_angle_gamma 52.894605
_cell_volume 771.027739
_symmetry_space_group_name_H-M "P -1"
_symmetry_group_IT_number 2
_symmetry_cell_setting 'triclinic'
loop_
_space_group_symop_operation_xyz
x,y,z
-x,-y,-z
loop_
_atom_site_type_symbol
_atom_site_label
_atom_site_fract_x
_atom_site_fract_y
_atom_site_fract_z
Si Si1 0.753985 0.895803 0.242426
Si Si2 0.989998 0.220441 0.766089
Si Si3 0.660302 0.333419 0.462579
Si Si4 0.551852 0.465569 0.683214
Si Si5 0.420902 0.320516 0.749023
Si Si6 0.214068 0.354678 0.363105
Si Si7 0.142497 0.613276 0.678838
Si Si8 0.836278 0.746616 0.380835
O O1 0.859035 0.880520 0.456465
O O2 0.838971 0.810731 0.155468
O O3 0.817586 0.063351 0.441218
O O4 0.515613 0.811761 0.913305
O O5 0.881812 0.320640 0.683868
O O6 0.070377 0.279108 0.032065
O O7 0.617257 0.358453 0.567655
O O8 0.612365 0.468615 0.485990
O O9 0.439881 0.390465 0.594723
O O10 0.740718 0.603910 0.057743
O O11 0.236726 0.266658 0.409171
O O12 0.327280 0.269184 0.715503
O O13 0.500000 0.500000 0.000000
O O14 0.636037 0.294529 0.943484
O O15 0.172453 0.503700 0.506038
O O16 0.000000 0.500000 0.500000
O O17 0.031742 0.723645 0.623686
#
# Coordination Sequence:
#
# PCOD9083253 Si02
#       8
#     2   2   2   2   2   2   2   2
#     4  10  24  40  57  80 113 152 200 236 262 326
#     4  11  23  40  58  80 111 159 195 227 276 328
#     4  10  21  37  57  83 116 147 184 234 286 335
#     4  10  19  34  55  90 119 138 178 239 287 335
#     4  10  19  34  53  83 116 143 174 227 283 338
#     4  11  20  35  56  84 117 145 177 234 281 339
#     4  11  19  33  59  88 112 146 179 221 298 346
#     4  11  20  36  56  84 116 145 183 231 279 335
#
# _framework density 20.751524
#
# number of rings (size 3 to 8) (size 9 to 14) (size 15 to 20)
#    0.000    1.500    6.250    1.125    1.750    0.500 
#    0.000    0.625    0.000    0.750    0.000    0.000 
#    0.000    0.000    0.000    0.000    0.000    0.000 
#
# Total GULP energy -89242.955405 kJ/mol
# GULP energy per Si atom -5577.684713 kJ/mol
# Density = 2.070429 g / cm^3
# Si number density = 20.751524 Si / 1000 Ang^3
#
#
#
# Elastic Constant Matrix: (Units=GPa)
#
#
# Indices 1 2 3 4 5 6 
#
# 1 64.3302 0.2774 -3.5294 -2.8427 -10.4579 7.3112
# 2 0.2774 60.7706 17.9558 -27.9512 2.8013 4.3534
# 3 -3.5294 17.9558 58.9383 -22.9548 -4.3093 -6.2689
# 4 -2.8427 -27.9512 -22.9548 35.2732 2.9349 2.7442
# 5 -10.4579 2.8013 -4.3093 2.9349 19.4965 -6.7972
# 6 7.3112 4.3534 -6.2689 2.7442 -6.7972 25.5820
#
#
#
# Elastic Compliance Matrix: (Units=1/GPa)
#
#
# Indices 1 2 3 4 5 6 
#
# 1 0.017466 0.000170 0.002361 0.002548 0.008639 -0.002420
# 2 0.000170 0.029388 -0.001624 0.024120 -0.012038 -0.011233
# 3 0.002361 -0.001624 0.023973 0.013484 0.006804 0.005838
# 4 0.002548 0.024120 0.013484 0.058262 -0.011683 -0.010882
# 5 0.008639 -0.012038 0.006804 -0.011683 0.068097 0.020594
# 6 -0.002420 -0.011233 0.005838 -0.010882 0.020594 0.049763
#
#
# Mechanical properties :
#
#
# Convention : Reuss Voigt Hill
#
# Bulk Modulus (GPa) = 13.76659 23.71629 18.74144
# Shear Modulus (GPa) = 18.56332 27.35938 22.96135
#
# Velocity S-wave (km/s) = 2.99415 3.63495 3.33000
# Velocity P-wave (km/s) = 4.31297 5.39173 4.88223
#
# Compressibility (1/GPa) = 0.07263965
#
# Stress axis : x y z
#
# Youngs Moduli (GPa) = 57.25549 34.02779 41.71346
#
# Poissons Ratio (x) = -0.00578 -0.09847
# Poissons Ratio (y) = -0.00972 0.06774
# Poissons Ratio (z) = -0.13517 0.05526
#
# Static dielectric constant tensor:
#      x y z
#    x 1.769630 0.012020 -0.015300 
#    y 0.012020 1.752580 -0.038490 
#    z -0.015300 -0.038490 1.792320 
# 
# From -- ./inp_files/425791.got.cif
#   From: 2010.05.17/outbox.cif.g08.bks.cpg/sg2_213_cif.got.tgz:425791.got - 2010.06.03 11:33:40.
