data_PCOD9083265
_publ_section_title
;
Structure prediction by ZEFSAII (Michael W. Deem and Ramdas Pophale) SiO2 
 PCOD9083265
Probable space group: P -1
;
_chemical_formula_sum "Si O2"
_cell_formula_units_Z 14
_cell_length_a 11.442393
_cell_length_b 8.905787
_cell_length_c 8.383319
_cell_angle_alpha 121.186538
_cell_angle_beta 59.231364
_cell_angle_gamma 134.724960
_cell_volume 503.799461
_symmetry_space_group_name_H-M "P -1"
_symmetry_group_IT_number 2
_symmetry_cell_setting 'triclinic'
loop_
_space_group_symop_operation_xyz
x,y,z
-x,-y,-z
loop_
_atom_site_type_symbol
_atom_site_label
_atom_site_fract_x
_atom_site_fract_y
_atom_site_fract_z
Si Si1 0.249003 0.040074 0.343559
Si Si2 0.254932 0.660479 0.699634
Si Si3 0.476559 0.284971 0.698845
Si Si4 0.763409 0.655573 0.222882
Si Si5 0.148767 0.792509 0.567183
Si Si6 0.418166 0.145996 0.977050
Si Si7 0.916774 0.936066 0.824413
O O1 0.260550 0.214036 0.550136
O O2 0.105074 0.987872 0.291815
O O3 0.199103 0.831567 0.366138
O O4 0.411748 0.138525 0.170193
O O5 0.392774 0.657832 0.500237
O O6 0.201953 0.496629 0.793264
O O7 0.131132 0.630092 0.624657
O O8 0.333786 0.893634 0.853337
O O9 0.407058 0.429440 0.803646
O O10 0.317512 0.028906 0.642062
O O11 0.550367 0.286213 0.820108
O O12 0.923399 0.829649 0.094142
O O13 0.986657 0.795548 0.686358
O O14 0.271642 0.176324 0.048606
#
# Coordination Sequence:
#
# PCOD9083265 Si02
#       7
#     2   2   2   2   2   2   2
#     4   8  17  35  53  73  94 133 165 192 245 299
#     4  11  21  32  48  78 103 125 165 207 238 281
#     4   9  19  35  50  69 100 138 164 191 242 300
#     4  10  19  34  54  71  99 134 158 199 255 290
#     4   9  16  31  54  73  96 133 164 194 241 299
#     4   9  18  33  56  71  99 124 170 204 234 284
#     4   8  17  33  56  70  99 126 169 191 247 296
#
# _framework density 27.788833
#
# number of rings (size 3 to 8) (size 9 to 14) (size 15 to 20)
#    0.857    2.286    0.000    3.857    0.000    5.714 
#    0.000   11.429    0.000    0.000    0.000    0.000 
#    0.000    0.000    0.000    0.000    0.000    0.000 
#
# Total GULP energy -78058.636088 kJ/mol
# GULP energy per Si atom -5575.616863 kJ/mol
# Density = 2.772558 g / cm^3
# Si number density = 27.788833 Si / 1000 Ang^3
#
#
#
# Elastic Constant Matrix: (Units=GPa)
#
#
# Indices 1 2 3 4 5 6 
#
# 1 146.6679 12.8104 -9.1609 -2.0477 -11.2045 -40.1869
# 2 12.8104 106.7398 1.8818 -25.8126 4.5244 -27.8353
# 3 -9.1609 1.8818 78.5775 -18.5147 22.3049 2.4439
# 4 -2.0477 -25.8126 -18.5147 27.3499 0.8879 10.0433
# 5 -11.2045 4.5244 22.3049 0.8879 32.9444 -5.3483
# 6 -40.1869 -27.8353 2.4439 10.0433 -5.3483 43.8496
#
#
#
# Elastic Compliance Matrix: (Units=1/GPa)
#
#
# Indices 1 2 3 4 5 6 
#
# 1 0.010384 0.000361 -0.002424 -0.005139 0.007199 0.011936
# 2 0.000361 0.014342 0.004138 0.014529 -0.004169 0.005369
# 3 -0.002424 0.004138 0.023710 0.023602 -0.019494 -0.008699
# 4 -0.005139 0.014529 0.023602 0.072689 -0.024348 -0.016421
# 5 0.007199 -0.004169 -0.019494 -0.024348 0.049942 0.016706
# 6 0.011936 0.005369 -0.008699 -0.016421 0.016706 0.043436
#
#
# Mechanical properties :
#
#
# Convention : Reuss Voigt Hill
#
# Bulk Modulus (GPa) = 19.01596 38.11642 28.56619
# Shear Modulus (GPa) = 21.94130 42.59235 32.26683
#
# Velocity S-wave (km/s) = 2.81298 3.91924 3.41125
# Velocity P-wave (km/s) = 4.17233 5.85037 5.08110
#
# Compressibility (1/GPa) = 0.05258741
#
# Stress axis : x y z
#
# Youngs Moduli (GPa) = 96.30295 69.72333 42.17647
#
# Poissons Ratio (x) = -0.02518 0.10223
# Poissons Ratio (y) = -0.03478 -0.17454
# Poissons Ratio (z) = 0.23342 -0.28853
#
# Static dielectric constant tensor:
#      x y z
#    x 2.278160 0.073260 0.069590 
#    y 0.073260 2.289820 0.006690 
#    z 0.069590 0.006690 2.177950 
# 
# From -- ./inp_files/239576.got.cif
#   From: 2010.05.17/outbox.cif.g08.bks.cpg/sg2_120_cif.got.tgz:239576.got - 2010.06.03 11:33:40.
