data_PCOD9083689
_publ_section_title
;
Structure prediction by ZEFSAII (Michael W. Deem and Ramdas Pophale) SiO2 
 PCOD9083689
Probable space group: P -1
;
_chemical_formula_sum "Si O2"
_cell_formula_units_Z 14
_cell_length_a 14.832511
_cell_length_b 10.250011
_cell_length_c 16.769175
_cell_angle_alpha 75.163190
_cell_angle_beta 158.366955
_cell_angle_gamma 116.975148
_cell_volume 723.472121
_symmetry_space_group_name_H-M "P -1"
_symmetry_group_IT_number 2
_symmetry_cell_setting 'triclinic'
loop_
_space_group_symop_operation_xyz
x,y,z
-x,-y,-z
loop_
_atom_site_type_symbol
_atom_site_label
_atom_site_fract_x
_atom_site_fract_y
_atom_site_fract_z
Si Si1 0.190038 0.391938 0.711168
Si Si2 0.059428 0.747372 0.316376
Si Si3 0.835024 0.979142 0.106855
Si Si4 0.248233 0.939915 0.680047
Si Si5 0.718029 0.906337 0.842671
Si Si6 0.831574 0.814085 0.501952
Si Si7 0.493315 0.449799 0.209713
O O1 0.277468 0.500039 0.685512
O O2 0.950935 0.334579 0.595229
O O3 0.064075 0.210731 0.598401
O O4 0.500000 0.500000 0.000000
O O5 0.412752 0.876365 0.562687
O O6 0.917228 0.848206 0.199059
O O7 0.824300 0.602937 0.083501
O O8 0.077864 0.133362 0.340210
O O9 0.502410 0.911369 0.877894
O O10 0.819529 0.003844 0.995854
O O11 0.143754 0.914991 0.689309
O O12 0.340009 0.112195 0.688325
O O13 0.607160 0.716584 0.799916
O O14 0.000000 0.000000 0.000000
O O15 0.650052 0.616607 0.365811
#
# Coordination Sequence:
#
# PCOD9083689 Si02
#       7
#     2   2   2   2   2   2   2
#     4   9  16  34  54  87 118 146 182 231 286 348
#     4  10  20  39  59  86 120 150 196 242 293 349
#     4  11  20  36  61  87 116 161 195 234 293 348
#     4  10  19  34  57  86 127 161 184 224 291 363
#     4  11  24  42  62  83 110 157 209 250 290 333
#     4  10  20  36  55  88 126 156 190 227 288 362
#     4   9  22  36  57  88 120 153 189 241 294 345
#
# _framework density 19.351125
#
# number of rings (size 3 to 8) (size 9 to 14) (size 15 to 20)
#    0.000    2.000    2.857    0.429    0.000    4.000 
#   12.857    0.714    0.000    4.286    0.000    0.000 
#    0.000    0.000    0.000    0.000    0.000    0.000 
#
# Total GULP energy -77948.091488 kJ/mol
# GULP energy per Si atom -5567.720821 kJ/mol
# Density = 1.930708 g / cm^3
# Si number density = 19.351125 Si / 1000 Ang^3
#
#
#
# Elastic Constant Matrix: (Units=GPa)
#
#
# Indices 1 2 3 4 5 6 
#
# 1 81.5733 26.2616 47.0727 13.2404 2.6075 -10.7654
# 2 26.2616 83.3722 41.4325 5.0203 -0.5203 -6.6530
# 3 47.0727 41.4325 89.5983 4.3301 4.9859 -18.5215
# 4 13.2404 5.0203 4.3301 28.3310 -10.6899 -3.8875
# 5 2.6075 -0.5203 4.9859 -10.6899 44.1920 13.4532
# 6 -10.7654 -6.6530 -18.5215 -3.8875 13.4532 19.8472
#
#
#
# Elastic Compliance Matrix: (Units=1/GPa)
#
#
# Indices 1 2 3 4 5 6 
#
# 1 0.019331 -0.001169 -0.008528 -0.008297 -0.002966 0.002520
# 2 -0.001169 0.015912 -0.007668 -0.000847 0.002160 -0.004086
# 3 -0.008528 -0.007668 0.023947 0.001422 -0.008369 0.021102
# 4 -0.008297 -0.000847 0.001422 0.043096 0.011626 -0.002896
# 5 -0.002966 0.002160 -0.008369 0.011626 0.035959 -0.030792
# 6 0.002520 -0.004086 0.021102 -0.002896 -0.030792 0.090380
#
#
# Mechanical properties :
#
#
# Convention : Reuss Voigt Hill
#
# Bulk Modulus (GPa) = 40.88501 53.78640 47.33571
# Shear Modulus (GPa) = 18.41570 27.79249 23.10410
#
# Velocity S-wave (km/s) = 3.08825 3.79386 3.45909
# Velocity P-wave (km/s) = 5.82153 6.85905 6.36147
#
# Compressibility (1/GPa) = 0.02445884
#
# Stress axis : x y z
#
# Youngs Moduli (GPa) = 51.73122 62.84744 41.75963
#
# Poissons Ratio (x) = 0.07344 0.35615
# Poissons Ratio (y) = 0.06045 0.32021
# Poissons Ratio (z) = 0.44119 0.48191
#
# Static dielectric constant tensor:
#      x y z
#    x 1.695680 0.004060 -0.015820 
#    y 0.004060 1.712990 -0.035170 
#    z -0.015820 -0.035170 1.738660 
# 
# From -- ./inp_files/458309.got.cif
#   From: 2010.05.17/outbox.cif.g08.bks.cpg/sg2_230_cif.got.tgz:458309.got - 2010.06.03 11:33:40.
