data_PCOD9083684
_publ_section_title
;
Structure prediction by ZEFSAII (Michael W. Deem and Ramdas Pophale) SiO2 
 PCOD9083684
Probable space group: P -1
;
_chemical_formula_sum "Si O2"
_cell_formula_units_Z 16
_cell_length_a 5.171273
_cell_length_b 9.020462
_cell_length_c 16.137585
_cell_angle_alpha 90.717753
_cell_angle_beta 86.263062
_cell_angle_gamma 107.674930
_cell_volume 715.693300
_symmetry_space_group_name_H-M "P -1"
_symmetry_group_IT_number 2
_symmetry_cell_setting 'triclinic'
loop_
_space_group_symop_operation_xyz
x,y,z
-x,-y,-z
loop_
_atom_site_type_symbol
_atom_site_label
_atom_site_fract_x
_atom_site_fract_y
_atom_site_fract_z
Si Si1 0.863557 0.627602 0.533631
Si Si2 0.453465 0.367283 0.798805
Si Si3 0.323341 0.257957 0.176605
Si Si4 0.595724 0.053981 0.591752
Si Si5 0.078341 0.661007 0.105819
Si Si6 0.985052 0.105037 0.343568
Si Si7 0.139507 0.714627 0.919882
Si Si8 0.545610 0.656450 0.389804
O O1 0.026090 0.752402 0.596250
O O2 0.763791 0.706410 0.458640
O O3 0.598974 0.524193 0.588501
O O4 0.000000 0.500000 0.500000
O O5 0.568785 0.555934 0.805312
O O6 0.696957 0.307335 0.826722
O O7 0.362897 0.330198 0.706192
O O8 0.190975 0.300457 0.860907
O O9 0.151700 0.170359 0.257568
O O10 0.592791 0.218797 0.141297
O O11 0.109844 0.229922 0.105539
O O12 0.835485 0.988484 0.614653
O O13 0.330389 0.992805 0.656350
O O14 0.500000 0.000000 0.500000
O O15 0.655700 0.239224 0.595610
O O16 0.969844 0.473241 0.093140
O O17 0.193852 0.736202 0.016524
#
# Coordination Sequence:
#
# PCOD9083684 Si02
#       8
#     2   2   2   2   2   2   2   2
#     4  11  25  40  66  88 124 161 213 253 313 372
#     4  10  20  33  56  85 123 152 199 250 304 360
#     4  10  19  34  57  86 118 156 199 253 295 360
#     4  12  26  44  64  86 126 169 215 256 306 365
#     4   9  18  31  51  87 121 156 186 244 312 371
#     4  12  25  43  63  92 123 168 211 257 305 365
#     4   9  17  31  54  83 123 154 190 241 314 363
#     4  11  25  41  60  94 120 170 204 259 310 363
#
# _framework density 22.355945999999999
#
# number of rings (size 3 to 8) (size 9 to 14) (size 15 to 20)
#    0.000    1.500    2.500    2.625    5.250    4.000 
#    0.000    0.000    0.000    0.000    0.000   17.500 
#    0.000    0.000    0.000    0.000    0.000    0.000 
#
# Total GULP energy -89408.122093 kJ/mol
# GULP energy per Si atom -5588.007631 kJ/mol
# Density = 2.230506 g / cm^3
# Si number density = 22.355946 Si / 1000 Ang^3
#
#
#
# Elastic Constant Matrix: (Units=GPa)
#
#
# Indices 1 2 3 4 5 6 
#
# 1 86.1593 12.6682 9.8576 -10.3703 -18.9638 -3.7220
# 2 12.6682 44.5525 15.8606 -13.6435 -7.3660 3.1032
# 3 9.8576 15.8606 115.0439 -13.5100 -8.4250 8.3080
# 4 -10.3703 -13.6435 -13.5100 14.8671 4.1582 -5.3649
# 5 -18.9638 -7.3660 -8.4250 4.1582 32.3700 -9.0945
# 6 -3.7220 3.1032 8.3080 -5.3649 -9.0945 28.5480
#
#
#
# Elastic Compliance Matrix: (Units=1/GPa)
#
#
# Indices 1 2 3 4 5 6 
#
# 1 0.015285 -0.000059 0.000137 0.010578 0.009585 0.007000
# 2 -0.000059 0.032013 -0.001001 0.028494 0.004323 0.003536
# 3 0.000137 -0.001001 0.009850 0.007448 0.001189 -0.000961
# 4 0.010578 0.028494 0.007448 0.112911 0.005475 0.019077
# 5 0.009585 0.004323 0.001189 0.005475 0.041196 0.014586
# 6 0.007000 0.003536 -0.000961 0.019077 0.014586 0.044069
#
#
# Mechanical properties :
#
#
# Convention : Reuss Voigt Hill
#
# Bulk Modulus (GPa) = 18.08262 35.83652 26.95957
# Shear Modulus (GPa) = 18.14212 28.98164 23.56188
#
# Velocity S-wave (km/s) = 2.85180 3.60442 3.24997
# Velocity P-wave (km/s) = 4.35313 5.77817 5.11551
#
# Compressibility (1/GPa) = 0.05530171
#
# Stress axis : x y z
#
# Youngs Moduli (GPa) = 65.42571 31.23754 101.52534
#
# Poissons Ratio (x) = 0.00183 -0.01390
# Poissons Ratio (y) = 0.00383 0.10163
# Poissons Ratio (z) = -0.00896 0.03127
#
# Static dielectric constant tensor:
#      x y z
#    x 1.819710 0.043870 -0.033350 
#    y 0.043870 1.874930 -0.018770 
#    z -0.033350 -0.018770 1.819610 
# 
# From -- ./inp_files/50217.got.cif
#   From: 2010.05.17/outbox.cif.g08.bks.cpg/sg2_26_cif.got.tgz:50217.got - 2010.06.03 11:33:40.
