data_PCOD9083096
_publ_section_title
;
Structure prediction by ZEFSAII (Michael W. Deem and Ramdas Pophale) SiO2 
 PCOD9083096
Probable space group: P -1
;
_chemical_formula_sum "Si O2"
_cell_formula_units_Z 14
_cell_length_a 26.190469
_cell_length_b 11.717052
_cell_length_c 8.413157
_cell_angle_alpha 141.670544
_cell_angle_beta 36.551143
_cell_angle_gamma 156.024863
_cell_volume 611.048369
_symmetry_space_group_name_H-M "P -1"
_symmetry_group_IT_number 2
_symmetry_cell_setting 'triclinic'
loop_
_space_group_symop_operation_xyz
x,y,z
-x,-y,-z
loop_
_atom_site_type_symbol
_atom_site_label
_atom_site_fract_x
_atom_site_fract_y
_atom_site_fract_z
Si Si1 0.428273 0.828933 0.655314
Si Si2 0.825652 0.521037 0.946699
Si Si3 0.665118 0.802101 0.088977
Si Si4 0.862668 0.831996 0.738436
Si Si5 0.881329 0.017996 0.253454
Si Si6 0.318336 0.775672 0.351309
Si Si7 0.373885 0.303974 0.283675
O O1 0.398088 0.560832 0.459117
O O2 0.500000 0.000000 0.500000
O O3 0.531616 0.036200 0.768672
O O4 0.285437 0.694691 0.877649
O O5 0.739884 0.351742 0.816933
O O6 0.969271 0.659481 0.738012
O O7 0.865566 0.803318 0.160063
O O8 0.522509 0.487909 0.165988
O O9 0.695315 0.033352 0.364812
O O10 0.780694 0.844199 0.856802
O O11 0.652259 0.831615 0.968323
O O12 0.775812 0.505807 0.613716
O O13 0.000000 0.000000 0.500000
O O14 0.876167 0.945928 0.004198
O O15 0.749980 0.914995 0.524412
#
# Coordination Sequence:
#
# PCOD9083096 Si02
#       7
#     2   2   2   2   2   2   2
#     4  10  19  33  62  93 126 161 214 259 304 371
#     4   9  19  36  60  88 126 165 207 254 311 373
#     4  10  22  41  65  92 126 160 212 259 304 374
#     4  11  25  40  65  93 126 163 208 259 315 370
#     4   9  20  38  62  89 121 169 204 254 316 372
#     4  10  22  40  61  93 120 169 208 255 310 368
#     4   9  20  40  63  91 124 169 205 251 321 365
#
# _framework density 22.911441
#
# number of rings (size 3 to 8) (size 9 to 14) (size 15 to 20)
#    0.000    2.286    0.000    1.286   10.000    2.286 
#    0.000    5.000    0.000    0.000    0.000    0.000 
#    0.000    0.000    0.000    0.000    0.000    0.000 
#
# Total GULP energy -78199.909409 kJ/mol
# GULP energy per Si atom -5585.707815 kJ/mol
# Density = 2.285929 g / cm^3
# Si number density = 22.911441 Si / 1000 Ang^3
#
#
#
# Elastic Constant Matrix: (Units=GPa)
#
#
# Indices 1 2 3 4 5 6 
#
# 1 45.9385 47.7275 33.0256 13.5988 -9.4246 12.6468
# 2 47.7275 154.7084 80.8511 -40.0037 7.9839 26.8941
# 3 33.0256 80.8511 72.8243 -69.4450 -8.4967 13.8446
# 4 13.5988 -40.0037 -69.4450 -5.2765 8.1762 -3.4512
# 5 -9.4246 7.9839 -8.4967 8.1762 35.3367 -3.4254
# 6 12.6468 26.8941 13.8446 -3.4512 -3.4254 31.0087
#
#
#
# Elastic Compliance Matrix: (Units=1/GPa)
#
#
# Indices 1 2 3 4 5 6 
#
# 1 0.025269 -0.011681 0.012294 0.009404 0.009816 -0.003533
# 2 -0.011681 0.020789 -0.015585 0.002388 -0.012835 -0.007460
# 3 0.012294 -0.015585 0.013867 -0.013341 0.013445 0.002312
# 4 0.009404 0.002388 -0.013341 -0.006910 0.000293 -0.000687
# 5 0.009816 -0.012835 0.013445 0.000293 0.037496 0.005301
# 6 -0.003533 -0.007460 0.002312 -0.000687 0.005301 0.039637
#
#
# Mechanical properties :
#
#
# Convention : Reuss Voigt Hill
#
# Bulk Modulus (GPa) = 33.35546 66.29773 49.82660
# Shear Modulus (GPa) = 29.39724 19.67160 24.53442
#
# Velocity S-wave (km/s) = 3.58590 2.93335 3.27591
# Velocity P-wave (km/s) = 5.63338 6.36177 6.00862
#
# Compressibility (1/GPa) = 0.02998010
#
# Stress axis : x y z
#
# Youngs Moduli (GPa) = 39.57483 48.10307 72.11613
#
# Poissons Ratio (x) = 0.56189 -0.88657
# Poissons Ratio (y) = 0.46227 1.12390
# Poissons Ratio (z) = -0.48652 0.74967
#
# Static dielectric constant tensor:
#      x y z
#    x 1.897050 0.019980 -0.041860 
#    y 0.019980 1.869960 -0.014290 
#    z -0.041860 -0.014290 1.893910 
# 
# From -- ./inp_files/181620.got.cif
#   From: 2010.05.17/outbox.cif.g08.bks.cpg/sg2_91_cif.got.tgz:181620.got - 2010.06.03 11:33:40.
