data_PCOD9083858
_publ_section_title
;
Structure prediction by ZEFSAII (Michael W. Deem and Ramdas Pophale) SiO2 
 PCOD9083858
Probable space group: P -1
;
_chemical_formula_sum "Si O2"
_cell_formula_units_Z 14
_cell_length_a 19.759324
_cell_length_b 15.075839
_cell_length_c 5.173905
_cell_angle_alpha 100.140090
_cell_angle_beta 96.910551
_cell_angle_gamma 21.958342
_cell_volume 563.442042
_symmetry_space_group_name_H-M "P -1"
_symmetry_group_IT_number 2
_symmetry_cell_setting 'triclinic'
loop_
_space_group_symop_operation_xyz
x,y,z
-x,-y,-z
loop_
_atom_site_type_symbol
_atom_site_label
_atom_site_fract_x
_atom_site_fract_y
_atom_site_fract_z
Si Si1 0.802503 0.611750 0.926843
Si Si2 0.059576 0.647786 0.655836
Si Si3 0.553762 0.078601 0.076969
Si Si4 0.594224 0.504605 0.641077
Si Si5 0.947855 0.121402 0.792798
Si Si6 0.587500 0.656162 0.334054
Si Si7 0.221202 0.910722 0.583067
O O1 0.873305 0.500789 0.618783
O O2 0.735790 0.795815 0.018932
O O3 0.937790 0.410602 0.107492
O O4 0.618533 0.777850 0.967518
O O5 0.212863 0.540268 0.686209
O O6 0.873971 0.917872 0.600574
O O7 0.538009 0.163315 0.869549
O O8 0.514629 0.175121 0.377598
O O9 0.731679 0.397705 0.813876
O O10 0.608136 0.527148 0.367414
O O11 0.381976 0.762295 0.733549
O O12 0.677412 0.302477 0.592456
O O13 0.000000 0.000000 0.500000
O O14 0.061991 0.071686 0.782649
O O15 0.000000 0.000000 0.000000
#
# Coordination Sequence:
#
# PCOD9083858 Si02
#       7
#     2   2   2   2   2   2   2
#     4   9  18  33  57  88 119 154 200 250 304 365
#     4  10  19  34  58  87 119 158 200 247 303 358
#     4   9  18  33  57  88 119 154 200 250 304 365
#     4  10  22  41  63  91 127 167 207 253 306 363
#     4  10  22  40  62  86 117 158 205 250 296 354
#     4  10  19  34  58  87 119 158 200 247 303 358
#     4  10  22  41  63  91 127 167 207 253 306 363
#
# _framework density 24.847275
#
# number of rings (size 3 to 8) (size 9 to 14) (size 15 to 20)
#    0.000    2.286    1.429    0.857    0.000    8.571 
#    0.000    7.143    0.000    5.143    0.000    0.000 
#    0.000    0.000    0.000    0.000    0.000    0.000 
#
# Total GULP energy -78381.992436 kJ/mol
# GULP energy per Si atom -5598.713745 kJ/mol
# Density = 2.479072 g / cm^3
# Si number density = 24.847275 Si / 1000 Ang^3
#
#
#
# Elastic Constant Matrix: (Units=GPa)
#
#
# Indices 1 2 3 4 5 6 
#
# 1 62.6256 59.0586 26.9459 -11.6907 1.8069 -14.4298
# 2 59.0586 162.9812 47.5673 -26.6360 6.3558 11.0617
# 3 26.9459 47.5673 118.7485 -29.6317 -8.5733 6.3435
# 4 -11.6907 -26.6360 -29.6317 31.5149 9.4351 0.8250
# 5 1.8069 6.3558 -8.5733 9.4351 20.3948 -2.9759
# 6 -14.4298 11.0617 6.3435 0.8250 -2.9759 55.7176
#
#
#
# Elastic Compliance Matrix: (Units=1/GPa)
#
#
# Indices 1 2 3 4 5 6 
#
# 1 0.029572 -0.010880 -0.003310 -0.002175 0.001893 0.010329
# 2 -0.010880 0.012309 -0.000667 0.008223 -0.007792 -0.005723
# 3 -0.003310 -0.000667 0.011915 0.009186 0.000944 -0.002167
# 4 -0.002175 0.008223 0.009186 0.053903 -0.024224 -0.005334
# 5 0.001893 -0.007792 0.000944 -0.024224 0.063726 0.005692
# 6 0.010329 -0.005723 -0.002167 -0.005334 0.005692 0.022389
#
#
# Mechanical properties :
#
#
# Convention : Reuss Voigt Hill
#
# Bulk Modulus (GPa) = 41.52293 67.94432 54.73362
# Shear Modulus (GPa) = 21.59315 35.57769 28.58542
#
# Velocity S-wave (km/s) = 2.95114 3.78809 3.39550
# Velocity P-wave (km/s) = 5.32539 6.82180 6.11951
#
# Compressibility (1/GPa) = 0.02408308
#
# Stress axis : x y z
#
# Youngs Moduli (GPa) = 33.81631 81.24177 83.92459
#
# Poissons Ratio (x) = 0.88390 0.27778
# Poissons Ratio (y) = 0.36792 0.05595
# Poissons Ratio (z) = 0.11193 0.05416
#
# Static dielectric constant tensor:
#      x y z
#    x 2.035450 -0.011350 0.041660 
#    y -0.011350 1.986230 0.054050 
#    z 0.041660 0.054050 2.021990 
# 
# From -- ./inp_files/105367.got.cif
#   From: 2010.05.17/outbox.cif.g08.bks.cpg/sg2_53_cif.got.tgz:105367.got - 2010.06.03 11:33:40.
