data_PCOD9083337
_publ_section_title
;
Structure prediction by ZEFSAII (Michael W. Deem and Ramdas Pophale) SiO2 
 PCOD9083337
Probable space group: P -1
;
_chemical_formula_sum "Si O2"
_cell_formula_units_Z 15
_cell_length_a 12.770507
_cell_length_b 23.693144
_cell_length_c 11.396956
_cell_angle_alpha 26.349137
_cell_angle_beta 136.334200
_cell_angle_gamma 152.034913
_cell_volume 678.227369
_symmetry_space_group_name_H-M "P -1"
_symmetry_group_IT_number 2
_symmetry_cell_setting 'triclinic'
loop_
_space_group_symop_operation_xyz
x,y,z
-x,-y,-z
loop_
_atom_site_type_symbol
_atom_site_label
_atom_site_fract_x
_atom_site_fract_y
_atom_site_fract_z
Si Si1 0.683875 0.219240 0.485787
Si Si2 0.169649 0.992413 0.519684
Si Si3 0.989854 0.607674 0.884972
Si Si4 0.108917 0.346630 0.672328
Si Si5 0.375321 0.554094 0.280880
Si Si6 0.139033 0.082168 0.082052
Si Si7 0.500000 0.000000 0.500000
Si Si8 0.753820 0.672752 0.943111
O O1 0.423461 0.089546 0.556810
O O2 0.652747 0.126933 0.508089
O O3 0.847189 0.235293 0.668498
O O4 0.836768 0.447165 0.164115
O O5 0.084041 0.957948 0.379746
O O6 0.209461 0.161018 0.286536
O O7 0.965346 0.792143 0.799593
O O8 0.816828 0.590277 0.706339
O O9 0.256722 0.821596 0.715424
O O10 0.000000 0.500000 0.000000
O O11 0.260797 0.520828 0.372859
O O12 0.112166 0.206546 0.881388
O O13 0.221293 0.406664 0.779059
O O14 0.500000 0.500000 0.500000
O O15 0.587047 0.780483 0.984604
O O16 0.000000 0.000000 0.000000
O O17 0.500000 0.500000 0.000000
#
# Coordination Sequence:
#
# PCOD9083337 Si02
#       8
#     2   2   2   2   2   2   1   2
#     4  11  22  38  61  93 134 163 204 259 322 385
#     4  10  23  43  65  93 119 169 212 264 311 380
#     4  10  19  36  53  82 132 169 196 241 303 379
#     4  10  22  40  58  92 127 164 206 268 309 374
#     4  10  19  34  54  86 126 159 198 253 309 362
#     4  10  22  35  61  95 130 164 210 255 321 386
#     4  10  22  34  58  90 136 174 196 226 328 402
#     4  10  24  47  68  84 120 167 223 266 315 364
#
# _framework density 22.116475999999999
#
# number of rings (size 3 to 8) (size 9 to 14) (size 15 to 20)
#    0.000    1.867    4.000    0.000    3.733    1.600 
#    0.000    0.667    0.000    0.000    0.000    0.000 
#    0.000    0.000    0.000    0.000    0.000    0.000 
#
# Total GULP energy -83502.820896 kJ/mol
# GULP energy per Si atom -5566.854726 kJ/mol
# Density = 2.206614 g / cm^3
# Si number density = 22.116476 Si / 1000 Ang^3
#
#
#
# Elastic Constant Matrix: (Units=GPa)
#
#
# Indices 1 2 3 4 5 6 
#
# 1 67.5357 45.2699 33.4249 3.3505 -23.8776 15.5528
# 2 45.2699 198.4500 65.6647 1.8204 -27.7194 7.7277
# 3 33.4249 65.6647 75.2244 -1.6561 -31.9176 -0.8793
# 4 3.3505 1.8204 -1.6561 43.6382 6.4307 -2.7162
# 5 -23.8776 -27.7194 -31.9176 6.4307 37.0585 -2.0687
# 6 15.5528 7.7277 -0.8793 -2.7162 -2.0687 46.0188
#
#
#
# Elastic Compliance Matrix: (Units=1/GPa)
#
#
# Indices 1 2 3 4 5 6 
#
# 1 0.024138 -0.002212 -0.004675 -0.003906 0.010122 -0.007651
# 2 -0.002212 0.007385 -0.005885 -0.000261 -0.000962 -0.000664
# 3 -0.004675 -0.005885 0.027620 -0.000569 0.016685 0.003813
# 4 -0.003906 -0.000261 -0.000569 0.024435 -0.007305 0.002467
# 5 0.010122 -0.000962 0.016685 -0.007305 0.048358 -0.001198
# 6 -0.007651 -0.000664 0.003813 0.002467 -0.001198 0.024592
#
#
# Mechanical properties :
#
#
# Convention : Reuss Voigt Hill
#
# Bulk Modulus (GPa) = 29.76336 69.99214 49.87775
# Shear Modulus (GPa) = 25.87026 38.46648 32.16837
#
# Velocity S-wave (km/s) = 3.42384 4.17498 3.81793
# Velocity P-wave (km/s) = 5.39602 7.41325 6.48357
#
# Compressibility (1/GPa) = 0.03359836
#
# Stress axis : x y z
#
# Youngs Moduli (GPa) = 41.42838 135.41309 36.20580
#
# Poissons Ratio (x) = 0.29948 0.16928
# Poissons Ratio (y) = 0.09162 0.21308
# Poissons Ratio (z) = 0.19369 0.79693
#
# Static dielectric constant tensor:
#      x y z
#    x 0.149420 -2.327890 -1.448130 
#    y -2.327890 -0.341970 -2.155520 
#    z -1.448130 -2.155520 0.727700 
# 
# From -- ./inp_files/458256.got.cif
#   From: 2010.05.17/outbox.cif.g08.bks.cpg/sg2_230_cif.got.tgz:458256.got - 2010.06.03 11:33:40.
