data_PCOD9083569
_publ_section_title
;
Structure prediction by ZEFSAII (Michael W. Deem and Ramdas Pophale) SiO2 
 PCOD9083569
Probable space group: P -1
;
_chemical_formula_sum "Si O2"
_cell_formula_units_Z 16
_cell_length_a 22.705649
_cell_length_b 8.777056
_cell_length_c 13.839734
_cell_angle_alpha 47.338895
_cell_angle_beta 157.487909
_cell_angle_gamma 131.563697
_cell_volume 769.676459
_symmetry_space_group_name_H-M "P -1"
_symmetry_group_IT_number 2
_symmetry_cell_setting 'triclinic'
loop_
_space_group_symop_operation_xyz
x,y,z
-x,-y,-z
loop_
_atom_site_type_symbol
_atom_site_label
_atom_site_fract_x
_atom_site_fract_y
_atom_site_fract_z
Si Si1 0.498141 0.749778 0.193458
Si Si2 0.270447 0.875722 0.637980
Si Si3 0.322890 0.399636 0.214747
Si Si4 0.599934 0.358724 0.412164
Si Si5 0.737144 0.853972 0.083407
Si Si6 0.315628 0.515269 0.711976
Si Si7 0.642795 0.273269 0.727200
Si Si8 0.949367 0.722695 0.292892
O O1 0.406663 0.604853 0.197052
O O2 0.567295 0.589324 0.295515
O O3 0.636438 0.924811 0.359715
O O4 0.370496 0.852490 0.895901
O O5 0.275718 0.673760 0.665637
O O6 0.096525 0.873289 0.411141
O O7 0.456548 0.248856 0.476035
O O8 0.294440 0.497470 0.233709
O O9 0.173252 0.316890 0.963062
O O10 0.710551 0.391454 0.472941
O O11 0.659880 0.261921 0.642186
O O12 0.432606 0.235156 0.181059
O O13 0.759972 0.715439 0.271913
O O14 0.864202 0.814939 0.213894
O O15 0.725972 0.095704 0.979406
O O16 0.500000 0.500000 0.000000
O O17 0.000000 0.500000 0.500000
#
# Coordination Sequence:
#
# PCOD9083569 Si02
#       8
#     2   2   2   2   2   2   2   2
#     4  10  19  35  57  90 117 161 203 250 302 363
#     4  11  21  34  60  88 126 160 198 254 315 366
#     4  10  21  39  64  87 125 161 211 261 300 369
#     4  10  19  37  58  91 121 152 206 264 296 352
#     4  11  20  36  63  97 121 161 206 260 310 362
#     4  10  19  34  56  94 119 155 202 262 298 357
#     4  10  22  38  62  96 119 165 214 255 298 370
#     4  12  20  40  59  93 132 160 199 263 321 362
#
# _framework density 20.787956999999999
#
# number of rings (size 3 to 8) (size 9 to 14) (size 15 to 20)
#    0.000    1.500    7.500    0.375    3.500    0.000 
#    0.000    1.875    0.000   15.750    0.000    0.000 
#    0.000    0.000    0.000    0.000    0.000    0.000 
#
# Total GULP energy -89291.719862 kJ/mol
# GULP energy per Si atom -5580.732491 kJ/mol
# Density = 2.074064 g / cm^3
# Si number density = 20.787957 Si / 1000 Ang^3
#
#
#
# Elastic Constant Matrix: (Units=GPa)
#
#
# Indices 1 2 3 4 5 6 
#
# 1 105.6367 11.9866 19.8358 4.3238 6.8048 9.9878
# 2 11.9866 58.5703 21.6966 -9.9001 12.8634 11.4929
# 3 19.8358 21.6966 55.1887 7.5667 16.0647 1.0188
# 4 4.3238 -9.9001 7.5667 24.3984 -4.2465 8.2620
# 5 6.8048 12.8634 16.0647 -4.2465 19.3425 1.4581
# 6 9.9878 11.4929 1.0188 8.2620 1.4581 27.2921
#
#
#
# Elastic Compliance Matrix: (Units=1/GPa)
#
#
# Indices 1 2 3 4 5 6 
#
# 1 0.010524 0.000228 -0.003844 0.000746 -0.000195 -0.004019
# 2 0.000228 0.030330 -0.014188 0.022788 -0.002022 -0.019116
# 3 -0.003844 -0.014188 0.035858 -0.025854 -0.025819 0.015249
# 4 0.000746 0.022788 -0.025854 0.073386 0.024612 -0.032435
# 5 -0.000195 -0.002022 -0.025819 0.024612 0.080705 -0.009875
# 6 -0.004019 -0.019116 0.015249 -0.032435 -0.009875 0.055939
#
#
# Mechanical properties :
#
#
# Convention : Reuss Voigt Hill
#
# Bulk Modulus (GPa) = 24.32884 36.27043 30.29964
# Shear Modulus (GPa) = 14.87867 25.26506 20.07187
#
# Velocity S-wave (km/s) = 2.67822 3.49000 3.11071
# Velocity P-wave (km/s) = 4.61439 5.80739 5.24492
#
# Compressibility (1/GPa) = 0.04110347
#
# Stress axis : x y z
#
# Youngs Moduli (GPa) = 95.01808 32.97069 27.88789
#
# Poissons Ratio (x) = -0.00750 0.10719
# Poissons Ratio (y) = -0.02163 0.39568
# Poissons Ratio (z) = 0.36521 0.46780
#
# Static dielectric constant tensor:
#      x y z
#    x 1.825720 0.019090 -0.051550 
#    y 0.019090 1.776320 -0.016560 
#    z -0.051550 -0.016560 1.740420 
# 
# From -- ./inp_files/542518.got.cif
#   From: 2010.05.17/outbox.cif.g08.bks.cpg/sg2_272_cif.got.tgz:542518.got - 2010.06.03 11:33:40.
