data_PCOD9084915
_publ_section_title
;
Structure prediction by ZEFSAII (Michael W. Deem and Ramdas Pophale) SiO2 
 PCOD9084915
Probable space group: P -1
;
_chemical_formula_sum "Si O2"
_cell_formula_units_Z 16
_cell_length_a 15.013484
_cell_length_b 28.942484
_cell_length_c 8.854318
_cell_angle_alpha 146.569077
_cell_angle_beta 36.537334
_cell_angle_gamma 161.583313
_cell_volume 668.155387
_symmetry_space_group_name_H-M "P -1"
_symmetry_group_IT_number 2
_symmetry_cell_setting 'triclinic'
loop_
_space_group_symop_operation_xyz
x,y,z
-x,-y,-z
loop_
_atom_site_type_symbol
_atom_site_label
_atom_site_fract_x
_atom_site_fract_y
_atom_site_fract_z
Si Si1 0.369824 0.544521 0.190459
Si Si2 0.663351 0.634741 0.764834
Si Si3 0.620638 0.746162 0.903399
Si Si4 0.878640 0.366112 0.153204
Si Si5 0.732630 0.875273 0.637970
Si Si6 0.114656 0.464094 0.598466
Si Si7 0.786257 0.201161 0.557220
Si Si8 0.222586 0.010091 0.785176
O O1 0.618340 0.725930 0.399700
O O2 0.208527 0.443915 0.286506
O O3 0.127682 0.474161 0.227145
O O4 0.515115 0.550381 0.895332
O O5 0.500000 0.500000 0.500000
O O6 0.598890 0.698940 0.972409
O O7 0.996284 0.771767 0.690237
O O8 0.357698 0.597777 0.754258
O O9 0.682833 0.873577 0.145082
O O10 0.904845 0.834473 0.700187
O O11 0.567588 0.223075 0.264949
O O12 0.925961 0.468557 0.255638
O O13 0.869707 0.283519 0.826278
O O14 0.788591 0.944542 0.914690
O O15 0.000000 0.000000 0.500000
O O16 0.868763 0.307139 0.602794
O O17 0.446187 0.041259 0.576531
#
# Coordination Sequence:
#
# PCOD9084915 Si02
#       8
#     2   2   2   2   2   2   2   2
#     4  11  22  38  56  90 126 155 199 252 308 352
#     4  12  24  38  63  90 122 166 202 245 299 366
#     4  11  21  41  62  91 118 158 204 250 296 353
#     4  10  20  37  58  88 124 156 200 251 300 357
#     4  10  19  35  57  91 119 153 194 252 303 350
#     4  11  20  36  61  91 119 156 200 264 292 349
#     4  11  22  39  61  91 120 160 207 238 304 361
#     4  10  23  40  65  92 117 162 204 249 300 358
#
# _framework density 23.946525999999999
#
# number of rings (size 3 to 8) (size 9 to 14) (size 15 to 20)
#    0.000    1.250    6.250    2.625    1.750    1.000 
#    4.500    0.000    0.000    0.750    0.000    0.000 
#    0.000    0.000    0.000    0.000    0.000    0.000 
#
# Total GULP energy -89364.605391 kJ/mol
# GULP energy per Si atom -5585.287837 kJ/mol
# Density = 2.389202 g / cm^3
# Si number density = 23.946526 Si / 1000 Ang^3
#
#
#
# Elastic Constant Matrix: (Units=GPa)
#
#
# Indices 1 2 3 4 5 6 
#
# 1 125.3173 33.1735 16.0345 -11.4595 -27.0220 23.7919
# 2 33.1735 109.3963 22.0251 -28.7562 3.3018 14.3363
# 3 16.0345 22.0251 82.5392 -26.1364 9.5826 1.0326
# 4 -11.4595 -28.7562 -26.1364 41.8670 1.3461 -6.8382
# 5 -27.0220 3.3018 9.5826 1.3461 26.7544 -4.8848
# 6 23.7919 14.3363 1.0326 -6.8382 -4.8848 29.6363
#
#
#
# Elastic Compliance Matrix: (Units=1/GPa)
#
#
# Indices 1 2 3 4 5 6 
#
# 1 0.013787 -0.003586 -0.004307 -0.003071 0.014701 -0.007469
# 2 -0.003586 0.012704 0.000560 0.007887 -0.006243 -0.002496
# 3 -0.004307 0.000560 0.017480 0.011009 -0.010619 0.003368
# 4 -0.003071 0.007887 0.011009 0.036473 -0.008901 0.005215
# 5 0.014701 -0.006243 -0.010619 -0.008901 0.057053 -0.001062
# 6 -0.007469 -0.002496 0.003368 0.005215 -0.001062 0.041856
#
#
# Mechanical properties :
#
#
# Convention : Reuss Voigt Hill
#
# Bulk Modulus (GPa) = 34.12347 51.07988 42.60167
# Shear Modulus (GPa) = 24.53531 36.05286 30.29409
#
# Velocity S-wave (km/s) = 3.20439 3.88436 3.56064
# Velocity P-wave (km/s) = 5.28882 6.44165 5.89349
#
# Compressibility (1/GPa) = 0.02930534
#
# Stress axis : x y z
#
# Youngs Moduli (GPa) = 72.53047 78.71291 57.20951
#
# Poissons Ratio (x) = 0.28225 0.24641
# Poissons Ratio (y) = 0.26008 -0.03204
# Poissons Ratio (z) = 0.31240 -0.04408
#
# Static dielectric constant tensor:
#      x y z
#    x 1.949820 -0.032150 -0.067950 
#    y -0.032150 1.957860 -0.050920 
#    z -0.067950 -0.050920 1.988390 
# 
# From -- ./inp_files/321071.got.cif
#   From: 2010.05.17/outbox.cif.g08.bks.cpg/sg2_161_cif.got.tgz:321071.got - 2010.06.03 11:33:40.
