data_PCOD9084642
_publ_section_title
;
Structure prediction by ZEFSAII (Michael W. Deem and Ramdas Pophale) SiO2 
 PCOD9084642
Probable space group: P -1
;
_chemical_formula_sum "Si O2"
_cell_formula_units_Z 16
_cell_length_a 11.153403
_cell_length_b 9.961177
_cell_length_c 13.544959
_cell_angle_alpha 47.704690
_cell_angle_beta 85.470666
_cell_angle_gamma 49.962589
_cell_volume 665.298227
_symmetry_space_group_name_H-M "P -1"
_symmetry_group_IT_number 2
_symmetry_cell_setting 'triclinic'
loop_
_space_group_symop_operation_xyz
x,y,z
-x,-y,-z
loop_
_atom_site_type_symbol
_atom_site_label
_atom_site_fract_x
_atom_site_fract_y
_atom_site_fract_z
Si Si1 0.748453 0.616822 0.812733
Si Si2 0.655485 0.155086 0.018567
Si Si3 0.609950 0.073818 0.737625
Si Si4 0.700708 0.420971 0.736130
Si Si5 0.811528 0.273080 0.289546
Si Si6 0.912722 0.057641 0.184030
Si Si7 0.847816 0.653864 0.122127
Si Si8 0.684172 0.278612 0.494186
O O1 0.662765 0.626749 0.715038
O O2 0.933460 0.521467 0.816142
O O3 0.601976 0.915700 0.741036
O O4 0.833732 0.348907 0.006652
O O5 0.743120 0.116429 0.135222
O O6 0.737412 0.862939 0.123041
O O7 0.746750 0.188442 0.916049
O O8 0.418096 0.456289 0.871849
O O9 0.746507 0.068067 0.681638
O O10 0.407857 0.422140 0.608215
O O11 0.717890 0.877931 0.926322
O O12 0.508287 0.599877 0.597036
O O13 0.888362 0.230023 0.747881
O O14 0.941770 0.033046 0.311293
O O15 0.849885 0.436934 0.225063
O O16 0.809773 0.165554 0.444647
#
# Coordination Sequence:
#
# PCOD9084642 Si02
#       8
#     2   2   2   2   2   2   2   2
#     4  11  21  35  63  95 113 154 203 254 285 346
#     4  10  19  35  55  89 126 151 187 250 302 345
#     4  11  22  39  63  85 122 157 206 234 295 356
#     4  10  19  38  62  86 121 155 204 241 290 350
#     4  11  23  34  59  91 126 152 192 248 307 344
#     4  11  19  35  61  94 118 151 196 254 298 342
#     4  12  20  36  63  94 120 144 200 255 295 342
#     4  10  24  43  59  85 122 166 193 241 293 365
#
# _framework density 24.049365000000002
#
# number of rings (size 3 to 8) (size 9 to 14) (size 15 to 20)
#    0.000    1.250    6.250    1.875    1.750    0.500 
#    0.000    0.625    0.000    0.750    0.000    0.000 
#    0.000    0.000    0.000    0.000    0.000    0.000 
#
# Total GULP energy -89666.691080 kJ/mol
# GULP energy per Si atom -5604.168192 kJ/mol
# Density = 2.399463 g / cm^3
# Si number density = 24.049365 Si / 1000 Ang^3
#
#
#
# Elastic Constant Matrix: (Units=GPa)
#
#
# Indices 1 2 3 4 5 6 
#
# 1 88.1268 46.6714 26.7312 -5.2428 -0.8974 15.1918
# 2 46.6714 164.8346 27.1291 -4.8657 -4.5422 27.2061
# 3 26.7312 27.1291 79.0902 2.2929 -13.3406 10.9311
# 4 -5.2428 -4.8657 2.2929 35.6502 -5.0555 -1.7007
# 5 -0.8974 -4.5422 -13.3406 -5.0555 21.2365 -1.0033
# 6 15.1918 27.2061 10.9311 -1.7007 -1.0033 48.6639
#
#
#
# Elastic Compliance Matrix: (Units=1/GPa)
#
#
# Indices 1 2 3 4 5 6 
#
# 1 0.014655 -0.003193 -0.004034 0.001561 -0.002315 -0.001877
# 2 -0.003193 0.007679 -0.001005 0.000624 0.000881 -0.003030
# 3 -0.004034 -0.001005 0.016213 -0.000489 0.009606 -0.001640
# 4 0.001561 0.000624 -0.000489 0.029398 0.006911 0.000444
# 5 -0.002315 0.000881 0.009606 0.006911 0.054832 -0.000556
# 6 -0.001877 -0.003030 -0.001640 0.000444 -0.000556 0.023202
#
#
# Mechanical properties :
#
#
# Convention : Reuss Voigt Hill
#
# Bulk Modulus (GPa) = 45.28684 59.23500 52.26092
# Shear Modulus (GPa) = 29.44549 36.54478 32.99514
#
# Velocity S-wave (km/s) = 3.50291 3.90240 3.70804
# Velocity P-wave (km/s) = 5.93567 6.70739 6.33329
#
# Compressibility (1/GPa) = 0.02208147
#
# Stress axis : x y z
#
# Youngs Moduli (GPa) = 68.23626 130.22167 61.67851
#
# Poissons Ratio (x) = 0.41586 0.24882
# Poissons Ratio (y) = 0.21791 0.06201
# Poissons Ratio (z) = 0.27527 0.13092
#
# Static dielectric constant tensor:
#      x y z
#    x 1.965130 -0.032260 0.043530 
#    y -0.032260 1.945100 0.001540 
#    z 0.043530 0.001540 1.915060 
# 
# From -- ./inp_files/260694.got.cif
#   From: 2010.05.17/outbox.cif.g08.bks.cpg/sg2_131_cif.got.tgz:260694.got - 2010.06.03 11:33:40.
