data_PCOD9084799
_publ_section_title
;
Structure prediction by ZEFSAII (Michael W. Deem and Ramdas Pophale) SiO2 
 PCOD9084799
Probable space group: P -1
;
_chemical_formula_sum "Si O2"
_cell_formula_units_Z 16
_cell_length_a 5.292184
_cell_length_b 18.621425
_cell_length_c 8.154440
_cell_angle_alpha 75.100397
_cell_angle_beta 117.792375
_cell_angle_gamma 96.809488
_cell_volume 686.999633
_symmetry_space_group_name_H-M "P -1"
_symmetry_group_IT_number 2
_symmetry_cell_setting 'triclinic'
loop_
_space_group_symop_operation_xyz
x,y,z
-x,-y,-z
loop_
_atom_site_type_symbol
_atom_site_label
_atom_site_fract_x
_atom_site_fract_y
_atom_site_fract_z
Si Si1 0.442056 0.316684 0.846838
Si Si2 0.620566 0.779580 0.397284
Si Si3 0.821719 0.242580 0.240919
Si Si4 0.711722 0.569127 0.986949
Si Si5 0.262241 0.557398 0.342905
Si Si6 0.306979 0.064088 0.624147
Si Si7 0.366323 0.914099 0.624889
Si Si8 0.338446 0.652028 0.585596
O O1 0.271628 0.259593 0.714031
O O2 0.311541 0.359670 0.937277
O O3 0.555284 0.380469 0.728353
O O4 0.720276 0.271250 0.019399
O O5 0.543436 0.864931 0.288354
O O6 0.400853 0.723037 0.447656
O O7 0.861415 0.783288 0.609016
O O8 0.627577 0.171277 0.267017
O O9 0.789846 0.313084 0.310486
O O10 0.019463 0.536992 0.151694
O O11 0.500000 0.500000 0.000000
O O12 0.617448 0.606197 0.763661
O O13 0.500000 0.500000 0.500000
O O14 0.152223 0.593836 0.459271
O O15 0.406628 0.073922 0.458265
O O16 0.964789 0.072050 0.542693
O O17 0.400884 0.978930 0.733581
#
# Coordination Sequence:
#
# PCOD9084799 Si02
#       8
#     2   2   2   2   2   2   2   2
#     4  10  23  38  57  86 114 148 200 246 299 360
#     4  10  19  35  57  81 113 154 194 244 298 355
#     4  10  19  35  57  81 113 154 194 244 298 355
#     4  11  24  40  59  84 114 150 195 249 307 373
#     4  11  24  40  59  84 114 150 195 249 307 373
#     4   9  17  31  56  88 121 161 206 247 298 362
#     4   9  17  31  56  88 121 161 206 247 298 362
#     4  10  21  36  57  80 110 148 194 238 307 358
#
# _framework density 23.289681000000002
#
# number of rings (size 3 to 8) (size 9 to 14) (size 15 to 20)
#    0.000    2.000    1.250    2.250    0.000    8.000 
#    0.000    0.625    0.000    0.000    0.000    8.750 
#    0.000    0.000    0.000    0.000    0.000    0.000 
#
# Total GULP energy -89146.444771 kJ/mol
# GULP energy per Si atom -5571.652798 kJ/mol
# Density = 2.323667 g / cm^3
# Si number density = 23.289681 Si / 1000 Ang^3
#
#
#
# Elastic Constant Matrix: (Units=GPa)
#
#
# Indices 1 2 3 4 5 6 
#
# 1 55.6343 14.2390 5.5718 7.0890 6.5202 -3.1524
# 2 14.2390 127.8695 38.6832 11.6165 3.9894 -4.0896
# 3 5.5718 38.6832 89.9013 14.2537 7.8607 -8.3263
# 4 7.0890 11.6165 14.2537 15.1972 6.0243 4.2102
# 5 6.5202 3.9894 7.8607 6.0243 23.5392 -2.4813
# 6 -3.1524 -4.0896 -8.3263 4.2102 -2.4813 27.7725
#
#
#
# Elastic Compliance Matrix: (Units=1/GPa)
#
#
# Indices 1 2 3 4 5 6 
#
# 1 0.019986 -0.001634 0.001545 -0.009342 -0.003001 0.003639
# 2 -0.001634 0.009359 -0.003308 -0.003966 0.001081 0.000899
# 3 0.001545 -0.003308 0.015328 -0.014040 -0.000724 0.006347
# 4 -0.009342 -0.003966 -0.014040 0.100741 -0.020252 -0.022935
# 5 -0.003001 0.001081 -0.000724 -0.020252 0.049301 0.007076
# 6 0.003639 0.000899 0.006347 -0.022935 0.007076 0.042564
#
#
# Mechanical properties :
#
#
# Convention : Reuss Voigt Hill
#
# Bulk Modulus (GPa) = 26.40034 43.37700 34.88867
# Shear Modulus (GPa) = 19.47802 27.62918 23.55360
#
# Velocity S-wave (km/s) = 2.89509 3.44805 3.18360
# Velocity P-wave (km/s) = 4.74717 5.87516 5.34102
#
# Compressibility (1/GPa) = 0.03787830
#
# Stress axis : x y z
#
# Youngs Moduli (GPa) = 50.03433 106.85440 65.23934
#
# Poissons Ratio (x) = 0.17464 -0.10080
# Poissons Ratio (y) = 0.08177 0.21582
# Poissons Ratio (z) = -0.07731 0.35348
#
# Static dielectric constant tensor:
#      x y z
#    x 1.941630 -0.093600 -0.002460 
#    y -0.093600 1.995470 -0.002340 
#    z -0.002460 -0.002340 1.879080 
# 
# From -- ./inp_files/52624.got.cif
#   From: 2010.05.17/outbox.cif.g08.bks.cpg/sg2_27_cif.got.tgz:52624.got - 2010.06.03 11:33:40.
