data_PCOD9084167
_publ_section_title
;
Structure prediction by ZEFSAII (Michael W. Deem and Ramdas Pophale) SiO2 
 PCOD9084167
Probable space group: P -1
;
_chemical_formula_sum "Si O2"
_cell_formula_units_Z 16
_cell_length_a 9.332730
_cell_length_b 23.739057
_cell_length_c 9.691855
_cell_angle_alpha 50.465095
_cell_angle_beta 85.834041
_cell_angle_gamma 44.474662
_cell_volume 821.451084
_symmetry_space_group_name_H-M "P -1"
_symmetry_group_IT_number 2
_symmetry_cell_setting 'triclinic'
loop_
_space_group_symop_operation_xyz
x,y,z
-x,-y,-z
loop_
_atom_site_type_symbol
_atom_site_label
_atom_site_fract_x
_atom_site_fract_y
_atom_site_fract_z
Si Si1 0.657943 0.810738 0.754488
Si Si2 0.753387 0.263944 0.874845
Si Si3 0.680816 0.918835 0.803703
Si Si4 0.196682 0.920279 0.746638
Si Si5 0.937865 0.870926 0.422762
Si Si6 0.445466 0.624564 0.577108
Si Si7 0.128171 0.519547 0.012155
Si Si8 0.407611 0.607245 0.013932
O O1 0.785556 0.807780 0.867540
O O2 0.508892 0.808010 0.843813
O O3 0.876167 0.685172 0.821237
O O4 0.409918 0.970657 0.453756
O O5 0.549566 0.370997 0.593759
O O6 0.638223 0.341452 0.910083
O O7 0.799623 0.157141 0.052986
O O8 0.058598 0.171013 0.979048
O O9 0.381521 0.022494 0.728479
O O10 0.000000 0.000000 0.500000
O O11 0.088756 0.034359 0.670831
O O12 0.125432 0.782493 0.409959
O O13 0.127411 0.746585 0.721310
O O14 0.525562 0.507644 0.801585
O O15 0.665878 0.579534 0.713644
O O16 0.329297 0.467411 0.963392
O O17 0.000000 0.500000 0.000000
#
# Coordination Sequence:
#
# PCOD9084167 Si02
#       8
#     2   2   2   2   2   2   2   2
#     4  10  19  35  59  91 111 145 208 247 282 340
#     4  12  23  38  61  90 122 159 195 243 308 353
#     4  10  19  34  61  87 114 150 197 249 290 345
#     4  11  20  37  61  89 118 157 194 248 293 352
#     4  10  21  39  62  88 117 152 206 247 290 347
#     4  11  25  40  58  89 127 158 193 246 301 353
#     4  11  23  39  63  87 114 159 203 245 283 354
#     4  11  21  41  63  86 120 159 203 241 293 351
#
# _framework density 19.477727000000002
#
# number of rings (size 3 to 8) (size 9 to 14) (size 15 to 20)
#    0.000    1.250    2.500    6.375    1.750    1.000 
#    0.000    5.000    0.000    0.000    0.000    0.000 
#    0.000    0.000    0.000    0.000    0.000    0.000 
#
# Total GULP energy -89425.763412 kJ/mol
# GULP energy per Si atom -5589.110213 kJ/mol
# Density = 1.943339 g / cm^3
# Si number density = 19.477727 Si / 1000 Ang^3
#
#
#
# Elastic Constant Matrix: (Units=GPa)
#
#
# Indices 1 2 3 4 5 6 
#
# 1 127.8651 30.7946 44.6752 -8.1716 14.8026 13.9203
# 2 30.7946 104.2637 28.7454 -12.7571 8.9580 2.5144
# 3 44.6752 28.7454 61.8037 13.0263 14.1994 6.8461
# 4 -8.1716 -12.7571 13.0263 34.4921 3.5992 0.8427
# 5 14.8026 8.9580 14.1994 3.5992 18.5515 -3.2032
# 6 13.9203 2.5144 6.8461 0.8427 -3.2032 22.3902
#
#
#
# Elastic Compliance Matrix: (Units=1/GPa)
#
#
# Indices 1 2 3 4 5 6 
#
# 1 0.012638 0.000189 -0.008624 0.007108 -0.006054 -0.006375
# 2 0.000189 0.012620 -0.007088 0.007628 -0.002296 0.000017
# 3 -0.008624 -0.007088 0.032341 -0.015476 -0.012295 -0.004907
# 4 0.007108 0.007628 -0.015476 0.040015 -0.005770 -0.002875
# 5 -0.006054 -0.002296 -0.012295 -0.005770 0.073571 0.018523
# 6 -0.006375 0.000017 -0.004907 -0.002875 0.018523 0.052883
#
#
# Mechanical properties :
#
#
# Convention : Reuss Voigt Hill
#
# Bulk Modulus (GPa) = 37.66286 55.81811 46.74049
# Shear Modulus (GPa) = 18.94193 27.73457 23.33825
#
# Velocity S-wave (km/s) = 3.12186 3.77757 3.46526
# Velocity P-wave (km/s) = 5.68973 6.90987 6.32927
#
# Compressibility (1/GPa) = 0.02655135
#
# Stress axis : x y z
#
# Youngs Moduli (GPa) = 79.12875 79.24097 30.92028
#
# Poissons Ratio (x) = -0.01495 0.26666
# Poissons Ratio (y) = -0.01493 0.21917
# Poissons Ratio (z) = 0.68242 0.56167
#
# Static dielectric constant tensor:
#      x y z
#    x 1.697240 -0.012930 0.024930 
#    y -0.012930 1.697940 -0.021300 
#    z 0.024930 -0.021300 1.668560 
# 
# From -- ./inp_files/205233.got.cif
#   From: 2010.05.17/outbox.cif.g08.bks.cpg/sg2_103_cif.got.tgz:205233.got - 2010.06.03 11:33:40.
