data_PCOD9084707
_publ_section_title
;
Structure prediction by ZEFSAII (Michael W. Deem and Ramdas Pophale) SiO2 
 PCOD9084707
Probable space group: P -1
;
_chemical_formula_sum "Si O2"
_cell_formula_units_Z 12
_cell_length_a 10.759762
_cell_length_b 7.377028
_cell_length_c 14.279132
_cell_angle_alpha 55.708017
_cell_angle_beta 42.546974
_cell_angle_gamma 39.292209
_cell_volume 485.284227
_symmetry_space_group_name_H-M "P -1"
_symmetry_group_IT_number 2
_symmetry_cell_setting 'triclinic'
loop_
_space_group_symop_operation_xyz
x,y,z
-x,-y,-z
loop_
_atom_site_type_symbol
_atom_site_label
_atom_site_fract_x
_atom_site_fract_y
_atom_site_fract_z
Si Si1 0.110436 0.101951 0.045907
Si Si2 0.464345 0.177670 0.753154
Si Si3 0.441425 0.412702 0.384738
Si Si4 0.250868 0.209009 0.677436
Si Si5 0.290177 0.877542 0.198201
Si Si6 0.770913 0.407011 0.979285
O O1 0.089438 0.082666 0.174068
O O2 0.266390 0.785201 0.004139
O O3 0.242215 0.229669 0.913318
O O4 0.874381 0.267202 0.065254
O O5 0.459160 0.443098 0.664772
O O6 0.446889 0.087212 0.687333
O O7 0.680384 0.998707 0.760860
O O8 0.257834 0.418797 0.548913
O O9 0.312569 0.613679 0.304890
O O10 0.651670 0.076877 0.348232
O O11 0.991282 0.360261 0.820839
O O12 0.529364 0.717719 0.047717
#
# Coordination Sequence:
#
# PCOD9084707 Si02
#       6
#     2   2   2   2   2   2
#     4  10  19  35  56  84 119 141 186 238 273 333
#     4   9  20  33  60  84 110 152 187 227 283 330
#     4   9  20  34  60  83 109 155 188 224 285 329
#     4  10  19  38  54  86 117 143 194 231 270 344
#     4  10  20  35  57  88 110 148 188 229 283 329
#     4  10  21  35  59  87 110 152 186 230 285 325
#
# _framework density 24.727775999999999
#
# number of rings (size 3 to 8) (size 9 to 14) (size 15 to 20)
#    1.000    1.333    0.000    4.500    0.000    2.667 
#    0.000    0.833    0.000    5.000    0.000    0.000 
#    0.000    0.000    0.000    0.000    0.000    0.000 
#
# Total GULP energy -66986.141213 kJ/mol
# GULP energy per Si atom -5582.178434 kJ/mol
# Density = 2.467149 g / cm^3
# Si number density = 24.727776 Si / 1000 Ang^3
#
#
#
# Elastic Constant Matrix: (Units=GPa)
#
#
# Indices 1 2 3 4 5 6 
#
# 1 110.6984 12.0305 23.4150 -11.5072 -1.9692 8.1807
# 2 12.0305 53.6949 21.5849 -8.3095 -14.4172 -0.3569
# 3 23.4150 21.5849 166.2140 -30.3377 -10.5308 -8.2602
# 4 -11.5072 -8.3095 -30.3377 40.0368 4.2811 2.1001
# 5 -1.9692 -14.4172 -10.5308 4.2811 29.5518 -13.4388
# 6 8.1807 -0.3569 -8.2602 2.1001 -13.4388 37.9490
#
#
#
# Elastic Compliance Matrix: (Units=1/GPa)
#
#
# Indices 1 2 3 4 5 6 
#
# 1 0.009922 -0.002213 -0.001078 0.002042 -0.002669 -0.003452
# 2 -0.002213 0.023367 -0.001396 0.001543 0.012719 0.004812
# 3 -0.001078 -0.001396 0.007472 0.004687 0.002327 0.002410
# 4 0.002042 0.001543 0.004687 0.029827 -0.002672 -0.002002
# 5 -0.002669 0.012719 0.002327 -0.002672 0.049700 0.018949
# 6 -0.003452 0.004812 0.002410 -0.002002 0.018949 0.034487
#
#
# Mechanical properties :
#
#
# Convention : Reuss Voigt Hill
#
# Bulk Modulus (GPa) = 31.86108 49.40757 40.63432
# Shear Modulus (GPa) = 28.63502 39.74598 34.19050
#
# Velocity S-wave (km/s) = 3.40665 4.01352 3.72247
# Velocity P-wave (km/s) = 5.32789 6.44218 5.91135
#
# Compressibility (1/GPa) = 0.03138625
#
# Stress axis : x y z
#
# Youngs Moduli (GPa) = 100.78541 42.79580 133.82829
#
# Poissons Ratio (x) = 0.09471 0.14431
# Poissons Ratio (y) = 0.22305 0.18683
# Poissons Ratio (z) = 0.10868 0.05974
#
# Static dielectric constant tensor:
#      x y z
#    x 1.937030 0.006090 0.016720 
#    y 0.006090 2.013440 -0.013010 
#    z 0.016720 -0.013010 1.968940 
# 
# From -- ./inp_files/395068.got.cif
#   From: 2010.05.17/outbox.cif.g08.bks.cpg/sg2_198_cif.got.tgz:395068.got - 2010.06.03 11:33:40.
