data_PCOD9084191
_publ_section_title
;
Structure prediction by ZEFSAII (Michael W. Deem and Ramdas Pophale) SiO2 
 PCOD9084191
Probable space group: P -1
;
_chemical_formula_sum "Si O2"
_cell_formula_units_Z 12
_cell_length_a 7.438123
_cell_length_b 15.920094
_cell_length_c 9.255406
_cell_angle_alpha 146.753801
_cell_angle_beta 114.195704
_cell_angle_gamma 77.144121
_cell_volume 531.987774
_symmetry_space_group_name_H-M "P -1"
_symmetry_group_IT_number 2
_symmetry_cell_setting 'triclinic'
loop_
_space_group_symop_operation_xyz
x,y,z
-x,-y,-z
loop_
_atom_site_type_symbol
_atom_site_label
_atom_site_fract_x
_atom_site_fract_y
_atom_site_fract_z
Si Si1 0.938471 0.502385 0.316324
Si Si2 0.157458 0.038854 0.237229
Si Si3 0.195867 0.161679 0.722290
Si Si4 0.817487 0.156613 0.788291
Si Si5 0.406504 0.345150 0.650304
Si Si6 0.636555 0.493097 0.674709
O O1 0.815823 0.631289 0.429660
O O2 0.000000 0.500000 0.500000
O O3 0.141218 0.523738 0.320183
O O4 0.790540 0.327641 0.987962
O O5 0.359598 0.169818 0.447996
O O6 0.190963 0.880112 0.096386
O O7 0.080761 0.119784 0.470410
O O8 0.000000 0.000000 0.000000
O O9 0.043773 0.167288 0.811552
O O10 0.298833 0.013522 0.559543
O O11 0.338583 0.332769 0.999534
O O12 0.534054 0.364903 0.573359
O O13 0.500000 0.500000 0.000000
O O14 0.500000 0.500000 0.500000
#
# Coordination Sequence:
#
# PCOD9084191 Si02
#       6
#     2   2   2   2   2   2
#     4  11  22  39  68  94 120 171 220 256 310 388
#     4  10  19  34  61  89 128 165 199 263 327 362
#     4   8  17  35  58  87 119 163 212 247 307 379
#     4   8  17  36  59  83 119 163 211 243 306 377
#     4  12  24  41  63  97 132 161 211 271 320 366
#     4  11  22  40  65  93 126 170 215 261 312 386
#
# _framework density 22.556909999999998
#
# number of rings (size 3 to 8) (size 9 to 14) (size 15 to 20)
#    1.000    1.000    3.333    1.000    2.333    0.667 
#    0.000    3.333    0.000    6.000    0.000    0.000 
#    0.000    0.000    0.000    0.000    0.000    0.000 
#
# Total GULP energy -66851.553902 kJ/mol
# GULP energy per Si atom -5570.962825 kJ/mol
# Density = 2.250557 g / cm^3
# Si number density = 22.556910 Si / 1000 Ang^3
#
#
#
# Elastic Constant Matrix: (Units=GPa)
#
#
# Indices 1 2 3 4 5 6 
#
# 1 102.8825 46.7919 16.6767 10.9768 8.0082 21.7796
# 2 46.7919 93.0101 19.4182 11.2688 10.5038 34.1882
# 3 16.6767 19.4182 80.1332 2.5333 10.0188 9.1282
# 4 10.9768 11.2688 2.5333 45.4663 -0.6441 7.9703
# 5 8.0082 10.5038 10.0188 -0.6441 22.7331 8.6911
# 6 21.7796 34.1882 9.1282 7.9703 8.6911 43.9099
#
#
#
# Elastic Compliance Matrix: (Units=1/GPa)
#
#
# Indices 1 2 3 4 5 6 
#
# 1 0.012912 -0.005442 -0.001021 -0.001468 -0.001060 -0.001479
# 2 -0.005442 0.018032 -0.001802 -0.001255 -0.001678 -0.010406
# 3 -0.001021 -0.001802 0.013739 -0.000150 -0.004885 0.000048
# 4 -0.001468 -0.001255 -0.000150 0.023250 0.002998 -0.003078
# 5 -0.001060 -0.001678 -0.004885 0.002998 0.050301 -0.007653
# 6 -0.001479 -0.010406 0.000048 -0.003078 -0.007653 0.033673
#
#
# Mechanical properties :
#
#
# Convention : Reuss Voigt Hill
#
# Bulk Modulus (GPa) = 35.52040 49.08882 42.30461
# Shear Modulus (GPa) = 28.11816 35.29781 31.70799
#
# Velocity S-wave (km/s) = 3.53447 3.96009 3.75332
# Velocity P-wave (km/s) = 5.69542 6.53599 6.13013
#
# Compressibility (1/GPa) = 0.02815284
#
# Stress axis : x y z
#
# Youngs Moduli (GPa) = 77.44437 55.45743 72.78814
#
# Poissons Ratio (x) = 0.30178 0.07433
# Poissons Ratio (y) = 0.42142 0.13119
# Poissons Ratio (z) = 0.07908 0.09995
#
# Static dielectric constant tensor:
#      x y z
#    x 1.814420 0.022740 0.028490 
#    y 0.022740 1.867620 0.002940 
#    z 0.028490 0.002940 1.909160 
# 
# From -- ./inp_files/183632.got.cif
#   From: 2010.05.17/outbox.cif.g08.bks.cpg/sg2_92_cif.got.tgz:183632.got - 2010.06.03 11:33:40.
