data_PCOD9084359
_publ_section_title
;
Structure prediction by ZEFSAII (Michael W. Deem and Ramdas Pophale) SiO2 
 PCOD9084359
Probable space group: P -1
;
_chemical_formula_sum "Si O2"
_cell_formula_units_Z 16
_cell_length_a 11.969461
_cell_length_b 13.725252
_cell_length_c 13.972046
_cell_angle_alpha 147.293038
_cell_angle_beta 117.687454
_cell_angle_gamma 41.082722
_cell_volume 716.074211
_symmetry_space_group_name_H-M "P -1"
_symmetry_group_IT_number 2
_symmetry_cell_setting 'triclinic'
loop_
_space_group_symop_operation_xyz
x,y,z
-x,-y,-z
loop_
_atom_site_type_symbol
_atom_site_label
_atom_site_fract_x
_atom_site_fract_y
_atom_site_fract_z
Si Si1 0.907063 0.963790 0.044529
Si Si2 0.067839 0.679777 0.065824
Si Si3 0.693929 0.485575 0.508474
Si Si4 0.970952 0.621684 0.486854
Si Si5 0.314768 0.736055 0.288088
Si Si6 0.717794 0.168321 0.425626
Si Si7 0.292458 0.183977 0.616066
Si Si8 0.252986 0.844223 0.053534
O O1 0.927295 0.839991 0.049891
O O2 0.117453 0.814651 0.978757
O O3 0.780464 0.276089 0.281683
O O4 0.799688 0.003092 0.942267
O O5 0.169504 0.760940 0.195517
O O6 0.232240 0.362240 0.833987
O O7 0.912641 0.837007 0.219703
O O8 0.717792 0.337009 0.490200
O O9 0.468678 0.747746 0.609906
O O10 0.831073 0.510784 0.585799
O O11 0.864765 0.610052 0.359594
O O12 0.000000 0.500000 0.500000
O O13 0.820209 0.947480 0.719519
O O14 0.301218 0.728143 0.390895
O O15 0.279829 0.985766 0.468216
O O16 0.526837 0.451257 0.100730
O O17 0.500000 0.000000 0.500000
#
# Coordination Sequence:
#
# PCOD9084359 Si02
#       8
#     2   2   2   2   2   2   2   2
#     4   9  17  34  60  90 122 159 216 270 320 379
#     4  11  24  42  64  93 132 177 221 271 332 393
#     4   9  19  39  66  99 126 170 223 276 325 387
#     4  11  24  41  67  97 139 169 220 284 333 391
#     4  12  24  42  67  97 135 176 222 271 330 403
#     4  10  21  40  69  94 131 175 227 271 322 398
#     4  12  27  43  65  99 138 175 219 277 339 397
#     4  10  19  34  63  93 121 170 215 264 330 386
#
# _framework density 22.344052000000001
#
# number of rings (size 3 to 8) (size 9 to 14) (size 15 to 20)
#    0.000    1.500    1.250    4.875    1.750    2.000 
#    0.000    0.625    0.000    0.000    0.000    0.000 
#    0.000    0.000    0.000    0.000    0.000    0.000 
#
# Total GULP energy -89347.801492 kJ/mol
# GULP energy per Si atom -5584.237593 kJ/mol
# Density = 2.229320 g / cm^3
# Si number density = 22.344052 Si / 1000 Ang^3
#
#
#
# Elastic Constant Matrix: (Units=GPa)
#
#
# Indices 1 2 3 4 5 6 
#
# 1 95.8969 30.6161 41.7131 -1.2913 -13.3011 -12.9397
# 2 30.6161 61.3328 22.2611 -7.8429 -3.7348 -7.7244
# 3 41.7131 22.2611 135.0869 -0.4490 -5.7834 -21.4923
# 4 -1.2913 -7.8429 -0.4490 34.7162 -10.0791 -11.3008
# 5 -13.3011 -3.7348 -5.7834 -10.0791 30.5962 4.5384
# 6 -12.9397 -7.7244 -21.4923 -11.3008 4.5384 38.0967
#
#
#
# Elastic Compliance Matrix: (Units=1/GPa)
#
#
# Indices 1 2 3 4 5 6 
#
# 1 0.014476 -0.005377 -0.003052 0.001427 0.005248 0.001903
# 2 -0.005377 0.020667 -0.001136 0.005952 0.001439 0.003317
# 3 -0.003052 -0.001136 0.009216 0.001145 0.000020 0.004270
# 4 0.001427 0.005952 0.001145 0.037683 0.012188 0.012064
# 5 0.005248 0.001439 0.000020 0.012188 0.039003 0.001055
# 6 0.001903 0.003317 0.004270 0.012064 0.001055 0.033430
#
#
# Mechanical properties :
#
#
# Convention : Reuss Voigt Hill
#
# Bulk Modulus (GPa) = 39.63533 53.49969 46.56751
# Shear Modulus (GPa) = 27.47036 33.86356 30.66696
#
# Velocity S-wave (km/s) = 3.51012 3.89723 3.70873
# Velocity P-wave (km/s) = 5.84851 6.65183 6.26306
#
# Compressibility (1/GPa) = 0.02523002
#
# Stress axis : x y z
#
# Youngs Moduli (GPa) = 69.08115 48.38548 108.50471
#
# Poissons Ratio (x) = 0.26015 0.33112
# Poissons Ratio (y) = 0.37142 0.12330
# Poissons Ratio (z) = 0.21081 0.05498
#
# Static dielectric constant tensor:
#      x y z
#    x 1.855560 0.038620 0.027690 
#    y 0.038620 1.853240 0.036070 
#    z 0.027690 0.036070 1.896640 
# 
# From -- ./inp_files/522662.got.cif
#   From: 2010.05.17/outbox.cif.g08.bks.cpg/sg2_262_cif.got.tgz:522662.got - 2010.06.03 11:33:40.
