data_PCOD9084178
_publ_section_title
;
Structure prediction by ZEFSAII (Michael W. Deem and Ramdas Pophale) SiO2 
 PCOD9084178
Probable space group: P -1
;
_chemical_formula_sum "Si O2"
_cell_formula_units_Z 14
_cell_length_a 12.025307
_cell_length_b 11.489908
_cell_length_c 10.532783
_cell_angle_alpha 53.157595
_cell_angle_beta 35.836602
_cell_angle_gamma 49.217207
_cell_volume 637.052345
_symmetry_space_group_name_H-M "P -1"
_symmetry_group_IT_number 2
_symmetry_cell_setting 'triclinic'
loop_
_space_group_symop_operation_xyz
x,y,z
-x,-y,-z
loop_
_atom_site_type_symbol
_atom_site_label
_atom_site_fract_x
_atom_site_fract_y
_atom_site_fract_z
Si Si1 0.447355 0.822447 0.924039
Si Si2 0.910764 0.382899 0.941280
Si Si3 0.016679 0.858059 0.203423
Si Si4 0.875412 0.633245 0.620481
Si Si5 0.690051 0.630093 0.323572
Si Si6 0.577848 0.060721 0.513075
Si Si7 0.509584 0.399836 0.730478
O O1 0.638327 0.691982 0.763965
O O2 0.525169 0.967817 0.742665
O O3 0.232763 0.869941 0.022186
O O4 0.438253 0.734111 0.122348
O O5 0.969158 0.249406 0.864925
O O6 0.903818 0.548484 0.781964
O O7 0.091801 0.348881 0.896711
O O8 0.678354 0.440322 0.162561
O O9 0.966995 0.765103 0.428039
O O10 0.818538 0.014955 0.292446
O O11 0.000000 0.500000 0.500000
O O12 0.556021 0.762187 0.457176
O O13 0.686897 0.463952 0.485159
O O14 0.575335 0.657153 0.278052
O O15 0.500000 0.000000 0.500000
#
# Coordination Sequence:
#
# PCOD9084178 Si02
#       7
#     2   2   2   2   2   2   2
#     4  10  22  39  60  91 121 158 204 240 301 366
#     4  10  19  34  61  88 119 155 197 249 298 355
#     4  10  20  35  59  90 121 156 196 246 305 356
#     4   8  17  31  52  86 120 152 188 246 298 342
#     4  11  23  42  61  86 127 156 203 251 291 354
#     4  11  24  41  60  91 126 158 193 253 309 351
#     4  10  24  41  63  89 115 166 204 243 294 355
#
# _framework density 21.976216000000001
#
# number of rings (size 3 to 8) (size 9 to 14) (size 15 to 20)
#    0.000    2.000    1.429    1.286    2.000    7.429 
#    0.000    0.714    0.000    0.000    0.000    0.000 
#    0.000    0.000    0.000    0.000    0.000    0.000 
#
# Total GULP energy -77975.404737 kJ/mol
# GULP energy per Si atom -5569.671767 kJ/mol
# Density = 2.192620 g / cm^3
# Si number density = 21.976216 Si / 1000 Ang^3
#
#
#
# Elastic Constant Matrix: (Units=GPa)
#
#
# Indices 1 2 3 4 5 6 
#
# 1 69.4116 9.4985 32.0238 -5.8363 -7.3617 -8.6528
# 2 9.4985 19.6809 -3.4694 -8.7266 2.4054 -8.8956
# 3 32.0238 -3.4694 97.1157 -10.7405 -17.6567 -14.2140
# 4 -5.8363 -8.7266 -10.7405 39.9990 -17.0841 1.9376
# 5 -7.3617 2.4054 -17.6567 -17.0841 38.0643 5.8446
# 6 -8.6528 -8.8956 -14.2140 1.9376 5.8446 21.4098
#
#
#
# Elastic Compliance Matrix: (Units=1/GPa)
#
#
# Indices 1 2 3 4 5 6 
#
# 1 0.018998 -0.011975 -0.006944 -0.001178 0.001000 -0.002074
# 2 -0.011975 0.085169 0.015282 0.020199 0.002598 0.038156
# 3 -0.006944 0.015282 0.017549 0.010097 0.008528 0.011952
# 4 -0.001178 0.020199 0.010097 0.040447 0.020510 0.005360
# 5 0.001000 0.002598 0.008528 0.020510 0.040340 -0.005724
# 6 -0.002074 0.038156 0.011952 0.005360 -0.005724 0.070735
#
#
# Mechanical properties :
#
#
# Convention : Reuss Voigt Hill
#
# Bulk Modulus (GPa) = 8.73811 29.14600 18.94205
# Shear Modulus (GPa) = 15.69070 29.77165 22.73117
#
# Velocity S-wave (km/s) = 2.67495 3.68465 3.21963
# Velocity P-wave (km/s) = 3.67767 5.60299 4.73913
#
# Compressibility (1/GPa) = 0.11444129
#
# Stress axis : x y z
#
# Youngs Moduli (GPa) = 52.63780 11.74137 56.98236
#
# Poissons Ratio (x) = 0.14060 0.39571
# Poissons Ratio (y) = 0.63033 -0.87080
# Poissons Ratio (z) = 0.36554 -0.17943
#
# Static dielectric constant tensor:
#      x y z
#    x 1.827380 0.000220 -0.447850 
#    y 0.000220 1.997150 -1.207870 
#    z -0.447850 -1.207870 12.445690 
# 
# From -- ./inp_files/425495.got.cif
#   From: 2010.05.17/outbox.cif.g08.bks.cpg/sg2_213_cif.got.tgz:425495.got - 2010.06.03 11:33:40.
