data_PCOD9084283
_publ_section_title
;
Structure prediction by ZEFSAII (Michael W. Deem and Ramdas Pophale) SiO2 
 PCOD9084283
Probable space group: P -1
;
_chemical_formula_sum "Si O2"
_cell_formula_units_Z 16
_cell_length_a 7.291508
_cell_length_b 12.881578
_cell_length_c 13.471507
_cell_angle_alpha 116.155321
_cell_angle_beta 135.123577
_cell_angle_gamma 40.869232
_cell_volume 571.665049
_symmetry_space_group_name_H-M "P -1"
_symmetry_group_IT_number 2
_symmetry_cell_setting 'triclinic'
loop_
_space_group_symop_operation_xyz
x,y,z
-x,-y,-z
loop_
_atom_site_type_symbol
_atom_site_label
_atom_site_fract_x
_atom_site_fract_y
_atom_site_fract_z
Si Si1 0.026164 0.823921 0.621499
Si Si2 0.862078 0.905353 0.021985
Si Si3 0.698951 0.049516 0.305007
Si Si4 0.033467 0.618416 0.769290
Si Si5 0.128614 0.723533 0.258438
Si Si6 0.147918 0.824418 0.873608
Si Si7 0.904186 0.526391 0.861160
Si Si8 0.197850 0.543138 0.481445
O O1 0.004351 0.943533 0.596451
O O2 0.874822 0.902858 0.705237
O O3 0.472414 0.679567 0.744310
O O4 0.946524 0.725489 0.501970
O O5 0.058454 0.793008 0.148353
O O6 0.729488 0.080610 0.054731
O O7 0.534958 0.922319 0.869912
O O8 0.077451 0.843305 0.973164
O O9 0.379026 0.199484 0.313296
O O10 0.936785 0.861001 0.327202
O O11 0.095010 0.562745 0.883043
O O12 0.010834 0.500637 0.661375
O O13 0.275037 0.648943 0.836792
O O14 0.988752 0.637888 0.190877
O O15 0.554157 0.582234 0.386784
O O16 0.000000 0.500000 0.000000
O O17 0.500000 0.500000 0.500000
#
# Coordination Sequence:
#
# PCOD9084283 Si02
#       8
#     2   2   2   2   2   2   2   2
#     4  10  20  36  61  85 114 155 195 234 293 349
#     4  10  21  36  59  91 123 149 180 249 299 350
#     4  10  19  34  62  91 114 145 198 242 292 339
#     4  10  21  41  57  81 121 159 188 243 291 336
#     4  11  20  33  63  90 112 148 202 243 287 338
#     4  10  21  37  59  83 123 157 187 226 309 353
#     4  10  20  34  58  86 116 149 196 244 290 335
#     4  11  21  41  59  83 117 154 202 250 279 332
#
# _framework density 27.988417999999999
#
# number of rings (size 3 to 8) (size 9 to 14) (size 15 to 20)
#    0.000    1.750    5.000    2.625    1.750    1.000 
#    0.000    6.250    0.000    0.000    0.000    0.000 
#    0.000    0.000    0.000    0.000    0.000    0.000 
#
# Total GULP energy -89219.332275 kJ/mol
# GULP energy per Si atom -5576.208267 kJ/mol
# Density = 2.792472 g / cm^3
# Si number density = 27.988418 Si / 1000 Ang^3
#
#
#
# Elastic Constant Matrix: (Units=GPa)
#
#
# Indices 1 2 3 4 5 6 
#
# 1 116.9211 24.7005 8.2370 -3.5429 -10.3151 25.7391
# 2 24.7005 148.0672 50.0694 32.6334 19.3518 21.2794
# 3 8.2370 50.0694 109.9248 31.8253 -2.7523 3.7469
# 4 -3.5429 32.6334 31.8253 64.5470 11.4864 8.9415
# 5 -10.3151 19.3518 -2.7523 11.4864 25.2579 3.2111
# 6 25.7391 21.2794 3.7469 8.9415 3.2111 35.1195
#
#
#
# Elastic Compliance Matrix: (Units=1/GPa)
#
#
# Indices 1 2 3 4 5 6 
#
# 1 0.011368 -0.001911 0.000002 0.001576 0.006428 -0.008163
# 2 -0.001911 0.010357 -0.004284 -0.001314 -0.008161 -0.003337
# 3 0.000002 -0.004284 0.012796 -0.005670 0.006997 0.002033
# 4 0.001576 -0.001314 -0.005670 0.021069 -0.007991 -0.004388
# 5 0.006428 -0.008161 0.006997 -0.007991 0.053292 -0.003351
# 6 -0.008163 -0.003337 0.002033 -0.004388 -0.003351 0.037685
#
#
# Mechanical properties :
#
#
# Convention : Reuss Voigt Hill
#
# Bulk Modulus (GPa) = 45.18173 60.10299 52.64236
# Shear Modulus (GPa) = 30.06006 44.44529 37.25267
#
# Velocity S-wave (km/s) = 3.28078 3.98928 3.65225
# Velocity P-wave (km/s) = 5.52534 6.53758 6.05266
#
# Compressibility (1/GPa) = 0.02213284
#
# Stress axis : x y z
#
# Youngs Moduli (GPa) = 87.96332 96.55171 78.14993
#
# Poissons Ratio (x) = 0.18455 -0.00012
# Poissons Ratio (y) = 0.16814 0.33483
# Poissons Ratio (z) = -0.00014 0.41367
#
# Static dielectric constant tensor:
#      x y z
#    x 2.328030 -0.098530 -0.062750 
#    y -0.098530 2.198270 -0.035930 
#    z -0.062750 -0.035930 2.421470 
# 
# From -- ./inp_files/499339.got.cif
#   From: 2010.05.17/outbox.cif.g08.bks.cpg/sg2_250_cif.got.tgz:499339.got - 2010.06.03 11:33:40.
