data_PCOD9084599
_publ_section_title
;
Structure prediction by ZEFSAII (Michael W. Deem and Ramdas Pophale) SiO2 
 PCOD9084599
Probable space group: P -1
;
_chemical_formula_sum "Si O2"
_cell_formula_units_Z 12
_cell_length_a 14.412998
_cell_length_b 19.130867
_cell_length_c 7.653575
_cell_angle_alpha 126.903637
_cell_angle_beta 135.575091
_cell_angle_gamma 22.365782
_cell_volume 547.661942
_symmetry_space_group_name_H-M "P -1"
_symmetry_group_IT_number 2
_symmetry_cell_setting 'triclinic'
loop_
_space_group_symop_operation_xyz
x,y,z
-x,-y,-z
loop_
_atom_site_type_symbol
_atom_site_label
_atom_site_fract_x
_atom_site_fract_y
_atom_site_fract_z
Si Si1 0.654296 0.834029 0.847152
Si Si2 0.047540 0.732140 0.087331
Si Si3 0.179771 0.090241 0.324604
Si Si4 0.683202 0.104060 0.315436
Si Si5 0.620157 0.397365 0.191723
Si Si6 0.197979 0.892031 0.877735
O O1 0.482360 0.931382 0.579333
O O2 0.583728 0.785049 0.779541
O O3 0.031964 0.311846 0.990108
O O4 0.500000 0.000000 0.000000
O O5 0.913898 0.806052 0.821983
O O6 0.378045 0.563018 0.252925
O O7 0.888944 0.904370 0.228613
O O8 0.943029 0.244319 0.388945
O O9 0.174486 0.992177 0.111579
O O10 0.881500 0.046990 0.621602
O O11 0.631339 0.185741 0.188329
O O12 0.500000 0.500000 0.000000
O O13 0.654365 0.273469 0.071764
#
# Coordination Sequence:
#
# PCOD9084599 Si02
#       6
#     2   2   2   2   2   2
#     4  10  19  35  55  81 108 144 187 218 262 327
#     4   9  20  35  54  84 111 138 180 225 272 316
#     4  10  19  35  60  78 106 149 183 221 263 321
#     4   9  19  34  57  81 107 144 182 222 263 322
#     4  10  20  34  55  86 109 138 181 227 272 313
#     4  10  19  35  57  82 108 141 186 222 264 323
#
# _framework density 21.911328000000001
#
# number of rings (size 3 to 8) (size 9 to 14) (size 15 to 20)
#    0.000    2.333    1.667    1.000    0.000    0.667 
#    0.000    1.667    0.000    0.000    0.000    0.000 
#    0.000    0.000    0.000    0.000    0.000    0.000 
#
# Total GULP energy -66924.837718 kJ/mol
# GULP energy per Si atom -5577.069810 kJ/mol
# Density = 2.186146 g / cm^3
# Si number density = 21.911328 Si / 1000 Ang^3
#
#
#
# Elastic Constant Matrix: (Units=GPa)
#
#
# Indices 1 2 3 4 5 6 
#
# 1 145.7027 27.3098 28.2640 -0.5576 -3.7494 7.2623
# 2 27.3098 41.7040 5.2180 -7.0107 0.5978 -5.2483
# 3 28.2640 5.2180 89.4459 14.4012 -8.5791 -3.8917
# 4 -0.5576 -7.0107 14.4012 8.7245 2.5297 -2.6145
# 5 -3.7494 0.5978 -8.5791 2.5297 35.8095 -5.6240
# 6 7.2623 -5.2483 -3.8917 -2.6145 -5.6240 33.6782
#
#
#
# Elastic Compliance Matrix: (Units=1/GPa)
#
#
# Indices 1 2 3 4 5 6 
#
# 1 0.008574 -0.005986 -0.002245 -0.001521 0.000073 -0.003147
# 2 -0.005986 0.038236 -0.008181 0.048098 -0.005182 0.009173
# 3 -0.002245 -0.008181 0.019777 -0.041685 0.007508 -0.000488
# 4 -0.001521 0.048098 -0.041685 0.234286 -0.024822 0.017049
# 5 0.000073 -0.005182 0.007508 -0.024822 0.032119 0.003481
# 6 -0.003147 0.009173 -0.000488 0.017049 0.003481 0.033649
#
#
# Mechanical properties :
#
#
# Convention : Reuss Voigt Hill
#
# Bulk Modulus (GPa) = 29.61857 44.27068 36.94463
# Shear Modulus (GPa) = 12.17376 30.04650 21.11013
#
# Velocity S-wave (km/s) = 2.35966 3.70709 3.10729
# Velocity P-wave (km/s) = 4.57939 6.21061 5.45630
#
# Compressibility (1/GPa) = 0.03376260
#
# Stress axis : x y z
#
# Youngs Moduli (GPa) = 116.63480 26.15312 50.56375
#
# Poissons Ratio (x) = 0.15656 0.11352
# Poissons Ratio (y) = 0.69822 0.41365
# Poissons Ratio (z) = 0.26185 0.21395
#
# Static dielectric constant tensor:
#      x y z
#    x 1.883970 -0.030940 -0.009000 
#    y -0.030940 1.811050 -0.025350 
#    z -0.009000 -0.025350 1.779500 
# 
# From -- ./inp_files/281632.got.cif
#   From: 2010.05.17/outbox.cif.g08.bks.cpg/sg2_141_cif.got.tgz:281632.got - 2010.06.03 11:33:40.
