data_PCOD9084966
_publ_section_title
;
Structure prediction by ZEFSAII (Michael W. Deem and Ramdas Pophale) SiO2 
 PCOD9084966
Probable space group: P -1
;
_chemical_formula_sum "Si O2"
_cell_formula_units_Z 12
_cell_length_a 6.942394
_cell_length_b 12.662149
_cell_length_c 13.077156
_cell_angle_alpha 158.157594
_cell_angle_beta 89.207602
_cell_angle_gamma 93.745178
_cell_volume 423.379920
_symmetry_space_group_name_H-M "P -1"
_symmetry_group_IT_number 2
_symmetry_cell_setting 'triclinic'
loop_
_space_group_symop_operation_xyz
x,y,z
-x,-y,-z
loop_
_atom_site_type_symbol
_atom_site_label
_atom_site_fract_x
_atom_site_fract_y
_atom_site_fract_z
Si Si1 0.296391 0.428228 0.222663
Si Si2 0.405083 0.461074 0.838368
Si Si3 0.622738 0.174420 0.245290
Si Si4 0.889789 0.767136 0.216331
Si Si5 0.196791 0.992566 0.274079
Si Si6 0.087850 0.768348 0.860833
O O1 0.380361 0.536832 0.209538
O O2 0.425170 0.608905 0.472213
O O3 0.077341 0.451921 0.280711
O O4 0.315222 0.093883 0.933439
O O5 0.330599 0.302067 0.801589
O O6 0.268466 0.289703 0.596775
O O7 0.337964 0.773956 0.120601
O O8 0.782810 0.363777 0.342223
O O9 0.500000 0.000000 0.000000
O O10 0.972620 0.883103 0.211065
O O11 0.000000 0.000000 0.500000
O O12 0.000000 0.500000 0.000000
O O13 0.203633 0.947353 0.112434
O O14 0.000000 0.000000 0.000000
#
# Coordination Sequence:
#
# PCOD9084966 Si02
#       6
#     2   2   2   2   2   2
#     4  11  22  35  52  78 108 137 171 221 267 308
#     4  10  19  35  58  82 104 135 179 223 263 312
#     4  11  22  37  55  75 101 141 184 218 256 309
#     4   8  16  31  54  80 103 130 173 222 262 304
#     4  10  20  36  57  79 106 142 179 216 261 314
#     4  10  23  38  53  78 112 145 176 216 264 315
#
# _framework density 28.343336999999998
#
# number of rings (size 3 to 8) (size 9 to 14) (size 15 to 20)
#    0.000    2.000    0.000    4.000    0.000    6.667 
#    0.000    0.833    0.000    0.000    0.000   19.833 
#    0.000    0.000    0.000    0.000    0.000    0.000 
#
# Total GULP energy -67127.300612 kJ/mol
# GULP energy per Si atom -5593.941718 kJ/mol
# Density = 2.827883 g / cm^3
# Si number density = 28.343337 Si / 1000 Ang^3
#
#
#
# Elastic Constant Matrix: (Units=GPa)
#
#
# Indices 1 2 3 4 5 6 
#
# 1 62.4021 31.8234 7.3157 2.4819 8.1116 17.6936
# 2 31.8234 189.5209 33.3030 -53.2509 -4.3493 43.4443
# 3 7.3157 33.3030 148.1571 0.9521 -1.9726 -3.4562
# 4 2.4819 -53.2509 0.9521 57.7775 1.8065 -3.9048
# 5 8.1116 -4.3493 -1.9726 1.8065 24.4597 2.0798
# 6 17.6936 43.4443 -3.4562 -3.9048 2.0798 80.3170
#
#
#
# Elastic Compliance Matrix: (Units=1/GPa)
#
#
# Indices 1 2 3 4 5 6 
#
# 1 0.019934 -0.004349 -0.000116 -0.004790 -0.006861 -0.002099
# 2 -0.004349 0.009920 -0.002133 0.009001 0.002721 -0.004133
# 3 -0.000116 -0.002133 0.007284 -0.001996 0.000276 0.001389
# 4 -0.004790 0.009001 -0.001996 0.025618 0.001365 -0.002689
# 5 -0.006861 0.002721 0.000276 0.001365 0.043650 -0.001012
# 6 -0.002099 -0.004133 0.001389 -0.002689 -0.001012 0.015104
#
#
# Mechanical properties :
#
#
# Convention : Reuss Voigt Hill
#
# Bulk Modulus (GPa) = 41.76855 60.55158 51.16006
# Shear Modulus (GPa) = 35.04176 54.35337 44.69756
#
# Velocity S-wave (km/s) = 3.51996 4.38388 3.97546
# Velocity P-wave (km/s) = 5.59364 6.85817 6.25793
#
# Compressibility (1/GPa) = 0.02394146
#
# Stress axis : x y z
#
# Youngs Moduli (GPa) = 50.16511 100.80349 137.29223
#
# Poissons Ratio (x) = 0.43838 0.01597
# Poissons Ratio (y) = 0.21816 0.29287
# Poissons Ratio (z) = 0.00583 0.21503
#
# Static dielectric constant tensor:
#      x y z
#    x 2.471840 0.083480 0.076450 
#    y 0.083480 2.226290 -0.009480 
#    z 0.076450 -0.009480 2.068220 
# 
# From -- ./inp_files/20352.got.cif
#   From: 2010.05.17/outbox.cif.g08.bks.cpg/sg2_11_cif.got.tgz:20352.got - 2010.06.03 11:33:40.
