data_PCOD9084539
_publ_section_title
;
Structure prediction by ZEFSAII (Michael W. Deem and Ramdas Pophale) SiO2 
 PCOD9084539
Probable space group: P -1
;
_chemical_formula_sum "Si O2"
_cell_formula_units_Z 16
_cell_length_a 16.080138
_cell_length_b 15.431427
_cell_length_c 5.424072
_cell_angle_alpha 112.117648
_cell_angle_beta 83.892120
_cell_angle_gamma 137.126637
_cell_volume 817.094472
_symmetry_space_group_name_H-M "P -1"
_symmetry_group_IT_number 2
_symmetry_cell_setting 'triclinic'
loop_
_space_group_symop_operation_xyz
x,y,z
-x,-y,-z
loop_
_atom_site_type_symbol
_atom_site_label
_atom_site_fract_x
_atom_site_fract_y
_atom_site_fract_z
Si Si1 0.668309 0.136572 0.217428
Si Si2 0.676238 0.051129 0.617724
Si Si3 0.418039 0.412536 0.179951
Si Si4 0.149171 0.513751 0.999131
Si Si5 0.909489 0.338006 0.619861
Si Si6 0.626376 0.292494 0.187679
Si Si7 0.560718 0.774340 0.160640
Si Si8 0.700094 0.499592 0.758525
O O1 0.616594 0.050443 0.394131
O O2 0.821691 0.252636 0.316611
O O3 0.635000 0.217211 0.298873
O O4 0.628964 0.052442 0.890741
O O5 0.822523 0.207138 0.703082
O O6 0.647879 0.917471 0.444841
O O7 0.500000 0.500000 0.500000
O O8 0.306833 0.395956 0.177625
O O9 0.500000 0.500000 0.000000
O O10 0.380916 0.272644 0.012383
O O11 0.282708 0.664325 0.014947
O O12 0.050638 0.420581 0.705164
O O13 0.092844 0.552002 0.216141
O O14 0.186719 0.452174 0.069644
O O15 0.690862 0.438287 0.437787
O O16 0.492946 0.212974 0.041245
O O17 0.433175 0.639998 0.211075
#
# Coordination Sequence:
#
# PCOD9084539 Si02
#       8
#     2   2   2   2   2   2   2   2
#     4  10  21  36  50  79 109 147 180 219 255 327
#     4  10  22  38  52  78 111 151 186 212 267 322
#     4  10  20  37  57  81 108 139 181 227 273 323
#     4  10  19  35  54  81 108 150 179 233 267 317
#     4   9  20  35  54  77 112 147 189 220 265 319
#     4  11  19  33  52  81 113 141 184 216 277 322
#     4  10  23  35  56  78 112 146 178 225 274 327
#     4  10  20  34  55  83 110 138 181 227 278 323
#
# _framework density 19.581581
#
# number of rings (size 3 to 8) (size 9 to 14) (size 15 to 20)
#    0.750    1.250    3.750    0.000    3.500    2.500 
#    0.000    0.000    0.000    0.750    0.000    1.750 
#    0.000    0.000    0.000    0.000    0.000    0.000 
#
# Total GULP energy -89116.290284 kJ/mol
# GULP energy per Si atom -5569.768143 kJ/mol
# Density = 1.953701 g / cm^3
# Si number density = 19.581581 Si / 1000 Ang^3
#
#
#
# Elastic Constant Matrix: (Units=GPa)
#
#
# Indices 1 2 3 4 5 6 
#
# 1 123.9486 24.7011 43.8697 17.0906 6.1568 -24.4330
# 2 24.7011 41.9024 16.4409 2.4981 1.9448 -9.9920
# 3 43.8697 16.4409 105.5246 -1.5211 -1.4978 -15.8337
# 4 17.0906 2.4981 -1.5211 27.5639 -4.0602 -0.3619
# 5 6.1568 1.9448 -1.4978 -4.0602 30.3934 1.2270
# 6 -24.4330 -9.9920 -15.8337 -0.3619 1.2270 21.5856
#
#
#
# Elastic Compliance Matrix: (Units=1/GPa)
#
#
# Indices 1 2 3 4 5 6 
#
# 1 0.013706 -0.003171 -0.003677 -0.008913 -0.004408 0.011450
# 2 -0.003171 0.028608 -0.001927 -0.000880 -0.001737 0.008324
# 3 -0.003677 -0.001927 0.011928 0.003421 0.001765 0.003652
# 4 -0.008913 -0.000880 0.003421 0.043167 0.008109 -0.007724
# 5 -0.004408 -0.001737 0.001765 0.008109 0.035333 -0.006371
# 6 0.011450 0.008324 0.003652 -0.007724 -0.006371 0.066053
#
#
# Mechanical properties :
#
#
# Convention : Reuss Voigt Hill
#
# Bulk Modulus (GPa) = 27.25377 49.04434 38.14906
# Shear Modulus (GPa) = 21.87456 28.33285 25.10370
#
# Velocity S-wave (km/s) = 3.34593 3.80796 3.58440
# Velocity P-wave (km/s) = 5.37357 6.66593 6.05433
#
# Compressibility (1/GPa) = 0.03669217
#
# Stress axis : x y z
#
# Youngs Moduli (GPa) = 72.96007 34.95491 83.83804
#
# Poissons Ratio (x) = 0.11083 0.30827
# Poissons Ratio (y) = 0.23132 0.16159
# Poissons Ratio (z) = 0.26827 0.06737
#
# Static dielectric constant tensor:
#      x y z
#    x 1.708490 0.011170 0.006120 
#    y 0.011170 1.762750 -0.036280 
#    z 0.006120 -0.036280 1.757960 
# 
# From -- ./inp_files/96672.got.cif
#   From: 2010.05.17/outbox.cif.g08.bks.cpg/sg2_49_cif.got.tgz:96672.got - 2010.06.03 11:33:40.
