data_PCOD9084855
_publ_section_title
;
Structure prediction by ZEFSAII (Michael W. Deem and Ramdas Pophale) SiO2 
 PCOD9084855
Probable space group: P -1
;
_chemical_formula_sum "Si O2"
_cell_formula_units_Z 14
_cell_length_a 14.127511
_cell_length_b 9.990955
_cell_length_c 8.854175
_cell_angle_alpha 75.051254
_cell_angle_beta 30.981553
_cell_angle_gamma 74.742912
_cell_volume 619.328438
_symmetry_space_group_name_H-M "P -1"
_symmetry_group_IT_number 2
_symmetry_cell_setting 'triclinic'
loop_
_space_group_symop_operation_xyz
x,y,z
-x,-y,-z
loop_
_atom_site_type_symbol
_atom_site_label
_atom_site_fract_x
_atom_site_fract_y
_atom_site_fract_z
Si Si1 0.177357 0.895700 0.825100
Si Si2 0.486432 0.078639 0.838452
Si Si3 0.235749 0.781606 0.097832
Si Si4 0.214268 0.477517 0.168725
Si Si5 0.123991 0.216799 0.200011
Si Si6 0.908069 0.355244 0.196630
Si Si7 0.559060 0.329977 0.865837
O O1 0.351330 0.958574 0.488766
O O2 0.146236 0.741309 0.842055
O O3 0.220716 0.882920 0.947134
O O4 0.000000 0.000000 0.000000
O O5 0.525599 0.228890 0.802827
O O6 0.282440 0.093710 0.043962
O O7 0.500000 0.000000 0.000000
O O8 0.265152 0.630706 0.020559
O O9 0.388004 0.760148 0.030038
O O10 0.041834 0.799532 0.449706
O O11 0.209598 0.362293 0.080158
O O12 0.000000 0.500000 0.500000
O O13 0.364730 0.423587 0.106230
O O14 0.040725 0.243263 0.142358
O O15 0.739624 0.395190 0.533703
O O16 0.000000 0.500000 0.000000
#
# Coordination Sequence:
#
# PCOD9084855 Si02
#       7
#     2   2   2   2   2   2   2
#     4  11  24  40  59  89 121 153 199 253 298 343
#     4  10  21  40  59  78 113 160 201 241 294 360
#     4  10  19  35  57  85 119 153 192 249 297 342
#     4   9  17  32  57  88 117 150 194 243 292 345
#     4   9  19  36  58  83 112 157 201 236 290 358
#     4  10  21  39  62  88 120 159 198 241 295 360
#     4   9  20  36  59  87 117 156 200 239 297 362
#
# _framework density 22.605129000000002
#
# number of rings (size 3 to 8) (size 9 to 14) (size 15 to 20)
#    0.000    2.286    0.000    2.143    0.000    3.429 
#    0.000   17.143    0.000    0.000    0.000    0.000 
#    0.000    0.000    0.000    0.000    0.000    0.000 
#
# Total GULP energy -77981.857082 kJ/mol
# GULP energy per Si atom -5570.132649 kJ/mol
# Density = 2.255368 g / cm^3
# Si number density = 22.605129 Si / 1000 Ang^3
#
#
#
# Elastic Constant Matrix: (Units=GPa)
#
#
# Indices 1 2 3 4 5 6 
#
# 1 158.2028 40.7393 63.2392 9.6763 7.4730 -36.8523
# 2 40.7393 72.8575 54.5873 17.4138 -0.0398 -30.8775
# 3 63.2392 54.5873 106.4503 6.2656 -1.4265 -37.1236
# 4 9.6763 17.4138 6.2656 30.4879 -10.5015 -8.3076
# 5 7.4730 -0.0398 -1.4265 -10.5015 31.4999 4.6463
# 6 -36.8523 -30.8775 -37.1236 -8.3076 4.6463 60.6103
#
#
#
# Elastic Compliance Matrix: (Units=1/GPa)
#
#
# Indices 1 2 3 4 5 6 
#
# 1 0.008998 -0.000132 -0.004222 -0.002374 -0.003525 0.002763
# 2 -0.000132 0.028452 -0.011756 -0.014332 -0.006086 0.005716
# 3 -0.004222 -0.011756 0.018860 0.006340 0.003423 0.003602
# 4 -0.002374 -0.014332 0.006340 0.046060 0.016156 0.000213
# 5 -0.003525 -0.006086 0.003423 0.016156 0.038691 -0.003899
# 6 0.002763 0.005716 0.003602 0.000213 -0.003899 0.023625
#
#
# Mechanical properties :
#
#
# Convention : Reuss Voigt Hill
#
# Bulk Modulus (GPa) = 41.51186 72.73802 57.12494
# Shear Modulus (GPa) = 24.39799 36.44928 30.42364
#
# Velocity S-wave (km/s) = 3.28885 4.01987 3.67259
# Velocity P-wave (km/s) = 5.72938 7.33439 6.58100
#
# Compressibility (1/GPa) = 0.02408950
#
# Stress axis : x y z
#
# Youngs Moduli (GPa) = 111.13805 35.14673 53.02330
#
# Poissons Ratio (x) = 0.00463 0.22386
# Poissons Ratio (y) = 0.01464 0.62337
# Poissons Ratio (z) = 0.46921 0.41320
#
# Static dielectric constant tensor:
#      x y z
#    x 1.881430 0.056320 -0.065560 
#    y 0.056320 1.973850 0.012690 
#    z -0.065560 0.012690 1.857450 
# 
# From -- ./inp_files/182866.got.cif
#   From: 2010.05.17/outbox.cif.g08.bks.cpg/sg2_92_cif.got.tgz:182866.got - 2010.06.03 11:33:40.
