data_PCOD9084910
_publ_section_title
;
Structure prediction by ZEFSAII (Michael W. Deem and Ramdas Pophale) SiO2 
 PCOD9084910
Probable space group: P -1
;
_chemical_formula_sum "Si O2"
_cell_formula_units_Z 13
_cell_length_a 11.470426
_cell_length_b 10.134235
_cell_length_c 7.445459
_cell_angle_alpha 50.261992
_cell_angle_beta 117.296815
_cell_angle_gamma 118.633718
_cell_volume 569.088841
_symmetry_space_group_name_H-M "P -1"
_symmetry_group_IT_number 2
_symmetry_cell_setting 'triclinic'
loop_
_space_group_symop_operation_xyz
x,y,z
-x,-y,-z
loop_
_atom_site_type_symbol
_atom_site_label
_atom_site_fract_x
_atom_site_fract_y
_atom_site_fract_z
Si Si1 0.500000 0.500000 0.500000
Si Si2 0.583554 0.179456 0.807501
Si Si3 0.777257 0.683492 0.349140
Si Si4 0.781243 0.045219 0.843052
Si Si5 0.304717 0.533284 0.887494
Si Si6 0.052417 0.653355 0.551525
Si Si7 0.431026 0.224386 0.296542
O O1 0.590308 0.362293 0.753043
O O2 0.641376 0.642576 0.404687
O O3 0.499130 0.204629 0.548893
O O4 0.726217 0.158868 0.853005
O O5 0.500000 0.000000 0.000000
O O6 0.733250 0.540952 0.279418
O O7 0.917264 0.664990 0.550583
O O8 0.810295 0.878467 0.110908
O O9 0.656735 0.953777 0.700800
O O10 0.891849 0.169128 0.684299
O O11 0.178261 0.609497 0.783431
O O12 0.447623 0.681786 0.834376
O O13 0.339266 0.361221 0.147511
O O14 0.000000 0.500000 0.500000
#
# Coordination Sequence:
#
# PCOD9084910 Si02
#       7
#     1   2   2   2   2   2   2
#     4  12  22  40  58  90 130 156 208 240 320 368
#     4  12  23  37  59  93 125 163 202 250 310 367
#     4  10  20  35  59  91 122 164 202 257 301 373
#     4  11  21  37  61  96 119 161 210 263 307 354
#     4   9  18  33  59  89 119 158 200 257 311 347
#     4  10  19  35  57  90 124 155 212 259 307 358
#     4  10  20  36  60  94 124 152 209 262 299 365
#
# _framework density 22.843533999999998
#
# number of rings (size 3 to 8) (size 9 to 14) (size 15 to 20)
#    0.000    1.538    4.615    1.846    0.000    0.000 
#    0.000    0.000    0.000    1.846    0.000    0.000 
#    0.000    0.000    0.000    0.000    0.000    0.000 
#
# Total GULP energy -72375.735391 kJ/mol
# GULP energy per Si atom -5567.364261 kJ/mol
# Density = 2.279154 g / cm^3
# Si number density = 22.843534 Si / 1000 Ang^3
#
#
#
# Elastic Constant Matrix: (Units=GPa)
#
#
# Indices 1 2 3 4 5 6 
#
# 1 128.9446 21.3086 13.1832 -2.3126 22.1650 29.5123
# 2 21.3086 45.3145 8.5279 -21.0026 -5.1149 20.5521
# 3 13.1832 8.5279 94.9281 -11.7321 7.5153 17.7123
# 4 -2.3126 -21.0026 -11.7321 35.5119 5.4900 -5.1861
# 5 22.1650 -5.1149 7.5153 5.4900 27.8664 8.9743
# 6 29.5123 20.5521 17.7123 -5.1861 8.9743 28.3259
#
#
#
# Elastic Compliance Matrix: (Units=1/GPa)
#
#
# Indices 1 2 3 4 5 6 
#
# 1 0.011143 -0.003051 0.000604 -0.000946 -0.006901 -0.007761
# 2 -0.003051 0.055236 0.004729 0.024907 0.019767 -0.041558
# 3 0.000604 0.004729 0.012788 0.005586 -0.000677 -0.010820
# 4 -0.000946 0.024907 0.005586 0.042939 -0.000609 -0.012524
# 5 -0.006901 0.019767 -0.000677 -0.000609 0.052906 -0.023602
# 6 -0.007761 -0.041558 -0.010820 -0.012524 -0.023602 0.085492
#
#
# Mechanical properties :
#
#
# Convention : Reuss Voigt Hill
#
# Bulk Modulus (GPa) = 11.94291 39.46962 25.70626
# Shear Modulus (GPa) = 17.61488 33.41867 25.51677
#
# Velocity S-wave (km/s) = 2.77990 3.82899 3.34582
# Velocity P-wave (km/s) = 3.94250 6.07157 5.11895
#
# Compressibility (1/GPa) = 0.08373167
#
# Stress axis : x y z
#
# Youngs Moduli (GPa) = 89.74096 18.10416 78.19602
#
# Poissons Ratio (x) = 0.05524 -0.04723
# Poissons Ratio (y) = 0.27380 -0.36979
# Poissons Ratio (z) = -0.05421 -0.08561
#
# Static dielectric constant tensor:
#      x y z
#    x 1.987810 -0.081990 0.067280 
#    y -0.081990 1.785770 -0.021660 
#    z 0.067280 -0.021660 1.868150 
# 
# From -- ./inp_files/161467.got.cif
#   From: 2010.05.17/outbox.cif.g08.bks.cpg/sg2_81_cif.got.tgz:161467.got - 2010.06.03 11:33:40.
