data_PCOD9084427
_publ_section_title
;
Structure prediction by ZEFSAII (Michael W. Deem and Ramdas Pophale) SiO2 
 PCOD9084427
Probable space group: P -1
;
_chemical_formula_sum "Si O2"
_cell_formula_units_Z 14
_cell_length_a 8.852607
_cell_length_b 8.037950
_cell_length_c 23.045256
_cell_angle_alpha 141.111018
_cell_angle_beta 34.511108
_cell_angle_gamma 120.392049
_cell_volume 539.322629
_symmetry_space_group_name_H-M "P -1"
_symmetry_group_IT_number 2
_symmetry_cell_setting 'triclinic'
loop_
_space_group_symop_operation_xyz
x,y,z
-x,-y,-z
loop_
_atom_site_type_symbol
_atom_site_label
_atom_site_fract_x
_atom_site_fract_y
_atom_site_fract_z
Si Si1 0.887339 0.133918 0.242550
Si Si2 0.959463 0.728712 0.887579
Si Si3 0.378347 0.224783 0.508612
Si Si4 0.698097 0.290413 0.832436
Si Si5 0.290625 0.551106 0.936393
Si Si6 0.543530 0.326780 0.205258
Si Si7 0.778358 0.221990 0.489882
O O1 0.618779 0.093830 0.346996
O O2 0.834709 0.464305 0.363801
O O3 0.904911 0.130611 0.165954
O O4 0.177642 0.860320 0.089913
O O5 0.899766 0.473437 0.807370
O O6 0.185298 0.614528 0.836514
O O7 0.670751 0.981926 0.069802
O O8 0.549518 0.280766 0.525766
O O9 0.268645 0.986125 0.501900
O O10 0.498867 0.309275 0.846006
O O11 0.500000 0.500000 0.000000
O O12 0.919659 0.972004 0.687020
O O13 0.469195 0.573606 0.829674
O O14 0.000000 0.500000 0.000000
O O15 0.284329 0.493296 0.375550
#
# Coordination Sequence:
#
# PCOD9084427 Si02
#       7
#     2   2   2   2   2   2   2
#     4  10  19  36  64  97 123 167 213 262 309 387
#     4  10  20  41  64  97 127 169 215 257 315 385
#     4  10  19  34  65  99 130 163 212 262 316 382
#     4  12  25  42  65  90 128 176 221 265 318 383
#     4  11  24  41  63  90 127 171 218 267 325 383
#     4  10  21  37  66  92 132 165 203 262 324 380
#     4  11  20  39  62  96 133 170 210 262 322 379
#
# _framework density 25.958490999999999
#
# number of rings (size 3 to 8) (size 9 to 14) (size 15 to 20)
#    0.000    1.429    2.857    3.429    0.000    2.857 
#    0.000    0.714    3.143    0.000    0.000    0.000 
#    0.000    0.000    0.000    0.000    0.000    0.000 
#
# Total GULP energy -78264.213396 kJ/mol
# GULP energy per Si atom -5590.300957 kJ/mol
# Density = 2.589941 g / cm^3
# Si number density = 25.958491 Si / 1000 Ang^3
#
#
#
# Elastic Constant Matrix: (Units=GPa)
#
#
# Indices 1 2 3 4 5 6 
#
# 1 61.1505 8.7692 17.4444 7.8002 -1.1254 7.7880
# 2 8.7692 74.2153 13.9738 3.7093 10.2470 8.6166
# 3 17.4444 13.9738 193.5991 3.2397 24.5316 0.8172
# 4 7.8002 3.7093 3.2397 43.4724 -11.3921 9.6451
# 5 -1.1254 10.2470 24.5316 -11.3921 39.1504 -0.6403
# 6 7.7880 8.6166 0.8172 9.6451 -0.6403 27.9617
#
#
#
# Elastic Compliance Matrix: (Units=1/GPa)
#
#
# Indices 1 2 3 4 5 6 
#
# 1 0.017756 -0.001447 -0.001619 -0.001745 0.001333 -0.003820
# 2 -0.001447 0.014785 -0.000384 -0.001195 -0.004081 -0.003823
# 3 -0.001619 -0.000384 0.005864 -0.001331 -0.003995 0.000765
# 4 -0.001745 -0.001195 -0.001331 0.027766 0.009037 -0.008478
# 5 0.001333 -0.004081 -0.003995 0.009037 0.031759 -0.001387
# 6 -0.003820 -0.003823 0.000765 -0.008478 -0.001387 0.040876
#
#
# Mechanical properties :
#
#
# Convention : Reuss Voigt Hill
#
# Bulk Modulus (GPa) = 31.73971 45.48219 38.61095
# Shear Modulus (GPa) = 32.00888 41.36872 36.68880
#
# Velocity S-wave (km/s) = 3.51533 3.99638 3.76355
# Velocity P-wave (km/s) = 5.36007 6.23329 5.81310
#
# Compressibility (1/GPa) = 0.03150627
#
# Stress axis : x y z
#
# Youngs Moduli (GPa) = 56.31883 67.63839 170.52675
#
# Poissons Ratio (x) = 0.09784 0.27611
# Poissons Ratio (y) = 0.08147 0.06541
# Poissons Ratio (z) = 0.09119 0.02594
#
# Static dielectric constant tensor:
#      x y z
#    x 1.967710 0.058820 -0.007230 
#    y 0.058820 2.086000 -0.064170 
#    z -0.007230 -0.064170 2.107040 
# 
# From -- ./inp_files/207956.got.cif
#   From: 2010.05.17/outbox.cif.g08.bks.cpg/sg2_104_cif.got.tgz:207956.got - 2010.06.03 11:33:40.
