data_PCOD9084238
_publ_section_title
;
Structure prediction by ZEFSAII (Michael W. Deem and Ramdas Pophale) SiO2 
 PCOD9084238
Probable space group: P -1
;
_chemical_formula_sum "Si O2"
_cell_formula_units_Z 12
_cell_length_a 9.696992
_cell_length_b 5.238982
_cell_length_c 17.624809
_cell_angle_alpha 70.272521
_cell_angle_beta 40.794980
_cell_angle_gamma 62.493728
_cell_volume 518.760220
_symmetry_space_group_name_H-M "P -1"
_symmetry_group_IT_number 2
_symmetry_cell_setting 'triclinic'
loop_
_space_group_symop_operation_xyz
x,y,z
-x,-y,-z
loop_
_atom_site_type_symbol
_atom_site_label
_atom_site_fract_x
_atom_site_fract_y
_atom_site_fract_z
Si Si1 0.641364 0.825089 0.319820
Si Si2 0.124720 0.150689 0.491022
Si Si3 0.826877 0.170840 0.333922
Si Si4 0.669258 0.981149 0.861063
Si Si5 0.503873 0.430638 0.093902
Si Si6 0.003322 0.689330 0.051584
O O1 0.665632 0.504448 0.372880
O O2 0.804463 0.739412 0.188232
O O3 0.394887 0.031876 0.376511
O O4 0.736835 0.998328 0.325185
O O5 0.000000 0.500000 0.500000
O O6 0.131508 0.010791 0.586824
O O7 0.000000 0.000000 0.500000
O O8 0.073544 0.184116 0.209208
O O9 0.575233 0.844453 0.844694
O O10 0.659476 0.306171 0.818148
O O11 0.500000 0.000000 0.000000
O O12 0.500000 0.500000 0.000000
O O13 0.746954 0.429438 0.010960
O O14 0.000000 0.500000 0.000000
O O15 0.000000 0.000000 0.000000
#
# Coordination Sequence:
#
# PCOD9084238 Si02
#       6
#     2   2   2   2   2   2
#     4  12  25  48  73 102 140 190 242 289 346 431
#     4  12  28  49  72 107 142 180 235 304 368 416
#     4  12  24  45  76 103 136 190 242 289 345 426
#     4  10  19  34  61  97 129 164 219 276 320 385
#     4  10  20  37  59  89 128 173 221 267 320 401
#     4  12  26  43  66 102 145 187 228 285 356 417
#
# _framework density 23.132072999999998
#
# number of rings (size 3 to 8) (size 9 to 14) (size 15 to 20)
#    0.000    0.667    0.000   10.000    0.000    4.000 
#    0.000    0.000    0.000    0.000    0.000    0.000 
#    0.000    0.000    0.000    0.000    0.000    0.000 
#
# Total GULP energy -66957.514255 kJ/mol
# GULP energy per Si atom -5579.792855 kJ/mol
# Density = 2.307942 g / cm^3
# Si number density = 23.132073 Si / 1000 Ang^3
#
#
#
# Elastic Constant Matrix: (Units=GPa)
#
#
# Indices 1 2 3 4 5 6 
#
# 1 241.2422 83.2483 69.0064 28.5327 1.4147 20.7045
# 2 83.2483 205.1595 59.4909 21.4637 3.6788 14.6609
# 3 69.0064 59.4909 96.6286 16.5935 -10.5135 3.6655
# 4 28.5327 21.4637 16.5935 30.7270 -18.0019 -0.6639
# 5 1.4147 3.6788 -10.5135 -18.0019 28.0821 11.8799
# 6 20.7045 14.6609 3.6655 -0.6639 11.8799 60.5095
#
#
#
# Elastic Compliance Matrix: (Units=1/GPa)
#
#
# Indices 1 2 3 4 5 6 
#
# 1 0.006264 -0.000680 -0.003473 -0.006708 -0.005505 -0.000761
# 2 -0.000680 0.006829 -0.003359 -0.005650 -0.005669 -0.000168
# 3 -0.003473 -0.003359 0.015454 0.001716 0.007680 -0.000423
# 4 -0.006708 -0.005650 0.001716 0.070470 0.049144 -0.005315
# 5 -0.005505 -0.005669 0.007680 0.049144 0.075904 -0.011571
# 6 -0.000761 -0.000168 -0.000423 -0.005315 -0.011571 0.019066
#
#
# Mechanical properties :
#
#
# Convention : Reuss Voigt Hill
#
# Bulk Modulus (GPa) = 73.94673 107.39128 90.66901
# Shear Modulus (GPa) = 23.41707 45.94937 34.68322
#
# Velocity S-wave (km/s) = 3.18515 4.46173 3.87635
# Velocity P-wave (km/s) = 6.75007 8.54803 7.70170
#
# Compressibility (1/GPa) = 0.01352325
#
# Stress axis : x y z
#
# Youngs Moduli (GPa) = 159.63458 146.43803 64.70726
#
# Poissons Ratio (x) = 0.09956 0.22474
# Poissons Ratio (y) = 0.10853 0.21735
# Poissons Ratio (z) = 0.55444 0.49189
#
# Static dielectric constant tensor:
#      x y z
#    x 1.775110 0.045400 0.015510 
#    y 0.045400 1.941170 -0.099860 
#    z 0.015510 -0.099860 1.756650 
# 
# From -- ./inp_files/486955.got.cif
#   From: 2010.05.17/outbox.cif.g08.bks.cpg/sg2_244_cif.got.tgz:486955.got - 2010.06.03 11:33:40.
