data_PCOD9084579
_publ_section_title
;
Structure prediction by ZEFSAII (Michael W. Deem and Ramdas Pophale) SiO2 
 PCOD9084579
Probable space group: P -1
;
_chemical_formula_sum "Si O2"
_cell_formula_units_Z 10
_cell_length_a 4.937372
_cell_length_b 12.542070
_cell_length_c 9.065132
_cell_angle_alpha 39.465985
_cell_angle_beta 77.797762
_cell_angle_gamma 70.137769
_cell_volume 334.363825
_symmetry_space_group_name_H-M "P -1"
_symmetry_group_IT_number 2
_symmetry_cell_setting 'triclinic'
loop_
_space_group_symop_operation_xyz
x,y,z
-x,-y,-z
loop_
_atom_site_type_symbol
_atom_site_label
_atom_site_fract_x
_atom_site_fract_y
_atom_site_fract_z
Si Si1 0.839132 0.783820 0.158571
Si Si2 0.371882 0.018335 0.299067
Si Si3 0.659836 0.325804 0.577436
Si Si4 0.275506 0.777329 0.790414
Si Si5 0.960145 0.500321 0.825236
O O1 0.626068 0.735250 0.353489
O O2 0.125499 0.788934 0.203032
O O3 0.901746 0.632838 0.186118
O O4 0.701504 0.951535 0.895417
O O5 0.613854 0.109364 0.221139
O O6 0.069927 0.138804 0.277875
O O7 0.426185 0.830271 0.571803
O O8 0.500000 0.500000 0.500000
O O9 0.881689 0.352788 0.398368
O O10 0.321061 0.580046 0.051791
O O11 0.000000 0.500000 0.000000
#
# Coordination Sequence:
#
# PCOD9084579 Si02
#       5
#     2   2   2   2   2
#     4  10  19  35  55  77 103 137 180 217 256 307
#     4   9  17  32  54  75  99 134 180 222 249 296
#     4  10  20  35  53  76 106 140 177 213 256 314
#     4   9  18  32  50  77 105 133 173 218 261 300
#     4  10  20  34  53  80 111 138 169 215 270 319
#
# _framework density 29.907540000000001
#
# number of rings (size 3 to 8) (size 9 to 14) (size 15 to 20)
#    0.000    2.400    0.000    4.800    0.000    3.200 
#    0.000   25.000    0.000    2.400    0.000    0.000 
#    0.000   12.800    0.000    0.000    0.000    0.000 
#
# Total GULP energy -55691.629081 kJ/mol
# GULP energy per Si atom -5569.162908 kJ/mol
# Density = 2.983947 g / cm^3
# Si number density = 29.907540 Si / 1000 Ang^3
#
#
#
# Elastic Constant Matrix: (Units=GPa)
#
#
# Indices 1 2 3 4 5 6 
#
# 1 175.6866 19.1171 59.3118 -2.2940 -10.5074 16.3123
# 2 19.1171 101.1325 3.7072 23.0330 -5.3025 5.5984
# 3 59.3118 3.7072 239.1058 51.2325 -39.9838 -13.3984
# 4 -2.2940 23.0330 51.2325 52.7038 -9.4556 -2.3693
# 5 -10.5074 -5.3025 -39.9838 -9.4556 60.6975 11.7899
# 6 16.3123 5.5984 -13.3984 -2.3693 11.7899 35.3661
#
#
#
# Elastic Compliance Matrix: (Units=1/GPa)
#
#
# Indices 1 2 3 4 5 6 
#
# 1 0.007259 -0.001847 -0.002666 0.003658 0.000696 -0.004053
# 2 -0.001847 0.011873 0.001883 -0.006955 0.001097 -0.001146
# 3 -0.002666 0.001883 0.006906 -0.007065 0.002731 0.002164
# 4 0.003658 -0.006955 -0.007065 0.029007 0.000157 -0.001372
# 5 0.000696 0.001097 0.002731 0.000157 0.019683 -0.006011
# 6 -0.004053 -0.001146 0.002164 -0.001372 -0.006011 0.033058
#
#
# Mechanical properties :
#
#
# Convention : Reuss Voigt Hill
#
# Bulk Modulus (GPa) = 48.12553 75.57745 61.85149
# Shear Modulus (GPa) = 41.67656 58.67275 50.17465
#
# Velocity S-wave (km/s) = 3.73703 4.43403 4.10037
# Velocity P-wave (km/s) = 5.89465 7.17909 6.56834
#
# Compressibility (1/GPa) = 0.02077899
#
# Stress axis : x y z
#
# Youngs Moduli (GPa) = 137.76533 84.22521 144.79388
#
# Poissons Ratio (x) = 0.15553 0.38608
# Poissons Ratio (y) = 0.25439 -0.27271
# Poissons Ratio (z) = 0.36733 -0.15863
#
# Static dielectric constant tensor:
#      x y z
#    x 2.261800 0.016430 -0.036440 
#    y 0.016430 2.658690 -0.247120 
#    z -0.036440 -0.247120 2.560630 
# 
# From -- ./inp_files/29399.got.cif
#   From: 2010.05.17/outbox.cif.g08.bks.cpg/sg2_15_cif.got.tgz:29399.got - 2010.06.03 11:33:40.
