data_PCOD9084669
_publ_section_title
;
Structure prediction by ZEFSAII (Michael W. Deem and Ramdas Pophale) SiO2 
 PCOD9084669
Probable space group: P -1
;
_chemical_formula_sum "Si O2"
_cell_formula_units_Z 14
_cell_length_a 6.576280
_cell_length_b 20.761052
_cell_length_c 5.032316
_cell_angle_alpha 75.256071
_cell_angle_beta 68.800866
_cell_angle_gamma 99.624925
_cell_volume 593.322539
_symmetry_space_group_name_H-M "P -1"
_symmetry_group_IT_number 2
_symmetry_cell_setting 'triclinic'
loop_
_space_group_symop_operation_xyz
x,y,z
-x,-y,-z
loop_
_atom_site_type_symbol
_atom_site_label
_atom_site_fract_x
_atom_site_fract_y
_atom_site_fract_z
Si Si1 0.621414 0.441398 0.057204
Si Si2 0.095496 0.047538 0.654530
Si Si3 0.593443 0.295612 0.089387
Si Si4 0.437591 0.851094 0.615130
Si Si5 0.916342 0.460854 0.361199
Si Si6 0.129833 0.830611 0.284671
Si Si7 0.104533 0.685857 0.568889
O O1 0.503411 0.362179 0.104254
O O2 0.659634 0.434945 0.363515
O O3 0.500000 0.500000 0.000000
O O4 0.837604 0.467672 0.704783
O O5 0.367611 0.078751 0.492683
O O6 0.003573 0.114565 0.645144
O O7 0.000000 0.000000 0.500000
O O8 0.000000 0.000000 0.000000
O O9 0.473682 0.216822 0.311426
O O10 0.816444 0.314554 0.162602
O O11 0.674122 0.294272 0.750444
O O12 0.345491 0.848675 0.363700
O O13 0.226525 0.840115 0.929894
O O14 0.012222 0.392963 0.381437
O O15 0.000000 0.500000 0.000000
O O16 0.002817 0.749553 0.493479
#
# Coordination Sequence:
#
# PCOD9084669 Si02
#       7
#     2   2   2   2   2   2   2
#     4  10  21  34  54  83 116 155 202 246 299 354
#     4  12  26  41  64  95 125 152 198 251 300 367
#     4   9  18  36  57  83 115 155 197 247 289 348
#     4  10  22  41  65  87 123 160 200 248 300 356
#     4  10  19  35  56  79 119 155 194 251 297 337
#     4  10  22  41  64  90 120 165 203 238 304 364
#     4   9  18  35  60  82 115 159 199 240 291 352
#
# _framework density 23.595935999999998
#
# number of rings (size 3 to 8) (size 9 to 14) (size 15 to 20)
#    0.000    2.000    1.429    1.714    0.000    5.143 
#    0.000    0.000    6.286    0.000    0.000    0.000 
#    0.000    0.000    0.000    0.000    0.000    0.000 
#
# Total GULP energy -78035.547125 kJ/mol
# GULP energy per Si atom -5573.967652 kJ/mol
# Density = 2.354223 g / cm^3
# Si number density = 23.595936 Si / 1000 Ang^3
#
#
#
# Elastic Constant Matrix: (Units=GPa)
#
#
# Indices 1 2 3 4 5 6 
#
# 1 35.3002 37.4792 29.3402 6.9362 9.5692 -2.4259
# 2 37.4792 172.3934 40.7981 0.2979 7.0205 -6.7326
# 3 29.3402 40.7981 105.6444 6.9075 28.2058 12.2674
# 4 6.9362 0.2979 6.9075 52.9677 11.8276 4.5185
# 5 9.5692 7.0205 28.2058 11.8276 30.2548 -0.3152
# 6 -2.4259 -6.7326 12.2674 4.5185 -0.3152 54.9607
#
#
#
# Elastic Compliance Matrix: (Units=1/GPa)
#
#
# Indices 1 2 3 4 5 6 
#
# 1 0.045808 -0.007511 -0.009343 -0.004545 -0.002222 0.003548
# 2 -0.007511 0.007758 -0.001526 0.000671 0.001745 0.000914
# 3 -0.009343 -0.001526 0.016511 0.002384 -0.013063 -0.004556
# 4 -0.004545 0.000671 0.002384 0.021460 -0.009356 -0.002468
# 5 -0.002222 0.001745 -0.013063 -0.009356 0.049229 0.004083
# 6 0.003548 0.000914 -0.004556 -0.002468 0.004083 0.019707
#
#
# Mechanical properties :
#
#
# Convention : Reuss Voigt Hill
#
# Bulk Modulus (GPa) = 30.01542 58.73032 44.37287
# Shear Modulus (GPa) = 23.99960 41.35134 32.67547
#
# Velocity S-wave (km/s) = 3.19267 4.19080 3.72532
# Velocity P-wave (km/s) = 5.13216 6.95422 6.11147
#
# Compressibility (1/GPa) = 0.03331621
#
# Stress axis : x y z
#
# Youngs Moduli (GPa) = 21.83048 128.89543 60.56710
#
# Poissons Ratio (x) = 0.96811 0.56589
# Poissons Ratio (y) = 0.16396 0.09244
# Poissons Ratio (z) = 0.20396 0.19672
#
# Static dielectric constant tensor:
#      x y z
#    x 1.941870 -0.006430 -0.144230 
#    y -0.006430 1.903090 -0.068430 
#    z -0.144230 -0.068430 1.860220 
# 
# From -- ./inp_files/12930.got.cif
#   From: 2010.05.17/outbox.cif.g08.bks.cpg/sg2_7_cif.got.tgz:12930.got - 2010.06.03 11:33:40.
