data_PCOD9084084
_publ_section_title
;
Structure prediction by ZEFSAII (Michael W. Deem and Ramdas Pophale) SiO2 
 PCOD9084084
Probable space group: P -1
;
_chemical_formula_sum "Si O2"
_cell_formula_units_Z 16
_cell_length_a 11.506894
_cell_length_b 19.947553
_cell_length_c 9.836770
_cell_angle_alpha 129.408054
_cell_angle_beta 91.584998
_cell_angle_gamma 43.202790
_cell_volume 679.118768
_symmetry_space_group_name_H-M "P -1"
_symmetry_group_IT_number 2
_symmetry_cell_setting 'triclinic'
loop_
_space_group_symop_operation_xyz
x,y,z
-x,-y,-z
loop_
_atom_site_type_symbol
_atom_site_label
_atom_site_fract_x
_atom_site_fract_y
_atom_site_fract_z
Si Si1 0.977950 0.414887 0.510683
Si Si2 0.362322 0.406648 0.026055
Si Si3 0.471407 0.528608 0.761043
Si Si4 0.187028 0.274335 0.063408
Si Si5 0.931524 0.160012 0.079571
Si Si6 0.216403 0.558510 0.933636
Si Si7 0.256595 0.009313 0.369821
Si Si8 0.667902 0.148802 0.084911
O O1 0.926113 0.404832 0.640555
O O2 0.976011 0.519162 0.673623
O O3 0.219674 0.224942 0.159818
O O4 0.671526 0.610362 0.665386
O O5 0.496498 0.409169 0.065175
O O6 0.304662 0.436088 0.903034
O O7 0.583017 0.180041 0.791997
O O8 0.722288 0.357351 0.431463
O O9 0.152582 0.749294 0.955196
O O10 0.485321 0.426801 0.705124
O O11 0.504985 0.077114 0.752823
O O12 0.989385 0.346225 0.060885
O O13 0.812250 0.143278 0.059083
O O14 0.257695 0.933725 0.866583
O O15 0.025284 0.763694 0.267787
O O16 0.189290 0.017875 0.229755
#
# Coordination Sequence:
#
# PCOD9084084 Si02
#       8
#     2   2   2   2   2   2   2   2
#     4   9  18  39  67  88 117 154 197 253 299 339
#     4  10  22  41  61  86 125 160 193 243 304 351
#     4  11  22  37  57  88 123 158 196 243 298 352
#     4   9  20  39  65  87 117 154 203 251 292 344
#     4  10  19  34  60  87 117 153 198 247 293 349
#     4  12  24  38  61  91 121 164 198 238 294 367
#     4  10  22  42  60  84 125 159 196 250 295 350
#     4   9  17  35  59  86 116 152 193 246 296 345
#
# _framework density 23.559944000000002
#
# number of rings (size 3 to 8) (size 9 to 14) (size 15 to 20)
#    0.000    2.250    2.500    2.250    1.750    2.500 
#    6.750    0.625    5.500    0.000    0.000    0.000 
#    0.000    0.000    0.000    0.000    0.000    0.000 
#
# Total GULP energy -89407.409860 kJ/mol
# GULP energy per Si atom -5587.963116 kJ/mol
# Density = 2.350632 g / cm^3
# Si number density = 23.559944 Si / 1000 Ang^3
#
#
#
# Elastic Constant Matrix: (Units=GPa)
#
#
# Indices 1 2 3 4 5 6 
#
# 1 77.9387 16.2915 -2.6359 -5.3271 0.6981 -1.7215
# 2 16.2915 78.3900 3.3436 -13.9847 -4.6539 20.9465
# 3 -2.6359 3.3436 40.5050 -5.2472 3.3257 -3.0791
# 4 -5.3271 -13.9847 -5.2472 29.0665 2.3961 -1.7487
# 5 0.6981 -4.6539 3.3257 2.3961 25.0212 -11.6847
# 6 -1.7215 20.9465 -3.0791 -1.7487 -11.6847 26.8852
#
#
#
# Elastic Compliance Matrix: (Units=1/GPa)
#
#
# Indices 1 2 3 4 5 6 
#
# 1 0.013876 -0.003902 0.001666 0.001183 0.000642 0.004475
# 2 -0.003902 0.019270 -0.001764 0.007605 -0.004757 -0.017038
# 3 0.001666 -0.001764 0.026024 0.004586 -0.002572 0.003642
# 4 0.001183 0.007605 0.004586 0.039243 -0.005370 -0.005106
# 5 0.000642 -0.004757 -0.002572 -0.005370 0.051903 0.025662
# 6 0.004475 -0.017038 0.003642 -0.005106 0.025662 0.061994
#
#
# Mechanical properties :
#
#
# Convention : Reuss Voigt Hill
#
# Bulk Modulus (GPa) = 19.54222 25.64799 22.59510
# Shear Modulus (GPa) = 21.06434 28.18354 24.62394
#
# Velocity S-wave (km/s) = 2.99335 3.46243 3.23640
# Velocity P-wave (km/s) = 4.50106 5.18599 4.85562
#
# Compressibility (1/GPa) = 0.05117125
#
# Stress axis : x y z
#
# Youngs Moduli (GPa) = 72.06460 51.89457 38.42544
#
# Poissons Ratio (x) = 0.20247 -0.06401
# Poissons Ratio (y) = 0.28116 0.06778
# Poissons Ratio (z) = -0.12005 0.09154
#
# Static dielectric constant tensor:
#      x y z
#    x 1.869020 0.023210 -0.036120 
#    y 0.023210 1.934680 0.022040 
#    z -0.036120 0.022040 1.938240 
# 
# From -- ./inp_files/283255.got.cif
#   From: 2010.05.17/outbox.cif.g08.bks.cpg/sg2_142_cif.got.tgz:283255.got - 2010.06.03 11:33:40.
