data_PCOD9084651
_publ_section_title
;
Structure prediction by ZEFSAII (Michael W. Deem and Ramdas Pophale) SiO2 
 PCOD9084651
Probable space group: P -1
;
_chemical_formula_sum "Si O2"
_cell_formula_units_Z 16
_cell_length_a 13.427377
_cell_length_b 9.382012
_cell_length_c 14.928019
_cell_angle_alpha 147.701546
_cell_angle_beta 71.191107
_cell_angle_gamma 101.737497
_cell_volume 942.266131
_symmetry_space_group_name_H-M "P -1"
_symmetry_group_IT_number 2
_symmetry_cell_setting 'triclinic'
loop_
_space_group_symop_operation_xyz
x,y,z
-x,-y,-z
loop_
_atom_site_type_symbol
_atom_site_label
_atom_site_fract_x
_atom_site_fract_y
_atom_site_fract_z
Si Si1 0.790839 0.894804 0.606476
Si Si2 0.735389 0.537534 0.961726
Si Si3 0.271444 0.133143 0.589382
Si Si4 0.903570 0.738814 0.142075
Si Si5 0.403080 0.501279 0.847435
Si Si6 0.955790 0.799443 0.645728
Si Si7 0.346055 0.496337 0.227324
Si Si8 0.721782 0.905932 0.819032
O O1 0.759913 0.801378 0.469267
O O2 0.909479 0.802332 0.559258
O O3 0.715792 0.820530 0.670351
O O4 0.777215 0.218836 0.781100
O O5 0.829945 0.687225 0.051697
O O6 0.641137 0.572030 0.081023
O O7 0.695731 0.604982 0.909118
O O8 0.174538 0.243428 0.740833
O O9 0.369440 0.280136 0.671356
O O10 0.296928 0.809671 0.420208
O O11 0.955810 0.009846 0.265755
O O12 0.000000 0.500000 0.000000
O O13 0.527512 0.511322 0.818399
O O14 0.341665 0.795841 0.995447
O O15 0.849080 0.908366 0.790606
O O16 0.000000 0.500000 0.500000
O O17 0.315365 0.306913 0.215334
#
# Coordination Sequence:
#
# PCOD9084651 Si02
#       8
#     2   2   2   2   2   2   2   2
#     4   8  18  37  53  75 115 140 174 219 270 313
#     4   9  19  36  56  83 107 139 187 225 253 329
#     4  10  21  35  57  84 107 135 188 226 257 327
#     4  11  19  37  58  78 108 145 178 220 272 317
#     4  10  19  37  58  78 112 145 173 227 277 312
#     4  10  19  35  56  76 111 144 173 218 277 308
#     4  11  20  36  58  83 105 145 184 222 270 314
#     4   9  20  38  53  78 113 145 177 221 265 330
#
# _framework density 16.980340999999999
#
# number of rings (size 3 to 8) (size 9 to 14) (size 15 to 20)
#    0.750    1.500    1.250    2.625    0.000    0.500 
#    4.500    1.250    0.000    0.000    0.000    0.000 
#    0.000    0.000    0.000    0.000    0.000    0.000 
#
# Total GULP energy -89118.225768 kJ/mol
# GULP energy per Si atom -5569.889111 kJ/mol
# Density = 1.694169 g / cm^3
# Si number density = 16.980341 Si / 1000 Ang^3
#
#
#
# Elastic Constant Matrix: (Units=GPa)
#
#
# Indices 1 2 3 4 5 6 
#
# 1 105.7180 54.3993 45.3360 -8.1348 16.0004 -2.4027
# 2 54.3993 100.0966 43.4001 4.7793 13.5285 -9.7536
# 3 45.3360 43.4001 56.5498 -8.9324 18.5220 -18.1125
# 4 -8.1348 4.7793 -8.9324 16.7790 -2.3103 1.0063
# 5 16.0004 13.5285 18.5220 -2.3103 30.6935 -3.9306
# 6 -2.4027 -9.7536 -18.1125 1.0063 -3.9306 19.3898
#
#
#
# Elastic Compliance Matrix: (Units=1/GPa)
#
#
# Indices 1 2 3 4 5 6 
#
# 1 0.018417 -0.005077 -0.015008 0.003264 0.000090 -0.014442
# 2 -0.005077 0.019415 -0.014961 -0.015530 0.001470 -0.003734
# 3 -0.015008 -0.014961 0.066555 0.027128 -0.017580 0.047814
# 4 0.003264 -0.015530 0.027128 0.078761 -0.003620 0.013112
# 5 0.000090 0.001470 -0.017580 -0.003620 0.041311 -0.007109
# 6 -0.014442 -0.003734 0.047814 0.013112 -0.007109 0.090448
#
#
# Mechanical properties :
#
#
# Convention : Reuss Voigt Hill
#
# Bulk Modulus (GPa) = 29.15865 60.95946 45.05905
# Shear Modulus (GPa) = 12.61253 21.32106 16.96680
#
# Velocity S-wave (km/s) = 2.72834 3.54733 3.16445
# Velocity P-wave (km/s) = 5.20907 7.26334 6.32022
#
# Compressibility (1/GPa) = 0.03429514
#
# Stress axis : x y z
#
# Youngs Moduli (GPa) = 54.29763 51.50580 15.02520
#
# Poissons Ratio (x) = 0.26150 0.22550
# Poissons Ratio (y) = 0.27567 0.22479
# Poissons Ratio (z) = 0.81490 0.77057
#
# Static dielectric constant tensor:
#      x y z
#    x 1.583120 -0.004740 0.005630 
#    y -0.004740 1.567480 -0.013090 
#    z 0.005630 -0.013090 1.579440 
# 
# From -- ./inp_files/529194.got.cif
#   From: 2010.05.17/outbox.cif.g08.bks.cpg/sg2_265_cif.got.tgz:529194.got - 2010.06.03 11:33:40.
