data_PCOD9084373
_publ_section_title
;
Structure prediction by ZEFSAII (Michael W. Deem and Ramdas Pophale) SiO2 
 PCOD9084373
Probable space group: P -1
;
_chemical_formula_sum "Si O2"
_cell_formula_units_Z 14
_cell_length_a 10.592031
_cell_length_b 21.246915
_cell_length_c 13.539095
_cell_angle_alpha 21.669331
_cell_angle_beta 139.139033
_cell_angle_gamma 146.414347
_cell_volume 619.985433
_symmetry_space_group_name_H-M "P -1"
_symmetry_group_IT_number 2
_symmetry_cell_setting 'triclinic'
loop_
_space_group_symop_operation_xyz
x,y,z
-x,-y,-z
loop_
_atom_site_type_symbol
_atom_site_label
_atom_site_fract_x
_atom_site_fract_y
_atom_site_fract_z
Si Si1 0.881571 0.108314 0.821054
Si Si2 0.204030 0.928072 0.952534
Si Si3 0.570155 0.740705 0.546677
Si Si4 0.792604 0.941232 0.589370
Si Si5 0.050035 0.487336 0.687605
Si Si6 0.910581 0.610914 0.920700
Si Si7 0.639825 0.177487 0.399428
O O1 0.023613 0.350217 0.576734
O O2 0.714817 0.098815 0.651226
O O3 0.771850 0.020578 0.991679
O O4 0.000000 0.000000 0.000000
O O5 0.984780 0.929794 0.777867
O O6 0.404606 0.099103 0.753311
O O7 0.119218 0.697621 0.212603
O O8 0.739747 0.871688 0.546330
O O9 0.312538 0.602973 0.634994
O O10 0.691689 0.627731 0.744004
O O11 0.552138 0.788826 0.720364
O O12 0.873534 0.176883 0.297433
O O13 0.055272 0.400560 0.924633
O O14 0.847947 0.390001 0.171899
O O15 0.500000 0.000000 0.500000
#
# Coordination Sequence:
#
# PCOD9084373 Si02
#       7
#     2   2   2   2   2   2   2
#     4  11  25  43  59  88 127 170 207 250 309 365
#     4  11  22  38  66  95 129 156 198 257 316 367
#     4  11  19  35  66 101 123 150 202 258 311 361
#     4  11  19  37  66  96 123 154 198 260 307 362
#     4  11  20  37  65  92 124 164 205 250 306 365
#     4  10  19  34  63  98 122 148 200 262 307 355
#     4  11  24  42  64  85 120 170 212 248 297 372
#
# _framework density 22.581175999999999
#
# number of rings (size 3 to 8) (size 9 to 14) (size 15 to 20)
#    0.000    1.143    5.714    3.429    0.000    1.143 
#    0.000    1.429    0.000   12.000    0.000    0.000 
#    0.000    0.000    0.000    0.000    0.000    0.000 
#
# Total GULP energy -78165.642890 kJ/mol
# GULP energy per Si atom -5583.260206 kJ/mol
# Density = 2.252978 g / cm^3
# Si number density = 22.581176 Si / 1000 Ang^3
#
#
#
# Elastic Constant Matrix: (Units=GPa)
#
#
# Indices 1 2 3 4 5 6 
#
# 1 68.8961 21.8604 32.1292 -15.0649 3.4219 -16.8873
# 2 21.8604 113.1119 37.9461 -14.5128 -0.4020 -18.6308
# 3 32.1292 37.9461 116.6996 -11.7812 -6.7734 -13.2256
# 4 -15.0649 -14.5128 -11.7812 28.5609 3.3526 -4.8306
# 5 3.4219 -0.4020 -6.7734 3.3526 31.2958 -1.8680
# 6 -16.8873 -18.6308 -13.2256 -4.8306 -1.8680 47.6525
#
#
#
# Elastic Compliance Matrix: (Units=1/GPa)
#
#
# Indices 1 2 3 4 5 6 
#
# 1 0.020739 -0.000106 -0.003988 0.010905 -0.003873 0.007155
# 2 -0.000106 0.011086 -0.002625 0.005270 -0.000735 0.004074
# 3 -0.003988 -0.002625 0.010850 0.000850 0.002705 0.000764
# 4 0.010905 0.005270 0.000850 0.046210 -0.005256 0.010639
# 5 -0.003873 -0.000735 0.002705 -0.005256 0.033508 -0.000129
# 6 0.007155 0.004074 0.000764 0.010639 -0.000129 0.026399
#
#
# Mechanical properties :
#
#
# Convention : Reuss Voigt Hill
#
# Bulk Modulus (GPa) = 34.20367 53.61991 43.91179
# Shear Modulus (GPa) = 29.07397 35.28663 32.18030
#
# Velocity S-wave (km/s) = 3.59211 3.95733 3.77914
# Velocity P-wave (km/s) = 5.69071 6.68413 6.20733
#
# Compressibility (1/GPa) = 0.02923663
#
# Stress axis : x y z
#
# Youngs Moduli (GPa) = 48.21915 90.20089 92.16738
#
# Poissons Ratio (x) = 0.00959 0.36759
# Poissons Ratio (y) = 0.00513 0.24190
# Poissons Ratio (z) = 0.19231 0.23674
#
# Static dielectric constant tensor:
#      x y z
#    x 1.949770 -0.030120 0.042650 
#    y -0.030120 1.833830 0.023390 
#    z 0.042650 0.023390 1.891660 
# 
# From -- ./inp_files/522194.got.cif
#   From: 2010.05.17/outbox.cif.g08.bks.cpg/sg2_262_cif.got.tgz:522194.got - 2010.06.03 11:33:40.
