data_PCOD9085922
_publ_section_title
;
Structure prediction by ZEFSAII (Michael W. Deem and Ramdas Pophale) SiO2 
 PCOD9085922
Probable space group: P -1
;
_chemical_formula_sum "Si O2"
_cell_formula_units_Z 16
_cell_length_a 23.915764
_cell_length_b 10.698641
_cell_length_c 11.930301
_cell_angle_alpha 137.291326
_cell_angle_beta 151.279834
_cell_angle_gamma 29.413817
_cell_volume 714.887315
_symmetry_space_group_name_H-M "P -1"
_symmetry_group_IT_number 2
_symmetry_cell_setting 'triclinic'
loop_
_space_group_symop_operation_xyz
x,y,z
-x,-y,-z
loop_
_atom_site_type_symbol
_atom_site_label
_atom_site_fract_x
_atom_site_fract_y
_atom_site_fract_z
Si Si1 0.214155 0.505592 0.211184
Si Si2 0.830157 0.053392 0.472164
Si Si3 0.809519 0.436443 0.277387
Si Si4 0.204969 0.918853 0.835351
Si Si5 0.675561 0.895924 0.691914
Si Si6 0.054600 0.495926 0.251590
Si Si7 0.504088 0.258812 0.433276
Si Si8 0.479055 0.700109 0.760361
O O1 0.152076 0.762939 0.323299
O O2 0.329574 0.284811 0.364392
O O3 0.312071 0.442368 0.229185
O O4 0.080734 0.500527 0.948695
O O5 0.775470 0.125764 0.293073
O O6 0.679541 0.126345 0.323803
O O7 0.013390 0.767831 0.607447
O O8 0.795028 0.266109 0.215058
O O9 0.828918 0.583591 0.493666
O O10 0.640276 0.625924 0.037959
O O11 0.033548 0.213857 0.739475
O O12 0.330181 0.925744 0.115756
O O13 0.852557 0.690399 0.812060
O O14 0.576116 0.030611 0.493215
O O15 0.533341 0.427012 0.652019
O O16 0.563647 0.186162 0.364467
#
# Coordination Sequence:
#
# PCOD9085922 Si02
#       8
#     2   2   2   2   2   2   2   2
#     4  10  20  37  60  93 122 154 197 252 308 366
#     4  10  21  39  66  94 122 155 202 254 305 355
#     4  11  20  40  63  91 125 162 198 253 303 352
#     4  10  19  35  64  94 123 154 200 256 301 360
#     4  11  19  37  63  91 122 158 193 252 315 355
#     4  10  21  35  59  93 125 154 195 245 313 372
#     4  10  22  42  60  87 123 157 210 253 292 357
#     4  10  23  43  62  90 120 162 214 250 285 365
#
# _framework density 22.381150999999999
#
# number of rings (size 3 to 8) (size 9 to 14) (size 15 to 20)
#    0.000    1.750    1.250    5.625    0.000    0.500 
#   11.250    3.125    0.000    0.000    0.000    0.000 
#    0.000    0.000    0.000    0.000    0.000    0.000 
#
# Total GULP energy -89252.214320 kJ/mol
# GULP energy per Si atom -5578.263395 kJ/mol
# Density = 2.233021 g / cm^3
# Si number density = 22.381151 Si / 1000 Ang^3
#
#
#
# Elastic Constant Matrix: (Units=GPa)
#
#
# Indices 1 2 3 4 5 6 
#
# 1 34.8333 3.6276 48.3616 -15.4866 38.5396 -67.9701
# 2 3.6276 43.0708 28.5945 -4.7111 14.9742 -28.9105
# 3 48.3616 28.5945 95.5648 -6.6193 -11.0489 -4.6959
# 4 -15.4866 -4.7111 -6.6193 26.1998 2.7844 -2.2693
# 5 38.5396 14.9742 -11.0489 2.7844 -15.0912 22.5606
# 6 -67.9701 -28.9105 -4.6959 -2.2693 22.5606 9.1936
#
#
#
# Elastic Compliance Matrix: (Units=1/GPa)
#
#
# Indices 1 2 3 4 5 6 
#
# 1 0.009957 -0.006890 -0.000339 0.002433 0.020904 0.001080
# 2 -0.006890 0.023049 -0.002565 -0.001356 0.007849 0.000634
# 3 -0.000339 -0.002565 0.011438 0.003056 -0.003677 0.005047
# 4 0.002433 -0.001356 0.003056 0.039077 0.010092 0.000168
# 5 0.020904 0.007849 -0.003677 0.010092 0.057475 0.038805
# 6 0.001080 0.000634 0.005047 0.000168 0.038805 0.026143
#
#
# Mechanical properties :
#
#
# Convention : Reuss Voigt Hill
#
# Bulk Modulus (GPa) = 40.23200 37.18183 38.70691
# Shear Modulus (GPa) = 25.63952 10.25277 17.94615
#
# Velocity S-wave (km/s) = 3.38832 2.14265 2.83475
# Velocity P-wave (km/s) = 5.77256 4.77183 5.29589
#
# Compressibility (1/GPa) = 0.02485584
#
# Stress axis : x y z
#
# Youngs Moduli (GPa) = 100.42784 43.38611 87.43018
#
# Poissons Ratio (x) = 0.29893 0.02963
# Poissons Ratio (y) = 0.69196 0.22426
# Poissons Ratio (z) = 0.03404 0.11129
#
# Static dielectric constant tensor:
#      x y z
#    x 1.820640 -0.019850 0.017870 
#    y -0.019850 1.912020 -0.093170 
#    z 0.017870 -0.093170 1.876100 
# 
# From -- ./inp_files/258578.got.cif
#   From: 2010.05.17/outbox.cif.g08.bks.cpg/sg2_130_cif.got.tgz:258578.got - 2010.06.03 11:33:40.
