data_PCOD9085890
_publ_section_title
;
Structure prediction by ZEFSAII (Michael W. Deem and Ramdas Pophale) SiO2 
 PCOD9085890
Probable space group: P -1
;
_chemical_formula_sum "Si O2"
_cell_formula_units_Z 16
_cell_length_a 9.165301
_cell_length_b 16.124874
_cell_length_c 6.420793
_cell_angle_alpha 111.700301
_cell_angle_beta 57.178155
_cell_angle_gamma 114.983913
_cell_volume 710.360211
_symmetry_space_group_name_H-M "P -1"
_symmetry_group_IT_number 2
_symmetry_cell_setting 'triclinic'
loop_
_space_group_symop_operation_xyz
x,y,z
-x,-y,-z
loop_
_atom_site_type_symbol
_atom_site_label
_atom_site_fract_x
_atom_site_fract_y
_atom_site_fract_z
Si Si1 0.328942 0.932278 0.770634
Si Si2 0.791075 0.749264 0.552701
Si Si3 0.945402 0.638599 0.668438
Si Si4 0.963591 0.895694 0.857749
Si Si5 0.595555 0.861989 0.253779
Si Si6 0.587782 0.300353 0.064201
Si Si7 0.139678 0.526386 0.111654
Si Si8 0.889691 0.228111 0.979199
O O1 0.493715 0.889182 0.556308
O O2 0.172405 0.894682 0.680848
O O3 0.388598 0.044312 0.814536
O O4 0.213048 0.881360 0.010313
O O5 0.826256 0.682775 0.650115
O O6 0.865788 0.853717 0.683378
O O7 0.577503 0.720632 0.664599
O O8 0.921736 0.745680 0.261573
O O9 0.850292 0.562610 0.844814
O O10 0.058797 0.589198 0.388090
O O11 0.072703 0.722574 0.780211
O O12 0.798286 0.850899 0.107701
O O13 0.000000 0.000000 0.000000
O O14 0.483301 0.768478 0.139399
O O15 0.665876 0.408685 0.049559
O O16 0.755640 0.272225 0.001938
O O17 0.000000 0.500000 0.000000
#
# Coordination Sequence:
#
# PCOD9085890 Si02
#       8
#     2   2   2   2   2   2   2   2
#     4  10  19  35  64  89 125 173 210 261 317 378
#     4  11  23  42  63  96 132 170 218 260 318 386
#     4  11  22  42  71  93 127 169 211 261 324 387
#     4   9  18  36  61  88 125 170 212 261 308 370
#     4   9  20  37  59  95 124 163 221 259 315 379
#     4  11  23  41  63  92 135 162 210 279 308 375
#     4  11  22  43  72  99 124 166 218 264 325 386
#     4  12  23  41  65  97 130 171 215 261 324 382
#
# _framework density 22.523781
#
# number of rings (size 3 to 8) (size 9 to 14) (size 15 to 20)
#    0.000    1.500    3.750    1.500    0.000    2.000 
#    2.250    8.125    0.000    0.000    0.000    0.000 
#    0.000    0.000    0.000    0.000    0.000    0.000 
#
# Total GULP energy -89173.757361 kJ/mol
# GULP energy per Si atom -5573.359835 kJ/mol
# Density = 2.247252 g / cm^3
# Si number density = 22.523781 Si / 1000 Ang^3
#
#
#
# Elastic Constant Matrix: (Units=GPa)
#
#
# Indices 1 2 3 4 5 6 
#
# 1 42.1169 16.4239 22.8472 -2.7227 -2.9391 7.6981
# 2 16.4239 139.5946 31.5055 -12.6423 10.5445 4.8249
# 3 22.8472 31.5055 91.1347 -2.5974 -14.0583 8.1719
# 4 -2.7227 -12.6423 -2.5974 32.1523 -1.2496 1.9052
# 5 -2.9391 10.5445 -14.0583 -1.2496 30.2667 -7.9744
# 6 7.6981 4.8249 8.1719 1.9052 -7.9744 35.1523
#
#
#
# Elastic Compliance Matrix: (Units=1/GPa)
#
#
# Indices 1 2 3 4 5 6 
#
# 1 0.028711 -0.001588 -0.006291 0.001556 -0.000800 -0.004873
# 2 -0.001588 0.008755 -0.003180 0.002942 -0.004926 -0.001392
# 3 -0.006291 -0.003180 0.014770 -0.000308 0.007362 0.000067
# 4 0.001556 0.002942 -0.000308 0.032501 -0.000336 -0.002511
# 5 -0.000800 -0.004926 0.007362 -0.000336 0.040269 0.008293
# 6 -0.004873 -0.001392 0.000067 -0.002511 0.008293 0.031708
#
#
# Mechanical properties :
#
#
# Convention : Reuss Voigt Hill
#
# Bulk Modulus (GPa) = 33.20274 46.04436 39.62355
# Shear Modulus (GPa) = 26.47319 32.98557 29.72938
#
# Velocity S-wave (km/s) = 3.43205 3.83100 3.63700
# Velocity P-wave (km/s) = 5.52073 6.32896 5.93861
#
# Compressibility (1/GPa) = 0.03011800
#
# Stress axis : x y z
#
# Youngs Moduli (GPa) = 34.83008 114.22351 67.70515
#
# Poissons Ratio (x) = 0.18143 0.42592
# Poissons Ratio (y) = 0.05532 0.21528
# Poissons Ratio (z) = 0.21911 0.36319
#
# Static dielectric constant tensor:
#      x y z
#    x 1.964370 -0.098060 0.012340 
#    y -0.098060 1.902080 -0.069040 
#    z 0.012340 -0.069040 1.896200 
# 
# From -- ./inp_files/48525.got.cif
#   From: 2010.05.17/outbox.cif.g08.bks.cpg/sg2_25_cif.got.tgz:48525.got - 2010.06.03 11:33:40.
