data_PCOD9085276
_publ_section_title
;
Structure prediction by ZEFSAII (Michael W. Deem and Ramdas Pophale) SiO2 
 PCOD9085276
Probable space group: P -1
;
_chemical_formula_sum "Si O2"
_cell_formula_units_Z 16
_cell_length_a 12.486915
_cell_length_b 19.379822
_cell_length_c 9.812797
_cell_angle_alpha 140.185503
_cell_angle_beta 53.890612
_cell_angle_gamma 154.012622
_cell_volume 621.453782
_symmetry_space_group_name_H-M "P -1"
_symmetry_group_IT_number 2
_symmetry_cell_setting 'triclinic'
loop_
_space_group_symop_operation_xyz
x,y,z
-x,-y,-z
loop_
_atom_site_type_symbol
_atom_site_label
_atom_site_fract_x
_atom_site_fract_y
_atom_site_fract_z
Si Si1 0.113606 0.034792 0.289772
Si Si2 0.714408 0.881998 0.221857
Si Si3 0.017286 0.293758 0.503373
Si Si4 0.563015 0.663714 0.751787
Si Si5 0.330115 0.590376 0.475877
Si Si6 0.281915 0.721463 0.191266
Si Si7 0.586715 0.137887 0.988397
Si Si8 0.063731 0.750260 0.945503
O O1 0.248226 0.141293 0.199320
O O2 0.373682 0.244848 0.500065
O O3 0.869342 0.944712 0.330453
O O4 0.029416 0.854989 0.120692
O O5 0.440125 0.753939 0.223759
O O6 0.671226 0.751631 0.954583
O O7 0.913984 0.106723 0.344813
O O8 0.268710 0.503913 0.725267
O O9 0.143604 0.385151 0.397917
O O10 0.790768 0.221428 0.586001
O O11 0.500000 0.500000 0.500000
O O12 0.343677 0.712706 0.735873
O O13 0.187044 0.488753 0.284801
O O14 0.446065 0.851806 0.126770
O O15 0.000000 0.500000 0.000000
O O16 0.819523 0.213717 0.946258
O O17 0.311569 0.900171 0.887851
#
# Coordination Sequence:
#
# PCOD9085276 Si02
#       8
#     2   2   2   2   2   2   2   2
#     4  10  22  33  55  91 123 152 199 244 314 366
#     4  12  23  36  58  89 127 162 197 253 312 372
#     4  11  22  36  59  89 123 161 202 247 312 366
#     4  11  21  34  56  89 125 159 191 253 315 367
#     4  10  19  35  59  90 125 155 199 258 305 362
#     4  12  22  42  60  88 128 164 205 252 305 370
#     4  10  21  39  60  90 123 162 210 251 298 368
#     4  10  21  37  62  90 123 162 203 256 307 352
#
# _framework density 25.746082000000001
#
# number of rings (size 3 to 8) (size 9 to 14) (size 15 to 20)
#    0.000    1.250    3.750    4.125    3.500    0.000 
#    0.000    0.000    0.000    1.500    0.000    0.000 
#    0.000    0.000    0.000    0.000    0.000    0.000 
#
# Total GULP energy -89431.821147 kJ/mol
# GULP energy per Si atom -5589.488822 kJ/mol
# Density = 2.568748 g / cm^3
# Si number density = 25.746082 Si / 1000 Ang^3
#
#
#
# Elastic Constant Matrix: (Units=GPa)
#
#
# Indices 1 2 3 4 5 6 
#
# 1 176.9512 58.1423 51.9428 5.4392 -2.0921 43.2268
# 2 58.1423 83.8767 28.1067 2.0240 12.4266 13.6861
# 3 51.9428 28.1067 112.6269 24.1234 2.8556 17.8039
# 4 5.4392 2.0240 24.1234 26.1303 17.3232 8.4701
# 5 -2.0921 12.4266 2.8556 17.3232 42.6177 8.4077
# 6 43.2268 13.6861 17.8039 8.4701 8.4077 51.6832
#
#
#
# Elastic Compliance Matrix: (Units=1/GPa)
#
#
# Indices 1 2 3 4 5 6 
#
# 1 0.009716 -0.005415 -0.002268 0.000394 0.003334 -0.006518
# 2 -0.005415 0.017908 -0.003833 0.008938 -0.009085 0.001120
# 3 -0.002268 -0.003833 0.014432 -0.017114 0.007076 -0.000406
# 4 0.000394 0.008938 -0.017114 0.075336 -0.031262 -0.004062
# 5 0.003334 -0.009085 0.007076 -0.031262 0.039318 -0.004093
# 6 -0.006518 0.001120 -0.000406 -0.004062 -0.004093 0.025974
#
#
# Mechanical properties :
#
#
# Convention : Reuss Voigt Hill
#
# Bulk Modulus (GPa) = 52.56618 72.20428 62.38523
# Shear Modulus (GPa) = 23.57869 39.77044 31.67456
#
# Velocity S-wave (km/s) = 3.02953 3.93455 3.51132
# Velocity P-wave (km/s) = 5.71829 6.98188 6.38144
#
# Compressibility (1/GPa) = 0.01902364
#
# Stress axis : x y z
#
# Youngs Moduli (GPa) = 102.92642 55.84247 69.29181
#
# Poissons Ratio (x) = 0.30237 0.15716
# Poissons Ratio (y) = 0.55731 0.26559
# Poissons Ratio (z) = 0.23344 0.21404
#
# Static dielectric constant tensor:
#      x y z
#    x 2.103350 0.067300 -0.027730 
#    y 0.067300 2.090590 0.000590 
#    z -0.027730 0.000590 2.011880 
# 
# From -- ./inp_files/438672.got.cif
#   From: 2010.05.17/outbox.cif.g08.bks.cpg/sg2_220_cif.got.tgz:438672.got - 2010.06.03 11:33:40.
