data_PCOD9085764
_publ_section_title
;
Structure prediction by ZEFSAII (Michael W. Deem and Ramdas Pophale) SiO2 
 PCOD9085764
Probable space group: P -1
;
_chemical_formula_sum "Si O2"
_cell_formula_units_Z 16
_cell_length_a 6.197979
_cell_length_b 11.197022
_cell_length_c 15.755349
_cell_angle_alpha 112.652901
_cell_angle_beta 112.259269
_cell_angle_gamma 109.558624
_cell_volume 771.930621
_symmetry_space_group_name_H-M "P -1"
_symmetry_group_IT_number 2
_symmetry_cell_setting 'triclinic'
loop_
_space_group_symop_operation_xyz
x,y,z
-x,-y,-z
loop_
_atom_site_type_symbol
_atom_site_label
_atom_site_fract_x
_atom_site_fract_y
_atom_site_fract_z
Si Si1 0.974263 0.613979 0.753198
Si Si2 0.562196 0.991673 0.636093
Si Si3 0.782260 0.264667 0.357293
Si Si4 0.949960 0.106997 0.580579
Si Si5 0.102353 0.370038 0.071648
Si Si6 0.266567 0.441544 0.784963
Si Si7 0.372136 0.483345 0.569190
Si Si8 0.881432 0.317296 0.846115
O O1 0.118370 0.723273 0.722029
O O2 0.068685 0.494005 0.734099
O O3 0.049989 0.695655 0.878914
O O4 0.633080 0.516143 0.672891
O O5 0.469422 0.894065 0.681898
O O6 0.306921 0.900024 0.506701
O O7 0.833078 0.026250 0.633551
O O8 0.640499 0.163399 0.719071
O O9 0.690892 0.386002 0.386396
O O10 0.061712 0.325112 0.472908
O O11 0.195633 0.287546 0.682380
O O12 0.000000 0.000000 0.500000
O O13 0.414981 0.409458 0.129123
O O14 0.164510 0.543838 0.119919
O O15 0.927923 0.280093 0.937668
O O16 0.163656 0.386752 0.851063
O O17 0.500000 0.500000 0.500000
#
# Coordination Sequence:
#
# PCOD9085764 Si02
#       8
#     2   2   2   2   2   2   2   2
#     4  10  21  35  55  88 110 144 191 237 279 325
#     4  10  22  38  54  80 118 147 183 226 279 344
#     4  10  21  37  54  81 115 152 185 230 277 336
#     4  10  22  37  54  82 113 150 182 222 284 342
#     4  10  19  35  63  82 111 144 190 239 275 332
#     4  10  20  35  60  83 113 144 187 237 281 331
#     4   9  20  35  54  79 111 147 192 227 274 326
#     4   9  20  38  56  86 110 147 189 231 284 330
#
# _framework density 20.727253000000001
#
# number of rings (size 3 to 8) (size 9 to 14) (size 15 to 20)
#    0.000    2.250    0.000    1.875    7.000    3.000 
#    0.000    0.625    0.000    3.000    0.000    0.000 
#    0.000    0.000    0.000    0.000    0.000    0.000 
#
# Total GULP energy -89191.955757 kJ/mol
# GULP energy per Si atom -5574.497235 kJ/mol
# Density = 2.068008 g / cm^3
# Si number density = 20.727253 Si / 1000 Ang^3
#
#
#
# Elastic Constant Matrix: (Units=GPa)
#
#
# Indices 1 2 3 4 5 6 
#
# 1 74.6289 18.0550 11.7464 -8.9802 -1.2476 6.9309
# 2 18.0550 62.7396 9.0586 -17.1149 -11.9872 33.0791
# 3 11.7464 9.0586 69.8174 -17.8646 -8.6039 8.4574
# 4 -8.9802 -17.1149 -17.8646 31.2632 6.9377 -10.3068
# 5 -1.2476 -11.9872 -8.6039 6.9377 26.4517 -9.8704
# 6 6.9309 33.0791 8.4574 -10.3068 -9.8704 33.4730
#
#
#
# Elastic Compliance Matrix: (Units=1/GPa)
#
#
# Indices 1 2 3 4 5 6 
#
# 1 0.014901 -0.005296 -0.001967 0.001502 -0.001765 0.002587
# 2 -0.005296 0.037487 0.002691 0.009011 0.002941 -0.032987
# 3 -0.001967 0.002691 0.017408 0.009181 0.003320 -0.002845
# 4 0.001502 0.009011 0.009181 0.043740 -0.004057 0.000737
# 5 -0.001765 0.002941 0.003320 -0.004057 0.044351 0.008449
# 6 0.002587 -0.032987 -0.002845 0.000737 0.008449 0.065375
#
#
# Mechanical properties :
#
#
# Convention : Reuss Voigt Hill
#
# Bulk Modulus (GPa) = 16.48711 31.65621 24.07166
# Shear Modulus (GPa) = 19.79246 29.45932 24.62589
#
# Velocity S-wave (km/s) = 3.09350 3.77408 3.45061
# Velocity P-wave (km/s) = 4.55316 5.85641 5.24541
#
# Compressibility (1/GPa) = 0.06065345
#
# Stress axis : x y z
#
# Youngs Moduli (GPa) = 67.10796 26.67622 57.44603
#
# Poissons Ratio (x) = 0.14127 0.11297
# Poissons Ratio (y) = 0.35539 -0.15460
# Poissons Ratio (z) = 0.13197 -0.07179
#
# Static dielectric constant tensor:
#      x y z
#    x 1.776070 0.017420 0.006180 
#    y 0.017420 1.747340 -0.054470 
#    z 0.006180 -0.054470 1.768480 
# 
# From -- ./inp_files/95332.got.cif
#   From: 2010.05.17/outbox.cif.g08.bks.cpg/sg2_48_cif.got.tgz:95332.got - 2010.06.03 11:33:40.
