data_PCOD9085400
_publ_section_title
;
Structure prediction by ZEFSAII (Michael W. Deem and Ramdas Pophale) SiO2 
 PCOD9085400
Probable space group: P -1
;
_chemical_formula_sum "Si O2"
_cell_formula_units_Z 14
_cell_length_a 13.355904
_cell_length_b 10.513744
_cell_length_c 9.448898
_cell_angle_alpha 74.738926
_cell_angle_beta 152.062309
_cell_angle_gamma 116.135172
_cell_volume 532.469803
_symmetry_space_group_name_H-M "P -1"
_symmetry_group_IT_number 2
_symmetry_cell_setting 'triclinic'
loop_
_space_group_symop_operation_xyz
x,y,z
-x,-y,-z
loop_
_atom_site_type_symbol
_atom_site_label
_atom_site_fract_x
_atom_site_fract_y
_atom_site_fract_z
Si Si1 0.846190 0.656208 0.733952
Si Si2 0.646462 0.045700 0.441582
Si Si3 0.801745 0.015601 0.927537
Si Si4 0.676374 0.720410 0.092883
Si Si5 0.707834 0.872078 0.356768
Si Si6 0.875323 0.653440 0.094654
Si Si7 0.864851 0.522834 0.518103
O O1 0.103420 0.805746 0.009090
O O2 0.864474 0.541059 0.682929
O O3 0.671883 0.716657 0.426317
O O4 0.783306 0.618430 0.829220
O O5 0.747149 0.970555 0.708825
O O6 0.860038 0.204937 0.622982
O O7 0.438945 0.061552 0.261912
O O8 0.550227 0.935180 0.221163
O O9 0.024757 0.012528 0.286672
O O10 0.708639 0.855380 0.195955
O O11 0.869438 0.669933 0.414631
O O12 0.713790 0.698876 0.980045
O O13 0.400255 0.603953 0.814076
O O14 0.928123 0.520325 0.252492
#
# Coordination Sequence:
#
# PCOD9085400 Si02
#       7
#     2   2   2   2   2   2   2
#     4   8  19  39  60  87 113 145 195 232 282 328
#     4  10  19  35  60  88 116 146 189 227 292 330
#     4   8  18  35  57  88 109 151 184 228 279 335
#     4  10  23  40  58  82 113 157 192 223 294 334
#     4   9  19  38  58  81 118 152 184 229 273 350
#     4  11  22  36  59  91 114 146 187 244 280 329
#     4  10  21  43  58  78 118 151 192 236 278 345
#
# _framework density 26.292569
#
# number of rings (size 3 to 8) (size 9 to 14) (size 15 to 20)
#    0.857    1.714    0.000    1.286    0.000    3.429 
#   12.857    1.429    0.000    0.000    0.000    0.000 
#    0.000    0.000    0.000    0.000    0.000    0.000 
#
# Total GULP energy -78212.917734 kJ/mol
# GULP energy per Si atom -5586.636981 kJ/mol
# Density = 2.623273 g / cm^3
# Si number density = 26.292569 Si / 1000 Ang^3
#
#
#
# Elastic Constant Matrix: (Units=GPa)
#
#
# Indices 1 2 3 4 5 6 
#
# 1 140.3503 26.1689 38.3585 -2.6205 -29.7891 -29.2661
# 2 26.1689 58.9587 15.4138 -9.2504 -11.0620 -29.5466
# 3 38.3585 15.4138 69.6767 3.2734 -21.0755 -4.2379
# 4 -2.6205 -9.2504 3.2734 32.2369 3.8881 -9.0171
# 5 -29.7891 -11.0620 -21.0755 3.8881 61.0968 3.4734
# 6 -29.2661 -29.5466 -4.2379 -9.0171 3.4734 46.6360
#
#
#
# Elastic Compliance Matrix: (Units=1/GPa)
#
#
# Indices 1 2 3 4 5 6 
#
# 1 0.010459 0.001549 -0.004888 0.003539 0.003039 0.007559
# 2 0.001549 0.033581 -0.007000 0.017176 0.001918 0.024790
# 3 -0.004888 -0.007000 0.019680 -0.006944 0.003998 -0.007355
# 4 0.003539 0.017176 -0.006944 0.042963 -0.001482 0.020889
# 5 0.003039 0.001918 0.003998 -0.001482 0.019571 0.001742
# 6 0.007559 0.024790 -0.007355 0.020889 0.001742 0.045133
#
#
# Mechanical properties :
#
#
# Convention : Reuss Voigt Hill
#
# Bulk Modulus (GPa) = 23.23349 47.65202 35.44275
# Shear Modulus (GPa) = 24.22319 40.59689 32.41004
#
# Velocity S-wave (km/s) = 3.03858 3.93370 3.51475
# Velocity P-wave (km/s) = 4.60068 6.22857 5.47546
#
# Compressibility (1/GPa) = 0.04304133
#
# Stress axis : x y z
#
# Youngs Moduli (GPa) = 95.60737 29.77834 50.81366
#
# Poissons Ratio (x) = -0.04612 0.24838
# Poissons Ratio (y) = -0.14808 0.35572
# Poissons Ratio (z) = 0.46733 0.20846
#
# Static dielectric constant tensor:
#      x y z
#    x 2.087750 0.092760 -0.022130 
#    y 0.092760 2.220640 -0.079820 
#    z -0.022130 -0.079820 2.059430 
# 
# From -- ./inp_files/253578.got.cif
#   From: 2010.05.17/outbox.cif.g08.bks.cpg/sg2_127_cif.got.tgz:253578.got - 2010.06.03 11:33:40.
