data_PCOD9085512
_publ_section_title
;
Structure prediction by ZEFSAII (Michael W. Deem and Ramdas Pophale) SiO2 
 PCOD9085512
Probable space group: P -1
;
_chemical_formula_sum "Si O2"
_cell_formula_units_Z 16
_cell_length_a 9.077044
_cell_length_b 5.440580
_cell_length_c 14.593525
_cell_angle_alpha 87.169822
_cell_angle_beta 114.157190
_cell_angle_gamma 72.960014
_cell_volume 616.758030
_symmetry_space_group_name_H-M "P -1"
_symmetry_group_IT_number 2
_symmetry_cell_setting 'triclinic'
loop_
_space_group_symop_operation_xyz
x,y,z
-x,-y,-z
loop_
_atom_site_type_symbol
_atom_site_label
_atom_site_fract_x
_atom_site_fract_y
_atom_site_fract_z
Si Si1 0.288306 0.136417 0.803964
Si Si2 0.069705 0.655044 0.401237
Si Si3 0.918255 0.810343 0.868499
Si Si4 0.771250 0.373909 0.909303
Si Si5 0.266217 0.678493 0.607316
Si Si6 0.811764 0.894138 0.651201
Si Si7 0.549023 0.917592 0.344525
Si Si8 0.367712 0.592005 0.845783
O O1 0.435382 0.071378 0.762830
O O2 0.310247 0.358122 0.870465
O O3 0.114730 0.237803 0.697130
O O4 0.312447 0.875289 0.871167
O O5 0.086756 0.700293 0.513614
O O6 0.155010 0.353804 0.400931
O O7 0.172659 0.838323 0.386700
O O8 0.818769 0.607683 0.868569
O O9 0.951514 0.800324 0.769489
O O10 0.812275 0.113575 0.861724
O O11 0.091679 0.719763 0.972505
O O12 0.573015 0.481166 0.886404
O O13 0.388221 0.390896 0.611854
O O14 0.277312 0.657325 0.720374
O O15 0.334537 0.913127 0.596720
O O16 0.631670 0.952997 0.655692
#
# Coordination Sequence:
#
# PCOD9085512 Si02
#       8
#     2   2   2   2   2   2   2   2
#     4  10  22  39  59  83 113 157 202 239 284 340
#     4  12  26  39  57  84 123 163 192 230 292 353
#     4  10  20  35  59  89 122 149 187 238 297 346
#     4  10  19  35  62  93 114 145 192 248 293 335
#     4  10  21  36  57  86 117 152 196 240 287 341
#     4  12  24  40  59  86 124 156 188 238 292 348
#     4  10  21  37  60  82 111 152 201 248 283 328
#     4  10  19  35  61  84 112 145 198 252 284 328
#
# _framework density 25.942101999999998
#
# number of rings (size 3 to 8) (size 9 to 14) (size 15 to 20)
#    0.000    1.500    0.000    6.750    0.000    7.000 
#    0.000    0.000    0.000    4.500    0.000    0.000 
#    0.000    0.000    0.000    0.000    0.000    0.000 
#
# Total GULP energy -89616.456898 kJ/mol
# GULP energy per Si atom -5601.028556 kJ/mol
# Density = 2.588306 g / cm^3
# Si number density = 25.942102 Si / 1000 Ang^3
#
#
#
# Elastic Constant Matrix: (Units=GPa)
#
#
# Indices 1 2 3 4 5 6 
#
# 1 101.3135 60.6551 -1.1541 7.0900 11.6471 4.4877
# 2 60.6551 260.7980 24.4482 11.6306 11.3761 19.7827
# 3 -1.1541 24.4482 51.6697 9.7350 -0.1151 9.7872
# 4 7.0900 11.6306 9.7350 27.8062 3.9656 10.1565
# 5 11.6471 11.3761 -0.1151 3.9656 19.8341 6.4719
# 6 4.4877 19.7827 9.7872 10.1565 6.4719 41.4782
#
#
#
# Elastic Compliance Matrix: (Units=1/GPa)
#
#
# Indices 1 2 3 4 5 6 
#
# 1 0.012286 -0.002762 0.001797 -0.002171 -0.005497 0.000953
# 2 -0.002762 0.004807 -0.002078 0.000033 -0.000696 -0.001403
# 3 0.001797 -0.002078 0.022236 -0.006561 0.002640 -0.003255
# 4 -0.002171 0.000033 -0.006561 0.042342 -0.004680 -0.007870
# 5 -0.005497 -0.000696 0.002640 -0.004680 0.057448 -0.007514
# 6 0.000953 -0.001403 -0.003255 -0.007870 -0.007514 0.028543
#
#
# Mechanical properties :
#
#
# Convention : Reuss Voigt Hill
#
# Bulk Modulus (GPa) = 30.08082 64.63107 47.35594
# Shear Modulus (GPa) = 27.05221 39.81248 33.43235
#
# Velocity S-wave (km/s) = 3.23273 3.92173 3.59378
# Velocity P-wave (km/s) = 5.05516 6.74346 5.95940
#
# Compressibility (1/GPa) = 0.03324378
#
# Stress axis : x y z
#
# Youngs Moduli (GPa) = 81.39481 208.03952 44.97244
#
# Poissons Ratio (x) = 0.57451 -0.08083
# Poissons Ratio (y) = 0.22478 0.09346
# Poissons Ratio (z) = -0.14629 0.43232
#
# Static dielectric constant tensor:
#      x y z
#    x 2.005410 0.030180 0.014990 
#    y 0.030180 2.069850 -0.024050 
#    z 0.014990 -0.024050 2.086900 
# 
# From -- ./inp_files/552718.got.cif
#   From: 2010.05.17/outbox.cif.g08.bks.cpg/sg2_277_cif.got.tgz:552718.got - 2010.06.03 11:33:40.
