data_PCOD9085029
_publ_section_title
;
Structure prediction by ZEFSAII (Michael W. Deem and Ramdas Pophale) SiO2 
 PCOD9085029
Probable space group: P -1
;
_chemical_formula_sum "Si O2"
_cell_formula_units_Z 14
_cell_length_a 7.950083
_cell_length_b 17.214470
_cell_length_c 10.343819
_cell_angle_alpha 39.867274
_cell_angle_beta 96.414609
_cell_angle_gamma 69.895472
_cell_volume 665.957911
_symmetry_space_group_name_H-M "P -1"
_symmetry_group_IT_number 2
_symmetry_cell_setting 'triclinic'
loop_
_space_group_symop_operation_xyz
x,y,z
-x,-y,-z
loop_
_atom_site_type_symbol
_atom_site_label
_atom_site_fract_x
_atom_site_fract_y
_atom_site_fract_z
Si Si1 0.584299 0.261006 0.240705
Si Si2 0.381569 0.578276 0.727259
Si Si3 0.726238 0.811064 0.755933
Si Si4 0.125833 0.079159 0.182665
Si Si5 0.505449 0.878063 0.241693
Si Si6 0.042412 0.351424 0.264176
Si Si7 0.789138 0.176714 0.821755
O O1 0.550987 0.340404 0.278671
O O2 0.377938 0.273763 0.156923
O O3 0.797636 0.067298 0.527619
O O4 0.581660 0.380764 0.996084
O O5 0.284375 0.674662 0.462258
O O6 0.171859 0.611537 0.738120
O O7 0.869190 0.792596 0.912049
O O8 0.861057 0.775431 0.682650
O O9 0.500000 0.000000 0.500000
O O10 0.326311 0.979669 0.216362
O O11 0.887612 0.165709 0.982124
O O12 0.754359 0.733812 0.506360
O O13 0.421972 0.811906 0.224721
O O14 0.500000 0.000000 0.000000
O O15 0.000000 0.500000 0.000000
O O16 0.000000 0.000000 0.000000
#
# Coordination Sequence:
#
# PCOD9085029 Si02
#       7
#     2   2   2   2   2   2   2
#     4  10  19  35  58  85 112 152 185 237 295 331
#     4  11  20  33  59  89 114 144 193 243 286 330
#     4  10  19  39  58  83 123 154 184 236 299 338
#     4  10  19  38  59  78 116 158 189 227 290 352
#     4  11  21  35  58  87 114 147 196 242 279 338
#     4  12  21  35  60  93 114 145 199 240 276 342
#     4  10  19  36  55  82 116 153 192 230 290 344
#
# _framework density 21.022349999999999
#
# number of rings (size 3 to 8) (size 9 to 14) (size 15 to 20)
#    0.000    1.429    7.143    1.714    2.000    0.000 
#    0.000    5.000    0.000    0.857    0.000    0.000 
#    0.000    0.000    0.000    0.000    0.000    0.000 
#
# Total GULP energy -78060.655366 kJ/mol
# GULP energy per Si atom -5575.761098 kJ/mol
# Density = 2.097450 g / cm^3
# Si number density = 21.022350 Si / 1000 Ang^3
#
#
#
# Elastic Constant Matrix: (Units=GPa)
#
#
# Indices 1 2 3 4 5 6 
#
# 1 108.5220 44.9200 49.3420 13.2891 3.6572 35.8680
# 2 44.9200 70.4480 28.9360 6.5938 6.4823 42.0119
# 3 49.3420 28.9360 168.7830 16.2091 -5.8618 22.0717
# 4 13.2891 6.5938 16.2091 24.0097 16.2232 11.1452
# 5 3.6572 6.4823 -5.8618 16.2232 37.3815 10.2709
# 6 35.8680 42.0119 22.0717 11.1452 10.2709 48.6666
#
#
#
# Elastic Compliance Matrix: (Units=1/GPa)
#
#
# Indices 1 2 3 4 5 6 
#
# 1 0.014389 -0.005486 -0.002176 -0.004588 0.002384 -0.004335
# 2 -0.005486 0.032522 -0.001581 0.008028 -0.002042 -0.024722
# 3 -0.002176 -0.001581 0.007612 -0.006588 0.004520 0.000070
# 4 -0.004588 0.008028 -0.006588 0.071773 -0.030206 -0.010623
# 5 0.002384 -0.002042 0.004520 -0.030206 0.041773 -0.003943
# 6 -0.004335 -0.024722 0.000070 -0.010623 -0.003943 0.048317
#
#
# Mechanical properties :
#
#
# Convention : Reuss Voigt Hill
#
# Bulk Modulus (GPa) = 27.74853 66.01656 46.88254
# Shear Modulus (GPa) = 20.25237 36.98190 28.61713
#
# Velocity S-wave (km/s) = 3.10719 4.19880 3.69354
# Velocity P-wave (km/s) = 5.10892 7.41470 6.36706
#
# Compressibility (1/GPa) = 0.03603795
#
# Stress axis : x y z
#
# Youngs Moduli (GPa) = 69.49795 30.74850 131.36741
#
# Poissons Ratio (x) = 0.16869 0.28581
# Poissons Ratio (y) = 0.38128 0.20765
# Poissons Ratio (z) = 0.15120 0.04860
#
# Static dielectric constant tensor:
#      x y z
#    x 1.799090 0.028000 0.021760 
#    y 0.028000 1.781300 0.013360 
#    z 0.021760 0.013360 1.819540 
# 
# From -- ./inp_files/404068.got.cif
#   From: 2010.05.17/outbox.cif.g08.bks.cpg/sg2_203_cif.got.tgz:404068.got - 2010.06.03 11:33:40.
