data_PCOD9085337
_publ_section_title
;
Structure prediction by ZEFSAII (Michael W. Deem and Ramdas Pophale) SiO2 
 PCOD9085337
Probable space group: P -1
;
_chemical_formula_sum "Si O2"
_cell_formula_units_Z 16
_cell_length_a 10.922693
_cell_length_b 12.675642
_cell_length_c 9.080255
_cell_angle_alpha 98.554922
_cell_angle_beta 46.473193
_cell_angle_gamma 119.108890
_cell_volume 761.185583
_symmetry_space_group_name_H-M "P -1"
_symmetry_group_IT_number 2
_symmetry_cell_setting 'triclinic'
loop_
_space_group_symop_operation_xyz
x,y,z
-x,-y,-z
loop_
_atom_site_type_symbol
_atom_site_label
_atom_site_fract_x
_atom_site_fract_y
_atom_site_fract_z
Si Si1 0.623769 0.064228 0.217498
Si Si2 0.423642 0.591488 0.559094
Si Si3 0.972455 0.118941 0.718387
Si Si4 0.160233 0.958772 0.524812
Si Si5 0.025541 0.686778 0.654165
Si Si6 0.149203 0.540297 0.024540
Si Si7 0.081950 0.380630 0.604269
Si Si8 0.435477 0.802887 0.462088
O O1 0.683680 0.181352 0.299782
O O2 0.398690 0.020979 0.347944
O O3 0.591237 0.944001 0.310828
O O4 0.785654 0.090631 0.967324
O O5 0.500000 0.500000 0.500000
O O6 0.245724 0.510969 0.570798
O O7 0.533897 0.727629 0.420368
O O8 0.356652 0.603876 0.780566
O O9 0.895379 0.072238 0.607046
O O10 0.107225 0.270464 0.624205
O O11 0.084951 0.049087 0.657908
O O12 0.046931 0.822698 0.672937
O O13 0.258939 0.728985 0.473896
O O14 0.907590 0.582767 0.857058
O O15 0.927986 0.626141 0.564617
O O16 0.121690 0.634007 0.169460
O O17 0.000000 0.500000 0.000000
#
# Coordination Sequence:
#
# PCOD9085337 Si02
#       8
#     2   2   2   2   2   2   2   2
#     4  10  21  37  61  84 117 159 196 246 295 348
#     4  11  24  38  57  87 124 153 190 244 295 352
#     4  10  20  37  60  88 120 153 201 236 306 354
#     4   9  21  37  58  89 119 156 193 253 288 358
#     4  10  19  38  63  85 116 149 202 246 290 348
#     4  10  19  35  60  84 109 150 197 235 285 351
#     4  10  21  37  64  86 113 157 193 243 295 351
#     4  10  21  38  57  85 118 151 200 244 291 347
#
# _framework density 21.019842000000001
#
# number of rings (size 3 to 8) (size 9 to 14) (size 15 to 20)
#    0.000    2.000    2.500    1.500    3.500    1.000 
#    0.000    6.250    0.000    0.000    0.000    0.000 
#    0.000    0.000    0.000    0.000    0.000    0.000 
#
# Total GULP energy -89172.539056 kJ/mol
# GULP energy per Si atom -5573.283691 kJ/mol
# Density = 2.097200 g / cm^3
# Si number density = 21.019842 Si / 1000 Ang^3
#
#
#
# Elastic Constant Matrix: (Units=GPa)
#
#
# Indices 1 2 3 4 5 6 
#
# 1 70.2133 44.4847 19.6337 -3.0438 11.5970 -27.8776
# 2 44.4847 100.5384 31.1816 0.3369 13.6000 -32.1463
# 3 19.6337 31.1816 49.0501 -5.9729 9.9861 -17.0600
# 4 -3.0438 0.3369 -5.9729 19.6319 -8.8539 4.2150
# 5 11.5970 13.6000 9.9861 -8.8539 23.7454 -2.0930
# 6 -27.8776 -32.1463 -17.0600 4.2150 -2.0930 48.6676
#
#
#
# Elastic Compliance Matrix: (Units=1/GPa)
#
#
# Indices 1 2 3 4 5 6 
#
# 1 0.022907 -0.006093 -0.001075 -0.001727 -0.007134 0.008562
# 2 -0.006093 0.017449 -0.006007 -0.007450 -0.006715 0.006286
# 3 -0.001075 -0.006007 0.027949 0.004967 -0.005536 0.004545
# 4 -0.001727 -0.007450 0.004967 0.066363 0.026994 -0.008755
# 5 -0.007134 -0.006715 -0.005536 0.026994 0.060940 -0.010180
# 6 0.008562 0.006286 0.004545 -0.008755 -0.010180 0.031518
#
#
# Mechanical properties :
#
#
# Convention : Reuss Voigt Hill
#
# Bulk Modulus (GPa) = 23.83599 45.60020 34.71810
# Shear Modulus (GPa) = 18.69435 26.70910 22.70173
#
# Velocity S-wave (km/s) = 2.98546 3.56850 3.28992
# Velocity P-wave (km/s) = 4.82165 6.22253 5.56634
#
# Compressibility (1/GPa) = 0.04195336
#
# Stress axis : x y z
#
# Youngs Moduli (GPa) = 43.65554 57.31070 35.77912
#
# Poissons Ratio (x) = 0.34921 0.03847
# Poissons Ratio (y) = 0.26601 0.21493
# Poissons Ratio (z) = 0.04694 0.34427
#
# Static dielectric constant tensor:
#      x y z
#    x 1.840890 -0.027730 -0.034730 
#    y -0.027730 1.791920 -0.006050 
#    z -0.034730 -0.006050 1.777850 
# 
# From -- ./inp_files/258852.got.cif
#   From: 2010.05.17/outbox.cif.g08.bks.cpg/sg2_130_cif.got.tgz:258852.got - 2010.06.03 11:33:40.
