data_PCOD9085283
_publ_section_title
;
Structure prediction by ZEFSAII (Michael W. Deem and Ramdas Pophale) SiO2 
 PCOD9085283
Probable space group: P -1
;
_chemical_formula_sum "Si O2"
_cell_formula_units_Z 16
_cell_length_a 9.651190
_cell_length_b 15.310682
_cell_length_c 8.169753
_cell_angle_alpha 97.299856
_cell_angle_beta 49.887099
_cell_angle_gamma 127.843055
_cell_volume 653.240347
_symmetry_space_group_name_H-M "P -1"
_symmetry_group_IT_number 2
_symmetry_cell_setting 'triclinic'
loop_
_space_group_symop_operation_xyz
x,y,z
-x,-y,-z
loop_
_atom_site_type_symbol
_atom_site_label
_atom_site_fract_x
_atom_site_fract_y
_atom_site_fract_z
Si Si1 0.795664 0.614444 0.194267
Si Si2 0.696458 0.583632 0.615300
Si Si3 0.969372 0.160456 0.067974
Si Si4 0.248484 0.200184 0.442507
Si Si5 0.557473 0.033114 0.771754
Si Si6 0.888526 0.289712 0.424702
Si Si7 0.989399 0.045281 0.305283
Si Si8 0.800026 0.364068 0.199637
O O1 0.717475 0.547054 0.411588
O O2 0.609565 0.515591 0.169107
O O3 0.811255 0.724782 0.187798
O O4 0.088194 0.687487 0.974387
O O5 0.813928 0.720085 0.529730
O O6 0.864195 0.599430 0.631575
O O7 0.957980 0.231013 0.238455
O O8 0.035022 0.095497 0.101804
O O9 0.699156 0.059719 0.161914
O O10 0.527405 0.291063 0.322569
O O11 0.221945 0.145674 0.271730
O O12 0.073157 0.078524 0.658896
O O13 0.681950 0.171631 0.670604
O O14 0.750715 0.021631 0.556419
O O15 0.500000 0.000000 0.000000
O O16 0.804279 0.341567 0.384037
O O17 0.000000 0.500000 0.000000
#
# Coordination Sequence:
#
# PCOD9085283 Si02
#       8
#     2   2   2   2   2   2   2   2
#     4  10  23  38  64  89 121 158 207 251 302 364
#     4  11  21  41  64  87 122 161 201 252 306 354
#     4  10  19  35  59  91 117 154 210 246 293 366
#     4  11  21  38  63  84 125 155 202 248 304 353
#     4  11  20  35  63  91 123 159 200 250 308 360
#     4  10  21  37  61  90 119 161 207 247 294 371
#     4  10  21  37  60  89 118 161 199 254 297 360
#     4  11  22  39  63  89 120 162 204 248 302 359
#
# _framework density 24.493283000000002
#
# number of rings (size 3 to 8) (size 9 to 14) (size 15 to 20)
#    0.000    1.500    3.750    4.500    0.000    3.000 
#    0.000    1.250    8.250    0.000    0.000    0.000 
#    0.000    0.000    0.000    0.000    0.000    0.000 
#
# Total GULP energy -89316.521110 kJ/mol
# GULP energy per Si atom -5582.282569 kJ/mol
# Density = 2.443754 g / cm^3
# Si number density = 24.493283 Si / 1000 Ang^3
#
#
#
# Elastic Constant Matrix: (Units=GPa)
#
#
# Indices 1 2 3 4 5 6 
#
# 1 164.9731 51.3651 39.3734 -23.1725 29.2444 39.4050
# 2 51.3651 94.0635 16.2285 -20.4504 7.0101 21.4617
# 3 39.3734 16.2285 86.7271 -11.3007 25.0159 8.2620
# 4 -23.1725 -20.4504 -11.3007 25.4049 -5.7835 3.3911
# 5 29.2444 7.0101 25.0159 -5.7835 43.2216 -6.7379
# 6 39.4050 21.4617 8.2620 3.3911 -6.7379 55.2513
#
#
#
# Elastic Compliance Matrix: (Units=1/GPa)
#
#
# Indices 1 2 3 4 5 6 
#
# 1 0.011237 -0.001778 -0.000878 0.007958 -0.007074 -0.008543
# 2 -0.001778 0.015360 0.000144 0.011381 -0.000707 -0.005505
# 3 -0.000878 0.000144 0.015092 0.004599 -0.008008 -0.002946
# 4 0.007958 0.011381 0.004599 0.058831 -0.004347 -0.014925
# 5 -0.007074 -0.000707 -0.008008 -0.004347 0.033791 0.010905
# 6 -0.008543 -0.005505 -0.002946 -0.014925 0.010905 0.029017
#
#
# Mechanical properties :
#
#
# Convention : Reuss Voigt Hill
#
# Bulk Modulus (GPa) = 27.27338 62.18863 44.73100
# Shear Modulus (GPa) = 27.68975 40.69532 34.19254
#
# Velocity S-wave (km/s) = 3.36594 4.08056 3.74036
# Velocity P-wave (km/s) = 5.12497 6.90264 6.07914
#
# Compressibility (1/GPa) = 0.03666580
#
# Stress axis : x y z
#
# Youngs Moduli (GPa) = 88.99109 65.10353 66.26186
#
# Poissons Ratio (x) = 0.11577 0.05815
# Poissons Ratio (y) = 0.15825 -0.00956
# Poissons Ratio (z) = 0.07810 -0.00939
#
# Static dielectric constant tensor:
#      x y z
#    x 1.968190 -0.065420 0.060460 
#    y -0.065420 2.004630 0.032700 
#    z 0.060460 0.032700 2.153640 
# 
# From -- ./inp_files/217481.got.cif
#   From: 2010.05.17/outbox.cif.g08.bks.cpg/sg2_109_cif.got.tgz:217481.got - 2010.06.03 11:33:40.
