data_PCOD9085926
_publ_section_title
;
Structure prediction by ZEFSAII (Michael W. Deem and Ramdas Pophale) SiO2 
 PCOD9085926
Probable space group: P -1
;
_chemical_formula_sum "Si O2"
_cell_formula_units_Z 16
_cell_length_a 7.931444
_cell_length_b 9.159713
_cell_length_c 11.025446
_cell_angle_alpha 87.529455
_cell_angle_beta 112.267217
_cell_angle_gamma 115.866552
_cell_volume 659.775328
_symmetry_space_group_name_H-M "P -1"
_symmetry_group_IT_number 2
_symmetry_cell_setting 'triclinic'
loop_
_space_group_symop_operation_xyz
x,y,z
-x,-y,-z
loop_
_atom_site_type_symbol
_atom_site_label
_atom_site_fract_x
_atom_site_fract_y
_atom_site_fract_z
Si Si1 0.598092 0.138778 0.798744
Si Si2 0.753435 0.736108 0.652318
Si Si3 0.110422 0.530832 0.274506
Si Si4 0.501282 0.457163 0.193155
Si Si5 0.079661 0.273138 0.674568
Si Si6 0.319430 0.018266 0.527663
Si Si7 0.939306 0.031888 0.851829
Si Si8 0.295507 0.621425 0.974677
O O1 0.713241 0.304282 0.742018
O O2 0.378070 0.034212 0.683568
O O3 0.725364 0.038184 0.812662
O O4 0.616626 0.206429 0.936781
O O5 0.815779 0.594392 0.646380
O O6 0.583708 0.660201 0.712701
O O7 0.682947 0.816079 0.524402
O O8 0.928314 0.890609 0.764273
O O9 0.003893 0.593001 0.342955
O O10 0.937864 0.441752 0.127498
O O11 0.584884 0.380720 0.114334
O O12 0.681742 0.626281 0.287152
O O13 0.333327 0.498398 0.080433
O O14 0.906400 0.126566 0.556637
O O15 0.072662 0.200467 0.811267
O O16 0.500000 0.000000 0.500000
O O17 0.000000 0.000000 0.000000
#
# Coordination Sequence:
#
# PCOD9085926 Si02
#       8
#     2   2   2   2   2   2   2   2
#     4  11  20  38  63  90 122 169 205 254 304 366
#     4  11  22  37  66  98 118 158 221 262 300 365
#     4  10  19  35  64  95 122 154 214 265 297 362
#     4  10  22  38  63  98 128 161 200 262 328 368
#     4   9  21  41  63  88 128 172 200 256 321 365
#     4  11  21  44  65  86 125 169 218 251 301 373
#     4  10  21  33  62  90 125 159 209 248 305 372
#     4  10  21  36  62  93 133 158 198 251 334 366
#
# _framework density 24.250679999999999
#
# number of rings (size 3 to 8) (size 9 to 14) (size 15 to 20)
#    0.000    1.750    5.000    1.125    7.000    0.500 
#    0.000    1.875   11.000    0.000    0.000    0.000 
#    0.000    0.000    0.000    0.000    0.000    0.000 
#
# Total GULP energy -89506.302078 kJ/mol
# GULP energy per Si atom -5594.143880 kJ/mol
# Density = 2.419548 g / cm^3
# Si number density = 24.250680 Si / 1000 Ang^3
#
#
#
# Elastic Constant Matrix: (Units=GPa)
#
#
# Indices 1 2 3 4 5 6 
#
# 1 58.7442 34.8009 20.5707 -3.2047 9.6977 -9.5647
# 2 34.8009 101.5080 43.5611 -3.9241 16.0932 -22.3582
# 3 20.5707 43.5611 118.7166 19.2437 20.7606 -1.8592
# 4 -3.2047 -3.9241 19.2437 30.9688 -8.1083 10.6787
# 5 9.6977 16.0932 20.7606 -8.1083 31.1826 1.8886
# 6 -9.5647 -22.3582 -1.8592 10.6787 1.8886 30.9659
#
#
#
# Elastic Compliance Matrix: (Units=1/GPa)
#
#
# Indices 1 2 3 4 5 6 
#
# 1 0.021878 -0.006018 -0.001148 0.000665 -0.002900 0.002291
# 2 -0.006018 0.016673 -0.003823 -0.001155 -0.005134 0.010661
# 3 -0.001148 -0.003823 0.014051 -0.013111 -0.010610 0.002897
# 4 0.000665 -0.001155 -0.013111 0.054236 0.024530 -0.021615
# 5 -0.002900 -0.005134 -0.010610 0.024530 0.050077 -0.016753
# 6 0.002291 0.010661 0.002897 -0.021615 -0.016753 0.049349
#
#
# Mechanical properties :
#
#
# Convention : Reuss Voigt Hill
#
# Bulk Modulus (GPa) = 32.65362 52.98157 42.81759
# Shear Modulus (GPa) = 20.96880 30.62588 25.79734
#
# Velocity S-wave (km/s) = 2.94371 3.55757 3.26510
# Velocity P-wave (km/s) = 5.00482 6.22655 5.64881
#
# Compressibility (1/GPa) = 0.03062448
#
# Stress axis : x y z
#
# Youngs Moduli (GPa) = 45.70802 59.97782 71.16858
#
# Poissons Ratio (x) = 0.36095 0.08167
# Poissons Ratio (y) = 0.27508 0.27208
# Poissons Ratio (z) = 0.05245 0.22930
#
# Static dielectric constant tensor:
#      x y z
#    x 1.975170 -0.013570 -0.015440 
#    y -0.013570 1.938630 0.043160 
#    z -0.015440 0.043160 1.931790 
# 
# From -- ./inp_files/307184.got.cif
#   From: 2010.05.17/outbox.cif.g08.bks.cpg/sg2_154_cif.got.tgz:307184.got - 2010.06.03 11:33:40.
