data_PCOD9085518
_publ_section_title
;
Structure prediction by ZEFSAII (Michael W. Deem and Ramdas Pophale) SiO2 
 PCOD9085518
Probable space group: P -1
;
_chemical_formula_sum "Si O2"
_cell_formula_units_Z 14
_cell_length_a 20.708806
_cell_length_b 20.006523
_cell_length_c 7.443996
_cell_angle_alpha 50.491368
_cell_angle_beta 132.934197
_cell_angle_gamma 165.495273
_cell_volume 560.974133
_symmetry_space_group_name_H-M "P -1"
_symmetry_group_IT_number 2
_symmetry_cell_setting 'triclinic'
loop_
_space_group_symop_operation_xyz
x,y,z
-x,-y,-z
loop_
_atom_site_type_symbol
_atom_site_label
_atom_site_fract_x
_atom_site_fract_y
_atom_site_fract_z
Si Si1 0.719557 0.100563 0.882520
Si Si2 0.187275 0.228089 0.324762
Si Si3 0.761477 0.949724 0.112525
Si Si4 0.902747 0.536136 0.700733
Si Si5 0.575037 0.403096 0.245573
Si Si6 0.178637 0.655715 0.795651
Si Si7 0.890518 0.995829 0.668880
O O1 0.939563 0.371110 0.753781
O O2 0.443860 0.892842 0.771370
O O3 0.863943 0.209826 0.159049
O O4 0.691903 0.986697 0.915643
O O5 0.500000 0.500000 0.500000
O O6 0.544980 0.697484 0.009342
O O7 0.000000 0.000000 0.500000
O O8 0.058176 0.202896 0.153986
O O9 0.775434 0.932340 0.374368
O O10 0.045946 0.622983 0.655940
O O11 0.701972 0.425690 0.459984
O O12 0.762038 0.332857 0.912199
O O13 0.319826 0.174397 0.285009
O O14 0.878368 0.882103 0.796090
O O15 0.810184 0.687141 0.269777
#
# Coordination Sequence:
#
# PCOD9085518 Si02
#       7
#     2   2   2   2   2   2   2
#     4  10  19  35  61  84 124 166 201 267 317 362
#     4  10  23  41  70  94 128 174 214 263 324 386
#     4  11  25  44  67 101 131 167 223 269 321 391
#     4   9  20  35  60  89 125 164 216 254 320 380
#     4  12  26  40  70  99 128 176 218 264 328 388
#     4   9  19  33  63  85 120 174 207 253 325 375
#     4  11  24  46  65  93 136 172 213 269 327 377
#
# _framework density 24.956588
#
# number of rings (size 3 to 8) (size 9 to 14) (size 15 to 20)
#    0.857    0.857    1.429    3.000    0.000    6.857 
#    0.000    1.429    0.000    0.000    0.000    0.000 
#    0.000    0.000    0.000    0.000    0.000    0.000 
#
# Total GULP energy -78351.680111 kJ/mol
# GULP energy per Si atom -5596.548579 kJ/mol
# Density = 2.489979 g / cm^3
# Si number density = 24.956588 Si / 1000 Ang^3
#
#
#
# Elastic Constant Matrix: (Units=GPa)
#
#
# Indices 1 2 3 4 5 6 
#
# 1 136.6656 36.4073 25.8846 16.0954 3.4864 -4.2241
# 2 36.4073 134.6059 3.9020 21.0614 -18.4208 13.4559
# 3 25.8846 3.9020 70.7996 24.4273 -2.6193 10.8455
# 4 16.0954 21.0614 24.4273 32.0194 2.2915 3.6023
# 5 3.4864 -18.4208 -2.6193 2.2915 51.3013 15.6748
# 6 -4.2241 13.4559 10.8455 3.6023 15.6748 52.4494
#
#
#
# Elastic Compliance Matrix: (Units=1/GPa)
#
#
# Indices 1 2 3 4 5 6 
#
# 1 0.008994 -0.003068 -0.003789 0.000240 -0.002876 0.003138
# 2 -0.003068 0.010962 0.004721 -0.009130 0.006421 -0.005327
# 3 -0.003789 0.004721 0.022813 -0.018273 0.006003 -0.006773
# 4 0.000240 -0.009130 -0.018273 0.051065 -0.008048 0.005038
# 5 -0.002876 0.006421 0.006003 -0.008048 0.025800 -0.010278
# 6 0.003138 -0.005327 -0.006773 0.005038 -0.010278 0.024812
#
#
# Mechanical properties :
#
#
# Convention : Reuss Voigt Hill
#
# Bulk Modulus (GPa) = 25.97516 52.71766 39.34641
# Shear Modulus (GPa) = 30.95021 45.54583 38.24802
#
# Velocity S-wave (km/s) = 3.52541 4.27664 3.91907
# Velocity P-wave (km/s) = 5.19636 6.74950 6.02320
#
# Compressibility (1/GPa) = 0.03849832
#
# Stress axis : x y z
#
# Youngs Moduli (GPa) = 111.18475 91.22581 43.83379
#
# Poissons Ratio (x) = 0.27984 0.16609
# Poissons Ratio (y) = 0.34107 -0.20695
# Poissons Ratio (z) = 0.42129 -0.43069
#
# Static dielectric constant tensor:
#      x y z
#    x 1.965270 -0.041330 -0.037470 
#    y -0.041330 1.956480 -0.035520 
#    z -0.037470 -0.035520 2.099770 
# 
# From -- ./inp_files/477203.got.cif
#   From: 2010.05.17/outbox.cif.g08.bks.cpg/sg2_239_cif.got.tgz:477203.got - 2010.06.03 11:33:40.
