data_PCOD9085213
_publ_section_title
;
Structure prediction by ZEFSAII (Michael W. Deem and Ramdas Pophale) SiO2 
 PCOD9085213
Probable space group: P -1
;
_chemical_formula_sum "Si O2"
_cell_formula_units_Z 14
_cell_length_a 12.164354
_cell_length_b 9.101499
_cell_length_c 7.469542
_cell_angle_alpha 69.142955
_cell_angle_beta 82.251952
_cell_angle_gamma 122.533606
_cell_volume 593.016188
_symmetry_space_group_name_H-M "P -1"
_symmetry_group_IT_number 2
_symmetry_cell_setting 'triclinic'
loop_
_space_group_symop_operation_xyz
x,y,z
-x,-y,-z
loop_
_atom_site_type_symbol
_atom_site_label
_atom_site_fract_x
_atom_site_fract_y
_atom_site_fract_z
Si Si1 0.202750 0.898055 0.808539
Si Si2 0.666077 0.670056 0.422779
Si Si3 0.609059 0.179421 0.034231
Si Si4 0.662639 0.699195 0.836978
Si Si5 0.330193 0.948811 0.370196
Si Si6 0.941233 0.788534 0.704202
Si Si7 0.780644 0.470838 0.594713
O O1 0.249085 0.794391 0.967101
O O2 0.276313 0.919120 0.595082
O O3 0.044375 0.804361 0.822229
O O4 0.273515 0.120652 0.773519
O O5 0.500000 0.500000 0.500000
O O6 0.682230 0.718200 0.609470
O O7 0.749205 0.581641 0.413703
O O8 0.504741 0.100216 0.260364
O O9 0.658816 0.370080 0.822310
O O10 0.500000 0.000000 0.000000
O O11 0.793440 0.707842 0.868224
O O12 0.693704 0.908407 0.791513
O O13 0.500000 0.500000 0.000000
O O14 0.248974 0.724928 0.401329
O O15 0.917269 0.642933 0.608669
O O16 0.000000 0.000000 0.500000
#
# Coordination Sequence:
#
# PCOD9085213 Si02
#       7
#     2   2   2   2   2   2   2
#     4  11  22  37  62  87 121 167 206 249 306 369
#     4  10  19  35  59  86 115 164 208 239 297 369
#     4  10  21  37  58  90 127 156 199 257 311 356
#     4  10  21  38  64  90 119 163 204 253 306 360
#     4  10  19  35  60  93 120 153 209 258 299 357
#     4  11  20  42  61  88 127 169 201 250 310 374
#     4  10  21  36  59  86 122 161 197 252 309 354
#
# _framework density 23.608122999999999
#
# number of rings (size 3 to 8) (size 9 to 14) (size 15 to 20)
#    0.000    1.714    4.286    3.857    0.000    3.429 
#    0.000    0.000    0.000   14.571    0.000    0.000 
#    0.000    0.000    0.000    0.000    0.000    0.000 
#
# Total GULP energy -78020.784418 kJ/mol
# GULP energy per Si atom -5572.913173 kJ/mol
# Density = 2.355439 g / cm^3
# Si number density = 23.608123 Si / 1000 Ang^3
#
#
#
# Elastic Constant Matrix: (Units=GPa)
#
#
# Indices 1 2 3 4 5 6 
#
# 1 145.0379 25.9913 -0.7750 8.7408 0.6792 8.4607
# 2 25.9913 121.0900 -1.8984 -22.8504 11.6950 -20.8912
# 3 -0.7750 -1.8984 51.2581 2.5049 0.3464 -11.9637
# 4 8.7408 -22.8504 2.5049 16.5095 4.6649 5.2989
# 5 0.6792 11.6950 0.3464 4.6649 28.4824 -3.6165
# 6 8.4607 -20.8912 -11.9637 5.2989 -3.6165 42.6608
#
#
#
# Elastic Compliance Matrix: (Units=1/GPa)
#
#
# Indices 1 2 3 4 5 6 
#
# 1 0.008511 -0.004627 -0.000067 -0.011061 0.003214 -0.002326
# 2 -0.004627 0.015899 0.000450 0.025681 -0.010021 0.004790
# 3 -0.000067 0.000450 0.021402 -0.005199 0.001296 0.006991
# 4 -0.011061 0.025681 -0.005199 0.111912 -0.028933 -0.003042
# 5 0.003214 -0.010021 0.001296 -0.028933 0.044144 0.002155
# 6 -0.002326 0.004790 0.006991 -0.003042 0.002155 0.028769
#
#
# Mechanical properties :
#
#
# Convention : Reuss Voigt Hill
#
# Bulk Modulus (GPa) = 26.79279 40.44687 33.61983
# Shear Modulus (GPa) = 19.87554 37.13506 28.50530
#
# Velocity S-wave (km/s) = 2.90469 3.97038 3.47859
# Velocity P-wave (km/s) = 4.75639 6.17967 5.51415
#
# Compressibility (1/GPa) = 0.03732348
#
# Stress axis : x y z
#
# Youngs Moduli (GPa) = 117.49754 62.89736 46.72508
#
# Poissons Ratio (x) = 0.29102 0.00312
# Poissons Ratio (y) = 0.54365 -0.02101
# Poissons Ratio (z) = 0.00784 -0.02828
#
# Static dielectric constant tensor:
#      x y z
#    x 1.605200 -0.287950 0.108460 
#    y -0.287950 1.850650 0.083570 
#    z 0.108460 0.083570 1.873290 
# 
# From -- ./inp_files/237668.got.cif
#   From: 2010.05.17/outbox.cif.g08.bks.cpg/sg2_119_cif.got.tgz:237668.got - 2010.06.03 11:33:40.
