data_PCOD9085899
_publ_section_title
;
Structure prediction by ZEFSAII (Michael W. Deem and Ramdas Pophale) SiO2 
 PCOD9085899
Probable space group: P -1
;
_chemical_formula_sum "Si O2"
_cell_formula_units_Z 10
_cell_length_a 11.418835
_cell_length_b 13.559255
_cell_length_c 7.982992
_cell_angle_alpha 60.072338
_cell_angle_beta 51.949978
_cell_angle_gamma 22.107790
_cell_volume 355.298002
_symmetry_space_group_name_H-M "P -1"
_symmetry_group_IT_number 2
_symmetry_cell_setting 'triclinic'
loop_
_space_group_symop_operation_xyz
x,y,z
-x,-y,-z
loop_
_atom_site_type_symbol
_atom_site_label
_atom_site_fract_x
_atom_site_fract_y
_atom_site_fract_z
Si Si1 0.351280 0.261375 0.700739
Si Si2 0.730544 0.120235 0.762684
Si Si3 0.417791 0.555220 0.725997
Si Si4 0.645510 0.190954 0.222651
Si Si5 0.600524 0.860560 0.701100
O O1 0.426934 0.263864 0.812063
O O2 0.673851 0.090963 0.449225
O O3 0.404965 0.088191 0.802288
O O4 0.998396 0.561000 0.675659
O O5 0.557342 0.337954 0.841310
O O6 0.000000 0.000000 0.500000
O O7 0.996652 0.851601 0.846645
O O8 0.500000 0.500000 0.500000
O O9 0.545305 0.566674 0.727067
O O10 0.480045 0.212946 0.225549
O O11 0.000000 0.000000 0.000000
O O12 0.500000 0.000000 0.500000
#
# Coordination Sequence:
#
# PCOD9085899 Si02
#       5
#     2   2   2   2   2
#     4  11  21  41  67  93 121 169 216 255 303 380
#     4  10  19  35  64  91 115 156 225 254 286 359
#     4  10  20  36  62  89 120 159 214 253 299 364
#     4  11  23  40  64  98 130 160 205 270 321 362
#     4  10  23  40  62  91 129 168 210 250 314 381
#
# _framework density 28.145388000000001
#
# number of rings (size 3 to 8) (size 9 to 14) (size 15 to 20)
#    0.000    1.600    4.000    3.600    2.800    1.600 
#    0.000   16.000    0.000    7.200    0.000    0.000 
#    0.000    0.000    0.000    0.000    0.000    0.000 
#
# Total GULP energy -55763.006981 kJ/mol
# GULP energy per Si atom -5576.300698 kJ/mol
# Density = 2.808133 g / cm^3
# Si number density = 28.145388 Si / 1000 Ang^3
#
#
#
# Elastic Constant Matrix: (Units=GPa)
#
#
# Indices 1 2 3 4 5 6 
#
# 1 304.6981 132.6848 46.3221 19.1641 -49.5395 33.6570
# 2 132.6848 268.4931 43.3792 12.5736 -30.0396 24.9733
# 3 46.3221 43.3792 98.3225 -20.4413 -21.4568 16.9688
# 4 19.1641 12.5736 -20.4413 30.8828 14.5645 -10.3182
# 5 -49.5395 -30.0396 -21.4568 14.5645 49.2803 -0.0958
# 6 33.6570 24.9733 16.9688 -10.3182 -0.0958 71.2601
#
#
#
# Elastic Compliance Matrix: (Units=1/GPa)
#
#
# Indices 1 2 3 4 5 6 
#
# 1 0.006339 -0.001154 -0.002245 -0.009655 0.007538 -0.003443
# 2 -0.001154 0.005206 -0.001853 -0.004280 0.002469 -0.001455
# 3 -0.002245 -0.001853 0.014391 0.011994 -0.000666 0.000019
# 4 -0.009655 -0.004280 0.011994 0.064569 -0.026152 0.012519
# 5 0.007538 0.002469 -0.000666 -0.026152 0.036798 -0.008004
# 6 -0.003443 -0.001455 0.000019 0.012519 -0.008004 0.017966
#
#
# Mechanical properties :
#
#
# Convention : Reuss Voigt Hill
#
# Bulk Modulus (GPa) = 64.80636 124.03177 94.41907
# Shear Modulus (GPa) = 31.07147 60.22646 45.64897
#
# Velocity S-wave (km/s) = 3.32620 4.63085 4.03165
# Velocity P-wave (km/s) = 6.15037 8.52977 7.43586
#
# Compressibility (1/GPa) = 0.01543058
#
# Stress axis : x y z
#
# Youngs Moduli (GPa) = 157.75380 192.07833 69.48724
#
# Poissons Ratio (x) = 0.22168 0.15603
# Poissons Ratio (y) = 0.18206 0.12879
# Poissons Ratio (z) = 0.35422 0.35599
#
# Static dielectric constant tensor:
#      x y z
#    x 2.325680 -0.102690 0.227900 
#    y -0.102690 2.316460 -0.221290 
#    z 0.227900 -0.221290 2.852330 
# 
# From -- ./inp_files/433795.got.cif
#   From: 2010.05.17/outbox.cif.g08.bks.cpg/sg2_217_cif.got.tgz:433795.got - 2010.06.03 11:33:40.
