data_PCOD9085133
_publ_section_title
;
Structure prediction by ZEFSAII (Michael W. Deem and Ramdas Pophale) SiO2 
 PCOD9085133
Probable space group: P -1
;
_chemical_formula_sum "Si O2"
_cell_formula_units_Z 14
_cell_length_a 8.191341
_cell_length_b 20.874144
_cell_length_c 19.464961
_cell_angle_alpha 158.418451
_cell_angle_beta 40.448493
_cell_angle_gamma 148.098885
_cell_volume 639.973995
_symmetry_space_group_name_H-M "P -1"
_symmetry_group_IT_number 2
_symmetry_cell_setting 'triclinic'
loop_
_space_group_symop_operation_xyz
x,y,z
-x,-y,-z
loop_
_atom_site_type_symbol
_atom_site_label
_atom_site_fract_x
_atom_site_fract_y
_atom_site_fract_z
Si Si1 0.313538 0.908007 0.039906
Si Si2 0.859958 0.531183 0.367102
Si Si3 0.542169 0.543297 0.298556
Si Si4 0.251495 0.852603 0.373918
Si Si5 0.595221 0.366599 0.432711
Si Si6 0.564117 0.757204 0.373788
Si Si7 0.414604 0.322598 0.984325
O O1 0.485503 0.126563 0.246872
O O2 0.306630 0.698621 0.848190
O O3 0.948625 0.811577 0.053580
O O4 0.500000 0.000000 0.000000
O O5 0.831102 0.471221 0.397861
O O6 0.698301 0.647677 0.520306
O O7 0.221595 0.679517 0.383139
O O8 0.333290 0.498770 0.386837
O O9 0.545809 0.713451 0.417047
O O10 0.430523 0.347096 0.086598
O O11 0.905010 0.661239 0.319526
O O12 0.500000 0.000000 0.500000
O O13 0.212646 0.006760 0.492149
O O14 0.405587 0.765598 0.191846
O O15 0.593296 0.572344 0.151508
#
# Coordination Sequence:
#
# PCOD9085133 Si02
#       7
#     2   2   2   2   2   2   2
#     4   9  17  34  56  80 107 145 181 225 268 321
#     4   9  18  35  58  81 108 149 180 233 261 325
#     4  10  22  38  54  85 114 146 178 230 280 322
#     4  12  22  38  62  79 107 151 189 223 269 331
#     4  10  19  35  59  81 112 142 193 217 272 327
#     4   9  21  37  55  81 114 139 184 223 284 315
#     4   9  21  37  55  80 115 142 178 233 274 319
#
# _framework density 21.875889000000001
#
# number of rings (size 3 to 8) (size 9 to 14) (size 15 to 20)
#    0.857    1.429    0.000    3.429    0.000    1.143 
#    2.571    0.000    0.000    3.429    0.000    0.000 
#    0.000    0.000    0.000    0.000    0.000    0.000 
#
# Total GULP energy -78007.445235 kJ/mol
# GULP energy per Si atom -5571.960374 kJ/mol
# Density = 2.182610 g / cm^3
# Si number density = 21.875889 Si / 1000 Ang^3
#
#
#
# Elastic Constant Matrix: (Units=GPa)
#
#
# Indices 1 2 3 4 5 6 
#
# 1 46.2334 2.9478 5.7515 -11.3931 -3.8340 -4.1230
# 2 2.9478 39.4576 39.5176 7.1510 -4.4213 -7.9711
# 3 5.7515 39.5176 104.5977 -25.5824 -6.3606 -7.8859
# 4 -11.3931 7.1510 -25.5824 7.2059 -14.6655 4.6326
# 5 -3.8340 -4.4213 -6.3606 -14.6655 24.8319 -1.4238
# 6 -4.1230 -7.9711 -7.8859 4.6326 -1.4238 27.7018
#
#
#
# Elastic Compliance Matrix: (Units=1/GPa)
#
#
# Indices 1 2 3 4 5 6 
#
# 1 0.019325 0.007782 -0.006598 -0.011220 -0.003665 0.004925
# 2 0.007782 0.023769 -0.000812 0.028341 0.022203 0.004168
# 3 -0.006598 -0.000812 0.004406 -0.021602 -0.012621 0.003002
# 4 -0.011220 0.028341 -0.021602 -0.042253 -0.026828 0.006023
# 5 -0.003665 0.022203 -0.012621 -0.026828 0.025041 0.008024
# 6 0.004925 0.004168 0.003002 0.006023 0.008024 0.038291
#
#
# Mechanical properties :
#
#
# Convention : Reuss Voigt Hill
#
# Bulk Modulus (GPa) = 20.72834 31.85807 26.29321
# Shear Modulus (GPa) = 59.58369 21.41938 40.50154
#
# Velocity S-wave (km/s) = 5.22458 3.13250 4.30749
# Velocity P-wave (km/s) = 6.77429 5.26100 6.06503
#
# Compressibility (1/GPa) = 0.04824312
#
# Stress axis : x y z
#
# Youngs Moduli (GPa) = 51.74763 42.07149 226.98684
#
# Poissons Ratio (x) = -0.32742 1.49775
# Poissons Ratio (y) = -0.40272 0.18431
# Poissons Ratio (z) = 0.34145 0.03416
#
# Static dielectric constant tensor:
#      x y z
#    x 1.857900 0.003900 0.035540 
#    y 0.003900 1.780870 0.027130 
#    z 0.035540 0.027130 1.839660 
# 
# From -- ./inp_files/215157.got.cif
#   From: 2010.05.17/outbox.cif.g08.bks.cpg/sg2_108_cif.got.tgz:215157.got - 2010.06.03 11:33:40.
