data_PCOD9085509
_publ_section_title
;
Structure prediction by ZEFSAII (Michael W. Deem and Ramdas Pophale) SiO2 
 PCOD9085509
Probable space group: P -1
;
_chemical_formula_sum "Si O2"
_cell_formula_units_Z 16
_cell_length_a 10.272834
_cell_length_b 11.260161
_cell_length_c 11.718305
_cell_angle_alpha 88.188040
_cell_angle_beta 140.603555
_cell_angle_gamma 71.962490
_cell_volume 730.982664
_symmetry_space_group_name_H-M "P -1"
_symmetry_group_IT_number 2
_symmetry_cell_setting 'triclinic'
loop_
_space_group_symop_operation_xyz
x,y,z
-x,-y,-z
loop_
_atom_site_type_symbol
_atom_site_label
_atom_site_fract_x
_atom_site_fract_y
_atom_site_fract_z
Si Si1 0.384084 0.230393 0.924396
Si Si2 0.685020 0.103107 0.657911
Si Si3 0.678774 0.298642 0.978593
Si Si4 0.170519 0.077171 0.707908
Si Si5 0.290023 0.441717 0.054346
Si Si6 0.979621 0.838282 0.001671
Si Si7 0.236054 0.332696 0.236660
Si Si8 0.112424 0.060367 0.420323
O O1 0.165851 0.205342 0.761383
O O2 0.360192 0.322589 0.013475
O O3 0.448167 0.291876 0.857049
O O4 0.610044 0.072692 0.097439
O O5 0.417419 0.232386 0.459095
O O6 0.722952 0.008583 0.575739
O O7 0.768783 0.995478 0.822503
O O8 0.879445 0.152540 0.794242
O O9 0.624435 0.454508 0.929359
O O10 0.813654 0.222537 0.955169
O O11 0.879815 0.204376 0.213851
O O12 0.948142 0.057050 0.578916
O O13 0.209616 0.088562 0.599791
O O14 0.999717 0.540392 0.868975
O O15 0.367949 0.380857 0.236749
O O16 0.862465 0.744811 0.908883
#
# Coordination Sequence:
#
# PCOD9085509 Si02
#       8
#     2   2   2   2   2   2   2   2
#     4  10  19  35  61  84 110 153 189 238 296 342
#     4  10  19  36  62  90 115 154 187 243 305 342
#     4   9  19  38  55  79 119 153 188 236 287 340
#     4   9  19  34  57  90 110 140 193 247 296 339
#     4  10  21  37  58  82 120 163 194 231 280 350
#     4   9  20  37  59  91 118 145 194 246 296 346
#     4  10  21  38  59  85 120 156 196 239 282 348
#     4   9  18  35  57  83 118 142 185 248 294 343
#
# _framework density 21.888345999999999
#
# number of rings (size 3 to 8) (size 9 to 14) (size 15 to 20)
#    0.000    2.500    0.000    1.500    1.750    0.000 
#   15.750    6.250   16.500    0.000    0.000    0.000 
#    0.000    0.000    0.000    0.000    0.000    0.000 
#
# Total GULP energy -89241.427628 kJ/mol
# GULP energy per Si atom -5577.589227 kJ/mol
# Density = 2.183853 g / cm^3
# Si number density = 21.888346 Si / 1000 Ang^3
#
#
#
# Elastic Constant Matrix: (Units=GPa)
#
#
# Indices 1 2 3 4 5 6 
#
# 1 53.7654 27.2195 7.7668 -5.0195 -9.3123 15.1128
# 2 27.2195 107.8018 7.0827 1.5907 -0.4630 18.2231
# 3 7.7668 7.0827 24.6840 2.9535 3.0573 7.8938
# 4 -5.0195 1.5907 2.9535 19.5566 -4.2061 0.3215
# 5 -9.3123 -0.4630 3.0573 -4.2061 18.8707 -0.6014
# 6 15.1128 18.2231 7.8938 0.3215 -0.6014 22.4360
#
#
#
# Elastic Compliance Matrix: (Units=1/GPa)
#
#
# Indices 1 2 3 4 5 6 
#
# 1 0.030641 -0.005069 -0.007876 0.013754 0.018909 -0.013442
# 2 -0.005069 0.011603 0.001089 -0.003006 -0.003268 -0.006438
# 3 -0.007876 0.001089 0.050441 -0.012799 -0.015316 -0.013553
# 4 0.013754 -0.003006 -0.012799 0.061715 0.022460 -0.002602
# 5 0.018909 -0.003268 -0.015316 0.022460 0.069631 -0.003149
# 6 -0.013442 -0.006438 -0.013553 -0.002602 -0.003149 0.063576
#
#
# Mechanical properties :
#
#
# Convention : Reuss Voigt Hill
#
# Bulk Modulus (GPa) = 14.49846 30.04324 22.27085
# Shear Modulus (GPa) = 14.95629 21.78479 18.37054
#
# Velocity S-wave (km/s) = 2.61683 3.15821 2.90018
# Velocity P-wave (km/s) = 3.97097 5.20140 4.62727
#
# Compressibility (1/GPa) = 0.06897284
#
# Stress axis : x y z
#
# Youngs Moduli (GPa) = 32.63648 86.18362 19.82533
#
# Poissons Ratio (x) = 0.43684 0.15614
# Poissons Ratio (y) = 0.16542 -0.02158
# Poissons Ratio (z) = 0.25704 -0.09383
#
# Static dielectric constant tensor:
#      x y z
#    x 1.874360 0.044230 0.022120 
#    y 0.044230 1.810140 0.016590 
#    z 0.022120 0.016590 1.829680 
# 
# From -- ./inp_files/423709.got.cif
#   From: 2010.05.17/outbox.cif.g08.bks.cpg/sg2_212_cif.got.tgz:423709.got - 2010.06.03 11:33:40.
