data_PCOD9085351
_publ_section_title
;
Structure prediction by ZEFSAII (Michael W. Deem and Ramdas Pophale) SiO2 
 PCOD9085351
Probable space group: P -1
;
_chemical_formula_sum "Si O2"
_cell_formula_units_Z 16
_cell_length_a 13.548074
_cell_length_b 8.617656
_cell_length_c 13.862164
_cell_angle_alpha 56.973401
_cell_angle_beta 36.037705
_cell_angle_gamma 70.795756
_cell_volume 777.534614
_symmetry_space_group_name_H-M "P -1"
_symmetry_group_IT_number 2
_symmetry_cell_setting 'triclinic'
loop_
_space_group_symop_operation_xyz
x,y,z
-x,-y,-z
loop_
_atom_site_type_symbol
_atom_site_label
_atom_site_fract_x
_atom_site_fract_y
_atom_site_fract_z
Si Si1 0.038901 0.730510 0.817430
Si Si2 0.383027 0.248736 0.596392
Si Si3 0.149513 0.634618 0.395998
Si Si4 0.091741 0.458040 0.710706
Si Si5 0.473208 0.215899 0.935186
Si Si6 0.099767 0.045347 0.307673
Si Si7 0.358219 0.404593 0.777169
Si Si8 0.141079 0.876726 0.899995
O O1 0.842009 0.624416 0.031327
O O2 0.885953 0.186358 0.168545
O O3 0.013603 0.887874 0.707325
O O4 0.128381 0.592696 0.730584
O O5 0.234328 0.334145 0.634197
O O6 0.380958 0.312444 0.687421
O O7 0.554222 0.372070 0.371460
O O8 0.324942 0.022113 0.715906
O O9 0.105819 0.580294 0.561250
O O10 0.352128 0.641767 0.214035
O O11 0.000000 0.500000 0.500000
O O12 0.139148 0.848721 0.309333
O O13 0.911331 0.308958 0.927389
O O14 0.448332 0.289699 0.821684
O O15 0.279748 0.197578 0.134219
O O16 0.500000 0.000000 0.000000
O O17 0.000000 0.000000 0.500000
O O18 0.000000 0.000000 0.000000
#
# Coordination Sequence:
#
# PCOD9085351 Si02
#       8
#     2   2   2   2   2   2   2   2
#     4  11  21  36  62  83 118 154 193 243 294 353
#     4  10  21  36  60  84 117 153 198 237 288 347
#     4  11  23  38  62  89 115 155 201 250 290 350
#     4  11  21  37  60  85 120 151 199 237 296 350
#     4   9  20  36  59  85 116 151 198 238 287 355
#     4  10  21  39  60  87 117 154 200 240 298 351
#     4  10  19  35  60  85 113 156 190 237 294 352
#     4  10  21  35  57  87 114 152 194 242 280 343
#
# _framework density 20.577862
#
# number of rings (size 3 to 8) (size 9 to 14) (size 15 to 20)
#    0.000    1.750    5.000    0.375    3.500    1.000 
#    0.000    1.250    2.750    0.000    0.000    0.000 
#    0.000    0.000    0.000    0.000    0.000    0.000 
#
# Total GULP energy -89195.291800 kJ/mol
# GULP energy per Si atom -5574.705738 kJ/mol
# Density = 2.053103 g / cm^3
# Si number density = 20.577862 Si / 1000 Ang^3
#
#
#
# Elastic Constant Matrix: (Units=GPa)
#
#
# Indices 1 2 3 4 5 6 
#
# 1 71.5454 10.5871 42.2880 -6.3297 -7.0796 7.0272
# 2 10.5871 40.5329 10.7351 -10.0265 -3.1495 7.8912
# 3 42.2880 10.7351 131.6285 -20.4876 -4.5978 15.9141
# 4 -6.3297 -10.0265 -20.4876 26.7463 4.3500 2.0624
# 5 -7.0796 -3.1495 -4.5978 4.3500 40.7741 -12.2093
# 6 7.0272 7.8912 15.9141 2.0624 -12.2093 27.0861
#
#
#
# Elastic Compliance Matrix: (Units=1/GPa)
#
#
# Indices 1 2 3 4 5 6 
#
# 1 0.017947 -0.003711 -0.005863 -0.002188 0.002789 0.001293
# 2 -0.003711 0.030433 0.002098 0.013501 -0.002938 -0.011488
# 3 -0.005863 0.002098 0.011633 0.009401 -0.002931 -0.007962
# 4 -0.002188 0.013501 0.009401 0.051869 -0.008850 -0.016827
# 5 0.002789 -0.002938 -0.002931 -0.008850 0.030234 0.016157
# 6 0.001293 -0.011488 -0.007962 -0.016827 0.016157 0.053173
#
#
# Mechanical properties :
#
#
# Convention : Reuss Voigt Hill
#
# Bulk Modulus (GPa) = 22.19203 41.21410 31.70307
# Shear Modulus (GPa) = 22.19644 30.92774 26.56209
#
# Velocity S-wave (km/s) = 3.28785 3.88101 3.59668
# Velocity P-wave (km/s) = 5.02207 6.33678 5.71734
#
# Compressibility (1/GPa) = 0.04506122
#
# Stress axis : x y z
#
# Youngs Moduli (GPa) = 55.71999 32.85889 85.96308
#
# Poissons Ratio (x) = 0.12195 0.50397
# Poissons Ratio (y) = 0.20680 -0.18036
# Poissons Ratio (z) = 0.32666 -0.06894
#
# Static dielectric constant tensor:
#      x y z
#    x 1.740080 -0.043860 -0.042860 
#    y -0.043860 1.793640 -0.009600 
#    z -0.042860 -0.009600 1.797660 
# 
# From -- ./inp_files/528151.got.cif
#   From: 2010.05.17/outbox.cif.g08.bks.cpg/sg2_265_cif.got.tgz:528151.got - 2010.06.03 11:33:40.
