data_PCOD9085248
_publ_section_title
;
Structure prediction by ZEFSAII (Michael W. Deem and Ramdas Pophale) SiO2 
 PCOD9085248
Probable space group: P -1
;
_chemical_formula_sum "Si O2"
_cell_formula_units_Z 16
_cell_length_a 14.739305
_cell_length_b 7.910236
_cell_length_c 9.533337
_cell_angle_alpha 119.218994
_cell_angle_beta 138.715850
_cell_angle_gamma 61.173401
_cell_volume 627.079861
_symmetry_space_group_name_H-M "P -1"
_symmetry_group_IT_number 2
_symmetry_cell_setting 'triclinic'
loop_
_space_group_symop_operation_xyz
x,y,z
-x,-y,-z
loop_
_atom_site_type_symbol
_atom_site_label
_atom_site_fract_x
_atom_site_fract_y
_atom_site_fract_z
Si Si1 0.858371 0.562743 0.953788
Si Si2 0.779388 0.252552 0.547667
Si Si3 0.606298 0.892594 0.780974
Si Si4 0.383000 0.799253 0.314304
Si Si5 0.938502 0.471975 0.593952
Si Si6 0.879405 0.939148 0.739633
Si Si7 0.448587 0.785406 0.941830
Si Si8 0.292234 0.537555 0.878938
O O1 0.775245 0.396846 0.735801
O O2 0.764732 0.775600 0.898281
O O3 0.000000 0.500000 0.000000
O O4 0.906941 0.573857 0.175619
O O5 0.857067 0.349971 0.555721
O O6 0.630625 0.232197 0.303582
O O7 0.871693 0.043446 0.620872
O O8 0.509352 0.748880 0.550069
O O9 0.569021 0.083473 0.714695
O O10 0.581535 0.991421 0.944430
O O11 0.266157 0.959793 0.319099
O O12 0.319534 0.630431 0.097188
O O13 0.892391 0.706805 0.656367
O O14 0.869523 0.435138 0.348859
O O15 0.000000 0.000000 0.000000
O O16 0.367662 0.657456 0.900842
O O17 0.612156 0.681892 0.099075
#
# Coordination Sequence:
#
# PCOD9085248 Si02
#       8
#     2   2   2   2   2   2   2   2
#     4  10  19  35  59  88 123 165 203 251 313 371
#     4  10  21  39  64  94 124 169 211 257 317 377
#     4  10  20  37  66  96 126 165 218 265 316 381
#     4  10  21  38  62  97 127 167 216 266 318 379
#     4  10  21  40  63  92 127 171 208 258 319 374
#     4  12  24  41  66  96 130 169 216 260 319 385
#     4   9  18  36  62  94 125 165 213 264 318 377
#     4   9  18  37  63  89 128 169 208 262 324 374
#
# _framework density 25.515089
#
# number of rings (size 3 to 8) (size 9 to 14) (size 15 to 20)
#    0.000    2.000    1.250    3.000    1.750    6.000 
#    2.250   10.625    0.000    0.000    0.000    0.000 
#    0.000    0.000    0.000    0.000    0.000    0.000 
#
# Total GULP energy -89438.494231 kJ/mol
# GULP energy per Si atom -5589.905889 kJ/mol
# Density = 2.545702 g / cm^3
# Si number density = 25.515089 Si / 1000 Ang^3
#
#
#
# Elastic Constant Matrix: (Units=GPa)
#
#
# Indices 1 2 3 4 5 6 
#
# 1 60.1965 16.2259 40.5721 -1.9487 -10.6155 7.3527
# 2 16.2259 94.3921 34.4725 -15.7609 2.8672 3.9353
# 3 40.5721 34.4725 221.1979 -18.5848 -8.6460 -7.1858
# 4 -1.9487 -15.7609 -18.5848 33.5185 3.4400 1.2565
# 5 -10.6155 2.8672 -8.6460 3.4400 44.3363 -5.5896
# 6 7.3527 3.9353 -7.1858 1.2565 -5.5896 45.2088
#
#
#
# Elastic Compliance Matrix: (Units=1/GPa)
#
#
# Indices 1 2 3 4 5 6 
#
# 1 0.020759 -0.002669 -0.003522 -0.002319 0.004243 -0.003115
# 2 -0.002669 0.012483 -0.001134 0.005363 -0.002242 -0.001259
# 3 -0.003522 -0.001134 0.005598 0.002273 0.000339 0.001540
# 4 -0.002319 0.005363 0.002273 0.033852 -0.003220 -0.001067
# 5 0.004243 -0.002242 0.000339 -0.003220 0.024367 0.002661
# 6 -0.003115 -0.001259 0.001540 -0.001067 0.002661 0.023339
#
#
# Mechanical properties :
#
#
# Convention : Reuss Voigt Hill
#
# Bulk Modulus (GPa) = 41.33746 62.03638 51.68692
# Shear Modulus (GPa) = 34.93788 43.58046 39.25917
#
# Velocity S-wave (km/s) = 3.70442 4.13731 3.92684
# Velocity P-wave (km/s) = 5.87651 6.86946 6.39230
#
# Compressibility (1/GPa) = 0.02419113
#
# Stress axis : x y z
#
# Youngs Moduli (GPa) = 48.17192 80.10877 178.64035
#
# Poissons Ratio (x) = 0.21377 0.62916
# Poissons Ratio (y) = 0.12855 0.20256
# Poissons Ratio (z) = 0.16966 0.09083
#
# Static dielectric constant tensor:
#      x y z
#    x 2.472570 0.236280 0.120120 
#    y 0.236280 2.043580 0.059330 
#    z 0.120120 0.059330 2.117230 
# 
# From -- ./inp_files/470171.got.cif
#   From: 2010.05.17/outbox.cif.g08.bks.cpg/sg2_236_cif.got.tgz:470171.got - 2010.06.03 11:33:40.
