data_PCOD9085380
_publ_section_title
;
Structure prediction by ZEFSAII (Michael W. Deem and Ramdas Pophale) SiO2 
 PCOD9085380
Probable space group: P -1
;
_chemical_formula_sum "Si O2"
_cell_formula_units_Z 14
_cell_length_a 10.594569
_cell_length_b 12.641535
_cell_length_c 7.939393
_cell_angle_alpha 129.699414
_cell_angle_beta 133.182922
_cell_angle_gamma 46.235268
_cell_volume 531.609817
_symmetry_space_group_name_H-M "P -1"
_symmetry_group_IT_number 2
_symmetry_cell_setting 'triclinic'
loop_
_space_group_symop_operation_xyz
x,y,z
-x,-y,-z
loop_
_atom_site_type_symbol
_atom_site_label
_atom_site_fract_x
_atom_site_fract_y
_atom_site_fract_z
Si Si1 0.260119 0.306589 0.977656
Si Si2 0.364396 0.709891 0.203075
Si Si3 0.930306 0.436316 0.214332
Si Si4 0.241276 0.107386 0.204786
Si Si5 0.333750 0.508205 0.486463
Si Si6 0.705833 0.974410 0.444809
Si Si7 0.681255 0.200420 0.126413
O O1 0.167166 0.418457 0.849215
O O2 0.223130 0.157104 0.767949
O O3 0.213620 0.433147 0.210524
O O4 0.495444 0.232611 0.103615
O O5 0.556540 0.594120 0.357694
O O6 0.267519 0.870873 0.381829
O O7 0.232305 0.623679 0.975597
O O8 0.399161 0.752997 0.090652
O O9 0.000000 0.500000 0.500000
O O10 0.114286 0.272110 0.178077
O O11 0.217306 0.104964 0.382957
O O12 0.469636 0.046941 0.315450
O O13 0.184765 0.980038 0.946765
O O14 0.500000 0.500000 0.500000
O O15 0.228444 0.687342 0.622883
#
# Coordination Sequence:
#
# PCOD9085380 Si02
#       7
#     2   2   2   2   2   2   2
#     4  10  20  39  60  88 121 155 188 234 303 337
#     4  11  22  35  65  91 110 146 213 236 280 335
#     4  12  23  35  58  91 120 152 186 246 297 341
#     4   9  19  36  57  87 122 151 185 241 298 334
#     4  10  19  35  60  87 117 152 195 241 280 349
#     4   9  19  37  60  85 116 153 198 234 279 352
#     4   9  19  36  62  88 109 152 201 237 272 345
#
# _framework density 26.335103
#
# number of rings (size 3 to 8) (size 9 to 14) (size 15 to 20)
#    0.000    2.000    4.286    1.286    0.000    2.857 
#    0.000    0.714    0.000    3.429    0.000    0.000 
#    0.000    0.000    0.000    0.000    0.000    0.000 
#
# Total GULP energy -78343.502356 kJ/mol
# GULP energy per Si atom -5595.964454 kJ/mol
# Density = 2.627516 g / cm^3
# Si number density = 26.335103 Si / 1000 Ang^3
#
#
#
# Elastic Constant Matrix: (Units=GPa)
#
#
# Indices 1 2 3 4 5 6 
#
# 1 32.8285 9.4724 17.3951 8.5829 13.4497 0.3276
# 2 9.4724 127.5427 78.7552 51.1922 9.8263 5.3084
# 3 17.3951 78.7552 215.0771 64.7297 8.9232 1.5702
# 4 8.5829 51.1922 64.7297 67.6534 -3.1633 4.6403
# 5 13.4497 9.8263 8.9232 -3.1633 21.4728 -0.3818
# 6 0.3276 5.3084 1.5702 4.6403 -0.3818 24.2259
#
#
#
# Elastic Compliance Matrix: (Units=1/GPa)
#
#
# Indices 1 2 3 4 5 6 
#
# 1 0.044671 0.002961 -0.000898 -0.008457 -0.030209 -0.000051
# 2 0.002961 0.013019 -0.002091 -0.008525 -0.008222 -0.001254
# 3 -0.000898 -0.002091 0.007183 -0.005350 -0.002236 0.000994
# 4 -0.008457 -0.008525 -0.005350 0.028346 0.015547 -0.002855
# 5 -0.030209 -0.008222 -0.002236 0.015547 0.072483 0.000519
# 6 -0.000051 -0.001254 0.000994 -0.002855 0.000519 0.042044
#
#
# Mechanical properties :
#
#
# Convention : Reuss Voigt Hill
#
# Bulk Modulus (GPa) = 15.42797 65.18822 40.30809
# Shear Modulus (GPa) = 21.79522 40.65879 31.22701
#
# Velocity S-wave (km/s) = 2.87994 3.93351 3.44722
# Velocity P-wave (km/s) = 4.11459 6.74071 5.58422
#
# Compressibility (1/GPa) = 0.06481735
#
# Stress axis : x y z
#
# Youngs Moduli (GPa) = 22.38592 76.81180 139.21318
#
# Poissons Ratio (x) = -0.22744 0.12503
# Poissons Ratio (y) = -0.06629 0.29106
# Poissons Ratio (z) = 0.02011 0.16059
#
# Static dielectric constant tensor:
#      x y z
#    x 2.169870 -0.031120 -0.038840 
#    y -0.031120 1.983060 0.055170 
#    z -0.038840 0.055170 2.082200 
# 
# From -- ./inp_files/175258.got.cif
#   From: 2010.05.17/outbox.cif.g08.bks.cpg/sg2_88_cif.got.tgz:175258.got - 2010.06.03 11:33:40.
