data_PCOD9085911
_publ_section_title
;
Structure prediction by ZEFSAII (Michael W. Deem and Ramdas Pophale) SiO2 
 PCOD9085911
Probable space group: P -1
;
_chemical_formula_sum "Si O2"
_cell_formula_units_Z 14
_cell_length_a 11.601634
_cell_length_b 7.833414
_cell_length_c 7.711628
_cell_angle_alpha 89.258913
_cell_angle_beta 115.386196
_cell_angle_gamma 63.773384
_cell_volume 549.983125
_symmetry_space_group_name_H-M "P -1"
_symmetry_group_IT_number 2
_symmetry_cell_setting 'triclinic'
loop_
_space_group_symop_operation_xyz
x,y,z
-x,-y,-z
loop_
_atom_site_type_symbol
_atom_site_label
_atom_site_fract_x
_atom_site_fract_y
_atom_site_fract_z
Si Si1 0.496066 0.079767 0.246962
Si Si2 0.815747 0.853026 0.874798
Si Si3 0.196220 0.988566 0.481936
Si Si4 0.409465 0.392222 0.894697
Si Si5 0.089080 0.562824 0.245155
Si Si6 0.876718 0.314296 0.383208
Si Si7 0.405409 0.400303 0.478592
O O1 0.347922 0.061221 0.156146
O O2 0.675670 0.962971 0.377550
O O3 0.463924 0.207848 0.401973
O O4 0.470728 0.201476 0.052575
O O5 0.880044 0.645303 0.810204
O O6 0.803421 0.012124 0.726449
O O7 0.945895 0.766989 0.099942
O O8 0.206997 0.795711 0.583219
O O9 0.032423 0.154366 0.419092
O O10 0.238318 0.535289 0.829467
O O11 0.411784 0.357340 0.689248
O O12 0.500000 0.500000 0.000000
O O13 0.093962 0.563324 0.454764
O O14 0.243461 0.547654 0.300957
O O15 0.500000 0.500000 0.500000
#
# Coordination Sequence:
#
# PCOD9085911 Si02
#       7
#     2   2   2   2   2   2   2
#     4  11  22  42  61  93 132 166 212 259 317 384
#     4  10  23  40  66  88 128 174 205 261 317 382
#     4  11  23  41  62  94 133 164 201 269 336 358
#     4  11  20  38  67  93 123 166 219 264 308 375
#     4   9  21  42  60  97 117 165 225 250 309 382
#     4  10  23  41  65  96 125 163 213 270 314 378
#     4  10  19  35  64  93 120 160 215 264 305 364
#
# _framework density 25.455328000000002
#
# number of rings (size 3 to 8) (size 9 to 14) (size 15 to 20)
#    0.000    1.714    2.857    1.286    6.000    1.143 
#    7.714    0.714    0.000    0.000    0.000    0.000 
#    0.000    0.000    0.000    0.000    0.000    0.000 
#
# Total GULP energy -78187.003934 kJ/mol
# GULP energy per Si atom -5584.785995 kJ/mol
# Density = 2.539739 g / cm^3
# Si number density = 25.455328 Si / 1000 Ang^3
#
#
#
# Elastic Constant Matrix: (Units=GPa)
#
#
# Indices 1 2 3 4 5 6 
#
# 1 141.8539 24.4059 47.6566 -11.7124 14.0002 -1.1860
# 2 24.4059 52.8754 16.3641 -14.7889 9.1138 -7.3898
# 3 47.6566 16.3641 150.6742 -23.3578 20.3073 -7.9170
# 4 -11.7124 -14.7889 -23.3578 34.7232 -11.4486 3.4350
# 5 14.0002 9.1138 20.3073 -11.4486 53.7328 -9.6886
# 6 -1.1860 -7.3898 -7.9170 3.4350 -9.6886 28.0869
#
#
#
# Elastic Compliance Matrix: (Units=1/GPa)
#
#
# Indices 1 2 3 4 5 6 
#
# 1 0.008460 -0.003301 -0.002295 -0.000315 -0.001115 -0.001504
# 2 -0.003301 0.023499 0.000106 0.008314 -0.000515 0.004879
# 3 -0.002295 0.000106 0.008265 0.004241 -0.001414 0.001254
# 4 -0.000315 0.008314 0.004241 0.036673 0.004992 0.000607
# 5 -0.001115 -0.000515 -0.001414 0.004992 0.021723 0.006302
# 6 -0.001504 0.004879 0.001254 0.000607 0.006302 0.039277
#
#
# Mechanical properties :
#
#
# Convention : Reuss Voigt Hill
#
# Bulk Modulus (GPa) = 34.19288 58.02851 46.11070
# Shear Modulus (GPa) = 31.52120 40.44036 35.98078
#
# Velocity S-wave (km/s) = 3.52276 3.99015 3.76372
# Velocity P-wave (km/s) = 5.47797 6.63883 6.08614
#
# Compressibility (1/GPa) = 0.02924585
#
# Stress axis : x y z
#
# Youngs Moduli (GPa) = 118.20537 42.55498 120.99243
#
# Poissons Ratio (x) = 0.14046 0.27765
# Poissons Ratio (y) = 0.39016 -0.01288
# Poissons Ratio (z) = 0.27126 -0.00453
#
# Static dielectric constant tensor:
#      x y z
#    x 2.004420 -0.025320 0.022230 
#    y -0.025320 2.104360 -0.012810 
#    z 0.022230 -0.012810 2.039230 
# 
# From -- ./inp_files/238673.got.cif
#   From: 2010.05.17/outbox.cif.g08.bks.cpg/sg2_120_cif.got.tgz:238673.got - 2010.06.03 11:33:40.
