data_PCOD9086762
_publ_section_title
;
Structure prediction by ZEFSAII (Michael W. Deem and Ramdas Pophale) SiO2 
 PCOD9086762
Probable space group: P -1
;
_chemical_formula_sum "Si O2"
_cell_formula_units_Z 16
_cell_length_a 21.219851
_cell_length_b 11.614337
_cell_length_c 9.127159
_cell_angle_alpha 77.387263
_cell_angle_beta 40.866268
_cell_angle_gamma 46.648320
_cell_volume 829.221784
_symmetry_space_group_name_H-M "P -1"
_symmetry_group_IT_number 2
_symmetry_cell_setting 'triclinic'
loop_
_space_group_symop_operation_xyz
x,y,z
-x,-y,-z
loop_
_atom_site_type_symbol
_atom_site_label
_atom_site_fract_x
_atom_site_fract_y
_atom_site_fract_z
Si Si1 0.482865 0.195327 0.401850
Si Si2 0.740473 0.302194 0.804607
Si Si3 0.915381 0.208417 0.052664
Si Si4 0.253905 0.273284 0.991643
Si Si5 0.471224 0.461463 0.410751
Si Si6 0.217683 0.524590 0.536363
Si Si7 0.993165 0.843463 0.416917
Si Si8 0.075663 0.523697 0.522293
O O1 0.351469 0.277568 0.730932
O O2 0.552511 0.250004 0.322214
O O3 0.376439 0.323960 0.405924
O O4 0.626858 0.958094 0.180484
O O5 0.742756 0.397544 0.648256
O O6 0.845291 0.252390 0.770218
O O7 0.839514 0.085089 0.646532
O O8 0.556846 0.452387 0.136655
O O9 0.721696 0.370351 0.324035
O O10 0.920410 0.295262 0.153208
O O11 0.984021 0.192539 0.786047
O O12 0.000000 0.000000 0.000000
O O13 0.215556 0.341979 0.209822
O O14 0.068889 0.428057 0.214477
O O15 0.500000 0.500000 0.500000
O O16 0.153728 0.491484 0.544356
O O17 0.987250 0.724858 0.542900
#
# Coordination Sequence:
#
# PCOD9086762 Si02
#       8
#     2   2   2   2   2   2   2   2
#     4  10  23  40  59  87 121 153 193 251 295 339
#     4  10  20  35  59  88 119 159 193 233 291 362
#     4  11  21  36  53  86 127 158 185 238 297 348
#     4  10  22  42  63  82 113 159 206 241 290 348
#     4  11  22  37  62  87 120 158 196 232 293 365
#     4  10  22  37  61  88 124 149 193 251 299 344
#     4  10  19  36  60  86 121 155 195 238 290 356
#     4  10  21  38  65  85 107 158 206 242 288 349
#
# _framework density 19.295199
#
# number of rings (size 3 to 8) (size 9 to 14) (size 15 to 20)
#    0.000    1.750    2.500    2.250    1.750    4.000 
#    2.250    0.000    0.000    0.000    0.000    0.000 
#    0.000    0.000    0.000    0.000    0.000    0.000 
#
# Total GULP energy -89334.951898 kJ/mol
# GULP energy per Si atom -5583.434494 kJ/mol
# Density = 1.925128 g / cm^3
# Si number density = 19.295199 Si / 1000 Ang^3
#
#
#
# Elastic Constant Matrix: (Units=GPa)
#
#
# Indices 1 2 3 4 5 6 
#
# 1 121.8153 12.4301 36.5345 -2.9858 29.1711 10.3097
# 2 12.4301 45.7184 7.1246 4.8482 9.8034 1.4039
# 3 36.5345 7.1246 86.3634 -6.8783 14.5024 2.2967
# 4 -2.9858 4.8482 -6.8783 25.2557 1.1416 3.0427
# 5 29.1711 9.8034 14.5024 1.1416 26.7519 -1.2406
# 6 10.3097 1.4039 2.2967 3.0427 -1.2406 25.1949
#
#
#
# Elastic Compliance Matrix: (Units=1/GPa)
#
#
# Indices 1 2 3 4 5 6 
#
# 1 0.012626 -0.000356 -0.002915 0.002019 -0.012410 -0.005736
# 2 -0.000356 0.024303 -0.000856 -0.004465 -0.007909 -0.000981
# 3 -0.002915 -0.000856 0.013926 0.003890 -0.004256 -0.000708
# 4 0.002019 -0.004465 0.003890 0.042729 -0.004791 -0.006328
# 5 -0.012410 -0.007909 -0.004256 -0.004791 0.056753 0.009280
# 6 -0.005736 -0.000981 -0.000708 -0.006328 0.009280 0.043378
#
#
# Mechanical properties :
#
#
# Convention : Reuss Voigt Hill
#
# Bulk Modulus (GPa) = 23.47264 40.67505 32.07384
# Shear Modulus (GPa) = 23.13001 28.62767 25.87884
#
# Velocity S-wave (km/s) = 3.46604 3.85602 3.66622
# Velocity P-wave (km/s) = 5.31125 6.39932 5.88051
#
# Compressibility (1/GPa) = 0.04260279
#
# Stress axis : x y z
#
# Youngs Moduli (GPa) = 79.19908 41.14778 71.80802
#
# Poissons Ratio (x) = 0.01463 0.20930
# Poissons Ratio (y) = 0.02816 0.06145
# Poissons Ratio (z) = 0.23085 0.03521
#
# Static dielectric constant tensor:
#      x y z
#    x 1.680470 0.027060 0.016710 
#    y 0.027060 1.682420 0.001730 
#    z 0.016710 0.001730 1.670410 
# 
# From -- ./inp_files/180098.got.cif
#   From: 2010.05.17/outbox.cif.g08.bks.cpg/sg2_91_cif.got.tgz:180098.got - 2010.06.03 11:33:40.
