data_PCOD9086104
_publ_section_title
;
Structure prediction by ZEFSAII (Michael W. Deem and Ramdas Pophale) SiO2 
 PCOD9086104
Probable space group: P -1
;
_chemical_formula_sum "Si O2"
_cell_formula_units_Z 16
_cell_length_a 9.418145
_cell_length_b 8.404070
_cell_length_c 17.650939
_cell_angle_alpha 135.009786
_cell_angle_beta 136.873222
_cell_angle_gamma 72.404142
_cell_volume 605.515224
_symmetry_space_group_name_H-M "P -1"
_symmetry_group_IT_number 2
_symmetry_cell_setting 'triclinic'
loop_
_space_group_symop_operation_xyz
x,y,z
-x,-y,-z
loop_
_atom_site_type_symbol
_atom_site_label
_atom_site_fract_x
_atom_site_fract_y
_atom_site_fract_z
Si Si1 0.164533 0.482936 0.491994
Si Si2 0.316006 0.830763 0.435659
Si Si3 0.637058 0.643652 0.678003
Si Si4 0.727205 0.125891 0.805170
Si Si5 0.227238 0.585713 0.776378
Si Si6 0.995286 0.894971 0.229281
Si Si7 0.584264 0.990982 0.131246
Si Si8 0.449134 0.298997 0.845559
O O1 0.438143 0.640588 0.655515
O O2 0.000000 0.500000 0.500000
O O3 0.042834 0.519074 0.381195
O O4 0.132848 0.198957 0.381036
O O5 0.268555 0.542104 0.315080
O O6 0.466725 0.964351 0.613550
O O7 0.075553 0.835258 0.321481
O O8 0.500000 0.000000 0.500000
O O9 0.500000 0.500000 0.500000
O O10 0.787353 0.930005 0.810139
O O11 0.905730 0.213048 0.835102
O O12 0.683387 0.320203 0.905206
O O13 0.297660 0.365469 0.748782
O O14 0.353849 0.762226 0.812021
O O15 0.319115 0.794212 0.948619
O O16 0.737428 0.864181 0.107851
O O17 0.653064 0.964047 0.235874
O O18 0.500000 0.500000 0.000000
#
# Coordination Sequence:
#
# PCOD9086104 Si02
#       8
#     2   2   2   2   2   2   2   2
#     4  11  22  33  59  93 124 156 201 252 308 374
#     4   9  17  34  57  85 125 157 201 246 307 373
#     4  10  19  36  54  85 125 157 193 242 312 368
#     4  10  21  36  60  87 128 164 197 261 313 365
#     4   9  21  40  63  84 125 163 202 255 317 353
#     4  10  20  38  58  91 126 156 208 248 304 381
#     4   9  20  42  64  86 120 164 209 259 302 364
#     4  10  22  41  63  89 119 163 216 259 305 368
#
# _framework density 26.423779
#
# number of rings (size 3 to 8) (size 9 to 14) (size 15 to 20)
#    0.000    2.250    3.750    0.000    5.250    2.000 
#    0.000    3.750    0.000   21.750    0.000    0.000 
#    0.000    0.000    0.000    0.000    0.000    0.000 
#
# Total GULP energy -89293.764752 kJ/mol
# GULP energy per Si atom -5580.860297 kJ/mol
# Density = 2.636364 g / cm^3
# Si number density = 26.423779 Si / 1000 Ang^3
#
#
#
# Elastic Constant Matrix: (Units=GPa)
#
#
# Indices 1 2 3 4 5 6 
#
# 1 125.1166 35.3990 2.3833 -0.4606 -10.0070 0.3790
# 2 35.3990 203.1789 14.1884 -20.8602 -8.2966 -1.0491
# 3 2.3833 14.1884 51.8419 -12.9966 4.2865 -1.6607
# 4 -0.4606 -20.8602 -12.9966 38.1256 -6.9047 0.2796
# 5 -10.0070 -8.2966 4.2865 -6.9047 30.8547 9.9191
# 6 0.3790 -1.0491 -1.6607 0.2796 9.9191 42.6757
#
#
#
# Elastic Compliance Matrix: (Units=1/GPa)
#
#
# Indices 1 2 3 4 5 6 
#
# 1 0.008607 -0.001403 -0.000326 -0.000293 0.002629 -0.000733
# 2 -0.001403 0.005628 -0.000868 0.003131 0.001998 -0.000368
# 3 -0.000326 -0.000868 0.021374 0.006381 -0.002300 0.001306
# 4 -0.000293 0.003131 0.006381 0.031469 0.007418 -0.001602
# 5 0.002629 0.001998 -0.002300 0.007418 0.038708 -0.009109
# 6 -0.000733 -0.000368 0.001306 -0.001602 -0.009109 0.025609
#
#
# Mechanical properties :
#
#
# Convention : Reuss Voigt Hill
#
# Bulk Modulus (GPa) = 32.87908 53.78654 43.33281
# Shear Modulus (GPa) = 34.07688 44.20898 39.14293
#
# Velocity S-wave (km/s) = 3.59504 4.09476 3.85301
# Velocity P-wave (km/s) = 5.44999 6.53878 6.01905
#
# Compressibility (1/GPa) = 0.03041448
#
# Stress axis : x y z
#
# Youngs Moduli (GPa) = 116.18107 177.68280 46.78646
#
# Poissons Ratio (x) = 0.24936 0.01526
# Poissons Ratio (y) = 0.16305 0.04060
# Poissons Ratio (z) = 0.03788 0.15420
#
# Static dielectric constant tensor:
#      x y z
#    x 2.184930 0.046410 -0.050980 
#    y 0.046410 2.091240 0.063180 
#    z -0.050980 0.063180 2.298020 
# 
# From -- ./inp_files/356388.got.cif
#   From: 2010.05.17/outbox.cif.g08.bks.cpg/sg2_179_cif.got.tgz:356388.got - 2010.06.03 11:33:40.
