data_PCOD9086958
_publ_section_title
;
Structure prediction by ZEFSAII (Michael W. Deem and Ramdas Pophale) SiO2 
 PCOD9086958
Probable space group: P -1
;
_chemical_formula_sum "Si O2"
_cell_formula_units_Z 14
_cell_length_a 24.551588
_cell_length_b 9.790175
_cell_length_c 8.608888
_cell_angle_alpha 148.915736
_cell_angle_beta 44.172656
_cell_angle_gamma 132.572395
_cell_volume 733.222592
_symmetry_space_group_name_H-M "P -1"
_symmetry_group_IT_number 2
_symmetry_cell_setting 'triclinic'
loop_
_space_group_symop_operation_xyz
x,y,z
-x,-y,-z
loop_
_atom_site_type_symbol
_atom_site_label
_atom_site_fract_x
_atom_site_fract_y
_atom_site_fract_z
Si Si1 0.085407 0.978573 0.228564
Si Si2 0.447412 0.217622 0.374442
Si Si3 0.884920 0.371685 0.735218
Si Si4 0.526716 0.188337 0.481337
Si Si5 0.810052 0.829268 0.502488
Si Si6 0.628082 0.761451 0.753164
Si Si7 0.069474 0.468638 0.547776
O O1 0.150174 0.063335 0.311594
O O2 0.097668 0.200722 0.285804
O O3 0.000000 0.000000 0.500000
O O4 0.083941 0.691334 0.871205
O O5 0.500000 0.500000 0.500000
O O6 0.449743 0.182999 0.521117
O O7 0.373125 0.229009 0.425175
O O8 0.500000 0.000000 0.000000
O O9 0.890299 0.437211 0.605899
O O10 0.975116 0.400601 0.641128
O O11 0.838945 0.073502 0.564289
O O12 0.843709 0.574677 0.119359
O O13 0.569512 0.502208 0.694862
O O14 0.500000 0.000000 0.500000
O O15 0.593255 0.029550 0.122533
O O16 0.715529 0.767377 0.642365
#
# Coordination Sequence:
#
# PCOD9086958 Si02
#       7
#     2   2   2   2   2   2   2
#     4  12  21  37  58  85 112 157 199 240 289 341
#     4   8  16  32  55  77 104 139 180 213 258 333
#     4  11  22  38  58  82 109 153 194 247 293 333
#     4  10  19  36  61  86 110 145 186 227 277 342
#     4  12  23  37  59  84 119 153 193 241 296 342
#     4  10  21  37  55  85 115 146 184 232 283 342
#     4  11  22  38  58  82 111 144 208 252 276 337
#
# _framework density 19.093791
#
# number of rings (size 3 to 8) (size 9 to 14) (size 15 to 20)
#    0.000    1.429    2.857    3.429    0.000    2.286 
#    0.000    4.286    0.000    0.000    0.000    0.000 
#    0.000    0.000    0.000    0.000    0.000    0.000 
#
# Total GULP energy -78021.601827 kJ/mol
# GULP energy per Si atom -5572.971559 kJ/mol
# Density = 1.905033 g / cm^3
# Si number density = 19.093791 Si / 1000 Ang^3
#
#
#
# Elastic Constant Matrix: (Units=GPa)
#
#
# Indices 1 2 3 4 5 6 
#
# 1 133.4755 2.0751 -27.3289 -17.0953 -17.3600 -3.3221
# 2 2.0751 104.8888 -0.4491 25.2865 23.9865 -4.5111
# 3 -27.3289 -0.4491 47.6715 21.3872 4.8421 10.8582
# 4 -17.0953 25.2865 21.3872 34.4075 1.5717 -2.8656
# 5 -17.3600 23.9865 4.8421 1.5717 39.7126 9.1458
# 6 -3.3221 -4.5111 10.8582 -2.8656 9.1458 34.2590
#
#
#
# Elastic Compliance Matrix: (Units=1/GPa)
#
#
# Indices 1 2 3 4 5 6 
#
# 1 0.009390 -0.002416 0.003407 0.003946 0.005358 -0.001588
# 2 -0.002416 0.016461 0.007416 -0.017282 -0.011497 0.001206
# 3 0.003407 0.007416 0.039275 -0.029047 -0.003733 -0.012574
# 4 0.003946 -0.017282 -0.029047 0.062071 0.011048 0.009556
# 5 0.005358 -0.011497 -0.003733 0.011048 0.036471 -0.008623
# 6 -0.001588 0.001206 -0.012574 0.009556 -0.008623 0.036281
#
#
# Mechanical properties :
#
#
# Convention : Reuss Voigt Hill
#
# Bulk Modulus (GPa) = 12.20399 26.07002 19.13700
# Shear Modulus (GPa) = 23.75902 42.45841 33.10871
#
# Velocity S-wave (km/s) = 3.53134 4.72070 4.16866
# Velocity P-wave (km/s) = 4.79923 6.58762 5.76321
#
# Compressibility (1/GPa) = 0.08194044
#
# Stress axis : x y z
#
# Youngs Moduli (GPa) = 106.49641 60.75075 25.46167
#
# Poissons Ratio (x) = 0.14678 -0.08676
# Poissons Ratio (y) = 0.25731 -0.18883
# Poissons Ratio (z) = -0.36287 -0.45054
#
# Static dielectric constant tensor:
#      x y z
#    x 1.720670 -0.031090 0.040450 
#    y -0.031090 1.660260 -0.011440 
#    z 0.040450 -0.011440 1.670590 
# 
# From -- ./inp_files/111372.got.cif
#   From: 2010.05.17/outbox.cif.g08.bks.cpg/sg2_56_cif.got.tgz:111372.got - 2010.06.03 11:33:40.
