data_PCOD9086698
_publ_section_title
;
Structure prediction by ZEFSAII (Michael W. Deem and Ramdas Pophale) SiO2 
 PCOD9086698
Probable space group: P -1
;
_chemical_formula_sum "Si O2"
_cell_formula_units_Z 16
_cell_length_a 7.858933
_cell_length_b 13.188358
_cell_length_c 11.372390
_cell_angle_alpha 141.057234
_cell_angle_beta 80.181488
_cell_angle_gamma 78.029286
_cell_volume 610.143665
_symmetry_space_group_name_H-M "P -1"
_symmetry_group_IT_number 2
_symmetry_cell_setting 'triclinic'
loop_
_space_group_symop_operation_xyz
x,y,z
-x,-y,-z
loop_
_atom_site_type_symbol
_atom_site_label
_atom_site_fract_x
_atom_site_fract_y
_atom_site_fract_z
Si Si1 0.722137 0.743948 0.015808
Si Si2 0.734813 0.297141 0.930650
Si Si3 0.113140 0.268826 0.772446
Si Si4 0.451015 0.733321 0.281654
Si Si5 0.093429 0.700778 0.404469
Si Si6 0.185213 0.585843 0.737739
Si Si7 0.477575 0.159341 0.385578
Si Si8 0.147225 0.817124 0.737952
O O1 0.763280 0.532094 0.805225
O O2 0.941974 0.699865 0.899881
O O3 0.719459 0.783922 0.193272
O O4 0.542888 0.941945 0.155433
O O5 0.628590 0.507313 0.070935
O O6 0.715682 0.343145 0.112387
O O7 0.974411 0.197189 0.781749
O O8 0.625510 0.209344 0.793191
O O9 0.091081 0.236826 0.608941
O O10 0.000000 0.500000 0.000000
O O11 0.246155 0.753648 0.377933
O O12 0.519423 0.821641 0.455045
O O13 0.026828 0.803595 0.629669
O O14 0.282414 0.358920 0.539768
O O15 0.223080 0.634632 0.648593
O O16 0.666004 0.172110 0.324138
O O17 0.000000 0.000000 0.000000
#
# Coordination Sequence:
#
# PCOD9086698 Si02
#       8
#     2   2   2   2   2   2   2   2
#     4  10  19  36  60  82 110 144 178 225 279 329
#     4   8  14  28  52  77 106 141 178 220 268 316
#     4   8  15  30  53  82 109 145 177 214 280 330
#     4   8  15  30  53  80 108 141 176 225 275 316
#     4   9  19  34  57  78 111 149 178 224 275 324
#     4  10  20  35  57  79 111 147 180 228 273 319
#     4  10  20  36  58  82 108 141 187 228 273 325
#     4  11  21  38  56  80 109 147 189 225 271 320
#
# _framework density 26.223331000000002
#
# number of rings (size 3 to 8) (size 9 to 14) (size 15 to 20)
#    0.000    2.750    1.250    0.375    0.000    0.500 
#    2.250    3.125    8.250   67.500    0.000    0.000 
#    0.000    0.000    0.000    0.000    0.000    0.000 
#
# Total GULP energy -89376.690661 kJ/mol
# GULP energy per Si atom -5586.043166 kJ/mol
# Density = 2.616365 g / cm^3
# Si number density = 26.223331 Si / 1000 Ang^3
#
#
#
# Elastic Constant Matrix: (Units=GPa)
#
#
# Indices 1 2 3 4 5 6 
#
# 1 83.5752 8.5328 9.6811 -4.9239 12.6477 -20.3152
# 2 8.5328 79.9922 64.9217 -2.2831 3.3580 0.1638
# 3 9.6811 64.9217 145.6097 17.5391 -0.1321 -10.7172
# 4 -4.9239 -2.2831 17.5391 68.9004 -2.6429 6.8236
# 5 12.6477 3.3580 -0.1321 -2.6429 17.6389 -15.1453
# 6 -20.3152 0.1638 -10.7172 6.8236 -15.1453 33.1992
#
#
#
# Elastic Compliance Matrix: (Units=1/GPa)
#
#
# Indices 1 2 3 4 5 6 
#
# 1 0.014425 -0.001611 0.000274 0.000052 -0.003903 0.007133
# 2 -0.001611 0.022419 -0.011211 0.004115 -0.012092 -0.011077
# 3 0.000274 -0.011211 0.013094 -0.004280 0.009816 0.009808
# 4 0.000052 0.004115 -0.004280 0.016237 -0.004047 -0.006554
# 5 -0.003903 -0.012092 0.009816 -0.004047 0.103068 0.048691
# 6 0.007133 -0.011077 0.009808 -0.006554 0.048691 0.061266
#
#
# Mechanical properties :
#
#
# Convention : Reuss Voigt Hill
#
# Bulk Modulus (GPa) = 40.25013 52.82759 46.53886
# Shear Modulus (GPa) = 18.94753 39.01714 28.98234
#
# Velocity S-wave (km/s) = 2.69094 3.86149 3.32808
# Velocity P-wave (km/s) = 5.00371 6.33012 5.70559
#
# Compressibility (1/GPa) = 0.02484464
#
# Stress axis : x y z
#
# Youngs Moduli (GPa) = 69.32230 44.60404 76.36950
#
# Poissons Ratio (x) = 0.07184 -0.02094
# Poissons Ratio (y) = 0.11165 0.85617
# Poissons Ratio (z) = -0.01901 0.50005
#
# Static dielectric constant tensor:
#      x y z
#    x 2.238030 0.067660 -0.026660 
#    y 0.067660 2.094400 0.112210 
#    z -0.026660 0.112210 2.292240 
# 
# From -- ./inp_files/200176.got.cif
#   From: 2010.05.17/outbox.cif.g08.bks.cpg/sg2_101_cif.got.tgz:200176.got - 2010.06.03 11:33:40.
