data_PCOD9086967
_publ_section_title
;
Structure prediction by ZEFSAII (Michael W. Deem and Ramdas Pophale) SiO2 
 PCOD9086967
Probable space group: P -1
;
_chemical_formula_sum "Si O2"
_cell_formula_units_Z 16
_cell_length_a 11.737051
_cell_length_b 9.036339
_cell_length_c 11.598467
_cell_angle_alpha 114.224992
_cell_angle_beta 51.574331
_cell_angle_gamma 80.593814
_cell_volume 712.321117
_symmetry_space_group_name_H-M "P -1"
_symmetry_group_IT_number 2
_symmetry_cell_setting 'triclinic'
loop_
_space_group_symop_operation_xyz
x,y,z
-x,-y,-z
loop_
_atom_site_type_symbol
_atom_site_label
_atom_site_fract_x
_atom_site_fract_y
_atom_site_fract_z
Si Si1 0.168630 0.803175 0.024184
Si Si2 0.424518 0.830931 0.452042
Si Si3 0.976920 0.696980 0.534383
Si Si4 0.167615 0.735686 0.607123
Si Si5 0.097002 0.586650 0.819482
Si Si6 0.089626 0.221929 0.667807
Si Si7 0.327167 0.123328 0.811128
Si Si8 0.635230 0.014836 0.998278
O O1 0.086654 0.754046 0.166044
O O2 0.340577 0.806159 0.939426
O O3 0.995037 0.034755 0.178262
O O4 0.194858 0.653426 0.859774
O O5 0.262265 0.006692 0.529983
O O6 0.421276 0.933558 0.606010
O O7 0.357790 0.697837 0.484080
O O8 0.601593 0.751880 0.242386
O O9 0.934551 0.741348 0.441539
O O10 0.816987 0.866215 0.767128
O O11 0.000000 0.500000 0.500000
O O12 0.140214 0.697523 0.480318
O O13 0.149681 0.596279 0.659024
O O14 0.118615 0.380653 0.756133
O O15 0.885436 0.755224 0.025123
O O16 0.374497 0.057297 0.892056
O O17 0.500000 0.000000 0.000000
#
# Coordination Sequence:
#
# PCOD9086967 Si02
#       8
#     2   2   2   2   2   2   2   2
#     4  10  21  35  61  95 111 155 210 247 288 357
#     4  10  23  36  60  92 123 150 205 250 306 347
#     4  11  21  38  58  85 118 161 201 238 299 358
#     4  10  19  36  61  86 116 162 201 243 283 372
#     4  12  19  38  68  88 123 156 205 246 301 354
#     4  11  22  36  60  93 124 155 199 256 296 356
#     4  11  20  38  61  89 122 158 195 247 305 354
#     4  11  23  39  63  85 123 162 202 246 299 361
#
# _framework density 22.461779
#
# number of rings (size 3 to 8) (size 9 to 14) (size 15 to 20)
#    0.000    1.250    6.250    2.250    0.000    5.500 
#    0.000    1.250    0.000    6.000    0.000    0.000 
#    0.000    0.000    0.000    0.000    0.000    0.000 
#
# Total GULP energy -89347.212065 kJ/mol
# GULP energy per Si atom -5584.200754 kJ/mol
# Density = 2.241065 g / cm^3
# Si number density = 22.461779 Si / 1000 Ang^3
#
#
#
# Elastic Constant Matrix: (Units=GPa)
#
#
# Indices 1 2 3 4 5 6 
#
# 1 124.2440 28.4363 42.6288 -19.5710 15.3969 22.0379
# 2 28.4363 86.2990 25.8609 -22.4827 -2.8442 16.5724
# 3 42.6288 25.8609 55.8154 -26.1635 18.7187 3.9344
# 4 -19.5710 -22.4827 -26.1635 38.1055 0.8266 3.3107
# 5 15.3969 -2.8442 18.7187 0.8266 36.2878 -16.7057
# 6 22.0379 16.5724 3.9344 3.3107 -16.7057 45.6789
#
#
#
# Elastic Compliance Matrix: (Units=1/GPa)
#
#
# Indices 1 2 3 4 5 6 
#
# 1 0.012752 -0.000345 -0.004840 0.003904 -0.006906 -0.008419
# 2 -0.000345 0.015686 -0.003270 0.007319 0.000287 -0.005668
# 3 -0.004840 -0.003270 0.049057 0.031170 -0.030762 -0.014213
# 4 0.003904 0.007319 0.031170 0.056472 -0.028447 -0.021720
# 5 -0.006906 0.000287 -0.030762 -0.028447 0.060942 0.030227
# 6 -0.008419 -0.005668 -0.014213 -0.021720 0.030227 0.041863
#
#
# Mechanical properties :
#
#
# Convention : Reuss Voigt Hill
#
# Bulk Modulus (GPa) = 16.50590 51.13448 33.82019
# Shear Modulus (GPa) = 18.25632 35.30994 26.78313
#
# Velocity S-wave (km/s) = 2.85401 3.96915 3.45684
# Velocity P-wave (km/s) = 4.26906 6.61967 5.56978
#
# Compressibility (1/GPa) = 0.06058438
#
# Stress axis : x y z
#
# Youngs Moduli (GPa) = 78.41623 63.75159 20.38434
#
# Poissons Ratio (x) = 0.02203 0.09867
# Poissons Ratio (y) = 0.02709 0.06665
# Poissons Ratio (z) = 0.37956 0.20845
#
# Static dielectric constant tensor:
#      x y z
#    x 1.988790 0.067450 -0.014050 
#    y 0.067450 1.868460 0.012250 
#    z -0.014050 0.012250 1.772930 
# 
# From -- ./inp_files/205729.got.cif
#   From: 2010.05.17/outbox.cif.g08.bks.cpg/sg2_103_cif.got.tgz:205729.got - 2010.06.03 11:33:40.
