data_PCOD9086901
_publ_section_title
;
Structure prediction by ZEFSAII (Michael W. Deem and Ramdas Pophale) SiO2 
 PCOD9086901
Probable space group: P -1
;
_chemical_formula_sum "Si O2"
_cell_formula_units_Z 16
_cell_length_a 8.581049
_cell_length_b 13.555226
_cell_length_c 16.243511
_cell_angle_alpha 144.460021
_cell_angle_beta 81.963583
_cell_angle_gamma 123.255882
_cell_volume 712.930783
_symmetry_space_group_name_H-M "P -1"
_symmetry_group_IT_number 2
_symmetry_cell_setting 'triclinic'
loop_
_space_group_symop_operation_xyz
x,y,z
-x,-y,-z
loop_
_atom_site_type_symbol
_atom_site_label
_atom_site_fract_x
_atom_site_fract_y
_atom_site_fract_z
Si Si1 0.734631 0.266719 0.452728
Si Si2 0.448794 0.230144 0.565676
Si Si3 0.108999 0.967363 0.541839
Si Si4 0.495753 0.249643 0.955762
Si Si5 0.051271 0.057334 0.792181
Si Si6 0.997150 0.697144 0.141640
Si Si7 0.247612 0.508066 0.552691
Si Si8 0.379395 0.572210 0.762602
O O1 0.676282 0.311473 0.572598
O O2 0.665959 0.345635 0.440069
O O3 0.007524 0.424268 0.532335
O O4 0.579200 0.973743 0.243931
O O5 0.452980 0.433251 0.678049
O O6 0.371939 0.144462 0.608048
O O7 0.227635 0.959252 0.349522
O O8 0.908451 0.659042 0.355902
O O9 0.109586 0.043512 0.684739
O O10 0.000000 0.000000 0.500000
O O11 0.285309 0.214036 0.934094
O O12 0.747623 0.525516 0.092306
O O13 0.505264 0.223466 0.034906
O O14 0.997426 0.208660 0.883876
O O15 0.841438 0.759279 0.632884
O O16 0.000000 0.500000 0.000000
O O17 0.412333 0.647510 0.716317
#
# Coordination Sequence:
#
# PCOD9086901 Si02
#       8
#     2   2   2   2   2   2   2   2
#     4  10  22  38  60  87 115 146 195 245 278 331
#     4  11  19  35  57  86 116 149 189 233 286 339
#     4   9  15  31  57  76 112 148 182 219 275 349
#     4  11  22  35  59  86 116 153 190 230 287 344
#     4  10  20  38  58  84 111 162 191 219 289 351
#     4  12  20  33  54  88 123 142 182 245 284 333
#     4   9  20  41  61  79 112 159 194 229 283 347
#     4  10  19  36  61  81 112 159 188 228 283 349
#
# _framework density 22.442571000000001
#
# number of rings (size 3 to 8) (size 9 to 14) (size 15 to 20)
#    0.000    1.750    6.250    1.125    0.000    1.000 
#    0.000    8.125    0.000    6.750    0.000    0.000 
#    0.000    0.000    0.000    0.000    0.000    0.000 
#
# Total GULP energy -89274.473283 kJ/mol
# GULP energy per Si atom -5579.654580 kJ/mol
# Density = 2.239149 g / cm^3
# Si number density = 22.442571 Si / 1000 Ang^3
#
#
#
# Elastic Constant Matrix: (Units=GPa)
#
#
# Indices 1 2 3 4 5 6 
#
# 1 37.1302 -0.0420 9.3821 5.8183 -11.5475 -13.8927
# 2 -0.0420 43.7248 -2.4403 3.5645 -5.2726 -16.9038
# 3 9.3821 -2.4403 25.8694 -4.7149 -4.0698 -4.7722
# 4 5.8183 3.5645 -4.7149 22.1019 -9.9269 -2.9622
# 5 -11.5475 -5.2726 -4.0698 -9.9269 32.9325 -0.4122
# 6 -13.8927 -16.9038 -4.7722 -2.9622 -0.4122 39.3717
#
#
#
# Elastic Compliance Matrix: (Units=1/GPa)
#
#
# Indices 1 2 3 4 5 6 
#
# 1 0.040313 0.007639 -0.010160 -0.006307 0.012401 0.015928
# 2 0.007639 0.030467 0.004421 -0.000061 0.008290 0.016394
# 3 -0.010160 0.004421 0.048081 0.016620 0.008166 0.005477
# 4 -0.006307 -0.000061 0.016620 0.058983 0.017667 0.004385
# 5 0.012401 0.008290 0.008166 0.017667 0.042509 0.010699
# 6 0.015928 0.016394 0.005477 0.004385 0.010699 0.039164
#
#
# Mechanical properties :
#
#
# Convention : Reuss Voigt Hill
#
# Bulk Modulus (GPa) = 8.15255 13.39157 10.77206
# Shear Modulus (GPa) = 16.85745 25.53619 21.19682
#
# Velocity S-wave (km/s) = 2.74366 3.37686 3.07659
# Velocity P-wave (km/s) = 3.69830 4.60263 4.17502
#
# Compressibility (1/GPa) = 0.12266094
#
# Stress axis : x y z
#
# Youngs Moduli (GPa) = 24.80593 32.82262 20.79804
#
# Poissons Ratio (x) = -0.25073 0.21131
# Poissons Ratio (y) = -0.18949 -0.09194
# Poissons Ratio (z) = 0.25203 -0.14510
#
# Static dielectric constant tensor:
#      x y z
#    x 1.958130 0.031460 -0.034310 
#    y 0.031460 1.888720 -0.017420 
#    z -0.034310 -0.017420 1.836950 
# 
# From -- ./inp_files/222591.got.cif
#   From: 2010.05.17/outbox.cif.g08.bks.cpg/sg2_112_cif.got.tgz:222591.got - 2010.06.03 11:33:40.
