data_PCOD9086376
_publ_section_title
;
Structure prediction by ZEFSAII (Michael W. Deem and Ramdas Pophale) SiO2 
 PCOD9086376
Probable space group: P -1
;
_chemical_formula_sum "Si O2"
_cell_formula_units_Z 14
_cell_length_a 7.058255
_cell_length_b 5.090564
_cell_length_c 18.375827
_cell_angle_alpha 111.515115
_cell_angle_beta 67.625009
_cell_angle_gamma 96.738761
_cell_volume 567.811271
_symmetry_space_group_name_H-M "P -1"
_symmetry_group_IT_number 2
_symmetry_cell_setting 'triclinic'
loop_
_space_group_symop_operation_xyz
x,y,z
-x,-y,-z
loop_
_atom_site_type_symbol
_atom_site_label
_atom_site_fract_x
_atom_site_fract_y
_atom_site_fract_z
Si Si1 0.056254 0.574138 0.234230
Si Si2 0.116338 0.037294 0.815881
Si Si3 0.528496 0.993338 0.328409
Si Si4 0.145073 0.228427 0.469007
Si Si5 0.835214 0.131664 0.984619
Si Si6 0.286598 0.405351 0.613542
Si Si7 0.559353 0.617057 0.922058
O O1 0.941179 0.288107 0.193587
O O2 0.956022 0.597406 0.330525
O O3 0.291822 0.541681 0.172814
O O4 0.977766 0.858232 0.235665
O O5 0.357328 0.078878 0.772486
O O6 0.982209 0.238763 0.910310
O O7 0.290272 0.088534 0.371287
O O8 0.644623 0.276437 0.361347
O O9 0.583271 0.763389 0.360100
O O10 0.301609 0.293788 0.518660
O O11 0.000000 0.500000 0.500000
O O12 0.000000 0.000000 0.500000
O O13 0.690885 0.895236 0.946784
O O14 0.667179 0.323139 0.069276
O O15 0.000000 0.000000 0.000000
O O16 0.500000 0.500000 0.000000
#
# Coordination Sequence:
#
# PCOD9086376 Si02
#       7
#     2   2   2   2   2   2   2
#     4   9  18  34  59  82 108 148 193 236 279 331
#     4   9  18  35  57  82 111 145 191 241 276 333
#     4  10  20  38  63  81 106 153 198 227 274 343
#     4  12  24  38  56  87 124 144 176 240 295 334
#     4  10  21  36  55  85 115 153 196 239 291 345
#     4  10  20  38  62  83 106 152 200 225 270 353
#     4  10  19  36  58  79 117 153 192 243 289 336
#
# _framework density 24.656081
#
# number of rings (size 3 to 8) (size 9 to 14) (size 15 to 20)
#    0.000    2.000    1.429    2.571    0.000    0.571 
#    2.571    1.429    0.000    0.000    0.000    0.000 
#    0.000    0.000    0.000    0.000    0.000    0.000 
#
# Total GULP energy -78034.883945 kJ/mol
# GULP energy per Si atom -5573.920282 kJ/mol
# Density = 2.459996 g / cm^3
# Si number density = 24.656081 Si / 1000 Ang^3
#
#
#
# Elastic Constant Matrix: (Units=GPa)
#
#
# Indices 1 2 3 4 5 6 
#
# 1 89.6143 31.0669 43.8350 2.8954 -45.6477 -4.1410
# 2 31.0669 121.8830 16.9924 0.8493 -18.7186 -9.3304
# 3 43.8350 16.9924 173.9605 -2.7704 -79.3614 -7.5737
# 4 2.8954 0.8493 -2.7704 30.2658 -5.5776 -4.5615
# 5 -45.6477 -18.7186 -79.3614 -5.5776 58.8302 9.9147
# 6 -4.1410 -9.3304 -7.5737 -4.5615 9.9147 37.0110
#
#
#
# Elastic Compliance Matrix: (Units=1/GPa)
#
#
# Indices 1 2 3 4 5 6 
#
# 1 0.021591 -0.002807 0.006080 0.002645 0.024884 -0.003388
# 2 -0.002807 0.009152 0.000296 0.000481 0.000862 0.001882
# 3 0.006080 0.000296 0.017784 0.006111 0.029863 -0.002852
# 4 0.002645 0.000481 0.006111 0.036194 0.013456 0.002524
# 5 0.024884 0.000862 0.029863 0.013456 0.079934 -0.010643
# 6 -0.003388 0.001882 -0.002852 0.002524 -0.010643 0.029693
#
#
# Mechanical properties :
#
#
# Convention : Reuss Voigt Hill
#
# Bulk Modulus (GPa) = 17.96441 63.24961 40.60701
# Shear Modulus (GPa) = 24.29967 44.79230 34.54598
#
# Velocity S-wave (km/s) = 3.14274 4.26688 3.74721
# Velocity P-wave (km/s) = 4.52448 7.06990 5.93525
#
# Compressibility (1/GPa) = 0.05566563
#
# Stress axis : x y z
#
# Youngs Moduli (GPa) = 46.31486 109.26683 56.23076
#
# Poissons Ratio (x) = 0.30674 -0.34191
# Poissons Ratio (y) = 0.13002 -0.01665
# Poissons Ratio (z) = -0.28161 -0.03235
#
# Static dielectric constant tensor:
#      x y z
#    x 1.930910 -0.031730 -0.069900 
#    y -0.031730 1.977870 0.032110 
#    z -0.069900 0.032110 2.053100 
# 
# From -- ./inp_files/7879.got.cif
#   From: 2010.05.17/outbox.cif.g08.bks.cpg/sg2_4_cif.got.tgz:7879.got - 2010.06.03 11:33:40.
