data_PCOD9086805
_publ_section_title
;
Structure prediction by ZEFSAII (Michael W. Deem and Ramdas Pophale) SiO2 
 PCOD9086805
Probable space group: P -1
;
_chemical_formula_sum "Si O2"
_cell_formula_units_Z 16
_cell_length_a 6.862805
_cell_length_b 5.147376
_cell_length_c 22.550835
_cell_angle_alpha 126.665276
_cell_angle_beta 96.964923
_cell_angle_gamma 77.531243
_cell_volume 623.896069
_symmetry_space_group_name_H-M "P -1"
_symmetry_group_IT_number 2
_symmetry_cell_setting 'triclinic'
loop_
_space_group_symop_operation_xyz
x,y,z
-x,-y,-z
loop_
_atom_site_type_symbol
_atom_site_label
_atom_site_fract_x
_atom_site_fract_y
_atom_site_fract_z
Si Si1 0.212697 0.111949 0.858552
Si Si2 0.859427 0.820949 0.809179
Si Si3 0.967551 0.715520 0.667732
Si Si4 0.547403 0.446159 0.906277
Si Si5 0.489135 0.505158 0.228156
Si Si6 0.922057 0.666887 0.958168
Si Si7 0.860103 0.324645 0.512677
Si Si8 0.248211 0.067577 0.642694
O O1 0.361097 0.350556 0.921454
O O2 0.024975 0.403452 0.876756
O O3 0.372143 0.841949 0.792121
O O4 0.080068 0.851635 0.843786
O O5 0.739127 0.523276 0.771281
O O6 0.869942 0.868021 0.745145
O O7 0.715176 0.120239 0.875922
O O8 0.117749 0.392490 0.652914
O O9 0.812103 0.578472 0.599728
O O10 0.103729 0.929903 0.665869
O O11 0.483289 0.484792 0.840316
O O12 0.682551 0.723252 0.957549
O O13 0.568775 0.805146 0.302356
O O14 0.000000 0.500000 0.000000
O O15 0.000000 0.000000 0.000000
O O16 0.000000 0.500000 0.500000
O O17 0.705480 0.197125 0.445191
O O18 0.000000 0.000000 0.500000
#
# Coordination Sequence:
#
# PCOD9086805 Si02
#       8
#     2   2   2   2   2   2   2   2
#     4  10  23  44  67  93 132 169 211 256 320 372
#     4  10  22  38  60  95 130 168 218 269 319 374
#     4  10  19  36  60  88 124 173 215 265 325 375
#     4  10  25  42  67  96 130 172 211 262 314 383
#     4  11  23  38  66  96 130 168 217 267 321 377
#     4  11  28  48  72 101 133 167 210 259 312 380
#     4   8  16  31  54  85 119 164 217 261 313 385
#     4  10  20  35  61  90 125 167 217 265 323 379
#
# _framework density 25.645298
#
# number of rings (size 3 to 8) (size 9 to 14) (size 15 to 20)
#    0.000    2.000    1.250    0.750   10.500    2.000 
#    0.000    0.625    0.000    0.750    0.000    0.000 
#    0.000    0.000    0.000    0.000    0.000    0.000 
#
# Total GULP energy -89188.418325 kJ/mol
# GULP energy per Si atom -5574.276145 kJ/mol
# Density = 2.558693 g / cm^3
# Si number density = 25.645298 Si / 1000 Ang^3
#
#
#
# Elastic Constant Matrix: (Units=GPa)
#
#
# Indices 1 2 3 4 5 6 
#
# 1 167.3187 46.0004 60.4466 14.8846 41.0755 28.3567
# 2 46.0004 132.2838 59.0265 10.4255 24.2582 31.1847
# 3 60.4466 59.0265 149.7262 5.0732 34.5810 20.6970
# 4 14.8846 10.4255 5.0732 37.7962 7.8708 8.4221
# 5 41.0755 24.2582 34.5810 7.8708 51.2022 15.1912
# 6 28.3567 31.1847 20.6970 8.4221 15.1912 35.5143
#
#
#
# Elastic Compliance Matrix: (Units=1/GPa)
#
#
# Indices 1 2 3 4 5 6 
#
# 1 0.008437 -0.000541 -0.001746 -0.001369 -0.004196 -0.003125
# 2 -0.000541 0.010868 -0.002951 -0.000719 -0.000537 -0.006991
# 3 -0.001746 -0.002951 0.009377 0.001039 -0.003644 -0.000167
# 4 -0.001369 -0.000719 0.001039 0.028572 -0.002264 -0.004688
# 5 -0.004196 -0.000537 -0.003644 -0.002264 0.027531 -0.005294
# 6 -0.003125 -0.006991 -0.000167 -0.004688 -0.005294 0.040265
#
#
# Mechanical properties :
#
#
# Convention : Reuss Voigt Hill
#
# Bulk Modulus (GPa) = 54.92698 86.69730 70.81214
# Shear Modulus (GPa) = 35.31236 43.82622 39.56929
#
# Velocity S-wave (km/s) = 3.71476 4.13842 3.93230
# Velocity P-wave (km/s) = 6.31377 7.53094 6.94905
#
# Compressibility (1/GPa) = 0.01820599
#
# Stress axis : x y z
#
# Youngs Moduli (GPa) = 118.51912 92.01648 106.64852
#
# Poissons Ratio (x) = 0.04979 0.18616
# Poissons Ratio (y) = 0.06413 0.31474
# Poissons Ratio (z) = 0.20688 0.27156
#
# Static dielectric constant tensor:
#      x y z
#    x 2.040110 0.008730 0.013360 
#    y 0.008730 2.049010 0.002640 
#    z 0.013360 0.002640 2.181680 
# 
# From -- ./inp_files/12782.got.cif
#   From: 2010.05.17/outbox.cif.g08.bks.cpg/sg2_7_cif.got.tgz:12782.got - 2010.06.03 11:33:40.
