data_PCOD9086869
_publ_section_title
;
Structure prediction by ZEFSAII (Michael W. Deem and Ramdas Pophale) SiO2 
 PCOD9086869
Probable space group: P -1
;
_chemical_formula_sum "Si O2"
_cell_formula_units_Z 14
_cell_length_a 9.593624
_cell_length_b 9.044424
_cell_length_c 26.090528
_cell_angle_alpha 143.552882
_cell_angle_beta 141.640717
_cell_angle_gamma 64.388229
_cell_volume 703.348377
_symmetry_space_group_name_H-M "P -1"
_symmetry_group_IT_number 2
_symmetry_cell_setting 'triclinic'
loop_
_space_group_symop_operation_xyz
x,y,z
-x,-y,-z
loop_
_atom_site_type_symbol
_atom_site_label
_atom_site_fract_x
_atom_site_fract_y
_atom_site_fract_z
Si Si1 0.413032 0.521156 0.423597
Si Si2 0.785234 0.267288 0.330648
Si Si3 0.793030 0.166054 0.605496
Si Si4 0.783025 0.763951 0.411024
Si Si5 0.722193 0.053430 0.832355
Si Si6 0.231693 0.637909 0.171974
Si Si7 0.030966 0.913863 0.271880
O O1 0.500000 0.500000 0.500000
O O2 0.219911 0.638853 0.389236
O O3 0.697751 0.767662 0.551795
O O4 0.285682 0.217398 0.272566
O O5 0.786772 0.473895 0.343340
O O6 0.000000 0.500000 0.500000
O O7 0.508644 0.086984 0.231439
O O8 0.825992 0.016974 0.247601
O O9 0.992511 0.299820 0.748181
O O10 0.500000 0.000000 0.500000
O O11 0.847737 0.937155 0.531330
O O12 0.490238 0.689373 0.290010
O O13 0.000000 0.000000 0.500000
O O14 0.677792 0.218671 0.818404
O O15 0.005036 0.295847 0.005159
O O16 0.094150 0.789182 0.204675
#
# Coordination Sequence:
#
# PCOD9086869 Si02
#       7
#     2   2   2   2   2   2   2
#     4  11  19  35  67  95 117 168 221 258 308 385
#     4  12  23  39  65  99 128 162 218 274 310 374
#     4  10  19  36  60  92 124 160 215 261 308 374
#     4  12  24  39  66 100 128 164 217 272 319 375
#     4  11  24  42  66  94 132 168 215 265 323 382
#     4  11  25  44  64  92 133 175 209 260 332 390
#     4  11  22  39  64  93 125 169 213 260 321 378
#
# _framework density 19.904786000000001
#
# number of rings (size 3 to 8) (size 9 to 14) (size 15 to 20)
#    0.000    0.857    7.143    1.714    2.000    1.143 
#    0.000    0.000    0.000    2.571    0.000    0.000 
#    0.000    0.000    0.000    0.000    0.000    0.000 
#
# Total GULP energy -77986.659221 kJ/mol
# GULP energy per Si atom -5570.475659 kJ/mol
# Density = 1.985948 g / cm^3
# Si number density = 19.904786 Si / 1000 Ang^3
#
#
#
# Elastic Constant Matrix: (Units=GPa)
#
#
# Indices 1 2 3 4 5 6 
#
# 1 101.4629 54.0488 27.9148 1.0620 -8.5352 4.8806
# 2 54.0488 122.2527 17.4070 -0.0179 4.1143 2.5397
# 3 27.9148 17.4070 84.5393 20.6783 -4.3489 -0.1999
# 4 1.0620 -0.0179 20.6783 21.7332 -1.3367 -4.6699
# 5 -8.5352 4.1143 -4.3489 -1.3367 19.2133 7.6724
# 6 4.8806 2.5397 -0.1999 -4.6699 7.6724 37.2256
#
#
#
# Elastic Compliance Matrix: (Units=1/GPa)
#
#
# Indices 1 2 3 4 5 6 
#
# 1 0.015182 -0.006372 -0.003982 0.002930 0.008603 -0.002983
# 2 -0.006372 0.011275 -0.000758 0.000980 -0.005909 0.001403
# 3 -0.003982 -0.000758 0.017482 -0.016714 0.001916 -0.001824
# 4 0.002930 0.000980 -0.016714 0.063341 -0.001353 0.007684
# 5 0.008603 -0.005909 0.001916 -0.001353 0.063013 -0.013872
# 6 -0.002983 0.001403 -0.001824 0.007684 -0.013872 0.030972
#
#
# Mechanical properties :
#
#
# Convention : Reuss Voigt Hill
#
# Bulk Modulus (GPa) = 46.05159 56.33289 51.19224
# Shear Modulus (GPa) = 21.67058 29.56004 25.61531
#
# Velocity S-wave (km/s) = 3.30314 3.85784 3.59122
# Velocity P-wave (km/s) = 6.14279 6.94309 6.55517
#
# Compressibility (1/GPa) = 0.02171478
#
# Stress axis : x y z
#
# Youngs Moduli (GPa) = 65.86558 88.69367 57.20102
#
# Poissons Ratio (x) = 0.56519 0.22779
# Poissons Ratio (y) = 0.41972 0.04334
# Poissons Ratio (z) = 0.26230 0.06719
#
# Static dielectric constant tensor:
#      x y z
#    x 1.812270 0.024520 0.012990 
#    y 0.024520 1.865790 -0.038180 
#    z 0.012990 -0.038180 1.704480 
# 
# From -- ./inp_files/186480.got.cif
#   From: 2010.05.17/outbox.cif.g08.bks.cpg/sg2_94_cif.got.tgz:186480.got - 2010.06.03 11:33:40.
