data_PCOD9086069
_publ_section_title
;
Structure prediction by ZEFSAII (Michael W. Deem and Ramdas Pophale) SiO2 
 PCOD9086069
Probable space group: P -1
;
_chemical_formula_sum "Si O2"
_cell_formula_units_Z 16
_cell_length_a 8.992060
_cell_length_b 13.030454
_cell_length_c 8.855793
_cell_angle_alpha 80.068127
_cell_angle_beta 73.315329
_cell_angle_gamma 44.574173
_cell_volume 696.795760
_symmetry_space_group_name_H-M "P -1"
_symmetry_group_IT_number 2
_symmetry_cell_setting 'triclinic'
loop_
_space_group_symop_operation_xyz
x,y,z
-x,-y,-z
loop_
_atom_site_type_symbol
_atom_site_label
_atom_site_fract_x
_atom_site_fract_y
_atom_site_fract_z
Si Si1 0.635120 0.788359 0.067732
Si Si2 0.479083 0.672485 0.963784
Si Si3 0.501027 0.548227 0.286115
Si Si4 0.836597 0.705749 0.525159
Si Si5 0.887646 0.237404 0.141891
Si Si6 0.284551 0.077494 0.247329
Si Si7 0.967859 0.367639 0.842018
Si Si8 0.307746 0.432866 0.520461
O O1 0.493597 0.771601 0.025120
O O2 0.859125 0.643476 0.112545
O O3 0.496331 0.906998 0.211063
O O4 0.689177 0.845973 0.907299
O O5 0.422977 0.615435 0.126005
O O6 0.295914 0.754972 0.868138
O O7 0.725318 0.529518 0.875661
O O8 0.746039 0.390363 0.232827
O O9 0.368356 0.513916 0.400362
O O10 0.531419 0.632118 0.366628
O O11 0.745180 0.847115 0.607241
O O12 0.676219 0.682983 0.546763
O O13 0.936652 0.689166 0.338168
O O14 0.047298 0.563103 0.592611
O O15 0.073402 0.115165 0.234705
O O16 0.974377 0.256347 0.962836
#
# Coordination Sequence:
#
# PCOD9086069 Si02
#       8
#     2   2   2   2   2   2   2   2
#     4  10  23  40  60  82 117 159 198 238 278 345
#     4  11  21  35  65  87 117 149 197 238 294 343
#     4  10  19  36  52  91 119 150 180 246 294 346
#     4  11  21  35  58  88 115 153 190 239 288 348
#     4  10  20  37  59  84 120 155 188 238 288 345
#     4  10  23  41  56  83 121 159 196 233 281 344
#     4  10  21  37  60  91 116 145 191 247 297 334
#     4  10  21  31  57  87 125 145 187 236 305 339
#
# _framework density 22.962250999999998
#
# number of rings (size 3 to 8) (size 9 to 14) (size 15 to 20)
#    0.000    1.750    1.250    4.125    5.250    1.000 
#    0.000    0.000    0.000    3.000    0.000    0.000 
#    0.000    0.000    0.000    0.000    0.000    0.000 
#
# Total GULP energy -89332.897800 kJ/mol
# GULP energy per Si atom -5583.306112 kJ/mol
# Density = 2.290999 g / cm^3
# Si number density = 22.962251 Si / 1000 Ang^3
#
#
#
# Elastic Constant Matrix: (Units=GPa)
#
#
# Indices 1 2 3 4 5 6 
#
# 1 161.5999 30.2820 61.4627 7.2025 29.5456 -5.6173
# 2 30.2820 30.5775 25.4796 9.2556 8.2718 -2.6170
# 3 61.4627 25.4796 107.9120 19.2608 17.6191 8.7749
# 4 7.2025 9.2556 19.2608 26.6011 7.7207 8.5519
# 5 29.5456 8.2718 17.6191 7.7207 41.0575 -0.1309
# 6 -5.6173 -2.6170 8.7749 8.5519 -0.1309 18.9838
#
#
#
# Elastic Compliance Matrix: (Units=1/GPa)
#
#
# Indices 1 2 3 4 5 6 
#
# 1 0.009580 -0.005387 -0.004154 0.002716 -0.004528 0.002758
# 2 -0.005387 0.050245 -0.007236 -0.015834 -0.000113 0.015809
# 3 -0.004154 -0.007236 0.014913 -0.004556 -0.001118 -0.007075
# 4 0.002716 -0.015834 -0.004556 0.055639 -0.007350 -0.024388
# 5 -0.004528 -0.000113 -0.001118 -0.007350 0.029508 0.002676
# 6 0.002758 0.015809 -0.007075 -0.024388 0.002676 0.069947
#
#
# Mechanical properties :
#
#
# Convention : Reuss Voigt Hill
#
# Bulk Modulus (GPa) = 24.28223 59.39313 41.83768
# Shear Modulus (GPa) = 18.04309 29.51949 23.78129
#
# Velocity S-wave (km/s) = 2.80620 3.58937 3.22167
# Velocity P-wave (km/s) = 4.59320 6.56504 5.66557
#
# Compressibility (1/GPa) = 0.04118239
#
# Stress axis : x y z
#
# Youngs Moduli (GPa) = 104.38024 19.90244 67.05756
#
# Poissons Ratio (x) = 0.10722 0.27858
# Poissons Ratio (y) = 0.56233 0.48524
# Poissons Ratio (z) = 0.43363 0.14402
#
# Static dielectric constant tensor:
#      x y z
#    x 1.953590 0.001860 -0.010810 
#    y 0.001860 1.831390 -0.029870 
#    z -0.010810 -0.029870 1.939850 
# 
# From -- ./inp_files/202535.got.cif
#   From: 2010.05.17/outbox.cif.g08.bks.cpg/sg2_102_cif.got.tgz:202535.got - 2010.06.03 11:33:40.
