data_PCOD9086367
_publ_section_title
;
Structure prediction by ZEFSAII (Michael W. Deem and Ramdas Pophale) SiO2 
 PCOD9086367
Probable space group: P -1
;
_chemical_formula_sum "Si O2"
_cell_formula_units_Z 12
_cell_length_a 17.885836
_cell_length_b 5.106337
_cell_length_c 9.602766
_cell_angle_alpha 42.010220
_cell_angle_beta 63.469860
_cell_angle_gamma 76.977669
_cell_volume 516.775163
_symmetry_space_group_name_H-M "P -1"
_symmetry_group_IT_number 2
_symmetry_cell_setting 'triclinic'
loop_
_space_group_symop_operation_xyz
x,y,z
-x,-y,-z
loop_
_atom_site_type_symbol
_atom_site_label
_atom_site_fract_x
_atom_site_fract_y
_atom_site_fract_z
Si Si1 0.235938 0.683201 0.395654
Si Si2 0.416677 0.940162 0.191964
Si Si3 0.240746 0.788234 0.672721
Si Si4 0.951680 0.455203 0.412448
Si Si5 0.066839 0.654269 0.001475
Si Si6 0.417705 0.080047 0.459217
O O1 0.231580 0.621287 0.590996
O O2 0.143787 0.788156 0.396140
O O3 0.241083 0.268240 0.476118
O O4 0.068647 0.129956 0.802885
O O5 0.325413 0.993430 0.181862
O O6 0.399289 0.463793 0.404500
O O7 0.431124 0.127794 0.260546
O O8 0.500000 0.000000 0.000000
O O9 0.332617 0.754903 0.668197
O O10 0.161016 0.605175 0.902863
O O11 0.026474 0.398891 0.266534
O O12 0.000000 0.500000 0.500000
O O13 0.000000 0.500000 0.000000
O O14 0.500000 0.000000 0.500000
#
# Coordination Sequence:
#
# PCOD9086367 Si02
#       6
#     2   2   2   2   2   2
#     4   9  18  35  55  77 109 149 179 221 278 333
#     4  10  20  36  58  79 110 147 181 222 281 333
#     4   9  18  34  57  77 107 150 182 215 280 337
#     4  10  21  36  55  83 112 145 189 232 274 328
#     4  10  19  36  58  77 111 151 184 224 281 335
#     4  10  20  36  57  82 110 142 182 231 273 326
#
# _framework density 23.220932000000001
#
# number of rings (size 3 to 8) (size 9 to 14) (size 15 to 20)
#    0.000    2.333    1.667    1.000    0.000    0.667 
#    3.000    1.667    0.000    0.000    0.000    0.000 
#    0.000    0.000    0.000    0.000    0.000    0.000 
#
# Total GULP energy -66817.602391 kJ/mol
# GULP energy per Si atom -5568.133533 kJ/mol
# Density = 2.316808 g / cm^3
# Si number density = 23.220932 Si / 1000 Ang^3
#
#
#
# Elastic Constant Matrix: (Units=GPa)
#
#
# Indices 1 2 3 4 5 6 
#
# 1 185.9227 24.3742 70.8097 15.4151 -62.2320 26.1565
# 2 24.3742 98.6515 14.6061 18.9584 -1.0002 11.4303
# 3 70.8097 14.6061 115.7574 28.0976 -36.5404 6.0968
# 4 15.4151 18.9584 28.0976 36.6656 -10.0712 -2.6391
# 5 -62.2320 -1.0002 -36.5404 -10.0712 53.6982 -4.0039
# 6 26.1565 11.4303 6.0968 -2.6391 -4.0039 40.6434
#
#
#
# Elastic Compliance Matrix: (Units=1/GPa)
#
#
# Indices 1 2 3 4 5 6 
#
# 1 0.010846 -0.001777 -0.003245 0.001296 0.010206 -0.004904
# 2 -0.001777 0.012174 0.000429 -0.006944 -0.003074 -0.003099
# 3 -0.003245 0.000429 0.013929 -0.008417 0.004128 -0.000262
# 4 0.001296 -0.006944 -0.008417 0.038008 0.003158 0.005161
# 5 0.010206 -0.003074 0.004128 0.003158 0.033585 -0.002809
# 6 -0.004904 -0.003099 -0.000262 0.005161 -0.002809 0.028729
#
#
# Mechanical properties :
#
#
# Convention : Reuss Voigt Hill
#
# Bulk Modulus (GPa) = 36.01679 68.87907 52.44793
# Shear Modulus (GPa) = 32.11051 45.57085 38.84068
#
# Velocity S-wave (km/s) = 3.72267 4.43481 4.09425
# Velocity P-wave (km/s) = 5.83283 7.47999 6.70716
#
# Compressibility (1/GPa) = 0.02776483
#
# Stress axis : x y z
#
# Youngs Moduli (GPa) = 92.20057 82.13913 71.79025
#
# Poissons Ratio (x) = 0.14593 0.23296
# Poissons Ratio (y) = 0.16380 -0.03081
# Poissons Ratio (z) = 0.29919 -0.03525
#
# Static dielectric constant tensor:
#      x y z
#    x 1.992220 -0.102040 -0.029390 
#    y -0.102040 1.932760 -0.089910 
#    z -0.029390 -0.089910 1.919710 
# 
# From -- ./inp_files/45452.got.cif
#   From: 2010.05.17/outbox.cif.g08.bks.cpg/sg2_23_cif.got.tgz:45452.got - 2010.06.03 11:33:40.
