data_PCOD9086150
_publ_section_title
;
Structure prediction by ZEFSAII (Michael W. Deem and Ramdas Pophale) SiO2 
 PCOD9086150
Probable space group: P -1
;
_chemical_formula_sum "Si O2"
_cell_formula_units_Z 16
_cell_length_a 7.504014
_cell_length_b 7.320727
_cell_length_c 17.321746
_cell_angle_alpha 123.587824
_cell_angle_beta 83.688134
_cell_angle_gamma 121.669630
_cell_volume 652.420138
_symmetry_space_group_name_H-M "P -1"
_symmetry_group_IT_number 2
_symmetry_cell_setting 'triclinic'
loop_
_space_group_symop_operation_xyz
x,y,z
-x,-y,-z
loop_
_atom_site_type_symbol
_atom_site_label
_atom_site_fract_x
_atom_site_fract_y
_atom_site_fract_z
Si Si1 0.537456 0.102129 0.649561
Si Si2 0.511983 0.672975 0.439376
Si Si3 0.915071 0.947806 0.106150
Si Si4 0.140006 0.141959 0.296867
Si Si5 0.220965 0.572863 0.938059
Si Si6 0.673317 0.872561 0.956114
Si Si7 0.606015 0.286489 0.305676
Si Si8 0.999401 0.620378 0.251578
O O1 0.560981 0.899401 0.548328
O O2 0.406682 0.933919 0.691071
O O3 0.437648 0.211929 0.623142
O O4 0.779646 0.330519 0.716208
O O5 0.255234 0.435656 0.394078
O O6 0.633683 0.527253 0.412517
O O7 0.858609 0.649187 0.045847
O O8 0.728410 0.924247 0.057252
O O9 0.972345 0.056125 0.215475
O O10 0.135963 0.134178 0.092113
O O11 0.358128 0.162253 0.259316
O O12 0.040963 0.910754 0.310732
O O13 0.435731 0.612735 0.898796
O O14 0.044620 0.474355 0.856863
O O15 0.305739 0.872652 0.023444
O O16 0.793219 0.416436 0.264633
#
# Coordination Sequence:
#
# PCOD9086150 Si02
#       8
#     2   2   2   2   2   2   2   2
#     4  10  20  38  54  80 107 142 176 222 259 313
#     4   9  20  38  55  76 113 138 176 221 265 304
#     4  10  19  36  56  78 103 142 178 210 262 319
#     4   8  19  35  55  76 110 140 172 221 261 307
#     4  10  21  36  52  81 110 134 173 222 262 304
#     4  10  21  34  57  77 106 138 175 217 264 311
#     4   9  19  36  54  78 108 141 174 219 260 309
#     4  10  20  35  58  79 108 143 177 215 264 318
#
# _framework density 24.524076999999998
#
# number of rings (size 3 to 8) (size 9 to 14) (size 15 to 20)
#    0.750    1.750    0.000    1.875    1.750    0.500 
#    2.250    1.250    0.000    0.000    0.000    0.000 
#    0.000    0.000    0.000    0.000    0.000    0.000 
#
# Total GULP energy -89341.543881 kJ/mol
# GULP energy per Si atom -5583.846493 kJ/mol
# Density = 2.446826 g / cm^3
# Si number density = 24.524077 Si / 1000 Ang^3
#
#
#
# Elastic Constant Matrix: (Units=GPa)
#
#
# Indices 1 2 3 4 5 6 
#
# 1 50.8815 46.0988 30.1568 -10.6142 13.9537 3.3369
# 2 46.0988 157.3399 24.0852 -11.9970 8.2897 3.0913
# 3 30.1568 24.0852 69.4498 8.4649 22.2204 0.6990
# 4 -10.6142 -11.9970 8.4649 28.3857 -4.9076 1.0652
# 5 13.9537 8.2897 22.2204 -4.9076 22.4536 -4.0533
# 6 3.3369 3.0913 0.6990 1.0652 -4.0533 37.7215
#
#
#
# Elastic Compliance Matrix: (Units=1/GPa)
#
#
# Indices 1 2 3 4 5 6 
#
# 1 0.040885 -0.008105 -0.015471 0.015870 -0.004282 -0.003574
# 2 -0.008105 0.008764 -0.000525 0.001278 0.002646 0.000257
# 3 -0.015471 -0.000525 0.032418 -0.020282 -0.026980 -0.001515
# 4 0.015870 0.001278 -0.020282 0.051378 0.020906 -0.000337
# 5 -0.004282 0.002646 -0.026980 0.020906 0.079035 0.008564
# 6 -0.003574 0.000257 -0.001515 -0.000337 0.008564 0.027763
#
#
# Mechanical properties :
#
#
# Convention : Reuss Voigt Hill
#
# Bulk Modulus (GPa) = 29.52829 53.15031 41.33930
# Shear Modulus (GPa) = 16.68149 29.53419 23.10784
#
# Velocity S-wave (km/s) = 2.61091 3.47406 3.07294
# Velocity P-wave (km/s) = 4.59954 6.14914 5.42990
#
# Compressibility (1/GPa) = 0.03386582
#
# Stress axis : x y z
#
# Youngs Moduli (GPa) = 24.45877 114.10866 30.84682
#
# Poissons Ratio (x) = 0.92482 0.47723
# Poissons Ratio (y) = 0.19823 0.01619
# Poissons Ratio (z) = 0.37840 0.05990
#
# Static dielectric constant tensor:
#      x y z
#    x 1.992430 -0.021030 -0.039370 
#    y -0.021030 1.957220 -0.000220 
#    z -0.039370 -0.000220 1.970850 
# 
# From -- ./inp_files/555445.got.cif
#   From: 2010.05.17/outbox.cif.g08.bks.cpg/sg2_278_cif.got.tgz:555445.got - 2010.06.03 11:33:40.
