data_PCOD9086196
_publ_section_title
;
Structure prediction by ZEFSAII (Michael W. Deem and Ramdas Pophale) SiO2 
 PCOD9086196
Probable space group: P -1
;
_chemical_formula_sum "Si O2"
_cell_formula_units_Z 16
_cell_length_a 15.156097
_cell_length_b 16.443482
_cell_length_c 9.108155
_cell_angle_alpha 150.604197
_cell_angle_beta 37.850685
_cell_angle_gamma 142.785912
_cell_volume 637.818097
_symmetry_space_group_name_H-M "P -1"
_symmetry_group_IT_number 2
_symmetry_cell_setting 'triclinic'
loop_
_space_group_symop_operation_xyz
x,y,z
-x,-y,-z
loop_
_atom_site_type_symbol
_atom_site_label
_atom_site_fract_x
_atom_site_fract_y
_atom_site_fract_z
Si Si1 0.836259 0.358172 0.098516
Si Si2 0.521764 0.600284 0.972699
Si Si3 0.975090 0.120942 0.003694
Si Si4 0.375094 0.937902 0.273028
Si Si5 0.306257 0.776186 0.413338
Si Si6 0.121053 0.252651 0.338067
Si Si7 0.934472 0.588745 0.859414
Si Si8 0.484624 0.244843 0.407619
O O1 0.888377 0.563341 0.303676
O O2 0.665834 0.318490 0.331397
O O3 0.214770 0.790155 0.193807
O O4 0.946170 0.344466 0.061040
O O5 0.698158 0.706747 0.866320
O O6 0.457350 0.421842 0.675556
O O7 0.500000 0.500000 0.000000
O O8 0.422120 0.723092 0.279112
O O9 0.811518 0.145655 0.233298
O O10 0.036942 0.201569 0.210219
O O11 0.087719 0.243277 0.925547
O O12 0.944476 0.914312 0.731069
O O13 0.379937 0.907499 0.389819
O O14 0.385468 0.121988 0.474328
O O15 0.510597 0.884325 0.935317
O O16 0.207307 0.581360 0.169673
O O17 0.000000 0.500000 0.500000
#
# Coordination Sequence:
#
# PCOD9086196 Si02
#       8
#     2   2   2   2   2   2   2   2
#     4   9  17  37  64  79 110 165 192 230 292 359
#     4  11  24  37  61  91 123 151 197 248 306 346
#     4  10  22  37  61  84 124 150 196 244 299 352
#     4   9  20  40  60  87 116 157 207 235 294 353
#     4  11  23  36  59  93 118 154 195 257 278 353
#     4  10  20  40  56  89 112 164 187 235 306 353
#     4  10  19  36  56  85 118 154 193 239 303 344
#     4   8  20  40  60  83 116 165 185 246 297 350
#
# _framework density 25.085521
#
# number of rings (size 3 to 8) (size 9 to 14) (size 15 to 20)
#    0.750    1.500    2.500    0.750    7.000    2.500 
#    0.000    0.000    0.000    1.500    0.000    0.000 
#    0.000    0.000    0.000    0.000    0.000    0.000 
#
# Total GULP energy -89424.373854 kJ/mol
# GULP energy per Si atom -5589.023366 kJ/mol
# Density = 2.502843 g / cm^3
# Si number density = 25.085521 Si / 1000 Ang^3
#
#
#
# Elastic Constant Matrix: (Units=GPa)
#
#
# Indices 1 2 3 4 5 6 
#
# 1 93.2020 35.4236 24.0133 10.9040 -15.3080 -3.9657
# 2 35.4236 162.2698 34.5763 48.6756 -9.8899 -19.6748
# 3 24.0133 34.5763 92.4659 18.1745 -23.8495 -2.4846
# 4 10.9040 48.6756 18.1745 46.7386 -4.1684 -2.0955
# 5 -15.3080 -9.8899 -23.8495 -4.1684 33.9821 1.5026
# 6 -3.9657 -19.6748 -2.4846 -2.0955 1.5026 35.3908
#
#
#
# Elastic Compliance Matrix: (Units=1/GPa)
#
#
# Indices 1 2 3 4 5 6 
#
# 1 0.012598 -0.002336 -0.001440 0.000408 0.004041 -0.000135
# 2 -0.002336 0.010404 -0.001368 -0.009573 -0.000374 0.004875
# 3 -0.001440 -0.001368 0.014581 -0.003144 0.008821 -0.000459
# 4 0.000408 -0.009573 -0.003144 0.032271 -0.000693 -0.003557
# 5 0.004041 -0.000374 0.008821 -0.000693 0.037278 -0.000760
# 6 -0.000135 0.004875 -0.000459 -0.003557 -0.000760 0.030740
#
#
# Mechanical properties :
#
#
# Convention : Reuss Voigt Hill
#
# Bulk Modulus (GPa) = 36.63476 59.55155 48.09315
# Shear Modulus (GPa) = 31.79476 40.15060 35.97268
#
# Velocity S-wave (km/s) = 3.56400 4.00503 3.79093
# Velocity P-wave (km/s) = 5.61887 6.72145 6.19474
#
# Compressibility (1/GPa) = 0.02729648
#
# Stress axis : x y z
#
# Youngs Moduli (GPa) = 79.37520 96.11885 68.58284
#
# Poissons Ratio (x) = 0.22452 0.09875
# Poissons Ratio (y) = 0.18541 0.09379
# Poissons Ratio (z) = 0.11429 0.13145
#
# Static dielectric constant tensor:
#      x y z
#    x 1.963860 0.060130 0.047570 
#    y 0.060130 2.049120 0.003310 
#    z 0.047570 0.003310 2.091980 
# 
# From -- ./inp_files/466635.got.cif
#   From: 2010.05.17/outbox.cif.g08.bks.cpg/sg2_234_cif.got.tgz:466635.got - 2010.06.03 11:33:40.
