data_PCOD9086883
_publ_section_title
;
Structure prediction by ZEFSAII (Michael W. Deem and Ramdas Pophale) SiO2 
 PCOD9086883
Probable space group: P -1
;
_chemical_formula_sum "Si O2"
_cell_formula_units_Z 16
_cell_length_a 9.039525
_cell_length_b 8.723219
_cell_length_c 13.997608
_cell_angle_alpha 86.170989
_cell_angle_beta 53.891196
_cell_angle_gamma 115.091893
_cell_volume 728.005243
_symmetry_space_group_name_H-M "P -1"
_symmetry_group_IT_number 2
_symmetry_cell_setting 'triclinic'
loop_
_space_group_symop_operation_xyz
x,y,z
-x,-y,-z
loop_
_atom_site_type_symbol
_atom_site_label
_atom_site_fract_x
_atom_site_fract_y
_atom_site_fract_z
Si Si1 0.223689 0.214762 0.160157
Si Si2 0.106528 0.346488 0.525954
Si Si3 0.911628 0.608658 0.251713
Si Si4 0.525290 0.181461 0.436259
Si Si5 0.322811 0.620052 0.128902
Si Si6 0.743335 0.852287 0.631588
Si Si7 0.242311 0.147991 0.719005
Si Si8 0.661154 0.258561 0.663986
O O1 0.226205 0.400630 0.164727
O O2 0.270004 0.164035 0.249186
O O3 0.430338 0.265981 0.013216
O O4 0.990322 0.047544 0.210354
O O5 0.088310 0.315262 0.646359
O O6 0.276845 0.327716 0.400566
O O7 0.209582 0.564259 0.463885
O O8 0.847206 0.213465 0.596802
O O9 0.758047 0.382845 0.325936
O O10 0.812572 0.706062 0.227583
O O11 0.159923 0.663964 0.136573
O O12 0.421785 0.130428 0.372083
O O13 0.382854 0.214813 0.563625
O O14 0.500000 0.000000 0.500000
O O15 0.331076 0.671806 0.234481
O O16 0.000000 0.000000 0.500000
O O17 0.406792 0.134835 0.729106
#
# Coordination Sequence:
#
# PCOD9086883 Si02
#       8
#     2   2   2   2   2   2   2   2
#     4  11  24  44  68  93 133 178 220 262 320 394
#     4  10  19  36  60  94 126 167 213 255 325 385
#     4  11  22  41  65  93 130 171 214 274 324 382
#     4  12  25  38  64 102 134 164 210 275 336 385
#     4  10  24  45  68  90 132 183 219 256 321 396
#     4  12  23  38  63  94 132 169 211 264 327 387
#     4  12  23  39  65 100 132 164 219 277 326 372
#     4  10  21  35  67  91 126 169 212 266 315 380
#
# _framework density 21.977865000000001
#
# number of rings (size 3 to 8) (size 9 to 14) (size 15 to 20)
#    0.000    1.000    5.000    1.875    1.750    1.000 
#    0.000    0.625    2.750    0.000    0.000    0.000 
#    0.000    0.000    0.000    0.000    0.000    0.000 
#
# Total GULP energy -89242.514428 kJ/mol
# GULP energy per Si atom -5577.657152 kJ/mol
# Density = 2.192784 g / cm^3
# Si number density = 21.977865 Si / 1000 Ang^3
#
#
#
# Elastic Constant Matrix: (Units=GPa)
#
#
# Indices 1 2 3 4 5 6 
#
# 1 150.2929 52.2230 33.6233 -3.2602 -28.0553 -0.8842
# 2 52.2230 61.8962 20.4072 4.6721 -18.0306 8.9366
# 3 33.6233 20.4072 81.1589 5.9219 -21.0547 5.2441
# 4 -3.2602 4.6721 5.9219 26.1947 2.4173 -12.9414
# 5 -28.0553 -18.0306 -21.0547 2.4173 28.8965 -5.8312
# 6 -0.8842 8.9366 5.2441 -12.9414 -5.8312 38.3719
#
#
#
# Elastic Compliance Matrix: (Units=1/GPa)
#
#
# Indices 1 2 3 4 5 6 
#
# 1 0.011030 -0.008456 -0.001978 0.005378 0.004550 0.004999
# 2 -0.008456 0.027892 0.000084 -0.011401 0.008336 -0.009280
# 3 -0.001978 0.000084 0.016363 -0.006323 0.009994 -0.002915
# 4 0.005378 -0.011401 -0.006323 0.053067 -0.006800 0.020507
# 5 0.004550 0.008336 0.009994 -0.006800 0.052579 0.002494
# 6 0.004999 -0.009280 -0.002915 0.020507 0.002494 0.036031
#
#
# Mechanical properties :
#
#
# Convention : Reuss Voigt Hill
#
# Bulk Modulus (GPa) = 28.91599 56.20610 42.56105
# Shear Modulus (GPa) = 21.81586 31.16560 26.49073
#
# Velocity S-wave (km/s) = 3.15402 3.76978 3.47556
# Velocity P-wave (km/s) = 5.14288 6.67666 5.95932
#
# Compressibility (1/GPa) = 0.03458294
#
# Stress axis : x y z
#
# Youngs Moduli (GPa) = 90.66127 35.85275 61.11514
#
# Poissons Ratio (x) = 0.30319 0.12091
# Poissons Ratio (y) = 0.76667 -0.00514
# Poissons Ratio (z) = 0.17937 -0.00302
#
# Static dielectric constant tensor:
#      x y z
#    x 2.144310 0.976510 0.308240 
#    y 0.976510 6.320280 1.407480 
#    z 0.308240 1.407480 2.176840 
# 
# From -- ./inp_files/494820.got.cif
#   From: 2010.05.17/outbox.cif.g08.bks.cpg/sg2_248_cif.got.tgz:494820.got - 2010.06.03 11:33:40.
