data_PCOD9086516
_publ_section_title
;
Structure prediction by ZEFSAII (Michael W. Deem and Ramdas Pophale) SiO2 
 PCOD9086516
Probable space group: P -1
;
_chemical_formula_sum "Si O2"
_cell_formula_units_Z 16
_cell_length_a 12.236937
_cell_length_b 13.817668
_cell_length_c 7.643906
_cell_angle_alpha 107.817105
_cell_angle_beta 64.878947
_cell_angle_gamma 139.871778
_cell_volume 753.826547
_symmetry_space_group_name_H-M "P -1"
_symmetry_group_IT_number 2
_symmetry_cell_setting 'triclinic'
loop_
_space_group_symop_operation_xyz
x,y,z
-x,-y,-z
loop_
_atom_site_type_symbol
_atom_site_label
_atom_site_fract_x
_atom_site_fract_y
_atom_site_fract_z
Si Si1 0.453879 0.468737 0.308401
Si Si2 0.308008 0.167383 0.135943
Si Si3 0.065427 0.270700 0.331951
Si Si4 0.490055 0.849195 0.567609
Si Si5 0.831069 0.938973 0.442747
Si Si6 0.746661 0.209889 0.591342
Si Si7 0.802302 0.776751 0.080652
Si Si8 0.424927 0.840467 0.989743
O O1 0.500000 0.500000 0.500000
O O2 0.438205 0.342251 0.187894
O O3 0.260722 0.397304 0.355877
O O4 0.607086 0.615645 0.172609
O O5 0.193881 0.089808 0.349587
O O6 0.211080 0.141949 0.010372
O O7 0.419227 0.133423 0.021301
O O8 0.940022 0.290253 0.448407
O O9 0.092104 0.247808 0.102215
O O10 0.959684 0.112720 0.410446
O O11 0.633319 0.848259 0.457340
O O12 0.346965 0.772307 0.470676
O O13 0.615936 0.028830 0.581086
O O14 0.393865 0.781066 0.782853
O O15 0.876145 0.867596 0.260359
O O16 0.734861 0.249746 0.814631
O O17 0.500000 0.000000 0.000000
#
# Coordination Sequence:
#
# PCOD9086516 Si02
#       8
#     2   2   2   2   2   2   2   2
#     4  11  23  44  62  82 116 170 206 244 301 359
#     4  10  20  36  63  89 120 158 201 245 290 362
#     4  10  22  37  58  90 126 149 203 252 296 355
#     4   8  16  29  52  79 116 150 185 221 293 356
#     4  10  19  36  58  93 120 150 191 254 299 351
#     4   9  16  32  50  80 117 150 181 237 285 344
#     4  11  22  39  61  86 119 162 202 241 308 362
#     4   9  17  31  54  86 118 153 189 232 298 355
#
# _framework density 21.225041000000001
#
# number of rings (size 3 to 8) (size 9 to 14) (size 15 to 20)
#    0.000    2.250    1.250    3.375    0.000    3.000 
#    4.500    0.000    0.000    7.500    0.000    0.000 
#    0.000    0.000    0.000    0.000    0.000    0.000 
#
# Total GULP energy -89344.264752 kJ/mol
# GULP energy per Si atom -5584.016547 kJ/mol
# Density = 2.117673 g / cm^3
# Si number density = 21.225041 Si / 1000 Ang^3
#
#
#
# Elastic Constant Matrix: (Units=GPa)
#
#
# Indices 1 2 3 4 5 6 
#
# 1 103.9655 16.6083 55.5811 -2.2991 -13.2069 15.9517
# 2 16.6083 55.3241 27.1492 -14.6633 -3.2761 11.3710
# 3 55.5811 27.1492 168.8929 -10.9455 -8.5816 12.2549
# 4 -2.2991 -14.6633 -10.9455 32.1308 -4.6555 0.6541
# 5 -13.2069 -3.2761 -8.5816 -4.6555 23.3575 -4.9173
# 6 15.9517 11.3710 12.2549 0.6541 -4.9173 14.0508
#
#
#
# Elastic Compliance Matrix: (Units=1/GPa)
#
#
# Indices 1 2 3 4 5 6 
#
# 1 0.013733 0.000411 -0.003484 0.000840 0.004306 -0.011417
# 2 0.000411 0.026337 -0.002072 0.011943 0.001321 -0.020067
# 3 -0.003484 -0.002072 0.007591 0.001503 0.000653 -0.000831
# 4 0.000840 0.011943 0.001503 0.038539 0.008091 -0.010892
# 5 0.004306 0.001321 0.000653 0.008091 0.049477 0.010410
# 6 -0.011417 -0.020067 -0.000831 -0.010892 0.010410 0.105246
#
#
# Mechanical properties :
#
#
# Convention : Reuss Voigt Hill
#
# Bulk Modulus (GPa) = 26.75800 58.53995 42.64898
# Shear Modulus (GPa) = 18.96319 29.16408 24.06363
#
# Velocity S-wave (km/s) = 2.99228 3.71083 3.37076
# Velocity P-wave (km/s) = 4.95707 6.78239 5.94026
#
# Compressibility (1/GPa) = 0.03737199
#
# Stress axis : x y z
#
# Youngs Moduli (GPa) = 72.81897 37.97010 131.73032
#
# Poissons Ratio (x) = -0.01561 0.45891
# Poissons Ratio (y) = -0.02994 0.27291
# Poissons Ratio (z) = 0.25368 0.07866
#
# Static dielectric constant tensor:
#      x y z
#    x 1.795160 0.004880 -0.016060 
#    y 0.004880 1.754350 -0.005480 
#    z -0.016060 -0.005480 1.793720 
# 
# From -- ./inp_files/273320.got.cif
#   From: 2010.05.17/outbox.cif.g08.bks.cpg/sg2_137_cif.got.tgz:273320.got - 2010.06.03 11:33:40.
