data_PCOD9086593
_publ_section_title
;
Structure prediction by ZEFSAII (Michael W. Deem and Ramdas Pophale) SiO2 
 PCOD9086593
Probable space group: P -1
;
_chemical_formula_sum "Si O2"
_cell_formula_units_Z 16
_cell_length_a 23.317081
_cell_length_b 15.016127
_cell_length_c 14.111411
_cell_angle_alpha 29.668610
_cell_angle_beta 158.831987
_cell_angle_gamma 148.964488
_cell_volume 852.623434
_symmetry_space_group_name_H-M "P -1"
_symmetry_group_IT_number 2
_symmetry_cell_setting 'triclinic'
loop_
_space_group_symop_operation_xyz
x,y,z
-x,-y,-z
loop_
_atom_site_type_symbol
_atom_site_label
_atom_site_fract_x
_atom_site_fract_y
_atom_site_fract_z
Si Si1 0.043944 0.892366 0.488599
Si Si2 0.653518 0.924585 0.343694
Si Si3 0.030186 0.502635 0.157627
Si Si4 0.397917 0.740819 0.508715
Si Si5 0.307715 0.132142 0.030203
Si Si6 0.270848 0.137477 0.748696
Si Si7 0.294237 0.416188 0.373154
Si Si8 0.469797 0.823522 0.327239
O O1 0.023907 0.698168 0.691122
O O2 0.185640 0.944599 0.579381
O O3 0.098582 0.046206 0.514502
O O4 0.869315 0.888487 0.177612
O O5 0.652585 0.716787 0.498232
O O6 0.634322 0.912031 0.439220
O O7 0.500000 0.000000 0.000000
O O8 0.223940 0.589694 0.388990
O O9 0.000000 0.500000 0.000000
O O10 0.902514 0.607883 0.908494
O O11 0.540699 0.728824 0.812665
O O12 0.471075 0.762936 0.494410
O O13 0.348751 0.933231 0.275796
O O14 0.278971 0.175978 0.836084
O O15 0.339607 0.328196 0.622326
O O16 0.369200 0.981181 0.026599
O O17 0.377682 0.636150 0.301681
#
# Coordination Sequence:
#
# PCOD9086593 Si02
#       8
#     2   2   2   2   2   2   2   2
#     4  11  21  35  58  84 121 151 194 245 290 341
#     4  11  21  37  57  86 117 152 200 242 287 342
#     4  12  20  35  58  91 122 145 193 241 298 352
#     4  10  22  37  59  83 121 155 196 238 294 358
#     4  10  21  38  56  86 115 162 192 237 301 351
#     4  10  19  36  59  85 121 148 191 243 297 344
#     4  11  20  34  61  88 117 156 186 244 300 337
#     4  11  20  38  55  87 118 153 195 241 286 345
#
# _framework density 18.765611
#
# number of rings (size 3 to 8) (size 9 to 14) (size 15 to 20)
#    0.000    1.250    5.000    3.750    0.000    0.500 
#    0.000    0.625    0.000    0.000    0.000    4.375 
#    0.000    0.000    0.000    0.000    0.000    0.000 
#
# Total GULP energy -89199.599082 kJ/mol
# GULP energy per Si atom -5574.974943 kJ/mol
# Density = 1.872290 g / cm^3
# Si number density = 18.765611 Si / 1000 Ang^3
#
#
#
# Elastic Constant Matrix: (Units=GPa)
#
#
# Indices 1 2 3 4 5 6 
#
# 1 100.5091 53.2923 49.2451 13.6776 20.2604 24.1318
# 2 53.2923 89.4416 44.9661 7.4134 0.9513 13.2329
# 3 49.2451 44.9661 92.9048 13.7191 14.7016 -4.8790
# 4 13.6776 7.4134 13.7191 43.7832 -0.9746 4.1276
# 5 20.2604 0.9513 14.7016 -0.9746 26.8864 -4.0538
# 6 24.1318 13.2329 -4.8790 4.1276 -4.0538 26.1973
#
#
#
# Elastic Compliance Matrix: (Units=1/GPa)
#
#
# Indices 1 2 3 4 5 6 
#
# 1 0.031644 -0.009008 -0.009940 -0.002970 -0.022645 -0.029487
# 2 -0.009008 0.019982 -0.006801 0.001953 0.009586 -0.001887
# 3 -0.009940 -0.006801 0.021010 -0.003951 -0.001350 0.016918
# 4 -0.002970 0.001953 -0.003951 0.024988 0.004909 -0.002164
# 5 -0.022645 0.009586 -0.001350 0.004909 0.058459 0.024039
# 6 -0.029487 -0.001887 0.016918 -0.002164 0.024039 0.073499
#
#
# Mechanical properties :
#
#
# Convention : Reuss Voigt Hill
#
# Bulk Modulus (GPa) = 47.30758 64.20696 55.75727
# Shear Modulus (GPa) = 17.35347 28.39685 22.87516
#
# Velocity S-wave (km/s) = 3.04427 3.89426 3.49520
# Velocity P-wave (km/s) = 6.13361 7.38308 6.78716
#
# Compressibility (1/GPa) = 0.02113826
#
# Stress axis : x y z
#
# Youngs Moduli (GPa) = 31.60122 50.04441 47.59675
#
# Poissons Ratio (x) = 0.45080 0.47311
# Poissons Ratio (y) = 0.28466 0.32371
# Poissons Ratio (z) = 0.31412 0.34036
#
# Static dielectric constant tensor:
#      x y z
#    x 1.695260 0.012280 0.021370 
#    y 0.012280 1.698260 -0.011300 
#    z 0.021370 -0.011300 1.671910 
# 
# From -- ./inp_files/433103.got.cif
#   From: 2010.05.17/outbox.cif.g08.bks.cpg/sg2_217_cif.got.tgz:433103.got - 2010.06.03 11:33:40.
