data_PCOD9086950
_publ_section_title
;
Structure prediction by ZEFSAII (Michael W. Deem and Ramdas Pophale) SiO2 
 PCOD9086950
Probable space group: P -1
;
_chemical_formula_sum "Si O2"
_cell_formula_units_Z 16
_cell_length_a 11.611517
_cell_length_b 9.630848
_cell_length_c 13.158180
_cell_angle_alpha 135.844442
_cell_angle_beta 51.129681
_cell_angle_gamma 108.713863
_cell_volume 775.011317
_symmetry_space_group_name_H-M "P -1"
_symmetry_group_IT_number 2
_symmetry_cell_setting 'triclinic'
loop_
_space_group_symop_operation_xyz
x,y,z
-x,-y,-z
loop_
_atom_site_type_symbol
_atom_site_label
_atom_site_fract_x
_atom_site_fract_y
_atom_site_fract_z
Si Si1 0.382088 0.464963 0.440860
Si Si2 0.115013 0.262877 0.187937
Si Si3 0.821250 0.370086 0.539271
Si Si4 0.180433 0.642431 0.000572
Si Si5 0.371567 0.323385 0.581094
Si Si6 0.370819 0.918679 0.970833
Si Si7 0.084444 0.303610 0.988741
Si Si8 0.669615 0.002816 0.441822
O O1 0.272095 0.477915 0.414485
O O2 0.304414 0.432646 0.572167
O O3 0.451708 0.665700 0.511873
O O4 0.528034 0.273922 0.248372
O O5 0.146073 0.485911 0.313505
O O6 0.975433 0.252648 0.335151
O O7 0.261309 0.085445 0.047508
O O8 0.072617 0.257412 0.089935
O O9 0.718219 0.214059 0.540817
O O10 0.305782 0.455069 0.784753
O O11 0.114002 0.532167 0.071685
O O12 0.263803 0.827361 0.060140
O O13 0.056397 0.701083 0.010105
O O14 0.323099 0.113967 0.515530
O O15 0.500000 0.000000 0.000000
O O16 0.219468 0.129416 0.773026
O O17 0.500000 0.000000 0.500000
#
# Coordination Sequence:
#
# PCOD9086950 Si02
#       8
#     2   2   2   2   2   2   2   2
#     4  10  19  36  61  85 119 161 200 248 298 370
#     4  11  25  41  63  92 123 169 208 253 305 373
#     4  11  23  42  61  88 129 161 203 259 311 360
#     4   9  20  40  64  89 119 159 201 264 303 359
#     4   9  19  34  60  89 114 153 204 247 305 357
#     4  11  22  39  59  88 128 162 202 247 312 367
#     4  10  22  41  66  90 121 160 214 252 306 366
#     4  11  22  37  60  90 125 156 199 260 305 358
#
# _framework density 20.644859
#
# number of rings (size 3 to 8) (size 9 to 14) (size 15 to 20)
#    0.000    1.750    2.500    1.500    1.750    3.000 
#    2.250    1.250    0.000    5.250    0.000    0.000 
#    0.000    0.000    0.000    0.000    0.000    0.000 
#
# Total GULP energy -89183.043710 kJ/mol
# GULP energy per Si atom -5573.940232 kJ/mol
# Density = 2.059787 g / cm^3
# Si number density = 20.644859 Si / 1000 Ang^3
#
#
#
# Elastic Constant Matrix: (Units=GPa)
#
#
# Indices 1 2 3 4 5 6 
#
# 1 78.1572 24.2604 4.5316 8.7235 -11.2572 8.9411
# 2 24.2604 104.0578 5.4663 10.6351 4.5759 17.3911
# 3 4.5316 5.4663 33.5925 4.5403 -9.1959 -1.0638
# 4 8.7235 10.6351 4.5403 17.0541 -2.5014 3.8590
# 5 -11.2572 4.5759 -9.1959 -2.5014 26.5654 4.7079
# 6 8.9411 17.3911 -1.0638 3.8590 4.7079 40.3124
#
#
#
# Elastic Compliance Matrix: (Units=1/GPa)
#
#
# Indices 1 2 3 4 5 6 
#
# 1 0.015591 -0.003124 0.001004 -0.004624 0.007503 -0.002517
# 2 -0.003124 0.011701 -0.001985 -0.004951 -0.003876 -0.003481
# 3 0.001004 -0.001985 0.034132 -0.006816 0.011798 0.000809
# 4 -0.004624 -0.004951 -0.006816 0.067304 0.003559 -0.003877
# 5 0.007503 -0.003876 0.011798 0.003559 0.046883 -0.005497
# 6 -0.002517 -0.003481 0.000809 -0.003877 -0.005497 0.027901
#
#
# Mechanical properties :
#
#
# Convention : Reuss Voigt Hill
#
# Bulk Modulus (GPa) = 18.79155 31.59159 25.19157
# Shear Modulus (GPa) = 21.79034 28.88964 25.33999
#
# Velocity S-wave (km/s) = 3.25235 3.74486 3.50726
# Velocity P-wave (km/s) = 4.81931 5.83389 5.35070
#
# Compressibility (1/GPa) = 0.05321542
#
# Stress axis : x y z
#
# Youngs Moduli (GPa) = 64.13900 85.46334 29.29767
#
# Poissons Ratio (x) = 0.26702 -0.02943
# Poissons Ratio (y) = 0.20040 0.05814
# Poissons Ratio (z) = -0.06443 0.16961
#
# Static dielectric constant tensor:
#      x y z
#    x 1.777440 0.002390 -0.032950 
#    y 0.002390 1.843030 0.030300 
#    z -0.032950 0.030300 1.769840 
# 
# From -- ./inp_files/419948.got.cif
#   From: 2010.05.17/outbox.cif.g08.bks.cpg/sg2_210_cif.got.tgz:419948.got - 2010.06.03 11:33:40.
