data_PCOD9086381
_publ_section_title
;
Structure prediction by ZEFSAII (Michael W. Deem and Ramdas Pophale) SiO2 
 PCOD9086381
Probable space group: P -1
;
_chemical_formula_sum "Si O2"
_cell_formula_units_Z 16
_cell_length_a 19.558358
_cell_length_b 13.543404
_cell_length_c 10.265935
_cell_angle_alpha 52.572053
_cell_angle_beta 35.923693
_cell_angle_gamma 28.219264
_cell_volume 697.398713
_symmetry_space_group_name_H-M "P -1"
_symmetry_group_IT_number 2
_symmetry_cell_setting 'triclinic'
loop_
_space_group_symop_operation_xyz
x,y,z
-x,-y,-z
loop_
_atom_site_type_symbol
_atom_site_label
_atom_site_fract_x
_atom_site_fract_y
_atom_site_fract_z
Si Si1 0.760649 0.197237 0.100661
Si Si2 0.053339 0.097555 0.323968
Si Si3 0.559634 0.985698 0.565933
Si Si4 0.108868 0.075255 0.553853
Si Si5 0.412278 0.417846 0.822702
Si Si6 0.033023 0.252393 0.786514
Si Si7 0.491906 0.235115 0.127271
Si Si8 0.360533 0.410876 0.467164
O O1 0.671689 0.366005 0.216811
O O2 0.544303 0.350014 0.241601
O O3 0.877245 0.966008 0.144785
O O4 0.935903 0.122053 0.814548
O O5 0.862441 0.332986 0.355252
O O6 0.000000 0.000000 0.500000
O O7 0.083815 0.124242 0.401018
O O8 0.277962 0.923912 0.052678
O O9 0.433859 0.226655 0.585042
O O10 0.500000 0.000000 0.500000
O O11 0.806846 0.796265 0.353846
O O12 0.501259 0.917179 0.794263
O O13 0.353948 0.816165 0.402612
O O14 0.061098 0.228989 0.604683
O O15 0.427577 0.367893 0.992803
O O16 0.215624 0.518031 0.984414
O O17 0.346314 0.385559 0.357120
#
# Coordination Sequence:
#
# PCOD9086381 Si02
#       8
#     2   2   2   2   2   2   2   2
#     4  10  20  33  54  82 112 145 181 224 277 332
#     4  11  22  35  57  88 116 146 184 224 277 337
#     4   9  21  41  60  80 108 146 191 232 273 328
#     4  10  20  34  53  83 114 143 181 223 273 330
#     4  10  20  34  54  81 112 143 178 227 278 325
#     4  10  21  37  56  80 109 144 186 227 275 330
#     4  10  21  37  56  81 112 146 190 230 270 329
#     4  10  19  36  58  80 113 150 182 230 279 318
#
# _framework density 22.942401
#
# number of rings (size 3 to 8) (size 9 to 14) (size 15 to 20)
#    0.000    2.000    0.000    5.250    0.000    4.500 
#    0.000   11.250    0.000    0.000    0.000    0.000 
#    0.000    0.000    0.000    0.000    0.000    0.000 
#
# Total GULP energy -89364.773996 kJ/mol
# GULP energy per Si atom -5585.298375 kJ/mol
# Density = 2.289018 g / cm^3
# Si number density = 22.942401 Si / 1000 Ang^3
#
#
#
# Elastic Constant Matrix: (Units=GPa)
#
#
# Indices 1 2 3 4 5 6 
#
# 1 75.6537 -1.0531 21.3054 6.9102 -23.2995 -7.7885
# 2 -1.0531 94.8240 56.9033 28.1854 -26.7517 -9.2212
# 3 21.3054 56.9033 93.5603 25.3200 -34.0184 4.3599
# 4 6.9102 28.1854 25.3200 47.0378 -8.2825 -6.2919
# 5 -23.2995 -26.7517 -34.0184 -8.2825 45.9096 3.4963
# 6 -7.7885 -9.2212 4.3599 -6.2919 3.4963 24.9826
#
#
#
# Elastic Compliance Matrix: (Units=1/GPa)
#
#
# Indices 1 2 3 4 5 6 
#
# 1 0.018378 0.006975 -0.005217 -0.001526 0.008671 0.007617
# 2 0.006975 0.021974 -0.011842 -0.005433 0.005815 0.010170
# 3 -0.005217 -0.011842 0.024168 -0.005379 0.008360 -0.012740
# 4 -0.001526 -0.005433 -0.005379 0.027838 -0.003356 0.005938
# 5 0.008671 0.005815 0.008360 -0.003356 0.035342 -0.002401
# 6 0.007617 0.010170 -0.012740 0.005938 -0.002401 0.050211
#
#
# Mechanical properties :
#
#
# Convention : Reuss Voigt Hill
#
# Bulk Modulus (GPa) = 22.54707 46.48323 34.51515
# Shear Modulus (GPa) = 23.48928 36.04482 29.76705
#
# Velocity S-wave (km/s) = 3.20322 3.96801 3.60595
# Velocity P-wave (km/s) = 4.85075 6.42638 5.69333
#
# Compressibility (1/GPa) = 0.04435165
#
# Stress axis : x y z
#
# Youngs Moduli (GPa) = 54.41252 45.50813 41.37772
#
# Poissons Ratio (x) = -0.31741 0.21585
# Poissons Ratio (y) = -0.37952 0.49001
# Poissons Ratio (z) = 0.28384 0.53893
#
# Static dielectric constant tensor:
#      x y z
#    x 1.908520 -0.000360 0.021110 
#    y -0.000360 1.911580 -0.007030 
#    z 0.021110 -0.007030 1.857330 
# 
# From -- ./inp_files/456059.got.cif
#   From: 2010.05.17/outbox.cif.g08.bks.cpg/sg2_229_cif.got.tgz:456059.got - 2010.06.03 11:33:40.
