data_PCOD9086298
_publ_section_title
;
Structure prediction by ZEFSAII (Michael W. Deem and Ramdas Pophale) SiO2 
 PCOD9086298
Probable space group: P -1
;
_chemical_formula_sum "Si O2"
_cell_formula_units_Z 16
_cell_length_a 12.044444
_cell_length_b 11.335706
_cell_length_c 17.880150
_cell_angle_alpha 30.684118
_cell_angle_beta 40.639275
_cell_angle_gamma 47.620286
_cell_volume 809.667084
_symmetry_space_group_name_H-M "P -1"
_symmetry_group_IT_number 2
_symmetry_cell_setting 'triclinic'
loop_
_space_group_symop_operation_xyz
x,y,z
-x,-y,-z
loop_
_atom_site_type_symbol
_atom_site_label
_atom_site_fract_x
_atom_site_fract_y
_atom_site_fract_z
Si Si1 0.760184 0.823842 0.473237
Si Si2 0.087784 0.742565 0.602785
Si Si3 0.880279 0.542712 0.108964
Si Si4 0.783722 0.638976 0.722884
Si Si5 0.033394 0.979877 0.868788
Si Si6 0.567730 0.301353 0.369146
Si Si7 0.428424 0.899259 0.361672
Si Si8 0.741969 0.148744 0.038134
O O1 0.824616 0.703574 0.581871
O O2 0.604178 0.683266 0.598839
O O3 0.682493 0.082966 0.394305
O O4 0.895495 0.859607 0.319513
O O5 0.089312 0.655023 0.735038
O O6 0.963213 0.593892 0.699432
O O7 0.286073 0.755077 0.471998
O O8 0.000000 0.000000 0.500000
O O9 0.686028 0.516986 0.195613
O O10 0.934514 0.776388 0.991787
O O11 0.000000 0.500000 0.000000
O O12 0.673370 0.859138 0.693294
O O13 0.680244 0.412619 0.909403
O O14 0.191311 0.882276 0.893605
O O15 0.900233 0.103105 0.926597
O O16 0.523660 0.231220 0.514522
O O17 0.597512 0.969136 0.196249
#
# Coordination Sequence:
#
# PCOD9086298 Si02
#       8
#     2   2   2   2   2   2   2   2
#     4  10  19  36  57  84 112 148 184 240 277 334
#     4   9  19  35  54  88 114 141 182 235 294 324
#     4  11  20  35  59  86 110 147 189 238 275 333
#     4  10  20  35  60  85 111 147 193 233 286 329
#     4  11  23  37  58  80 120 154 189 231 278 342
#     4   9  18  33  57  86 112 136 192 235 286 322
#     4   9  18  35  59  81 114 143 187 241 278 332
#     4  11  22  39  54  84 117 155 190 230 279 339
#
# _framework density 19.761208
#
# number of rings (size 3 to 8) (size 9 to 14) (size 15 to 20)
#    0.000    2.000    3.750    1.125    0.000    0.500 
#    4.500    3.750    0.000    1.500    0.000    0.000 
#    0.000    0.000    0.000    0.000    0.000    0.000 
#
# Total GULP energy -89249.480348 kJ/mol
# GULP energy per Si atom -5578.092522 kJ/mol
# Density = 1.971623 g / cm^3
# Si number density = 19.761208 Si / 1000 Ang^3
#
#
#
# Elastic Constant Matrix: (Units=GPa)
#
#
# Indices 1 2 3 4 5 6 
#
# 1 83.1953 5.6047 31.1375 10.0914 -10.4872 6.0705
# 2 5.6047 16.3578 11.0005 6.7555 3.4947 6.4479
# 3 31.1375 11.0005 110.2866 25.1442 -8.9540 -0.7362
# 4 10.0914 6.7555 25.1442 26.0157 5.9268 -3.3407
# 5 -10.4872 3.4947 -8.9540 5.9268 35.3866 -1.4105
# 6 6.0705 6.4479 -0.7362 -3.3407 -1.4105 14.2721
#
#
#
# Elastic Compliance Matrix: (Units=1/GPa)
#
#
# Indices 1 2 3 4 5 6 
#
# 1 0.014705 0.001186 -0.002793 -0.005243 0.004103 -0.007756
# 2 0.001186 0.096562 -0.005260 -0.025111 -0.008347 -0.051104
# 3 -0.002793 -0.005260 0.013404 -0.011393 0.005075 0.002091
# 4 -0.005243 -0.025111 -0.011393 0.064099 -0.011623 0.026842
# 5 0.004103 -0.008347 0.005075 -0.011623 0.033646 0.002892
# 6 -0.007756 -0.051104 0.002091 0.026842 0.002892 0.103131
#
#
# Mechanical properties :
#
#
# Convention : Reuss Voigt Hill
#
# Bulk Modulus (GPa) = 9.01418 33.92502 21.46960
# Shear Modulus (GPa) = 13.28872 25.94135 19.61504
#
# Velocity S-wave (km/s) = 2.59601 3.62711 3.15398
# Velocity P-wave (km/s) = 3.68200 5.89457 4.91442
#
# Compressibility (1/GPa) = 0.11093628
#
# Stress axis : x y z
#
# Youngs Moduli (GPa) = 68.00637 10.35607 74.60381
#
# Poissons Ratio (x) = -0.01228 0.20839
# Poissons Ratio (y) = -0.08067 0.39242
# Poissons Ratio (z) = 0.18996 0.05447
#
# Static dielectric constant tensor:
#      x y z
#    x 1.712430 -0.003410 -0.044210 
#    y -0.003410 1.700180 -0.011060 
#    z -0.044210 -0.011060 1.702240 
# 
# From -- ./inp_files/181589.got.cif
#   From: 2010.05.17/outbox.cif.g08.bks.cpg/sg2_91_cif.got.tgz:181589.got - 2010.06.03 11:33:40.
