data_PCOD9086294
_publ_section_title
;
Structure prediction by ZEFSAII (Michael W. Deem and Ramdas Pophale) SiO2 
 PCOD9086294
Probable space group: P -1
;
_chemical_formula_sum "Si O2"
_cell_formula_units_Z 15
_cell_length_a 10.790161
_cell_length_b 12.327721
_cell_length_c 11.810023
_cell_angle_alpha 57.052655
_cell_angle_beta 57.018692
_cell_angle_gamma 24.662090
_cell_volume 544.417417
_symmetry_space_group_name_H-M "P -1"
_symmetry_group_IT_number 2
_symmetry_cell_setting 'triclinic'
loop_
_space_group_symop_operation_xyz
x,y,z
-x,-y,-z
loop_
_atom_site_type_symbol
_atom_site_label
_atom_site_fract_x
_atom_site_fract_y
_atom_site_fract_z
Si Si1 0.503804 0.691622 0.369282
Si Si2 0.624146 0.473177 0.085953
Si Si3 0.982214 0.225469 0.267359
Si Si4 0.571163 0.882255 0.830355
Si Si5 0.240825 0.124740 0.627379
Si Si6 0.877968 0.645797 0.097190
Si Si7 0.000000 0.000000 0.000000
Si Si8 0.452302 0.341663 0.366559
O O1 0.713354 0.415929 0.381260
O O2 0.690685 0.671222 0.234305
O O3 0.482426 0.720288 0.497828
O O4 0.183590 0.944310 0.324253
O O5 0.836140 0.370888 0.137233
O O6 0.481955 0.460747 0.233606
O O7 0.831824 0.250516 0.011724
O O8 0.330553 0.776173 0.021552
O O9 0.206565 0.162738 0.244075
O O10 0.806143 0.587629 0.860399
O O11 0.340160 0.068284 0.737972
O O12 0.352970 0.059871 0.945930
O O13 0.900129 0.426272 0.604851
O O14 0.500000 0.000000 0.500000
O O15 0.305331 0.927798 0.670867
O O16 0.000000 0.500000 0.000000
#
# Coordination Sequence:
#
# PCOD9086294 Si02
#       8
#     2   2   2   2   2   2   1   2
#     4  10  21  38  60  95 134 170 217 271 333 394
#     4  11  24  46  73 101 131 171 226 282 342 404
#     4  10  21  40  66  95 128 171 215 276 340 392
#     4  10  21  38  58  89 124 166 220 266 326 389
#     4  12  23  41  66  93 138 187 225 272 329 398
#     4  10  19  36  57  83 123 166 214 268 323 387
#     4  10  24  48  72  98 134 174 220 278 344 412
#     4  12  25  42  67 100 136 180 231 278 332 398
#
# _framework density 27.552389999999999
#
# number of rings (size 3 to 8) (size 9 to 14) (size 15 to 20)
#    0.000    1.333    0.000    7.200    0.000    1.067 
#    0.000   26.667    0.000    0.000    0.000    0.000 
#    0.000    0.000    0.000    0.000    0.000    0.000 
#
# Total GULP energy -83698.957230 kJ/mol
# GULP energy per Si atom -5579.930482 kJ/mol
# Density = 2.748968 g / cm^3
# Si number density = 27.552390 Si / 1000 Ang^3
#
#
#
# Elastic Constant Matrix: (Units=GPa)
#
#
# Indices 1 2 3 4 5 6 
#
# 1 85.0411 39.3744 24.6589 8.4618 20.9691 -11.4335
# 2 39.3744 289.8534 32.3321 3.7611 27.1086 16.1033
# 3 24.6589 32.3321 90.7963 1.0702 21.6189 -15.5600
# 4 8.4618 3.7611 1.0702 40.2604 -6.2123 10.9100
# 5 20.9691 27.1086 21.6189 -6.2123 55.0402 0.5500
# 6 -11.4335 16.1033 -15.5600 10.9100 0.5500 40.2140
#
#
#
# Elastic Compliance Matrix: (Units=1/GPa)
#
#
# Indices 1 2 3 4 5 6 
#
# 1 0.015641 -0.001769 -0.001211 -0.005611 -0.005308 0.006282
# 2 -0.001769 0.004046 -0.001276 0.000674 -0.000713 -0.002790
# 3 -0.001211 -0.001276 0.014046 -0.002451 -0.004767 0.006332
# 4 -0.005611 0.000674 -0.002451 0.029975 0.006262 -0.011031
# 5 -0.005308 -0.000713 -0.004767 0.006262 0.023172 -0.005084
# 6 0.006282 -0.002790 0.006332 -0.011031 -0.005084 0.033282
#
#
# Mechanical properties :
#
#
# Convention : Reuss Voigt Hill
#
# Bulk Modulus (GPa) = 39.65312 73.15794 56.40553
# Shear Modulus (GPa) = 36.47420 51.72461 44.09941
#
# Velocity S-wave (km/s) = 3.64237 4.33750 4.00505
# Velocity P-wave (km/s) = 5.66677 7.18994 6.47331
#
# Compressibility (1/GPa) = 0.02521870
#
# Stress axis : x y z
#
# Youngs Moduli (GPa) = 63.93397 247.17472 71.19396
#
# Poissons Ratio (x) = 0.43735 0.08624
# Poissons Ratio (y) = 0.11312 0.09087
# Poissons Ratio (z) = 0.07745 0.31549
#
# Static dielectric constant tensor:
#      x y z
#    x 3.288150 0.058740 0.146560 
#    y 0.058740 2.279570 -0.098980 
#    z 0.146560 -0.098980 2.411820 
# 
# From -- ./inp_files/432813.got.cif
#   From: 2010.05.17/outbox.cif.g08.bks.cpg/sg2_217_cif.got.tgz:432813.got - 2010.06.03 11:33:40.
