data_PCOD9086522
_publ_section_title
;
Structure prediction by ZEFSAII (Michael W. Deem and Ramdas Pophale) SiO2 
 PCOD9086522
Probable space group: P -1
;
_chemical_formula_sum "Si O2"
_cell_formula_units_Z 16
_cell_length_a 23.710769
_cell_length_b 15.526678
_cell_length_c 5.416902
_cell_angle_alpha 51.918847
_cell_angle_beta 67.948483
_cell_angle_gamma 29.865969
_cell_volume 714.109380
_symmetry_space_group_name_H-M "P -1"
_symmetry_group_IT_number 2
_symmetry_cell_setting 'triclinic'
loop_
_space_group_symop_operation_xyz
x,y,z
-x,-y,-z
loop_
_atom_site_type_symbol
_atom_site_label
_atom_site_fract_x
_atom_site_fract_y
_atom_site_fract_z
Si Si1 0.059015 0.955812 0.231674
Si Si2 0.055831 0.208256 0.932574
Si Si3 0.348173 0.448093 0.671015
Si Si4 0.507571 0.734114 0.727053
Si Si5 0.083436 0.468922 0.018281
Si Si6 0.794725 0.676308 0.361355
Si Si7 0.727478 0.977690 0.191111
Si Si8 0.379205 0.159120 0.258278
O O1 0.204974 0.703907 0.445767
O O2 0.040423 0.114770 0.007514
O O3 0.000000 0.000000 0.500000
O O4 0.000000 0.000000 0.000000
O O5 0.191880 0.042543 0.959736
O O6 0.015769 0.289123 0.138325
O O7 0.941849 0.459125 0.567890
O O8 0.416534 0.398401 0.415098
O O9 0.407877 0.382254 0.958958
O O10 0.356164 0.303477 0.882395
O O11 0.404274 0.805960 0.845181
O O12 0.425791 0.972304 0.397498
O O13 0.181302 0.243547 0.412180
O O14 0.181235 0.389853 0.842840
O O15 0.000000 0.500000 0.000000
O O16 0.720188 0.907871 0.088511
O O17 0.729640 0.694748 0.620143
O O18 0.500000 0.000000 0.500000
#
# Coordination Sequence:
#
# PCOD9086522 Si02
#       8
#     2   2   2   2   2   2   2   2
#     4  12  29  50  71  96 131 185 241 286 331 390
#     4  11  23  41  61  99 132 180 225 283 339 403
#     4  11  23  47  65  94 134 177 231 285 329 396
#     4  10  23  40  68  98 132 172 220 281 348 413
#     4  11  19  34  66  98 139 175 214 279 350 420
#     4  10  19  36  58  96 134 168 215 274 343 407
#     4  10  21  36  61 101 137 169 216 273 353 420
#     4   9  20  37  61  92 129 172 221 267 341 398
#
# _framework density 22.405532999999998
#
# number of rings (size 3 to 8) (size 9 to 14) (size 15 to 20)
#    0.000    1.500    2.500    2.625    7.000    1.000 
#    6.750    1.250    0.000    0.000    0.000    0.000 
#    0.000    0.000    0.000    0.000    0.000    0.000 
#
# Total GULP energy -89130.373307 kJ/mol
# GULP energy per Si atom -5570.648332 kJ/mol
# Density = 2.235454 g / cm^3
# Si number density = 22.405533 Si / 1000 Ang^3
#
#
#
# Elastic Constant Matrix: (Units=GPa)
#
#
# Indices 1 2 3 4 5 6 
#
# 1 101.4520 58.0994 16.4679 10.7286 10.0780 -13.6720
# 2 58.0994 190.5740 51.9175 13.5352 5.4138 -33.2790
# 3 16.4679 51.9175 61.9455 -0.9505 20.3138 -5.7712
# 4 10.7286 13.5352 -0.9505 35.3795 -9.4648 -1.4591
# 5 10.0780 5.4138 20.3138 -9.4648 23.7680 -1.0651
# 6 -13.6720 -33.2790 -5.7712 -1.4591 -1.0651 38.8367
#
#
#
# Elastic Compliance Matrix: (Units=1/GPa)
#
#
# Indices 1 2 3 4 5 6 
#
# 1 0.013246 -0.003994 0.002798 -0.004754 -0.008936 0.001233
# 2 -0.003994 0.009744 -0.008901 -0.000619 0.007095 0.005792
# 3 0.002798 -0.008901 0.031743 -0.004225 -0.028100 -0.002854
# 4 -0.004754 -0.000619 -0.004225 0.035055 0.019684 -0.000975
# 5 -0.008936 0.007095 -0.028100 0.019684 0.076172 0.001586
# 6 0.001233 0.005792 -0.002854 -0.000975 0.001586 0.030729
#
#
# Mechanical properties :
#
#
# Convention : Reuss Voigt Hill
#
# Bulk Modulus (GPa) = 28.95180 67.43791 48.19486
# Shear Modulus (GPa) = 21.89187 34.76263 28.32725
#
# Velocity S-wave (km/s) = 3.12921 3.94321 3.55955
# Velocity P-wave (km/s) = 5.09958 7.13414 6.20087
#
# Compressibility (1/GPa) = 0.03454016
#
# Stress axis : x y z
#
# Youngs Moduli (GPa) = 75.49194 102.63192 31.50278
#
# Poissons Ratio (x) = 0.40990 -0.08815
# Poissons Ratio (y) = 0.30151 0.28040
# Poissons Ratio (z) = -0.21125 0.91351
#
# Static dielectric constant tensor:
#      x y z
#    x 2.251320 0.378200 0.349220 
#    y 0.378200 2.297480 0.453420 
#    z 0.349220 0.453420 2.191480 
# 
# From -- ./inp_files/124133.got.cif
#   From: 2010.05.17/outbox.cif.g08.bks.cpg/sg2_63_cif.got.tgz:124133.got - 2010.06.03 11:33:40.
