data_PCOD9087993
_publ_section_title
;
Structure prediction by ZEFSAII (Michael W. Deem and Ramdas Pophale) SiO2 
 PCOD9087993
Probable space group: P -1
;
_chemical_formula_sum "Si O2"
_cell_formula_units_Z 16
_cell_length_a 14.815904
_cell_length_b 14.943878
_cell_length_c 14.659606
_cell_angle_alpha 30.386323
_cell_angle_beta 46.779952
_cell_angle_gamma 28.249807
_cell_volume 737.879594
_symmetry_space_group_name_H-M "P -1"
_symmetry_group_IT_number 2
_symmetry_cell_setting 'triclinic'
loop_
_space_group_symop_operation_xyz
x,y,z
-x,-y,-z
loop_
_atom_site_type_symbol
_atom_site_label
_atom_site_fract_x
_atom_site_fract_y
_atom_site_fract_z
Si Si1 0.291352 0.706931 0.910462
Si Si2 0.832161 0.790897 0.414139
Si Si3 0.892327 0.660734 0.701973
Si Si4 0.320760 0.533599 0.499046
Si Si5 0.333536 0.097478 0.865350
Si Si6 0.543356 0.820562 0.784976
Si Si7 0.608770 0.530779 0.277148
Si Si8 0.878469 0.066029 0.361541
O O1 0.283631 0.756836 0.763798
O O2 0.152022 0.013408 0.781144
O O3 0.500000 0.500000 0.000000
O O4 0.286136 0.502064 0.090843
O O5 0.861853 0.723576 0.559313
O O6 0.000000 0.500000 0.500000
O O7 0.616377 0.968448 0.370115
O O8 0.686743 0.801855 0.749071
O O9 0.105412 0.324265 0.858275
O O10 0.902882 0.841443 0.581524
O O11 0.340778 0.303078 0.663062
O O12 0.477844 0.497906 0.381392
O O13 0.343226 0.514656 0.609733
O O14 0.095308 0.855791 0.351238
O O15 0.395710 0.932327 0.872401
O O16 0.484971 0.841595 0.058000
O O17 0.805094 0.285161 0.294781
#
# Coordination Sequence:
#
# PCOD9087993 Si02
#       8
#     2   2   2   2   2   2   2   2
#     4   9  20  35  58  82 117 152 190 240 287 346
#     4  10  19  37  58  80 118 157 194 244 294 343
#     4  10  22  36  57  87 115 158 200 238 298 354
#     4  10  24  40  60  91 121 154 200 250 296 361
#     4  11  22  38  61  88 120 153 198 248 296 350
#     4  11  20  37  58  82 118 156 196 242 293 352
#     4  11  22  40  64  88 118 159 201 243 306 352
#     4  10  20  40  60  83 120 156 193 244 296 349
#
# _framework density 21.683752999999999
#
# number of rings (size 3 to 8) (size 9 to 14) (size 15 to 20)
#    0.000    1.750    2.500    1.875    1.750    0.000 
#    0.000    0.625    0.000    8.250    0.000    0.000 
#    0.000    0.000    0.000    0.000    0.000    0.000 
#
# Total GULP energy -89091.863286 kJ/mol
# GULP energy per Si atom -5568.241455 kJ/mol
# Density = 2.163440 g / cm^3
# Si number density = 21.683753 Si / 1000 Ang^3
#
#
#
# Elastic Constant Matrix: (Units=GPa)
#
#
# Indices 1 2 3 4 5 6 
#
# 1 43.4172 12.0887 6.2205 -9.8203 -0.0827 -0.2604
# 2 12.0887 77.4414 32.4384 -34.8897 -7.1062 5.0768
# 3 6.2205 32.4384 79.4146 -33.4820 0.5191 4.6972
# 4 -9.8203 -34.8897 -33.4820 33.5707 5.9760 -4.3837
# 5 -0.0827 -7.1062 0.5191 5.9760 29.6562 6.5159
# 6 -0.2604 5.0768 4.6972 -4.3837 6.5159 27.0859
#
#
#
# Elastic Compliance Matrix: (Units=1/GPa)
#
#
# Indices 1 2 3 4 5 6 
#
# 1 0.025100 -0.001102 0.002237 0.009164 -0.002554 0.002158
# 2 -0.001102 0.024421 0.001061 0.025875 0.000786 -0.000773
# 3 0.002237 0.001061 0.022736 0.025609 -0.005599 0.001371
# 4 0.009164 0.025875 0.025609 0.088483 -0.013912 0.008465
# 5 -0.002554 0.000786 -0.005599 -0.013912 0.039193 -0.010881
# 6 0.002158 -0.000773 0.001371 0.008465 -0.010881 0.040835
#
#
# Mechanical properties :
#
#
# Convention : Reuss Voigt Hill
#
# Bulk Modulus (GPa) = 13.04663 33.52983 23.28823
# Shear Modulus (GPa) = 19.08938 28.03093 23.56015
#
# Velocity S-wave (km/s) = 2.97029 3.59934 3.29984
# Velocity P-wave (km/s) = 4.21822 5.72454 5.02810
#
# Compressibility (1/GPa) = 0.07664816
#
# Stress axis : x y z
#
# Youngs Moduli (GPa) = 39.84130 40.94822 43.98340
#
# Poissons Ratio (x) = 0.04513 -0.09839
# Poissons Ratio (y) = 0.04391 -0.04667
# Poissons Ratio (z) = -0.08912 -0.04345
#
# Static dielectric constant tensor:
#      x y z
#    x 1.842000 -0.054790 -0.052760 
#    y -0.054790 1.866990 0.012700 
#    z -0.052760 0.012700 1.899940 
# 
# From -- ./inp_files/38987.got.cif
#   From: 2010.05.17/outbox.cif.g08.bks.cpg/sg2_20_cif.got.tgz:38987.got - 2010.06.03 11:33:40.
