data_PCOD9087034
_publ_section_title
;
Structure prediction by ZEFSAII (Michael W. Deem and Ramdas Pophale) SiO2 
 PCOD9087034
Probable space group: P -1
;
_chemical_formula_sum "Si O2"
_cell_formula_units_Z 16
_cell_length_a 21.981783
_cell_length_b 6.542542
_cell_length_c 5.380709
_cell_angle_alpha 76.027383
_cell_angle_beta 99.084546
_cell_angle_gamma 63.626134
_cell_volume 640.724686
_symmetry_space_group_name_H-M "P -1"
_symmetry_group_IT_number 2
_symmetry_cell_setting 'triclinic'
loop_
_space_group_symop_operation_xyz
x,y,z
-x,-y,-z
loop_
_atom_site_type_symbol
_atom_site_label
_atom_site_fract_x
_atom_site_fract_y
_atom_site_fract_z
Si Si1 0.790420 0.726132 0.251191
Si Si2 0.445387 0.875879 0.534271
Si Si3 0.623699 0.030096 0.035806
Si Si4 0.818830 0.187985 0.322231
Si Si5 0.836988 0.625436 0.809835
Si Si6 0.593797 0.486469 0.601865
Si Si7 0.046623 0.893137 0.811821
Si Si8 0.248689 0.660195 0.253151
O O1 0.819513 0.441114 0.302127
O O2 0.834305 0.743842 0.505876
O O3 0.806098 0.798498 0.973759
O O4 0.706484 0.862326 0.197419
O O5 0.395902 0.037269 0.224872
O O6 0.527996 0.749320 0.548687
O O7 0.430906 0.643595 0.580046
O O8 0.422923 0.973336 0.767176
O O9 0.607419 0.303878 0.894091
O O10 0.890384 0.050597 0.237652
O O11 0.796147 0.170502 0.592987
O O12 0.759077 0.239652 0.063548
O O13 0.782434 0.523877 0.749439
O O14 0.912517 0.396012 0.005756
O O15 0.668383 0.464149 0.588475
O O16 0.000000 0.000000 0.500000
O O17 0.000000 0.000000 0.000000
#
# Coordination Sequence:
#
# PCOD9087034 Si02
#       8
#     2   2   2   2   2   2   2   2
#     4   9  16  30  46  60  95 119 149 181 227 258
#     4   9  20  30  44  70  88 111 157 195 242 266
#     4  10  18  30  47  67  85 119 150 197 235 258
#     4   9  19  30  44  71  92 123 144 176 221 271
#     4   9  18  30  44  70  92 122 144 176 221 270
#     4   9  20  30  49  66  90 116 151 196 243 261
#     4  10  16  27  47  69  99 119 142 179 217 264
#     4   9  17  29  47  61  94 121 148 178 229 277
#
# _framework density 24.971724999999999
#
# number of rings (size 3 to 8) (size 9 to 14) (size 15 to 20)
#    0.750    2.250    0.000    4.125    1.750    0.000 
#    0.000    0.000    0.000   18.000    0.000    0.000 
#    0.000  106.000    0.000    0.000    0.000    0.000 
#
# Total GULP energy -89145.586480 kJ/mol
# GULP energy per Si atom -5571.599155 kJ/mol
# Density = 2.491489 g / cm^3
# Si number density = 24.971725 Si / 1000 Ang^3
#
#
#
# Elastic Constant Matrix: (Units=GPa)
#
#
# Indices 1 2 3 4 5 6 
#
# 1 89.8003 21.9591 30.9934 -2.1207 -17.9057 -27.7259
# 2 21.9591 41.3432 33.5177 25.2953 -8.7023 -17.8335
# 3 30.9934 33.5177 170.4532 18.3438 -26.7554 -20.7918
# 4 -2.1207 25.2953 18.3438 42.9120 -11.5243 -1.2520
# 5 -17.9057 -8.7023 -26.7554 -11.5243 51.2595 3.0843
# 6 -27.7259 -17.8335 -20.7918 -1.2520 3.0843 32.9877
#
#
#
# Elastic Compliance Matrix: (Units=1/GPa)
#
#
# Indices 1 2 3 4 5 6 
#
# 1 0.017687 -0.008500 -0.000283 0.007839 0.005757 0.009851
# 2 -0.008500 0.064532 -0.004980 -0.036799 -0.004307 0.023610
# 3 -0.000283 -0.004980 0.007495 0.000569 0.003003 0.001535
# 4 0.007839 -0.036799 0.000569 0.046957 0.008062 -0.011918
# 5 0.005757 -0.004307 0.003003 0.008062 0.024020 0.002464
# 6 0.009851 0.023610 0.001535 -0.011918 0.002464 0.051643
#
#
# Mechanical properties :
#
#
# Convention : Reuss Voigt Hill
#
# Bulk Modulus (GPa) = 16.08002 52.72636 34.40319
# Shear Modulus (GPa) = 19.18738 39.77362 29.48050
#
# Velocity S-wave (km/s) = 2.77495 3.99525 3.43965
# Velocity P-wave (km/s) = 4.08905 6.51483 5.43890
#
# Compressibility (1/GPa) = 0.06218899
#
# Stress axis : x y z
#
# Youngs Moduli (GPa) = 56.54008 15.49613 133.42636
#
# Poissons Ratio (x) = 0.13171 0.03774
# Poissons Ratio (y) = 0.48057 0.66445
# Poissons Ratio (z) = 0.01599 0.07717
#
# Static dielectric constant tensor:
#      x y z
#    x 2.114560 0.136960 -0.082210 
#    y 0.136960 2.064390 -0.069460 
#    z -0.082210 -0.069460 2.068220 
# 
# From -- ./inp_files/126148.got.cif
#   From: 2010.05.17/outbox.cif.g08.bks.cpg/sg2_64_cif.got.tgz:126148.got - 2010.06.03 11:33:40.
