data_PCOD9087083
_publ_section_title
;
Structure prediction by ZEFSAII (Michael W. Deem and Ramdas Pophale) SiO2 
 PCOD9087083
Probable space group: P -1
;
_chemical_formula_sum "Si O2"
_cell_formula_units_Z 16
_cell_length_a 7.115236
_cell_length_b 20.612879
_cell_length_c 6.751390
_cell_angle_alpha 53.836236
_cell_angle_beta 74.087376
_cell_angle_gamma 51.419123
_cell_volume 617.984179
_symmetry_space_group_name_H-M "P -1"
_symmetry_group_IT_number 2
_symmetry_cell_setting 'triclinic'
loop_
_space_group_symop_operation_xyz
x,y,z
-x,-y,-z
loop_
_atom_site_type_symbol
_atom_site_label
_atom_site_fract_x
_atom_site_fract_y
_atom_site_fract_z
Si Si1 0.140036 0.929051 0.271866
Si Si2 0.970238 0.589794 0.228123
Si Si3 0.339831 0.634877 0.202754
Si Si4 0.979565 0.267920 0.542009
Si Si5 0.329903 0.466571 0.042063
Si Si6 0.376588 0.287461 0.580042
Si Si7 0.978323 0.814678 0.733764
Si Si8 0.745563 0.929040 0.938993
O O1 0.383866 0.823888 0.319555
O O2 0.991889 0.897529 0.482521
O O3 0.187843 0.996188 0.268073
O O4 0.000000 0.000000 0.000000
O O5 0.169829 0.603051 0.234177
O O6 0.059405 0.553426 0.042665
O O7 0.000000 0.500000 0.500000
O O8 0.708919 0.682912 0.218373
O O9 0.282214 0.654618 0.416709
O O10 0.602581 0.560747 0.160603
O O11 0.210765 0.741636 0.938514
O O12 0.160620 0.291104 0.528741
O O13 0.003032 0.252891 0.327958
O O14 0.074842 0.160997 0.800855
O O15 0.397339 0.367751 0.315992
O O16 0.500000 0.500000 0.000000
O O17 0.751083 0.871962 0.845196
O O18 0.500000 0.000000 0.000000
#
# Coordination Sequence:
#
# PCOD9087083 Si02
#       8
#     2   2   2   2   2   2   2   2
#     4  12  23  40  62  92 129 172 217 259 315 370
#     4   8  16  31  60  92 119 159 205 249 323 377
#     4   9  18  34  62  89 126 157 208 252 314 372
#     4  10  21  39  60  89 129 168 211 254 318 370
#     4   9  16  32  63  98 118 164 206 256 324 378
#     4  10  19  36  61  92 129 165 208 264 310 380
#     4  11  23  40  62  89 128 170 208 262 311 373
#     4  11  23  42  60  87 126 166 217 261 310 371
#
# _framework density 25.890633000000001
#
# number of rings (size 3 to 8) (size 9 to 14) (size 15 to 20)
#    0.000    2.000    3.750    0.375    0.000    0.500 
#    0.000    1.250    0.000   24.000    0.000    0.000 
#    0.000    0.000    0.000    0.000    0.000    0.000 
#
# Total GULP energy -89497.663498 kJ/mol
# GULP energy per Si atom -5593.603969 kJ/mol
# Density = 2.583170 g / cm^3
# Si number density = 25.890633 Si / 1000 Ang^3
#
#
#
# Elastic Constant Matrix: (Units=GPa)
#
#
# Indices 1 2 3 4 5 6 
#
# 1 70.5296 36.0732 40.4592 11.4630 -18.0033 1.9110
# 2 36.0732 203.8243 95.8822 48.1906 -0.9785 -11.5658
# 3 40.4592 95.8822 122.8058 8.1435 -6.4058 -0.5540
# 4 11.4630 48.1906 8.1435 90.5293 12.7465 -20.7492
# 5 -18.0033 -0.9785 -6.4058 12.7465 36.1388 -1.2128
# 6 1.9110 -11.5658 -0.5540 -20.7492 -1.2128 42.9249
#
#
#
# Elastic Compliance Matrix: (Units=1/GPa)
#
#
# Indices 1 2 3 4 5 6 
#
# 1 0.021291 0.000093 -0.006239 -0.004369 0.010950 -0.002806
# 2 0.000093 0.009147 -0.006856 -0.004274 0.000597 0.000323
# 3 -0.006239 -0.006856 0.015237 0.003365 -0.001773 0.000204
# 4 -0.004369 -0.004274 0.003365 0.016108 -0.007153 0.006671
# 5 0.010950 0.000597 -0.001773 -0.007153 0.035257 -0.002811
# 6 -0.002806 0.000323 0.000204 0.006671 -0.002811 0.026656
#
#
# Mechanical properties :
#
#
# Convention : Reuss Voigt Hill
#
# Bulk Modulus (GPa) = 50.83735 82.44322 66.64028
# Shear Modulus (GPa) = 31.99898 48.90162 40.45030
#
# Velocity S-wave (km/s) = 3.51939 4.35072 3.95695
# Velocity P-wave (km/s) = 6.01605 7.55979 6.83166
#
# Compressibility (1/GPa) = 0.01967058
#
# Stress axis : x y z
#
# Youngs Moduli (GPa) = 46.96823 109.33066 65.63162
#
# Poissons Ratio (x) = -0.01018 0.40947
# Poissons Ratio (y) = -0.00437 0.44997
# Poissons Ratio (z) = 0.29303 0.74957
#
# Static dielectric constant tensor:
#      x y z
#    x 2.134260 0.000370 0.006810 
#    y 0.000370 2.104090 0.039220 
#    z 0.006810 0.039220 2.028990 
# 
# From -- ./inp_files/52425.got.cif
#   From: 2010.05.17/outbox.cif.g08.bks.cpg/sg2_27_cif.got.tgz:52425.got - 2010.06.03 11:33:40.
