data_PCOD9087449
_publ_section_title
;
Structure prediction by ZEFSAII (Michael W. Deem and Ramdas Pophale) SiO2 
 PCOD9087449
Probable space group: P -1
;
_chemical_formula_sum "Si O2"
_cell_formula_units_Z 16
_cell_length_a 9.488232
_cell_length_b 19.253492
_cell_length_c 9.650812
_cell_angle_alpha 140.896289
_cell_angle_beta 57.457460
_cell_angle_gamma 136.214180
_cell_volume 768.450261
_symmetry_space_group_name_H-M "P -1"
_symmetry_group_IT_number 2
_symmetry_cell_setting 'triclinic'
loop_
_space_group_symop_operation_xyz
x,y,z
-x,-y,-z
loop_
_atom_site_type_symbol
_atom_site_label
_atom_site_fract_x
_atom_site_fract_y
_atom_site_fract_z
Si Si1 0.591959 0.142088 0.862032
Si Si2 0.475793 0.306676 0.696278
Si Si3 0.054477 0.564450 0.920409
Si Si4 0.189402 0.720871 0.466108
Si Si5 0.200702 0.824406 0.914355
Si Si6 0.798384 0.071823 0.416648
Si Si7 0.205157 0.401535 0.081985
Si Si8 0.114596 0.043090 0.356711
O O1 0.363980 0.054350 0.788452
O O2 0.693572 0.079115 0.624039
O O3 0.632416 0.137033 0.995255
O O4 0.722144 0.300474 0.002795
O O5 0.613183 0.279039 0.676261
O O6 0.635130 0.440668 0.732194
O O7 0.329738 0.181482 0.483892
O O8 0.333010 0.337980 0.903184
O O9 0.994315 0.435736 0.660300
O O10 0.900516 0.604323 0.017570
O O11 0.000000 0.500000 0.000000
O O12 0.251948 0.802475 0.701609
O O13 0.142275 0.796290 0.495995
O O14 0.989702 0.683814 0.850524
O O15 0.148570 0.932978 0.116791
O O16 0.981200 0.063791 0.353676
O O17 0.000000 0.000000 0.500000
#
# Coordination Sequence:
#
# PCOD9087449 Si02
#       8
#     2   2   2   2   2   2   2   2
#     4  10  21  37  64  90 126 159 217 252 304 377
#     4  10  21  38  62  96 120 163 210 257 303 370
#     4  10  19  36  63  94 122 164 203 260 312 369
#     4  11  25  40  65  95 129 161 206 265 319 369
#     4  11  23  43  63  93 128 166 206 260 322 367
#     4  11  23  38  60  97 122 164 213 261 302 373
#     4   9  20  37  64  93 121 159 216 254 298 382
#     4  12  22  38  65  90 123 169 211 255 308 371
#
# _framework density 20.821128000000002
#
# number of rings (size 3 to 8) (size 9 to 14) (size 15 to 20)
#    0.000    1.500    3.750    1.500    1.750    7.000 
#    0.000    0.000    0.000    1.500    0.000    0.000 
#    0.000    0.000    0.000    0.000    0.000    0.000 
#
# Total GULP energy -89387.904063 kJ/mol
# GULP energy per Si atom -5586.744004 kJ/mol
# Density = 2.077374 g / cm^3
# Si number density = 20.821128 Si / 1000 Ang^3
#
#
#
# Elastic Constant Matrix: (Units=GPa)
#
#
# Indices 1 2 3 4 5 6 
#
# 1 116.6184 41.5929 28.5663 16.0377 6.6410 -19.2545
# 2 41.5929 43.8532 21.6533 18.2603 2.4979 -7.1849
# 3 28.5663 21.6533 95.6569 14.7537 13.3187 -6.4473
# 4 16.0377 18.2603 14.7537 43.5286 6.0407 12.3094
# 5 6.6410 2.4979 13.3187 6.0407 26.6505 8.5449
# 6 -19.2545 -7.1849 -6.4473 12.3094 8.5449 32.9583
#
#
#
# Elastic Compliance Matrix: (Units=1/GPa)
#
#
# Indices 1 2 3 4 5 6 
#
# 1 0.014485 -0.011108 -0.000313 -0.002202 -0.004464 0.007959
# 2 -0.011108 0.042338 -0.003787 -0.014608 0.001759 0.006999
# 3 -0.000313 -0.003787 0.013137 -0.003064 -0.006877 0.004489
# 4 -0.002202 -0.014608 -0.003064 0.036113 0.001324 -0.018901
# 5 -0.004464 0.001759 -0.006877 0.001324 0.046801 -0.016198
# 6 0.007959 0.006999 0.004489 -0.018901 -0.016198 0.048654
#
#
# Mechanical properties :
#
#
# Convention : Reuss Voigt Hill
#
# Bulk Modulus (GPa) = 25.28858 48.86149 37.07503
# Shear Modulus (GPa) = 20.39772 31.58187 25.98979
#
# Velocity S-wave (km/s) = 3.13335 3.89886 3.53688
# Velocity P-wave (km/s) = 5.02619 6.61713 5.87575
#
# Compressibility (1/GPa) = 0.03954354
#
# Stress axis : x y z
#
# Youngs Moduli (GPa) = 69.03814 23.61936 76.11849
#
# Poissons Ratio (x) = 0.26237 0.02386
# Poissons Ratio (y) = 0.76690 0.28823
# Poissons Ratio (z) = 0.02164 0.08944
#
# Static dielectric constant tensor:
#      x y z
#    x 1.736800 0.006630 0.018780 
#    y 0.006630 1.780790 0.021720 
#    z 0.018780 0.021720 1.773500 
# 
# From -- ./inp_files/218876.got.cif
#   From: 2010.05.17/outbox.cif.g08.bks.cpg/sg2_110_cif.got.tgz:218876.got - 2010.06.03 11:33:40.
