data_PCOD9087988
_publ_section_title
;
Structure prediction by ZEFSAII (Michael W. Deem and Ramdas Pophale) SiO2 
 PCOD9087988
Probable space group: P -1
;
_chemical_formula_sum "Si O2"
_cell_formula_units_Z 16
_cell_length_a 12.011338
_cell_length_b 12.447133
_cell_length_c 8.532988
_cell_angle_alpha 105.862279
_cell_angle_beta 122.256714
_cell_angle_gamma 44.233651
_cell_volume 739.612019
_symmetry_space_group_name_H-M "P -1"
_symmetry_group_IT_number 2
_symmetry_cell_setting 'triclinic'
loop_
_space_group_symop_operation_xyz
x,y,z
-x,-y,-z
loop_
_atom_site_type_symbol
_atom_site_label
_atom_site_fract_x
_atom_site_fract_y
_atom_site_fract_z
Si Si1 0.336176 0.721423 0.566150
Si Si2 0.529382 0.967336 0.694141
Si Si3 0.728432 0.475539 0.657597
Si Si4 0.882912 0.599556 0.795279
Si Si5 0.116535 0.653983 0.947602
Si Si6 0.808358 0.971612 0.034019
Si Si7 0.208037 0.758328 0.802571
Si Si8 0.832412 0.934891 0.404697
O O1 0.510694 0.625024 0.545598
O O2 0.230370 0.675426 0.411446
O O3 0.362447 0.678842 0.752719
O O4 0.228982 0.899788 0.553230
O O5 0.691152 0.777253 0.764816
O O6 0.334534 0.042795 0.648719
O O7 0.500000 0.000000 0.500000
O O8 0.615737 0.029204 0.857132
O O9 0.834052 0.507361 0.654534
O O10 0.769315 0.459984 0.865980
O O11 0.000610 0.615538 0.786625
O O12 0.000000 0.500000 0.000000
O O13 0.236813 0.651363 0.916178
O O14 0.962177 0.828914 0.976358
O O15 0.815986 0.101679 0.092686
O O16 0.840501 0.913278 0.214528
O O17 0.021886 0.822683 0.601320
#
# Coordination Sequence:
#
# PCOD9087988 Si02
#       8
#     2   2   2   2   2   2   2   2
#     4  10  21  35  58  83 110 156 198 240 284 351
#     4  11  22  37  60  93 124 151 198 255 303 344
#     4  10  19  37  58  80 109 154 206 232 283 356
#     4   9  19  37  59  83 113 158 197 236 289 364
#     4  10  20  35  59  82 114 151 192 242 298 342
#     4  10  21  37  58  89 118 160 194 237 304 362
#     4  11  22  37  58  89 125 149 195 250 302 346
#     4  11  20  37  60  87 121 153 201 242 294 357
#
# _framework density 21.632964000000001
#
# number of rings (size 3 to 8) (size 9 to 14) (size 15 to 20)
#    0.000    1.750    1.250    5.250    0.000    1.500 
#    0.000    0.625    0.000    0.000    0.000    0.000 
#    0.000    0.000    0.000    0.000    0.000    0.000 
#
# Total GULP energy -89208.096062 kJ/mol
# GULP energy per Si atom -5575.506004 kJ/mol
# Density = 2.158373 g / cm^3
# Si number density = 21.632964 Si / 1000 Ang^3
#
#
#
# Elastic Constant Matrix: (Units=GPa)
#
#
# Indices 1 2 3 4 5 6 
#
# 1 80.0306 46.9847 6.9503 12.0385 6.8404 24.6430
# 2 46.9847 -15.2187 41.6257 -13.6576 16.2848 0.1013
# 3 6.9503 41.6257 69.6429 7.7421 14.2443 14.1114
# 4 12.0385 -13.6576 7.7421 21.9931 10.8688 5.0218
# 5 6.8404 16.2848 14.2443 10.8688 36.0173 2.9924
# 6 24.6430 0.1013 14.1114 5.0218 2.9924 31.5817
#
#
#
# Elastic Compliance Matrix: (Units=1/GPa)
#
#
# Indices 1 2 3 4 5 6 
#
# 1 0.009549 0.008165 -0.004194 0.005095 -0.004890 -0.005950
# 2 0.008165 -0.008338 0.006225 -0.012104 0.004040 -0.007584
# 3 -0.004194 0.006225 0.012651 0.006663 -0.008814 -0.002624
# 4 0.005095 -0.012104 0.006663 0.040221 -0.009234 -0.012435
# 5 -0.004890 0.004040 -0.008814 -0.009234 0.032631 0.006117
# 6 -0.005950 -0.007584 -0.002624 -0.012435 0.006117 0.038902
#
#
# Mechanical properties :
#
#
# Convention : Reuss Voigt Hill
#
# Bulk Modulus (GPa) = 29.19344 36.17514 32.68429
# Shear Modulus (GPa) = 42.86695 20.51136 31.68915
#
# Velocity S-wave (km/s) = 4.45630 3.08255 3.83149
# Velocity P-wave (km/s) = 6.32474 5.42476 5.89196
#
# Compressibility (1/GPa) = 0.03425428
#
# Stress axis : x y z
#
# Youngs Moduli (GPa) = 104.71867 -119.92799 79.04757
#
# Poissons Ratio (x) = 0.97926 0.33153
# Poissons Ratio (y) = -0.85507 -0.49207
# Poissons Ratio (z) = 0.43920 0.74655
#
# Static dielectric constant tensor:
#      x y z
#    x 1.823490 -0.015520 0.038170 
#    y -0.015520 1.785910 0.004170 
#    z 0.038170 0.004170 1.839380 
# 
# From -- ./inp_files/259117.got.cif
#   From: 2010.05.17/outbox.cif.g08.bks.cpg/sg2_130_cif.got.tgz:259117.got - 2010.06.03 11:33:40.
