data_PCOD9087241
_publ_section_title
;
Structure prediction by ZEFSAII (Michael W. Deem and Ramdas Pophale) SiO2 
 PCOD9087241
Probable space group: P -1
;
_chemical_formula_sum "Si O2"
_cell_formula_units_Z 16
_cell_length_a 14.913878
_cell_length_b 11.234638
_cell_length_c 8.380685
_cell_angle_alpha 115.804843
_cell_angle_beta 78.769525
_cell_angle_gamma 140.692056
_cell_volume 775.597443
_symmetry_space_group_name_H-M "P -1"
_symmetry_group_IT_number 2
_symmetry_cell_setting 'triclinic'
loop_
_space_group_symop_operation_xyz
x,y,z
-x,-y,-z
loop_
_atom_site_type_symbol
_atom_site_label
_atom_site_fract_x
_atom_site_fract_y
_atom_site_fract_z
Si Si1 0.736154 0.522680 0.224551
Si Si2 0.036157 0.729127 0.542013
Si Si3 0.234536 0.274014 0.162291
Si Si4 0.069028 0.063558 0.759714
Si Si5 0.294852 0.888039 0.730264
Si Si6 0.714059 0.406606 0.528571
Si Si7 0.883492 0.434096 0.117873
Si Si8 0.539044 0.668527 0.971678
O O1 0.873336 0.773635 0.299225
O O2 0.707133 0.455522 0.379204
O O3 0.785027 0.439200 0.078385
O O4 0.598075 0.437776 0.145063
O O5 0.154708 0.772141 0.608351
O O6 0.885882 0.572834 0.603874
O O7 0.981765 0.613204 0.325478
O O8 0.098978 0.946734 0.635145
O O9 0.323907 0.511205 0.300085
O O10 0.332018 0.253291 0.130313
O O11 0.160517 0.195557 0.967328
O O12 0.100420 0.114341 0.239458
O O13 0.355034 0.817821 0.594293
O O14 0.229467 0.784004 0.869505
O O15 0.400228 0.132304 0.846112
O O16 0.000000 0.500000 0.000000
O O17 0.500000 0.500000 0.000000
#
# Coordination Sequence:
#
# PCOD9087241 Si02
#       8
#     2   2   2   2   2   2   2   2
#     4  10  22  39  60  83 133 157 189 247 309 359
#     4   9  17  36  59  88 118 156 197 250 302 348
#     4  10  21  35  62  92 112 151 216 246 293 354
#     4  10  19  36  62  91 116 155 203 257 297 342
#     4  10  20  39  63  83 122 164 193 248 307 354
#     4   9  21  36  57  91 120 157 193 251 308 353
#     4  10  23  36  60  96 123 151 202 248 303 359
#     4  12  23  41  63  87 119 169 205 243 299 365
#
# _framework density 20.629258
#
# number of rings (size 3 to 8) (size 9 to 14) (size 15 to 20)
#    0.000    2.250    2.500    1.500    1.750    8.000 
#    0.000    0.625    5.500    0.000    0.000    0.000 
#    0.000    0.000    0.000    0.000    0.000    0.000 
#
# Total GULP energy -89233.102792 kJ/mol
# GULP energy per Si atom -5577.068925 kJ/mol
# Density = 2.058231 g / cm^3
# Si number density = 20.629258 Si / 1000 Ang^3
#
#
#
# Elastic Constant Matrix: (Units=GPa)
#
#
# Indices 1 2 3 4 5 6 
#
# 1 135.4183 44.3956 29.4253 9.0820 -1.7733 -12.0406
# 2 44.3956 69.3728 26.8914 17.8861 -8.5064 -20.1901
# 3 29.4253 26.8914 68.3586 19.0613 -24.0439 -8.7240
# 4 9.0820 17.8861 19.0613 22.9369 -8.1470 -11.4005
# 5 -1.7733 -8.5064 -24.0439 -8.1470 37.3595 5.9691
# 6 -12.0406 -20.1901 -8.7240 -11.4005 5.9691 35.4153
#
#
#
# Elastic Compliance Matrix: (Units=1/GPa)
#
#
# Indices 1 2 3 4 5 6 
#
# 1 0.009917 -0.005873 -0.003666 0.003027 -0.002653 0.000542
# 2 -0.005873 0.024311 -0.003348 -0.010069 -0.000349 0.007855
# 3 -0.003666 -0.003348 0.025668 -0.014478 0.013015 -0.003686
# 4 0.003027 -0.010069 -0.014478 0.069739 0.001518 0.013916
# 5 -0.002653 -0.000349 0.013015 0.001518 0.035819 -0.003443
# 6 0.000542 0.007855 -0.003686 0.013916 -0.003443 0.037051
#
#
# Mechanical properties :
#
#
# Convention : Reuss Voigt Hill
#
# Bulk Modulus (GPa) = 29.30715 52.73049 41.01882
# Shear Modulus (GPa) = 20.86339 30.63818 25.75078
#
# Velocity S-wave (km/s) = 3.18362 3.85799 3.53691
# Velocity P-wave (km/s) = 5.26796 6.74254 6.05034
#
# Compressibility (1/GPa) = 0.03412136
#
# Stress axis : x y z
#
# Youngs Moduli (GPa) = 100.83534 41.13375 38.95827
#
# Poissons Ratio (x) = 0.24160 0.14283
# Poissons Ratio (y) = 0.59225 0.13042
# Poissons Ratio (z) = 0.36970 0.13771
#
# Static dielectric constant tensor:
#      x y z
#    x 1.765160 0.007060 -0.038070 
#    y 0.007060 1.795710 0.000940 
#    z -0.038070 0.000940 1.761690 
# 
# From -- ./inp_files/308319.got.cif
#   From: 2010.05.17/outbox.cif.g08.bks.cpg/sg2_155_cif.got.tgz:308319.got - 2010.06.03 11:33:40.
