data_PCOD9087549
_publ_section_title
;
Structure prediction by ZEFSAII (Michael W. Deem and Ramdas Pophale) SiO2 
 PCOD9087549
Probable space group: P -1
;
_chemical_formula_sum "Si O2"
_cell_formula_units_Z 14
_cell_length_a 16.242125
_cell_length_b 7.985147
_cell_length_c 9.706599
_cell_angle_alpha 45.893442
_cell_angle_beta 148.714801
_cell_angle_gamma 122.097896
_cell_volume 462.580413
_symmetry_space_group_name_H-M "P -1"
_symmetry_group_IT_number 2
_symmetry_cell_setting 'triclinic'
loop_
_space_group_symop_operation_xyz
x,y,z
-x,-y,-z
loop_
_atom_site_type_symbol
_atom_site_label
_atom_site_fract_x
_atom_site_fract_y
_atom_site_fract_z
Si Si1 0.989785 0.146744 0.574976
Si Si2 0.487441 0.840988 0.711001
Si Si3 0.774664 0.528595 0.202333
Si Si4 0.097328 0.663089 0.139493
Si Si5 0.383701 0.402195 0.568030
Si Si6 0.799409 0.835584 0.785851
Si Si7 0.664731 0.160079 0.962204
O O1 0.112857 0.328544 0.625069
O O2 0.711444 0.767123 0.560945
O O3 0.094013 0.905204 0.911956
O O4 0.853499 0.107790 0.293740
O O5 0.500000 0.000000 0.500000
O O6 0.587486 0.947207 0.912924
O O7 0.301738 0.914100 0.450581
O O8 0.593900 0.590186 0.965722
O O9 0.773423 0.657451 0.975729
O O10 0.874647 0.272078 0.461341
O O11 0.983989 0.763373 0.046882
O O12 0.000000 0.500000 0.000000
O O13 0.275125 0.506923 0.481670
O O14 0.564742 0.262532 0.896643
O O15 0.374546 0.633573 0.325278
#
# Coordination Sequence:
#
# PCOD9087549 Si02
#       7
#     2   2   2   2   2   2   2
#     4  11  23  39  62  94 125 156 206 263 302 354
#     4   9  19  35  61  92 120 158 206 249 304 363
#     4  10  21  39  62  91 126 153 206 264 303 350
#     4  10  22  40  61  88 126 164 207 245 309 373
#     4   9  18  34  61  92 115 155 206 250 303 360
#     4   9  18  39  60  84 123 166 200 244 304 372
#     4  10  19  36  64  91 118 156 210 260 295 355
#
# _framework density 30.265008000000002
#
# number of rings (size 3 to 8) (size 9 to 14) (size 15 to 20)
#    0.000    2.286    1.429    0.857    2.000    2.857 
#    2.571    7.143    0.000    0.000    0.000    0.000 
#    0.000    0.000    0.000    0.000    0.000    0.000 
#
# Total GULP energy -78477.380159 kJ/mol
# GULP energy per Si atom -5605.527154 kJ/mol
# Density = 3.019612 g / cm^3
# Si number density = 30.265008 Si / 1000 Ang^3
#
#
#
# Elastic Constant Matrix: (Units=GPa)
#
#
# Indices 1 2 3 4 5 6 
#
# 1 158.7440 22.0546 88.9166 -6.1421 65.5661 -17.1942
# 2 22.0546 131.1035 54.0384 -1.3224 21.6866 -22.9903
# 3 88.9166 54.0384 227.6507 -5.1411 68.1905 -13.1237
# 4 -6.1421 -1.3224 -5.1411 72.6613 1.8023 17.5881
# 5 65.5661 21.6866 68.1905 1.8023 91.8851 -7.0965
# 6 -17.1942 -22.9903 -13.1237 17.5881 -7.0965 42.0804
#
#
#
# Elastic Compliance Matrix: (Units=1/GPa)
#
#
# Indices 1 2 3 4 5 6 
#
# 1 0.010026 0.000633 -0.002287 0.000165 -0.005397 0.002750
# 2 0.000633 0.009340 -0.001961 -0.001128 -0.000785 0.005089
# 3 -0.002287 -0.001961 0.006578 0.000458 -0.002844 -0.000626
# 4 0.000165 -0.001128 0.000458 0.015526 -0.001043 -0.007070
# 5 -0.005397 -0.000785 -0.002844 -0.001043 0.017034 -0.000213
# 6 0.002750 0.005089 -0.000626 -0.007070 -0.000213 0.030392
#
#
# Mechanical properties :
#
#
# Convention : Reuss Voigt Hill
#
# Bulk Modulus (GPa) = 53.43936 94.16861 73.80398
# Shear Modulus (GPa) = 48.84482 64.82461 56.83471
#
# Velocity S-wave (km/s) = 4.02170 4.63309 4.33818
# Velocity P-wave (km/s) = 6.26585 7.73323 7.03789
#
# Compressibility (1/GPa) = 0.01871280
#
# Stress axis : x y z
#
# Youngs Moduli (GPa) = 99.73959 107.06194 152.02808
#
# Poissons Ratio (x) = -0.06775 0.34774
# Poissons Ratio (y) = -0.06312 0.29815
# Poissons Ratio (z) = 0.22814 0.20996
#
# Static dielectric constant tensor:
#      x y z
#    x 2.447710 -0.011000 -0.044900 
#    y -0.011000 2.381300 0.033300 
#    z -0.044900 0.033300 2.254950 
# 
# From -- ./inp_files/461029.got.cif
#   From: 2010.05.17/outbox.cif.g08.bks.cpg/sg2_231_cif.got.tgz:461029.got - 2010.06.03 11:33:40.
