data_PCOD9087474
_publ_section_title
;
Structure prediction by ZEFSAII (Michael W. Deem and Ramdas Pophale) SiO2 
 PCOD9087474
Probable space group: P -1
;
_chemical_formula_sum "Si O2"
_cell_formula_units_Z 16
_cell_length_a 14.318372
_cell_length_b 13.963480
_cell_length_c 10.721373
_cell_angle_alpha 131.675144
_cell_angle_beta 138.620079
_cell_angle_gamma 32.231516
_cell_volume 752.971598
_symmetry_space_group_name_H-M "P -1"
_symmetry_group_IT_number 2
_symmetry_cell_setting 'triclinic'
loop_
_space_group_symop_operation_xyz
x,y,z
-x,-y,-z
loop_
_atom_site_type_symbol
_atom_site_label
_atom_site_fract_x
_atom_site_fract_y
_atom_site_fract_z
Si Si1 0.283944 0.194324 0.919770
Si Si2 0.310806 0.781622 0.122158
Si Si3 0.730410 0.461593 0.244516
Si Si4 0.169905 0.244621 0.118751
Si Si5 0.590922 0.954496 0.416589
Si Si6 0.919817 0.861129 0.528730
Si Si7 0.828208 0.572506 0.210872
Si Si8 0.015597 0.073592 0.885137
O O1 0.166400 0.157425 0.693776
O O2 0.286916 0.316273 0.936769
O O3 0.178468 0.291903 0.028649
O O4 0.500000 0.000000 0.000000
O O5 0.540349 0.661573 0.274968
O O6 0.186789 0.807910 0.136610
O O7 0.320196 0.655279 0.926422
O O8 0.183919 0.960095 0.065096
O O9 0.788355 0.479526 0.182559
O O10 0.910597 0.336846 0.413026
O O11 0.050437 0.407978 0.239454
O O12 0.397673 0.078215 0.243013
O O13 0.056980 0.179348 0.948977
O O14 0.735103 0.980149 0.545879
O O15 0.741897 0.741356 0.356834
O O16 0.500000 0.000000 0.500000
O O17 0.004923 0.951281 0.684128
#
# Coordination Sequence:
#
# PCOD9087474 Si02
#       8
#     2   2   2   2   2   2   2   2
#     4  11  24  47  65  92 130 187 230 266 330 393
#     4   9  19  34  60  95 137 170 201 265 340 411
#     4  10  19  36  63  97 132 166 212 276 337 380
#     4  12  23  44  71  92 132 181 221 277 330 387
#     4  11  25  40  65  99 136 174 214 270 335 393
#     4  10  23  42  63  97 136 168 227 272 327 405
#     4  11  23  41  66  99 128 171 224 271 322 402
#     4  10  21  38  63 100 132 171 219 265 340 399
#
# _framework density 21.249141000000002
#
# number of rings (size 3 to 8) (size 9 to 14) (size 15 to 20)
#    0.000    1.500    3.750    1.875    5.250    5.000 
#    0.000    0.000    0.000    1.500    0.000    0.000 
#    0.000    0.000    0.000    0.000    0.000    0.000 
#
# Total GULP energy -89161.091763 kJ/mol
# GULP energy per Si atom -5572.568235 kJ/mol
# Density = 2.120078 g / cm^3
# Si number density = 21.249141 Si / 1000 Ang^3
#
#
#
# Elastic Constant Matrix: (Units=GPa)
#
#
# Indices 1 2 3 4 5 6 
#
# 1 75.0983 23.7913 18.3953 -3.9576 -7.0686 -6.5912
# 2 23.7913 95.9719 40.4010 -4.5245 14.1710 -18.4568
# 3 18.3953 40.4010 90.8835 -15.7695 0.4113 2.9566
# 4 -3.9576 -4.5245 -15.7695 32.6344 -2.3479 5.1057
# 5 -7.0686 14.1710 0.4113 -2.3479 27.8697 2.1591
# 6 -6.5912 -18.4568 2.9566 5.1057 2.1591 39.2383
#
#
#
# Elastic Compliance Matrix: (Units=1/GPa)
#
#
# Indices 1 2 3 4 5 6 
#
# 1 0.015587 -0.004210 -0.001115 0.001178 0.006192 0.000228
# 2 -0.004210 0.018298 -0.008296 -0.004320 -0.011366 0.009712
# 3 -0.001115 -0.008296 0.016514 0.008088 0.004889 -0.006655
# 4 0.001178 -0.004320 0.008088 0.035683 0.005956 -0.007414
# 5 0.006192 -0.011366 0.004889 0.005956 0.044271 -0.007885
# 6 0.000228 0.009712 -0.006655 -0.007414 -0.007885 0.031992
#
#
# Mechanical properties :
#
#
# Convention : Reuss Voigt Hill
#
# Bulk Modulus (GPa) = 43.18013 47.45876 45.31945
# Shear Modulus (GPa) = 25.34113 31.90623 28.62368
#
# Velocity S-wave (km/s) = 3.45711 3.87916 3.67420
# Velocity P-wave (km/s) = 6.02499 6.51512 6.27484
#
# Compressibility (1/GPa) = 0.02315880
#
# Stress axis : x y z
#
# Youngs Moduli (GPa) = 64.15399 54.65026 60.55333
#
# Poissons Ratio (x) = 0.23006 0.06750
# Poissons Ratio (y) = 0.27007 0.50236
# Poissons Ratio (z) = 0.07151 0.45339
#
# Static dielectric constant tensor:
#      x y z
#    x 1.772070 -0.010970 0.025800 
#    y -0.010970 1.848390 0.042830 
#    z 0.025800 0.042830 1.873800 
# 
# From -- ./inp_files/455003.got.cif
#   From: 2010.05.17/outbox.cif.g08.bks.cpg/sg2_228_cif.got.tgz:455003.got - 2010.06.03 11:33:40.
