data_PCOD9087947
_publ_section_title
;
Structure prediction by ZEFSAII (Michael W. Deem and Ramdas Pophale) SiO2 
 PCOD9087947
Probable space group: P -1
;
_chemical_formula_sum "Si O2"
_cell_formula_units_Z 16
_cell_length_a 15.961473
_cell_length_b 13.750416
_cell_length_c 9.094885
_cell_angle_alpha 130.131614
_cell_angle_beta 44.645537
_cell_angle_gamma 145.070126
_cell_volume 793.794580
_symmetry_space_group_name_H-M "P -1"
_symmetry_group_IT_number 2
_symmetry_cell_setting 'triclinic'
loop_
_space_group_symop_operation_xyz
x,y,z
-x,-y,-z
loop_
_atom_site_type_symbol
_atom_site_label
_atom_site_fract_x
_atom_site_fract_y
_atom_site_fract_z
Si Si1 0.773163 0.006301 0.337228
Si Si2 0.389835 0.646344 0.028361
Si Si3 0.641065 0.102629 0.806633
Si Si4 0.053383 0.396150 0.290851
Si Si5 0.074114 0.044797 0.677398
Si Si6 0.268381 0.077488 0.021836
Si Si7 0.105175 0.809921 0.221227
Si Si8 0.162221 0.390017 0.840856
O O1 0.649265 0.982898 0.580705
O O2 0.840172 0.925151 0.245845
O O3 0.929985 0.210514 0.336470
O O4 0.704767 0.950095 0.204592
O O5 0.376415 0.788734 0.168794
O O6 0.244068 0.505410 0.183958
O O7 0.569100 0.742748 0.945299
O O8 0.335958 0.557158 0.846858
O O9 0.803884 0.221604 0.816583
O O10 0.500000 0.000000 0.000000
O O11 0.000000 0.500000 0.500000
O O12 0.051161 0.366394 0.089439
O O13 0.094888 0.936506 0.444496
O O14 0.885343 0.940577 0.818817
O O15 0.152078 0.229844 0.699437
O O16 0.213076 0.927450 0.059083
O O17 0.929978 0.638438 0.219610
#
# Coordination Sequence:
#
# PCOD9087947 Si02
#       8
#     2   2   2   2   2   2   2   2
#     4  11  21  38  65  85 111 158 200 234 282 349
#     4  10  22  35  57  86 122 147 184 246 297 331
#     4  11  22  39  58  87 122 146 194 250 285 341
#     4  10  19  37  57  86 115 152 191 236 286 341
#     4  10  21  37  63  86 115 151 204 236 276 354
#     4  11  19  36  59  89 111 156 192 238 289 342
#     4  10  20  37  63  85 111 159 200 230 285 353
#     4   9  19  37  56  85 114 153 190 234 288 338
#
# _framework density 20.156348999999999
#
# number of rings (size 3 to 8) (size 9 to 14) (size 15 to 20)
#    0.750    1.000    5.000    1.875    0.000    1.000 
#    2.250    5.000    0.000    0.000    0.000    0.000 
#    0.000    0.000    0.000    0.000    0.000    0.000 
#
# Total GULP energy -89110.315146 kJ/mol
# GULP energy per Si atom -5569.394697 kJ/mol
# Density = 2.011047 g / cm^3
# Si number density = 20.156349 Si / 1000 Ang^3
#
#
#
# Elastic Constant Matrix: (Units=GPa)
#
#
# Indices 1 2 3 4 5 6 
#
# 1 59.1572 -1.5731 19.8213 7.4414 8.9532 18.8079
# 2 -1.5731 46.8495 2.6073 -0.8086 0.7769 30.1071
# 3 19.8213 2.6073 51.1478 -9.6264 8.3811 10.8972
# 4 7.4414 -0.8086 -9.6264 15.8423 -3.3390 5.3068
# 5 8.9532 0.7769 8.3811 -3.3390 28.5593 4.2706
# 6 18.8079 30.1071 10.8972 5.3068 4.2706 31.9789
#
#
#
# Elastic Compliance Matrix: (Units=1/GPa)
#
#
# Indices 1 2 3 4 5 6 
#
# 1 0.036874 0.035604 -0.004466 -0.001173 -0.003425 -0.053033
# 2 0.035604 0.117831 0.020632 0.053388 0.008077 -0.148842
# 3 -0.004466 0.020632 0.034209 0.035461 0.000082 -0.034351
# 4 -0.001173 0.053388 0.035461 0.119021 0.014895 -0.083397
# 5 -0.003425 0.008077 0.000082 0.014895 0.039586 -0.013376
# 6 -0.053033 -0.148842 -0.034351 -0.083397 -0.013376 0.229922
#
#
# Mechanical properties :
#
#
# Convention : Reuss Voigt Hill
#
# Bulk Modulus (GPa) = 3.41934 22.09617 12.75776
# Shear Modulus (GPa) = 8.75061 24.36269 16.55665
#
# Velocity S-wave (km/s) = 2.08586 3.48039 2.86914
# Velocity P-wave (km/s) = 2.73882 5.20932 4.16162
#
# Compressibility (1/GPa) = 0.29245370
#
# Stress axis : x y z
#
# Youngs Moduli (GPa) = 27.11951 8.48675 29.23198
#
# Poissons Ratio (x) = -0.30216 0.13054
# Poissons Ratio (y) = -0.96556 -0.60311
# Poissons Ratio (z) = 0.12110 -0.17510
#
# Static dielectric constant tensor:
#      x y z
#    x 1.740190 0.017870 0.015150 
#    y 0.017870 1.751960 -0.008970 
#    z 0.015150 -0.008970 1.740440 
# 
# From -- ./inp_files/314101.got.cif
#   From: 2010.05.17/outbox.cif.g08.bks.cpg/sg2_158_cif.got.tgz:314101.got - 2010.06.03 11:33:40.
