data_PCOD9087485
_publ_section_title
;
Structure prediction by ZEFSAII (Michael W. Deem and Ramdas Pophale) SiO2 
 PCOD9087485
Probable space group: P -1
;
_chemical_formula_sum "Si O2"
_cell_formula_units_Z 14
_cell_length_a 12.578193
_cell_length_b 9.720075
_cell_length_c 8.886401
_cell_angle_alpha 132.811808
_cell_angle_beta 129.120697
_cell_angle_gamma 78.774781
_cell_volume 563.595847
_symmetry_space_group_name_H-M "P -1"
_symmetry_group_IT_number 2
_symmetry_cell_setting 'triclinic'
loop_
_space_group_symop_operation_xyz
x,y,z
-x,-y,-z
loop_
_atom_site_type_symbol
_atom_site_label
_atom_site_fract_x
_atom_site_fract_y
_atom_site_fract_z
Si Si1 0.391401 0.315906 0.866006
Si Si2 0.461611 0.278061 0.229308
Si Si3 0.180786 0.149110 0.073307
Si Si4 0.926534 0.714284 0.466775
Si Si5 0.533852 0.026921 0.329971
Si Si6 0.954195 0.584589 0.723942
Si Si7 0.290285 0.928731 0.245870
O O1 0.234354 0.319650 0.765951
O O2 0.360248 0.088357 0.598302
O O3 0.500000 0.500000 0.000000
O O4 0.473567 0.289318 0.069964
O O5 0.500000 0.500000 0.500000
O O6 0.551594 0.156625 0.294418
O O7 0.289990 0.160040 0.041870
O O8 0.025741 0.952190 0.765384
O O9 0.148566 0.352131 0.210079
O O10 0.254424 0.118839 0.273242
O O11 0.023689 0.623349 0.388295
O O12 0.897319 0.595756 0.512367
O O13 0.601911 0.177516 0.643467
O O14 0.363005 0.895193 0.121830
O O15 0.122678 0.763264 0.009485
#
# Coordination Sequence:
#
# PCOD9087485 Si02
#       7
#     2   2   2   2   2   2   2
#     4  12  26  43  71 101 134 176 230 279 336 403
#     4  11  28  46  64  99 140 175 227 281 337 405
#     4  10  21  43  65  95 139 178 217 279 341 395
#     4  10  22  38  66 103 131 172 231 273 324 411
#     4  10  21  40  68  95 137 180 217 278 342 391
#     4  10  19  36  64 101 134 172 219 276 335 396
#     4   9  18  34  68 101 132 171 224 268 333 416
#
# _framework density 24.840494
#
# number of rings (size 3 to 8) (size 9 to 14) (size 15 to 20)
#    0.000    1.714    0.000    4.714   10.000    1.714 
#    2.571    0.714    0.000    0.000    0.000    0.000 
#    0.000    0.000    0.000    0.000    0.000    0.000 
#
# Total GULP energy -78032.188297 kJ/mol
# GULP energy per Si atom -5573.727735 kJ/mol
# Density = 2.478396 g / cm^3
# Si number density = 24.840494 Si / 1000 Ang^3
#
#
#
# Elastic Constant Matrix: (Units=GPa)
#
#
# Indices 1 2 3 4 5 6 
#
# 1 76.1602 43.3395 9.1644 -8.9715 -3.3213 -18.8907
# 2 43.3395 139.6604 49.2429 -18.3391 -8.4064 -6.6254
# 3 9.1644 49.2429 72.5423 -2.9447 -6.1956 6.4578
# 4 -8.9715 -18.3391 -2.9447 30.9817 -2.8693 -10.9276
# 5 -3.3213 -8.4064 -6.1956 -2.8693 28.2350 0.2783
# 6 -18.8907 -6.6254 6.4578 -10.9276 0.2783 51.1131
#
#
#
# Elastic Compliance Matrix: (Units=1/GPa)
#
#
# Indices 1 2 3 4 5 6 
#
# 1 0.018202 -0.004781 0.000632 0.005132 0.001308 0.007118
# 2 -0.004781 0.012321 -0.007521 0.006117 0.002057 0.002077
# 3 0.000632 -0.007521 0.019159 -0.003686 0.001704 -0.003959
# 4 0.005132 0.006117 -0.003686 0.041822 0.005747 0.012065
# 5 0.001308 0.002057 0.001704 0.005747 0.037126 0.001561
# 6 0.007118 0.002077 -0.003959 0.012065 0.001561 0.025535
#
#
# Mechanical properties :
#
#
# Convention : Reuss Voigt Hill
#
# Bulk Modulus (GPa) = 37.96080 54.65072 46.30576
# Shear Modulus (GPa) = 26.84066 34.50703 30.67385
#
# Velocity S-wave (km/s) = 3.29069 3.73117 3.51783
# Velocity P-wave (km/s) = 5.45465 6.37264 5.93143
#
# Compressibility (1/GPa) = 0.02634297
#
# Stress axis : x y z
#
# Youngs Moduli (GPa) = 54.93933 81.16081 52.19570
#
# Poissons Ratio (x) = 0.38804 -0.03301
# Poissons Ratio (y) = 0.26267 0.39255
# Poissons Ratio (z) = -0.03474 0.61039
#
# Static dielectric constant tensor:
#      x y z
#    x 2.534940 -0.458350 -0.333250 
#    y -0.458350 2.353390 0.211930 
#    z -0.333250 0.211930 2.184830 
# 
# From -- ./inp_files/216379.got.cif
#   From: 2010.05.17/outbox.cif.g08.bks.cpg/sg2_109_cif.got.tgz:216379.got - 2010.06.03 11:33:40.
