data_PCOD9087745
_publ_section_title
;
Structure prediction by ZEFSAII (Michael W. Deem and Ramdas Pophale) SiO2 
 PCOD9087745
Probable space group: P -1
;
_chemical_formula_sum "Si O2"
_cell_formula_units_Z 16
_cell_length_a 12.323182
_cell_length_b 8.696798
_cell_length_c 8.644279
_cell_angle_alpha 69.550607
_cell_angle_beta 109.210798
_cell_angle_gamma 76.245029
_cell_volume 751.753832
_symmetry_space_group_name_H-M "P -1"
_symmetry_group_IT_number 2
_symmetry_cell_setting 'triclinic'
loop_
_space_group_symop_operation_xyz
x,y,z
-x,-y,-z
loop_
_atom_site_type_symbol
_atom_site_label
_atom_site_fract_x
_atom_site_fract_y
_atom_site_fract_z
Si Si1 0.361230 0.816432 0.157363
Si Si2 0.112463 0.952758 0.193829
Si Si3 0.173775 0.433065 0.814849
Si Si4 0.719581 0.489734 0.845107
Si Si5 0.269185 0.123123 0.750402
Si Si6 0.002441 0.328899 0.973376
Si Si7 0.987060 0.175414 0.528106
Si Si8 0.572573 0.848091 0.461213
O O1 0.360398 0.631979 0.154701
O O2 0.478471 0.805268 0.317825
O O3 0.243883 0.888577 0.194717
O O4 0.334917 0.960285 0.957161
O O5 0.093353 0.828625 0.357502
O O6 0.077355 0.153329 0.170392
O O7 0.000000 0.000000 0.000000
O O8 0.258353 0.307456 0.763787
O O9 0.085544 0.330203 0.864083
O O10 0.084782 0.632685 0.652014
O O11 0.252929 0.455157 0.990020
O O12 0.655631 0.668061 0.653775
O O13 0.856283 0.368871 0.878025
O O14 0.341971 0.093180 0.633913
O O15 0.127909 0.145688 0.645278
O O16 0.000000 0.500000 0.000000
O O17 0.000000 0.000000 0.500000
O O18 0.500000 0.000000 0.500000
#
# Coordination Sequence:
#
# PCOD9087745 Si02
#       8
#     2   2   2   2   2   2   2   2
#     4  12  25  47  72 100 141 185 230 285 343 411
#     4  12  22  41  70 103 143 177 219 286 355 409
#     4  11  23  42  69 105 142 181 225 286 349 412
#     4  11  24  46  70 102 139 184 231 282 345 409
#     4  12  25  47  71 101 141 182 234 287 346 410
#     4  10  19  36  67 100 137 174 216 273 343 410
#     4  12  25  40  68 112 145 178 224 283 355 417
#     4  12  30  49  71  98 135 190 243 284 339 413
#
# _framework density 21.283563000000001
#
# number of rings (size 3 to 8) (size 9 to 14) (size 15 to 20)
#    0.000    0.500    3.750    4.875    5.250    0.000 
#    0.000    1.250    0.000    0.000    0.000    0.000 
#    0.000    0.000    0.000    0.000    0.000    0.000 
#
# Total GULP energy -89474.684858 kJ/mol
# GULP energy per Si atom -5592.167804 kJ/mol
# Density = 2.123512 g / cm^3
# Si number density = 21.283563 Si / 1000 Ang^3
#
#
#
# Elastic Constant Matrix: (Units=GPa)
#
#
# Indices 1 2 3 4 5 6 
#
# 1 54.5297 40.2907 29.8331 -4.1658 -17.2017 -3.0442
# 2 40.2907 103.3666 34.9218 15.4240 -7.5783 2.5391
# 3 29.8331 34.9218 134.3300 -5.7744 -8.6825 6.2317
# 4 -4.1658 15.4240 -5.7744 32.0769 4.5190 -1.8569
# 5 -17.2017 -7.5783 -8.6825 4.5190 31.3067 7.2195
# 6 -3.0442 2.5391 6.2317 -1.8569 7.2195 39.6582
#
#
#
# Elastic Compliance Matrix: (Units=1/GPa)
#
#
# Indices 1 2 3 4 5 6 
#
# 1 0.034326 -0.012577 -0.003232 0.008160 0.013302 0.001908
# 2 -0.012577 0.016650 -0.001973 -0.009885 -0.001562 -0.001900
# 3 -0.003232 -0.001973 0.008845 0.002002 0.000248 -0.001463
# 4 0.008160 -0.009885 0.002002 0.038055 -0.003628 0.003387
# 5 0.013302 -0.001562 0.000248 -0.003628 0.040975 -0.006547
# 6 0.001908 -0.001900 -0.001463 0.003387 -0.006547 0.027064
#
#
# Mechanical properties :
#
#
# Convention : Reuss Voigt Hill
#
# Bulk Modulus (GPa) = 41.22484 55.81307 48.51896
# Shear Modulus (GPa) = 23.85898 33.08708 28.47303
#
# Velocity S-wave (km/s) = 3.35177 3.94710 3.66156
# Velocity P-wave (km/s) = 5.86435 6.85954 6.38137
#
# Compressibility (1/GPa) = 0.02425722
#
# Stress axis : x y z
#
# Youngs Moduli (GPa) = 29.13274 60.05879 113.05855
#
# Poissons Ratio (x) = 0.75537 0.36536
# Poissons Ratio (y) = 0.36641 0.22308
# Poissons Ratio (z) = 0.09415 0.11850
#
# Static dielectric constant tensor:
#      x y z
#    x 1.845290 0.056850 -0.038960 
#    y 0.056850 1.916000 0.026320 
#    z -0.038960 0.026320 1.754120 
# 
# From -- ./inp_files/243107.got.cif
#   From: 2010.05.17/outbox.cif.g08.bks.cpg/sg2_122_cif.got.tgz:243107.got - 2010.06.03 11:33:40.
