data_PCOD9087609
_publ_section_title
;
Structure prediction by ZEFSAII (Michael W. Deem and Ramdas Pophale) SiO2 
 PCOD9087609
Probable space group: P -1
;
_chemical_formula_sum "Si O2"
_cell_formula_units_Z 16
_cell_length_a 8.972293
_cell_length_b 12.192089
_cell_length_c 11.609340
_cell_angle_alpha 56.436479
_cell_angle_beta 45.062572
_cell_angle_gamma 48.258417
_cell_volume 662.521549
_symmetry_space_group_name_H-M "P -1"
_symmetry_group_IT_number 2
_symmetry_cell_setting 'triclinic'
loop_
_space_group_symop_operation_xyz
x,y,z
-x,-y,-z
loop_
_atom_site_type_symbol
_atom_site_label
_atom_site_fract_x
_atom_site_fract_y
_atom_site_fract_z
Si Si1 0.352554 0.466157 0.357648
Si Si2 0.073662 0.688177 0.912646
Si Si3 0.276804 0.953824 0.361419
Si Si4 0.757799 0.494702 0.852350
Si Si5 0.508404 0.148328 0.446274
Si Si6 0.957430 0.032944 0.139526
Si Si7 0.713835 0.743787 0.878659
Si Si8 0.292485 0.762822 0.254647
O O1 0.645140 0.390391 0.231661
O O2 0.203285 0.541685 0.280459
O O3 0.318494 0.319325 0.471107
O O4 0.286231 0.612596 0.384720
O O5 0.941976 0.864658 0.914238
O O6 0.928670 0.671615 0.894973
O O7 0.075905 0.614471 0.076905
O O8 0.380898 0.890279 0.464937
O O9 0.360298 0.834850 0.282813
O O10 0.322723 0.092512 0.224613
O O11 0.000000 0.000000 0.500000
O O12 0.756048 0.648846 0.795189
O O13 0.500000 0.500000 0.000000
O O14 0.681700 0.143149 0.250346
O O15 0.500000 0.000000 0.500000
O O16 0.053283 0.885210 0.251046
O O17 0.000000 0.000000 0.000000
O O18 0.491843 0.735547 0.065133
#
# Coordination Sequence:
#
# PCOD9087609 Si02
#       8
#     2   2   2   2   2   2   2   2
#     4  10  22  42  66  98 137 178 224 279 350 396
#     4  10  20  38  60 102 137 166 218 280 351 392
#     4  12  25  47  66  93 144 188 218 276 349 413
#     4  10  19  36  64  96 137 169 211 289 347 389
#     4  11  25  46  71  96 134 189 229 265 345 423
#     4  11  24  40  69  99 139 176 225 287 341 398
#     4  12  23  39  71 104 131 175 238 281 333 408
#     4  12  24  42  71 101 135 171 236 288 338 395
#
# _framework density 24.150158999999999
#
# number of rings (size 3 to 8) (size 9 to 14) (size 15 to 20)
#    0.000    1.000    5.000    3.000    5.250    0.500 
#    0.000    0.625    2.750    0.000    0.000    0.000 
#    0.000    0.000    0.000    0.000    0.000    0.000 
#
# Total GULP energy -89232.763130 kJ/mol
# GULP energy per Si atom -5577.047696 kJ/mol
# Density = 2.409519 g / cm^3
# Si number density = 24.150159 Si / 1000 Ang^3
#
#
#
# Elastic Constant Matrix: (Units=GPa)
#
#
# Indices 1 2 3 4 5 6 
#
# 1 98.3237 35.0138 10.8405 -3.5646 12.1593 10.7047
# 2 35.0138 150.8059 15.7136 -35.2102 -9.0506 28.4725
# 3 10.8405 15.7136 40.7003 -4.5799 -1.0388 -5.3523
# 4 -3.5646 -35.2102 -4.5799 29.1983 -2.9195 -6.8987
# 5 12.1593 -9.0506 -1.0388 -2.9195 30.7474 -4.1685
# 6 10.7047 28.4725 -5.3523 -6.8987 -4.1685 54.5482
#
#
#
# Elastic Compliance Matrix: (Units=1/GPa)
#
#
# Indices 1 2 3 4 5 6 
#
# 1 0.012738 -0.003790 -0.002879 -0.004615 -0.006949 -0.001919
# 2 -0.003790 0.011855 -0.002411 0.013176 0.005672 -0.003581
# 3 -0.002879 -0.002411 0.027251 0.002416 0.002253 0.004975
# 4 -0.004615 0.013176 0.002416 0.051420 0.010884 0.001600
# 5 -0.006949 0.005672 0.002253 0.010884 0.038449 0.002939
# 6 -0.001919 -0.003581 0.004975 0.001600 0.002939 0.021493
#
#
# Mechanical properties :
#
#
# Convention : Reuss Voigt Hill
#
# Bulk Modulus (GPa) = 29.68627 45.88506 37.78566
# Shear Modulus (GPa) = 25.96138 38.11624 32.03881
#
# Velocity S-wave (km/s) = 3.28227 3.97709 3.64627
# Velocity P-wave (km/s) = 5.16561 6.33489 5.77989
#
# Compressibility (1/GPa) = 0.03368560
#
# Stress axis : x y z
#
# Youngs Moduli (GPa) = 78.50312 84.35190 36.69576
#
# Poissons Ratio (x) = 0.31968 0.10563
# Poissons Ratio (y) = 0.29751 0.08848
# Poissons Ratio (z) = 0.22598 0.20338
#
# Static dielectric constant tensor:
#      x y z
#    x 1.913510 0.006170 -0.084540 
#    y 0.006170 2.029930 -0.018240 
#    z -0.084540 -0.018240 2.142040 
# 
# From -- ./inp_files/263300.got.cif
#   From: 2010.05.17/outbox.cif.g08.bks.cpg/sg2_132_cif.got.tgz:263300.got - 2010.06.03 11:33:40.
