data_PCOD9087774
_publ_section_title
;
Structure prediction by ZEFSAII (Michael W. Deem and Ramdas Pophale) SiO2 
 PCOD9087774
Probable space group: P -1
;
_chemical_formula_sum "Si O2"
_cell_formula_units_Z 16
_cell_length_a 9.386326
_cell_length_b 9.215460
_cell_length_c 15.869401
_cell_angle_alpha 61.442645
_cell_angle_beta 126.241258
_cell_angle_gamma 146.472779
_cell_volume 611.164228
_symmetry_space_group_name_H-M "P -1"
_symmetry_group_IT_number 2
_symmetry_cell_setting 'triclinic'
loop_
_space_group_symop_operation_xyz
x,y,z
-x,-y,-z
loop_
_atom_site_type_symbol
_atom_site_label
_atom_site_fract_x
_atom_site_fract_y
_atom_site_fract_z
Si Si1 0.185915 0.281276 0.765867
Si Si2 0.729562 0.833159 0.339140
Si Si3 0.136350 0.921905 0.936382
Si Si4 0.051384 0.363124 0.225288
Si Si5 0.626503 0.482724 0.973660
Si Si6 0.788426 0.546429 0.497516
Si Si7 0.834402 0.301021 0.705310
Si Si8 0.384795 0.815252 0.592065
O O1 0.123051 0.159990 0.687649
O O2 0.507720 0.486682 0.846295
O O3 0.075419 0.382513 0.714841
O O4 0.465960 0.190042 0.997467
O O5 0.392686 0.594446 0.274336
O O6 0.771444 0.728476 0.456509
O O7 0.882951 0.120750 0.300426
O O8 0.077354 0.772473 0.873439
O O9 0.955572 0.727929 0.004740
O O10 0.054111 0.052375 0.848813
O O11 0.031013 0.531521 0.210065
O O12 0.500000 0.500000 0.000000
O O13 0.705193 0.370508 0.595682
O O14 0.621736 0.369226 0.403403
O O15 0.095780 0.697740 0.543348
O O16 0.584100 0.988177 0.693917
O O17 0.500000 0.000000 0.500000
#
# Coordination Sequence:
#
# PCOD9087774 Si02
#       8
#     2   2   2   2   2   2   2   2
#     4   9  21  36  63  89 116 157 203 239 293 356
#     4  11  23  41  62  81 119 167 206 250 307 350
#     4   9  19  38  61  89 120 157 187 240 296 355
#     4  11  24  41  58  88 125 163 198 246 308 363
#     4  10  19  36  67  97 114 145 198 246 283 349
#     4  10  22  35  58  79 115 157 217 261 298 341
#     4  11  24  38  58  88 118 162 205 257 298 357
#     4   9  19  35  52  80 106 148 197 263 305 333
#
# _framework density 26.179542999999999
#
# number of rings (size 3 to 8) (size 9 to 14) (size 15 to 20)
#    0.750    1.250    1.250    2.625    8.750    2.000 
#    0.000    0.000    0.000    1.500    0.000    0.000 
#    0.000    0.000    0.000    0.000    0.000    0.000 
#
# Total GULP energy -89214.752384 kJ/mol
# GULP energy per Si atom -5575.922024 kJ/mol
# Density = 2.611996 g / cm^3
# Si number density = 26.179543 Si / 1000 Ang^3
#
#
#
# Elastic Constant Matrix: (Units=GPa)
#
#
# Indices 1 2 3 4 5 6 
#
# 1 83.1045 25.6659 14.1827 5.6214 -14.1032 -14.9250
# 2 25.6659 172.5501 28.4764 14.0998 -4.2970 0.3214
# 3 14.1827 28.4764 55.0535 -5.4734 -7.6539 -15.6384
# 4 5.6214 14.0998 -5.4734 37.2169 -11.5218 -9.9078
# 5 -14.1032 -4.2970 -7.6539 -11.5218 33.6553 8.6660
# 6 -14.9250 0.3214 -15.6384 -9.9078 8.6660 42.4799
#
#
#
# Elastic Compliance Matrix: (Units=1/GPa)
#
#
# Indices 1 2 3 4 5 6 
#
# 1 0.014242 -0.001971 -0.000727 0.001067 0.004886 0.004003
# 2 -0.001971 0.007222 -0.004839 -0.004546 -0.001728 -0.003237
# 3 -0.000727 -0.004839 0.025640 0.010270 0.005735 0.010446
# 4 0.001067 -0.004546 0.010270 0.036386 0.012027 0.010223
# 5 0.004886 -0.001728 0.005735 0.012027 0.037204 -0.000944
# 6 0.004003 -0.003237 0.010446 0.010223 -0.000944 0.031394
#
#
# Mechanical properties :
#
#
# Convention : Reuss Voigt Hill
#
# Bulk Modulus (GPa) = 31.22180 49.70645 40.46412
# Shear Modulus (GPa) = 28.11532 38.82930 33.47231
#
# Velocity S-wave (km/s) = 3.28066 3.85540 3.57959
# Velocity P-wave (km/s) = 5.12857 6.23272 5.70741
#
# Compressibility (1/GPa) = 0.03202890
#
# Stress axis : x y z
#
# Youngs Moduli (GPa) = 70.21579 138.46951 39.00154
#
# Poissons Ratio (x) = 0.27299 0.02834
# Poissons Ratio (y) = 0.13843 0.18874
# Poissons Ratio (z) = 0.05103 0.67008
#
# Static dielectric constant tensor:
#      x y z
#    x 2.042290 0.034100 -0.021660 
#    y 0.034100 2.245730 -0.013590 
#    z -0.021660 -0.013590 2.159900 
# 
# From -- ./inp_files/557183.got.cif
#   From: 2010.05.17/outbox.cif.g08.bks.cpg/sg2_279_cif.got.tgz:557183.got - 2010.06.03 11:33:40.
