data_PCOD9087230
_publ_section_title
;
Structure prediction by ZEFSAII (Michael W. Deem and Ramdas Pophale) SiO2 
 PCOD9087230
Probable space group: P -1
;
_chemical_formula_sum "Si O2"
_cell_formula_units_Z 12
_cell_length_a 7.530199
_cell_length_b 15.996941
_cell_length_c 11.804148
_cell_angle_alpha 24.435296
_cell_angle_beta 115.399489
_cell_angle_gamma 125.700752
_cell_volume 454.952423
_symmetry_space_group_name_H-M "P -1"
_symmetry_group_IT_number 2
_symmetry_cell_setting 'triclinic'
loop_
_space_group_symop_operation_xyz
x,y,z
-x,-y,-z
loop_
_atom_site_type_symbol
_atom_site_label
_atom_site_fract_x
_atom_site_fract_y
_atom_site_fract_z
Si Si1 0.870661 0.736854 0.739324
Si Si2 0.746569 0.790705 0.284776
Si Si3 0.974678 0.288179 0.829989
Si Si4 0.460367 0.856861 0.947512
Si Si5 0.080327 0.463606 0.222971
Si Si6 0.563724 0.355029 0.392093
O O1 0.971116 0.718452 0.667661
O O2 0.612629 0.654941 0.736196
O O3 0.000000 0.000000 0.500000
O O4 0.906581 0.555741 0.047445
O O5 0.604372 0.762357 0.168141
O O6 0.880559 0.653709 0.511104
O O7 0.568532 0.712778 0.438436
O O8 0.920445 0.066752 0.012237
O O9 0.758756 0.199326 0.964418
O O10 0.000000 0.500000 0.500000
O O11 0.210472 0.396534 0.828678
O O12 0.333913 0.707127 0.985544
O O13 0.601508 0.139762 0.633846
#
# Coordination Sequence:
#
# PCOD9087230 Si02
#       6
#     2   2   2   2   2   2
#     4  10  20  40  67  86 115 166 205 242 299 362
#     4  10  20  35  60  89 127 156 192 253 299 353
#     4  11  19  35  60  92 124 163 201 233 303 369
#     4  11  19  35  61  91 126 154 193 254 300 350
#     4  10  22  37  61  96 119 151 210 248 295 359
#     4  10  19  36  62  90 117 163 204 238 299 359
#
# _framework density 26.376386
#
# number of rings (size 3 to 8) (size 9 to 14) (size 15 to 20)
#    0.000    1.667    5.000    1.500    0.000    0.000 
#    0.000    5.833    0.000    0.000    0.000    0.000 
#    0.000    0.000    0.000    0.000    0.000    0.000 
#
# Total GULP energy -67215.275121 kJ/mol
# GULP energy per Si atom -5601.272927 kJ/mol
# Density = 2.631635 g / cm^3
# Si number density = 26.376386 Si / 1000 Ang^3
#
#
#
# Elastic Constant Matrix: (Units=GPa)
#
#
# Indices 1 2 3 4 5 6 
#
# 1 80.2397 54.0355 31.7921 -5.0599 15.1779 7.8100
# 2 54.0355 222.7009 56.2387 -10.3386 28.3503 26.4939
# 3 31.7921 56.2387 116.1041 -6.0181 37.0455 12.2305
# 4 -5.0599 -10.3386 -6.0181 61.0942 4.9498 16.4194
# 5 15.1779 28.3503 37.0455 4.9498 54.3303 0.0991
# 6 7.8100 26.4939 12.2305 16.4194 0.0991 59.5116
#
#
#
# Elastic Compliance Matrix: (Units=1/GPa)
#
#
# Indices 1 2 3 4 5 6 
#
# 1 0.015739 -0.002960 -0.002365 0.000806 -0.001312 -0.000482
# 2 -0.002960 0.006100 -0.001301 0.001449 -0.001597 -0.002457
# 3 -0.002365 -0.001301 0.012606 0.002033 -0.007437 -0.002250
# 4 0.000806 0.001449 0.002033 0.018926 -0.004080 -0.006383
# 5 -0.001312 -0.001597 -0.007437 -0.004080 0.025042 0.003495
# 6 -0.000482 -0.002457 -0.002250 -0.006383 0.003495 0.020178
#
#
# Mechanical properties :
#
#
# Convention : Reuss Voigt Hill
#
# Bulk Modulus (GPa) = 47.18373 78.13081 62.65727
# Shear Modulus (GPa) = 42.04988 53.45245 47.75117
#
# Velocity S-wave (km/s) = 3.99711 4.50658 4.25947
# Velocity P-wave (km/s) = 6.26338 7.53424 6.92801
#
# Compressibility (1/GPa) = 0.02119374
#
# Stress axis : x y z
#
# Youngs Moduli (GPa) = 63.53729 163.94067 79.32791
#
# Poissons Ratio (x) = 0.48524 0.18758
# Poissons Ratio (y) = 0.18806 0.10319
# Poissons Ratio (z) = 0.15025 0.21326
#
# Static dielectric constant tensor:
#      x y z
#    x 2.167980 -0.044610 -0.036430 
#    y -0.044610 2.057860 0.000280 
#    z -0.036430 0.000280 2.075400 
# 
# From -- ./inp_files/34944.got.cif
#   From: 2010.05.17/outbox.cif.g08.bks.cpg/sg2_18_cif.got.tgz:34944.got - 2010.06.03 11:33:40.
