data_PCOD9087841
_publ_section_title
;
Structure prediction by ZEFSAII (Michael W. Deem and Ramdas Pophale) SiO2 
 PCOD9087841
Probable space group: P -1
;
_chemical_formula_sum "Si O2"
_cell_formula_units_Z 16
_cell_length_a 18.502037
_cell_length_b 11.493292
_cell_length_c 8.959162
_cell_angle_alpha 39.781833
_cell_angle_beta 100.334347
_cell_angle_gamma 75.860747
_cell_volume 953.002284
_symmetry_space_group_name_H-M "P -1"
_symmetry_group_IT_number 2
_symmetry_cell_setting 'triclinic'
loop_
_space_group_symop_operation_xyz
x,y,z
-x,-y,-z
loop_
_atom_site_type_symbol
_atom_site_label
_atom_site_fract_x
_atom_site_fract_y
_atom_site_fract_z
Si Si1 0.212245 0.505067 0.206523
Si Si2 0.974684 0.334256 0.111775
Si Si3 0.697080 0.432632 0.249716
Si Si4 0.583301 0.263951 0.336494
Si Si5 0.378140 0.160428 0.409510
Si Si6 0.877001 0.178320 0.396793
Si Si7 0.484926 0.845257 0.309127
Si Si8 0.640959 0.647429 0.341578
O O1 0.284748 0.284381 0.349584
O O2 0.267681 0.474700 0.403439
O O3 0.115984 0.542832 0.148651
O O4 0.184037 0.719636 0.879707
O O5 0.941237 0.260390 0.314182
O O6 0.059277 0.094188 0.310021
O O7 0.000000 0.500000 0.000000
O O8 0.670384 0.266717 0.364979
O O9 0.804827 0.301727 0.382251
O O10 0.665946 0.521336 0.318220
O O11 0.641013 0.653146 0.902562
O O12 0.555798 0.249358 0.508443
O O13 0.599272 0.057532 0.452208
O O14 0.500000 0.500000 0.000000
O O15 0.457618 0.108315 0.602893
O O16 0.559894 0.672992 0.383085
O O17 0.403832 0.086656 0.968411
#
# Coordination Sequence:
#
# PCOD9087841 Si02
#       8
#     2   2   2   2   2   2   2   2
#     4   8  18  35  57  81 105 145 174 225 277 326
#     4   9  17  34  63  85 104 135 179 232 272 324
#     4  11  21  34  56  80 111 151 180 233 270 323
#     4  12  22  31  56  84 103 145 201 233 263 314
#     4  10  19  37  54  77 111 143 194 233 263 305
#     4   8  19  35  56  86 106 133 186 223 274 324
#     4  10  20  36  55  76 111 155 189 230 271 317
#     4  10  20  36  55  74 119 154 176 220 290 323
#
# _framework density 16.789047
#
# number of rings (size 3 to 8) (size 9 to 14) (size 15 to 20)
#    0.750    1.500    2.500    1.125    1.750    0.500 
#    0.000    1.875    0.000    0.750    0.000    0.000 
#    0.000    0.000    0.000    0.000    0.000    0.000 
#
# Total GULP energy -89089.877024 kJ/mol
# GULP energy per Si atom -5568.117314 kJ/mol
# Density = 1.675083 g / cm^3
# Si number density = 16.789047 Si / 1000 Ang^3
#
#
#
# Elastic Constant Matrix: (Units=GPa)
#
#
# Indices 1 2 3 4 5 6 
#
# 1 52.7133 32.2970 20.4511 -13.7036 -1.1295 -4.3588
# 2 32.2970 75.4793 20.9921 -0.3771 -4.0844 -10.0074
# 3 20.4511 20.9921 68.6288 -3.5793 5.6927 1.1151
# 4 -13.7036 -0.3771 -3.5793 25.5894 1.1961 -1.6590
# 5 -1.1295 -4.0844 5.6927 1.1961 30.4893 -0.9329
# 6 -4.3588 -10.0074 1.1151 -1.6590 -0.9329 21.0332
#
#
#
# Elastic Compliance Matrix: (Units=1/GPa)
#
#
# Indices 1 2 3 4 5 6 
#
# 1 0.033206 -0.012303 -0.005285 0.017035 -0.000018 0.002651
# 2 -0.012303 0.020527 -0.003344 -0.006456 0.003387 0.007035
# 3 -0.005285 -0.003344 0.017539 -0.000487 -0.004017 -0.003833
# 4 0.017035 -0.006456 -0.000487 0.048401 -0.001913 0.004217
# 5 -0.000018 0.003387 -0.004017 -0.001913 0.034174 0.003186
# 6 0.002651 0.007035 -0.003833 0.004217 0.003186 0.052118
#
#
# Mechanical properties :
#
#
# Convention : Reuss Voigt Hill
#
# Bulk Modulus (GPa) = 34.00568 38.25573 36.13071
# Shear Modulus (GPa) = 19.40748 23.62781 21.51764
#
# Velocity S-wave (km/s) = 3.40363 3.75552 3.58389
# Velocity P-wave (km/s) = 5.97871 6.45297 6.22036
#
# Compressibility (1/GPa) = 0.02940685
#
# Stress axis : x y z
#
# Youngs Moduli (GPa) = 30.11469 48.71615 57.01537
#
# Poissons Ratio (x) = 0.59937 0.30133
# Poissons Ratio (y) = 0.37051 0.19068
# Poissons Ratio (z) = 0.15916 0.16293
#
# Static dielectric constant tensor:
#      x y z
#    x 1.594090 -0.022890 0.001850 
#    y -0.022890 1.553600 0.006190 
#    z 0.001850 0.006190 1.570770 
# 
# From -- ./inp_files/124796.got.cif
#   From: 2010.05.17/outbox.cif.g08.bks.cpg/sg2_63_cif.got.tgz:124796.got - 2010.06.03 11:33:40.
