data_PCOD9087596
_publ_section_title
;
Structure prediction by ZEFSAII (Michael W. Deem and Ramdas Pophale) SiO2 
 PCOD9087596
Probable space group: P -1
;
_chemical_formula_sum "Si O2"
_cell_formula_units_Z 16
_cell_length_a 9.068931
_cell_length_b 23.129398
_cell_length_c 8.518852
_cell_angle_alpha 127.423482
_cell_angle_beta 31.236793
_cell_angle_gamma 129.104612
_cell_volume 708.609853
_symmetry_space_group_name_H-M "P -1"
_symmetry_group_IT_number 2
_symmetry_cell_setting 'triclinic'
loop_
_space_group_symop_operation_xyz
x,y,z
-x,-y,-z
loop_
_atom_site_type_symbol
_atom_site_label
_atom_site_fract_x
_atom_site_fract_y
_atom_site_fract_z
Si Si1 0.491795 0.295833 0.610950
Si Si2 0.263470 0.542193 0.448151
Si Si3 0.113834 0.909534 0.813159
Si Si4 0.982259 0.697295 0.381313
Si Si5 0.568448 0.927584 0.166437
Si Si6 0.554315 0.776790 0.793114
Si Si7 0.993995 0.254030 0.228868
Si Si8 0.825953 0.543738 0.114187
O O1 0.532283 0.384656 0.703118
O O2 0.365703 0.252003 0.494898
O O3 0.807848 0.279186 0.304316
O O4 0.314665 0.266595 0.882098
O O5 0.505978 0.506837 0.259640
O O6 0.000000 0.500000 0.500000
O O7 0.071627 0.569181 0.799023
O O8 0.262817 0.918581 0.519592
O O9 0.131007 0.833299 0.754933
O O10 0.285717 0.986206 0.872608
O O11 0.779986 0.910689 0.084664
O O12 0.809271 0.761384 0.644141
O O13 0.040737 0.693556 0.506211
O O14 0.791278 0.616927 0.359747
O O15 0.260941 0.726353 0.062129
O O16 0.544637 0.863027 0.952801
O O17 0.000000 0.500000 0.000000
#
# Coordination Sequence:
#
# PCOD9087596 Si02
#       8
#     2   2   2   2   2   2   2   2
#     4  12  26  43  67  95 142 175 221 275 348 417
#     4  12  27  51  71 100 142 185 223 276 366 434
#     4  10  20  36  61  98 134 167 225 282 330 395
#     4  12  23  43  71  94 135 168 240 282 323 397
#     4  10  19  36  64  95 130 176 220 279 339 389
#     4  12  21  43  68  96 127 187 225 277 331 410
#     4  12  24  41  66 102 132 178 226 285 333 400
#     4  12  26  49  74 105 134 174 236 298 338 407
#
# _framework density 22.579421
#
# number of rings (size 3 to 8) (size 9 to 14) (size 15 to 20)
#    0.000    0.500    5.000    3.750    1.750    0.000 
#    0.000    1.250    0.000    0.000    0.000    0.000 
#    0.000    0.000    0.000    0.000    0.000    0.000 
#
# Total GULP energy -89309.945804 kJ/mol
# GULP energy per Si atom -5581.871613 kJ/mol
# Density = 2.252803 g / cm^3
# Si number density = 22.579421 Si / 1000 Ang^3
#
#
#
# Elastic Constant Matrix: (Units=GPa)
#
#
# Indices 1 2 3 4 5 6 
#
# 1 79.2471 46.1586 11.9651 2.4432 -8.1286 6.4548
# 2 46.1586 95.7721 21.2971 9.3762 23.4244 15.1981
# 3 11.9651 21.2971 87.0096 -5.7389 -0.7512 3.2177
# 4 2.4432 9.3762 -5.7389 32.8981 -1.6727 -0.3481
# 5 -8.1286 23.4244 -0.7512 -1.6727 44.8272 -0.7817
# 6 6.4548 15.1981 3.2177 -0.3481 -0.7817 25.6624
#
#
#
# Elastic Compliance Matrix: (Units=1/GPa)
#
#
# Indices 1 2 3 4 5 6 
#
# 1 0.021625 -0.014240 0.000700 0.003197 0.011551 0.003302
# 2 -0.014240 0.024701 -0.004322 -0.007670 -0.016042 -0.011098
# 3 0.000700 -0.004322 0.012678 0.003541 0.002746 0.000925
# 4 0.003197 -0.007670 0.003541 0.033307 0.005958 0.003927
# 5 0.011551 -0.016042 0.002746 0.005958 0.033182 0.007342
# 6 0.003302 -0.011098 0.000925 0.003927 0.007342 0.044871
#
#
# Mechanical properties :
#
#
# Convention : Reuss Voigt Hill
#
# Bulk Modulus (GPa) = 42.95485 46.76338 44.85912
# Shear Modulus (GPa) = 23.38121 32.85141 28.11631
#
# Velocity S-wave (km/s) = 3.22142 3.81849 3.53259
# Velocity P-wave (km/s) = 5.73602 6.34009 6.04561
#
# Compressibility (1/GPa) = 0.02328026
#
# Stress axis : x y z
#
# Youngs Moduli (GPa) = 46.24322 40.48348 78.87966
#
# Poissons Ratio (x) = 0.57650 -0.05524
# Poissons Ratio (y) = 0.65852 0.34090
# Poissons Ratio (z) = -0.03238 0.17496
#
# Static dielectric constant tensor:
#      x y z
#    x 1.897860 0.027250 -0.010280 
#    y 0.027250 1.856640 -0.000340 
#    z -0.010280 -0.000340 1.786500 
# 
# From -- ./inp_files/217773.got.cif
#   From: 2010.05.17/outbox.cif.g08.bks.cpg/sg2_109_cif.got.tgz:217773.got - 2010.06.03 11:33:40.
