data_PCOD9087527
_publ_section_title
;
Structure prediction by ZEFSAII (Michael W. Deem and Ramdas Pophale) SiO2 
 PCOD9087527
Probable space group: P -1
;
_chemical_formula_sum "Si O2"
_cell_formula_units_Z 16
_cell_length_a 25.318802
_cell_length_b 13.061637
_cell_length_c 7.998908
_cell_angle_alpha 124.349016
_cell_angle_beta 137.427310
_cell_angle_gamma 22.915240
_cell_volume 628.090537
_symmetry_space_group_name_H-M "P -1"
_symmetry_group_IT_number 2
_symmetry_cell_setting 'triclinic'
loop_
_space_group_symop_operation_xyz
x,y,z
-x,-y,-z
loop_
_atom_site_type_symbol
_atom_site_label
_atom_site_fract_x
_atom_site_fract_y
_atom_site_fract_z
Si Si1 0.576318 0.542868 0.632180
Si Si2 0.222775 0.431006 0.627987
Si Si3 0.668652 0.285706 0.940066
Si Si4 0.779202 0.835634 0.450141
Si Si5 0.574829 0.014263 0.881649
Si Si6 0.003364 0.363557 0.972646
Si Si7 0.918661 0.063884 0.539613
Si Si8 0.308207 0.425373 0.330939
O O1 0.692520 0.330294 0.865342
O O2 0.524978 0.504715 0.349537
O O3 0.647202 0.556564 0.709099
O O4 0.385267 0.859047 0.558345
O O5 0.218936 0.308487 0.609075
O O6 0.418137 0.214655 0.845159
O O7 0.069449 0.742270 0.637382
O O8 0.166274 0.470143 0.341801
O O9 0.826471 0.956108 0.000574
O O10 0.722358 0.286676 0.229070
O O11 0.953952 0.662978 0.760445
O O12 0.713293 0.919485 0.184123
O O13 0.469519 0.202906 0.641569
O O14 0.681666 0.732117 0.842529
O O15 0.000000 0.500000 0.000000
O O16 0.872731 0.245467 0.717856
O O17 0.000000 0.000000 0.500000
#
# Coordination Sequence:
#
# PCOD9087527 Si02
#       8
#     2   2   2   2   2   2   2   2
#     4  10  20  37  63  92 120 157 210 262 305 359
#     4  10  19  36  64  89 118 163 212 246 306 386
#     4   9  20  37  61  91 117 162 209 250 304 383
#     4  10  19  36  64  91 116 163 213 250 305 375
#     4  11  22  38  63  94 123 160 216 259 303 368
#     4   8  17  34  61  91 117 156 208 249 298 369
#     4  11  22  39  60  85 123 170 202 246 318 377
#     4  11  24  38  59  94 129 162 203 270 310 353
#
# _framework density 25.474032999999999
#
# number of rings (size 3 to 8) (size 9 to 14) (size 15 to 20)
#    0.000    2.000    2.500    1.125    0.000    0.500 
#    0.000    2.500    0.000    3.000    0.000    0.000 
#    0.000    0.000    0.000    0.000    0.000    0.000 
#
# Total GULP energy -89420.534249 kJ/mol
# GULP energy per Si atom -5588.783391 kJ/mol
# Density = 2.541605 g / cm^3
# Si number density = 25.474033 Si / 1000 Ang^3
#
#
#
# Elastic Constant Matrix: (Units=GPa)
#
#
# Indices 1 2 3 4 5 6 
#
# 1 50.7959 32.7071 -1.3533 -6.5746 -10.4791 13.7627
# 2 32.7071 156.6090 11.7150 8.4298 4.6513 12.8714
# 3 -1.3533 11.7150 149.3191 8.3214 4.5811 -6.4025
# 4 -6.5746 8.4298 8.3214 27.4961 5.8114 -3.2061
# 5 -10.4791 4.6513 4.5811 5.8114 15.0198 0.4887
# 6 13.7627 12.8714 -6.4025 -3.2061 0.4887 44.9202
#
#
#
# Elastic Compliance Matrix: (Units=1/GPa)
#
#
# Indices 1 2 3 4 5 6 
#
# 1 0.031338 -0.006772 -0.000436 0.003986 0.022802 -0.007687
# 2 -0.006772 0.008196 -0.000383 -0.002791 -0.006051 -0.000462
# 3 -0.000436 -0.000383 0.006913 -0.001583 -0.001718 0.001134
# 4 0.003986 -0.002791 -0.001583 0.041478 -0.012000 0.002444
# 5 0.022802 -0.006051 -0.001718 -0.012000 0.089767 -0.007330
# 6 -0.007687 -0.000462 0.001134 0.002444 -0.007330 0.025165
#
#
# Mechanical properties :
#
#
# Convention : Reuss Voigt Hill
#
# Bulk Modulus (GPa) = 31.98492 49.20685 40.59589
# Shear Modulus (GPa) = 21.88559 38.39757 30.14158
#
# Velocity S-wave (km/s) = 2.93428 3.88664 3.44354
# Velocity P-wave (km/s) = 4.90542 6.28488 5.63750
#
# Compressibility (1/GPa) = 0.03126473
#
# Stress axis : x y z
#
# Youngs Moduli (GPa) = 31.90997 122.00716 144.66002
#
# Poissons Ratio (x) = 0.82626 0.06306
# Poissons Ratio (y) = 0.21610 0.05541
# Poissons Ratio (z) = 0.01391 0.04673
#
# Static dielectric constant tensor:
#      x y z
#    x 1.980090 0.016260 -0.004200 
#    y 0.016260 1.982820 0.017400 
#    z -0.004200 0.017400 2.161960 
# 
# From -- ./inp_files/358870.got.cif
#   From: 2010.05.17/outbox.cif.g08.bks.cpg/sg2_180_cif.got.tgz:358870.got - 2010.06.03 11:33:40.
