data_PCOD9087045
_publ_section_title
;
Structure prediction by ZEFSAII (Michael W. Deem and Ramdas Pophale) SiO2 
 PCOD9087045
Probable space group: P -1
;
_chemical_formula_sum "Si O2"
_cell_formula_units_Z 14
_cell_length_a 9.159398
_cell_length_b 13.981608
_cell_length_c 9.113145
_cell_angle_alpha 131.625051
_cell_angle_beta 120.091264
_cell_angle_gamma 95.397009
_cell_volume 566.823713
_symmetry_space_group_name_H-M "P -1"
_symmetry_group_IT_number 2
_symmetry_cell_setting 'triclinic'
loop_
_space_group_symop_operation_xyz
x,y,z
-x,-y,-z
loop_
_atom_site_type_symbol
_atom_site_label
_atom_site_fract_x
_atom_site_fract_y
_atom_site_fract_z
Si Si1 0.166349 0.164853 0.041703
Si Si2 0.819051 0.565781 0.855555
Si Si3 0.945050 0.446910 0.252938
Si Si4 0.794047 0.625426 0.214063
Si Si5 0.688767 0.019014 0.208981
Si Si6 0.692188 0.173000 0.641902
Si Si7 0.697178 0.816770 0.538839
O O1 0.194829 0.311583 0.120896
O O2 0.299638 0.122497 0.977012
O O3 0.241143 0.201635 0.286116
O O4 0.905823 0.995762 0.751046
O O5 0.698662 0.537258 0.916439
O O6 0.072676 0.662768 0.141533
O O7 0.821203 0.457139 0.623007
O O8 0.815797 0.506249 0.193134
O O9 0.000000 0.500000 0.500000
O O10 0.785922 0.242268 0.926994
O O11 0.666147 0.678925 0.278733
O O12 0.055493 0.806618 0.521052
O O13 0.648037 0.026964 0.370594
O O14 0.500000 0.000000 0.000000
O O15 0.493296 0.172343 0.525694
#
# Coordination Sequence:
#
# PCOD9087045 Si02
#       7
#     2   2   2   2   2   2   2
#     4  10  20  36  60  87 126 153 193 235 298 358
#     4   9  21  38  58  87 111 162 194 242 289 348
#     4  10  21  41  62  84 116 156 206 244 288 346
#     4  10  21  37  63  83 119 159 194 240 300 345
#     4  10  19  36  61  90 119 158 189 239 293 356
#     4   9  21  36  60  90 114 157 196 239 292 345
#     4  10  20  35  59  91 118 156 190 240 299 347
#
# _framework density 24.699038000000002
#
# number of rings (size 3 to 8) (size 9 to 14) (size 15 to 20)
#    0.857    1.429    1.429    1.286    0.000    6.286 
#    0.000    2.857    0.000    2.571    0.000    0.000 
#    0.000    0.000    0.000    0.000    0.000    0.000 
#
# Total GULP energy -78011.850071 kJ/mol
# GULP energy per Si atom -5572.275005 kJ/mol
# Density = 2.464282 g / cm^3
# Si number density = 24.699038 Si / 1000 Ang^3
#
#
#
# Elastic Constant Matrix: (Units=GPa)
#
#
# Indices 1 2 3 4 5 6 
#
# 1 191.5536 40.1501 39.3370 -6.6751 -27.7282 -11.8873
# 2 40.1501 90.0496 21.1667 -23.2855 -11.8755 -1.9324
# 3 39.3370 21.1667 61.8148 -17.2638 -17.1886 12.1228
# 4 -6.6751 -23.2855 -17.2638 29.8115 16.3962 -9.7449
# 5 -27.7282 -11.8755 -17.1886 16.3962 56.0002 -7.4539
# 6 -11.8873 -1.9324 12.1228 -9.7449 -7.4539 34.4609
#
#
#
# Elastic Compliance Matrix: (Units=1/GPa)
#
#
# Indices 1 2 3 4 5 6 
#
# 1 0.007265 -0.002602 -0.004569 -0.003616 0.003185 0.003634
# 2 -0.002602 0.015849 -0.001297 0.013224 -0.001689 0.003821
# 3 -0.004569 -0.001297 0.023714 0.008632 0.001245 -0.007281
# 4 -0.003616 0.013224 0.008632 0.057991 -0.011949 0.010272
# 5 0.003185 -0.001689 0.001245 -0.011949 0.023252 0.002217
# 6 0.003634 0.003821 -0.007281 0.010272 0.002217 0.036432
#
#
# Mechanical properties :
#
#
# Convention : Reuss Voigt Hill
#
# Bulk Modulus (GPa) = 33.45426 60.52509 46.98968
# Shear Modulus (GPa) = 26.12314 40.23880 33.18097
#
# Velocity S-wave (km/s) = 3.25569 4.04067 3.66923
# Velocity P-wave (km/s) = 5.26373 6.80644 6.08418
#
# Compressibility (1/GPa) = 0.02989156
#
# Stress axis : x y z
#
# Youngs Moduli (GPa) = 137.65226 63.09635 42.16985
#
# Poissons Ratio (x) = 0.16418 0.19266
# Poissons Ratio (y) = 0.35818 0.05469
# Poissons Ratio (z) = 0.62890 0.08183
#
# Static dielectric constant tensor:
#      x y z
#    x 2.029960 0.106990 0.027180 
#    y 0.106990 1.987480 0.044120 
#    z 0.027180 0.044120 2.082600 
# 
# From -- ./inp_files/171816.got.cif
#   From: 2010.05.17/outbox.cif.g08.bks.cpg/sg2_86_cif.got.tgz:171816.got - 2010.06.03 11:33:40.
