data_PCOD9087552
_publ_section_title
;
Structure prediction by ZEFSAII (Michael W. Deem and Ramdas Pophale) SiO2 
 PCOD9087552
Probable space group: P -1
;
_chemical_formula_sum "Si O2"
_cell_formula_units_Z 16
_cell_length_a 23.239580
_cell_length_b 5.692374
_cell_length_c 9.322930
_cell_angle_alpha 112.878561
_cell_angle_beta 45.226124
_cell_angle_gamma 123.934392
_cell_volume 726.379365
_symmetry_space_group_name_H-M "P -1"
_symmetry_group_IT_number 2
_symmetry_cell_setting 'triclinic'
loop_
_space_group_symop_operation_xyz
x,y,z
-x,-y,-z
loop_
_atom_site_type_symbol
_atom_site_label
_atom_site_fract_x
_atom_site_fract_y
_atom_site_fract_z
Si Si1 0.974847 0.374193 0.671372
Si Si2 0.886381 0.537290 0.086187
Si Si3 0.213355 0.151837 0.834320
Si Si4 0.774175 0.893694 0.882293
Si Si5 0.387073 0.163731 0.009468
Si Si6 0.865879 0.630244 0.460769
Si Si7 0.557848 0.212155 0.825093
Si Si8 0.708419 0.060747 0.576290
O O1 0.000000 0.500000 0.500000
O O2 0.045910 0.260280 0.570322
O O3 0.870018 0.162749 0.792460
O O4 0.975000 0.573218 0.851789
O O5 0.839648 0.679208 0.096602
O O6 0.895046 0.692404 0.259629
O O7 0.836706 0.196397 0.134273
O O8 0.285118 0.178866 0.591118
O O9 0.243338 0.260673 0.969464
O O10 0.687917 0.944549 0.007089
O O11 0.795753 0.736937 0.673871
O O12 0.412546 0.487593 0.079969
O O13 0.338820 0.014919 0.205675
O O14 0.483220 0.157938 0.820344
O O15 0.808622 0.292501 0.490753
O O16 0.647280 0.178198 0.623084
O O17 0.500000 0.000000 0.000000
#
# Coordination Sequence:
#
# PCOD9087552 Si02
#       8
#     2   2   2   2   2   2   2   2
#     4  11  23  39  59  93 133 170 209 262 316 370
#     4  10  23  43  61  90 124 172 219 262 303 369
#     4  10  23  40  63  91 130 164 208 262 320 368
#     4  11  22  39  60  94 125 168 204 261 321 372
#     4  10  19  36  64  91 121 160 206 258 308 378
#     4  11  21  38  63  92 123 171 220 257 305 371
#     4   9  19  36  61  94 120 151 210 258 308 367
#     4  10  20  37  63  91 120 166 210 260 304 371
#
# _framework density 22.027059000000001
#
# number of rings (size 3 to 8) (size 9 to 14) (size 15 to 20)
#    0.000    1.750    1.250    3.000    1.750    3.000 
#    0.000    6.250    0.000    6.750    0.000    0.000 
#    0.000    0.000    0.000    0.000    0.000    0.000 
#
# Total GULP energy -89104.753729 kJ/mol
# GULP energy per Si atom -5569.047108 kJ/mol
# Density = 2.197692 g / cm^3
# Si number density = 22.027059 Si / 1000 Ang^3
#
#
#
# Elastic Constant Matrix: (Units=GPa)
#
#
# Indices 1 2 3 4 5 6 
#
# 1 150.5539 24.8580 24.7356 -16.1839 -16.6690 -0.5113
# 2 24.8580 37.8641 -1.8087 -7.4982 -5.9455 0.4506
# 3 24.7356 -1.8087 46.7677 13.7395 13.0565 6.0395
# 4 -16.1839 -7.4982 13.7395 23.7758 -4.4356 -7.1813
# 5 -16.6690 -5.9455 13.0565 -4.4356 50.3375 -0.9010
# 6 -0.5113 0.4506 6.0395 -7.1813 -0.9010 29.6367
#
#
#
# Elastic Compliance Matrix: (Units=1/GPa)
#
#
# Indices 1 2 3 4 5 6 
#
# 1 0.015081 -0.003682 -0.021127 0.027172 0.012641 0.011590
# 2 -0.003682 0.031070 -0.000655 0.008871 0.003435 0.001851
# 3 -0.021127 -0.000655 0.064545 -0.066774 -0.030247 -0.030608
# 4 0.027172 0.008871 -0.066774 0.122768 0.038987 0.044875
# 5 0.012641 0.003435 -0.030247 0.038987 0.036040 0.016872
# 6 0.011590 0.001851 -0.030608 0.044875 0.016872 0.051538
#
#
# Mechanical properties :
#
#
# Convention : Reuss Voigt Hill
#
# Bulk Modulus (GPa) = 16.73147 36.75062 26.74105
# Shear Modulus (GPa) = 12.75855 33.24340 23.00097
#
# Velocity S-wave (km/s) = 2.40931 3.88907 3.23494
# Velocity P-wave (km/s) = 3.91817 6.07346 5.11073
#
# Compressibility (1/GPa) = 0.05976759
#
# Stress axis : x y z
#
# Youngs Moduli (GPa) = 66.30824 32.18502 15.49302
#
# Poissons Ratio (x) = 0.11851 0.32732
# Poissons Ratio (y) = 0.24416 0.01015
# Poissons Ratio (z) = 1.40091 0.02108
#
# Static dielectric constant tensor:
#      x y z
#    x 1.890740 -0.025040 0.037160 
#    y -0.025040 1.988680 0.003960 
#    z 0.037160 0.003960 1.895500 
# 
# From -- ./inp_files/39287.got.cif
#   From: 2010.05.17/outbox.cif.g08.bks.cpg/sg2_20_cif.got.tgz:39287.got - 2010.06.03 11:33:40.
