data_PCOD9087812
_publ_section_title
;
Structure prediction by ZEFSAII (Michael W. Deem and Ramdas Pophale) SiO2 
 PCOD9087812
Probable space group: P -1
;
_chemical_formula_sum "Si O2"
_cell_formula_units_Z 12
_cell_length_a 8.189663
_cell_length_b 8.236196
_cell_length_c 14.059947
_cell_angle_alpha 147.776888
_cell_angle_beta 103.314271
_cell_angle_gamma 86.254936
_cell_volume 476.520760
_symmetry_space_group_name_H-M "P -1"
_symmetry_group_IT_number 2
_symmetry_cell_setting 'triclinic'
loop_
_space_group_symop_operation_xyz
x,y,z
-x,-y,-z
loop_
_atom_site_type_symbol
_atom_site_label
_atom_site_fract_x
_atom_site_fract_y
_atom_site_fract_z
Si Si1 0.860482 0.202444 0.088047
Si Si2 0.136627 0.810796 0.142668
Si Si3 0.532781 0.728702 0.781514
Si Si4 0.321554 0.851667 0.460591
Si Si5 0.509622 0.856913 0.200319
Si Si6 0.843694 0.747024 0.482426
O O1 0.925758 0.508753 0.314347
O O2 0.838625 0.243129 0.992621
O O3 0.665508 0.006465 0.997629
O O4 0.000000 0.000000 0.000000
O O5 0.329760 0.844138 0.223451
O O6 0.089688 0.115561 0.336179
O O7 0.000000 0.500000 0.000000
O O8 0.664205 0.495639 0.681002
O O9 0.352316 0.474069 0.648662
O O10 0.489347 0.907356 0.770056
O O11 0.500000 0.000000 0.500000
O O12 0.332975 0.026624 0.649549
O O13 0.169733 0.945172 0.427270
O O14 0.500000 0.500000 0.000000
#
# Coordination Sequence:
#
# PCOD9087812 Si02
#       6
#     2   2   2   2   2   2
#     4  11  27  45  67 102 137 180 229 280 346 408
#     4  11  26  45  66  97 142 178 229 281 339 408
#     4  10  22  42  72  99 137 172 231 286 330 410
#     4  10  19  36  69  95 127 173 221 277 333 389
#     4  11  22  41  67 103 134 174 228 283 340 402
#     4  11  24  47  71 101 134 184 231 280 343 402
#
# _framework density 25.182535999999999
#
# number of rings (size 3 to 8) (size 9 to 14) (size 15 to 20)
#    0.000    1.333    3.333    3.000    4.667    4.000 
#    3.000    0.000    0.000    0.000    0.000    0.000 
#    0.000    0.000    0.000    0.000    0.000    0.000 
#
# Total GULP energy -66847.450494 kJ/mol
# GULP energy per Si atom -5570.620874 kJ/mol
# Density = 2.512522 g / cm^3
# Si number density = 25.182536 Si / 1000 Ang^3
#
#
#
# Elastic Constant Matrix: (Units=GPa)
#
#
# Indices 1 2 3 4 5 6 
#
# 1 55.7564 16.8726 -8.8661 13.9607 3.8849 17.2290
# 2 16.8726 78.9467 22.1884 20.6374 -14.2483 -15.7748
# 3 -8.8661 22.1884 180.5531 3.5521 -28.2928 9.8208
# 4 13.9607 20.6374 3.5521 33.4410 -2.5037 1.9879
# 5 3.8849 -14.2483 -28.2928 -2.5037 40.9547 9.6216
# 6 17.2290 -15.7748 9.8208 1.9879 9.6216 25.7107
#
#
#
# Elastic Compliance Matrix: (Units=1/GPa)
#
#
# Indices 1 2 3 4 5 6 
#
# 1 0.035361 -0.014876 0.006272 -0.003770 0.004143 -0.036477
# 2 -0.014876 0.025902 -0.005407 -0.010990 -0.000817 0.029082
# 3 0.006272 -0.005407 0.008194 0.001101 0.006331 -0.013105
# 4 -0.003770 -0.010990 0.001101 0.038752 0.001598 -0.008232
# 5 0.004143 -0.000817 0.006331 0.001598 0.032429 -0.017955
# 6 -0.036477 0.029082 -0.013105 -0.008232 -0.017955 0.093543
#
#
# Mechanical properties :
#
#
# Convention : Reuss Voigt Hill
#
# Bulk Modulus (GPa) = 24.13415 41.73844 32.93630
# Shear Modulus (GPa) = 18.11490 39.02537 28.57013
#
# Velocity S-wave (km/s) = 2.68497 3.94089 3.37192
# Velocity P-wave (km/s) = 4.38367 6.10883 5.31669
#
# Compressibility (1/GPa) = 0.04143506
#
# Stress axis : x y z
#
# Youngs Moduli (GPa) = 28.27967 38.60641 122.03731
#
# Poissons Ratio (x) = 0.57431 -0.76541
# Poissons Ratio (y) = 0.42069 0.65990
# Poissons Ratio (z) = -0.17737 0.20876
#
# Static dielectric constant tensor:
#      x y z
#    x 2.132740 0.166280 -0.113600 
#    y 0.166280 2.093340 -0.333490 
#    z -0.113600 -0.333490 2.477680 
# 
# From -- ./inp_files/234945.got.cif
#   From: 2010.05.17/outbox.cif.g08.bks.cpg/sg2_118_cif.got.tgz:234945.got - 2010.06.03 11:33:40.
