data_PCOD9087321
_publ_section_title
;
Structure prediction by ZEFSAII (Michael W. Deem and Ramdas Pophale) SiO2 
 PCOD9087321
Probable space group: P -1
;
_chemical_formula_sum "Si O2"
_cell_formula_units_Z 14
_cell_length_a 10.937187
_cell_length_b 8.835372
_cell_length_c 10.197857
_cell_angle_alpha 61.633041
_cell_angle_beta 70.949104
_cell_angle_gamma 107.814074
_cell_volume 682.207331
_symmetry_space_group_name_H-M "P -1"
_symmetry_group_IT_number 2
_symmetry_cell_setting 'triclinic'
loop_
_space_group_symop_operation_xyz
x,y,z
-x,-y,-z
loop_
_atom_site_type_symbol
_atom_site_label
_atom_site_fract_x
_atom_site_fract_y
_atom_site_fract_z
Si Si1 0.834855 0.914530 0.032248
Si Si2 0.571433 0.527554 0.193848
Si Si3 0.888741 0.299715 0.258020
Si Si4 0.164346 0.713230 0.021315
Si Si5 0.835617 0.779494 0.812181
Si Si6 0.336493 0.105101 0.353789
Si Si7 0.455662 0.797860 0.016364
O O1 0.703058 0.670388 0.196127
O O2 0.859331 0.935110 0.857710
O O3 0.787344 0.060191 0.048478
O O4 0.000000 0.000000 0.000000
O O5 0.450956 0.284321 0.342710
O O6 0.485703 0.645432 0.149144
O O7 0.677355 0.575169 0.006879
O O8 0.984689 0.531638 0.185708
O O9 0.021935 0.247779 0.224988
O O10 0.750186 0.121801 0.464012
O O11 0.827865 0.297626 0.134491
O O12 0.278783 0.680870 0.078681
O O13 0.791247 0.847760 0.668695
O O14 0.434693 0.129766 0.180332
O O15 0.500000 0.000000 0.000000
#
# Coordination Sequence:
#
# PCOD9087321 Si02
#       7
#     2   2   2   2   2   2   2
#     4  10  19  36  63  81 107 147 198 225 274 349
#     4   9  19  35  62  85 106 151 185 236 274 334
#     4  11  23  35  59  84 116 153 184 244 274 334
#     4  11  21  39  57  82 115 155 193 220 294 338
#     4   9  18  36  61  82 108 152 188 231 279 333
#     4  11  21  37  57  90 115 141 199 232 281 328
#     4  11  20  37  62  84 116 151 185 232 284 342
#
# _framework density 20.521623000000002
#
# number of rings (size 3 to 8) (size 9 to 14) (size 15 to 20)
#    0.857    0.857    2.857    3.857    0.000    0.571 
#    0.000    5.000    0.000    0.000    0.000    0.000 
#    0.000    0.000    0.000    0.000    0.000    0.000 
#
# Total GULP energy -78032.344650 kJ/mol
# GULP energy per Si atom -5573.738904 kJ/mol
# Density = 2.047491 g / cm^3
# Si number density = 20.521623 Si / 1000 Ang^3
#
#
#
# Elastic Constant Matrix: (Units=GPa)
#
#
# Indices 1 2 3 4 5 6 
#
# 1 78.3806 15.7400 -5.6023 -1.6813 -9.2610 26.9941
# 2 15.7400 109.2523 10.1969 -22.2877 -10.8439 19.9501
# 3 -5.6023 10.1969 70.1580 -25.0883 -4.8079 18.3854
# 4 -1.6813 -22.2877 -25.0883 16.4155 1.7506 -11.3511
# 5 -9.2610 -10.8439 -4.8079 1.7506 12.1311 -3.5805
# 6 26.9941 19.9501 18.3854 -11.3511 -3.5805 37.1616
#
#
#
# Elastic Compliance Matrix: (Units=1/GPa)
#
#
# Indices 1 2 3 4 5 6 
#
# 1 0.020991 0.001492 0.008092 0.002637 0.014929 -0.017808
# 2 0.001492 0.019296 0.016111 0.046742 0.016995 -0.003499
# 3 0.008092 0.016111 0.047523 0.086287 0.024202 -0.009350
# 4 0.002637 0.046742 0.086287 0.261856 0.044506 0.014574
# 5 0.014929 0.016995 0.024202 0.044506 0.109900 -0.007758
# 6 -0.017808 -0.003499 -0.009350 0.014574 -0.007758 0.050054
#
#
# Mechanical properties :
#
#
# Convention : Reuss Voigt Hill
#
# Bulk Modulus (GPa) = 7.18392 33.16224 20.17308
# Shear Modulus (GPa) = 9.90827 28.97207 19.44017
#
# Velocity S-wave (km/s) = 2.19970 3.76145 3.08117
# Velocity P-wave (km/s) = 3.15592 5.92110 4.74443
#
# Compressibility (1/GPa) = 0.13919968
#
# Stress axis : x y z
#
# Youngs Moduli (GPa) = 47.64036 51.82542 21.04249
#
# Poissons Ratio (x) = -0.07734 -0.17028
# Poissons Ratio (y) = -0.07109 -0.33901
# Poissons Ratio (z) = -0.38551 -0.83496
#
# Static dielectric constant tensor:
#      x y z
#    x 1.803760 -0.021670 -0.007940 
#    y -0.021670 1.818340 -0.019270 
#    z -0.007940 -0.019270 1.721500 
# 
# From -- ./inp_files/416541.got.cif
#   From: 2010.05.17/outbox.cif.g08.bks.cpg/sg2_209_cif.got.tgz:416541.got - 2010.06.03 11:33:40.
