data_PCOD9087877
_publ_section_title
;
Structure prediction by ZEFSAII (Michael W. Deem and Ramdas Pophale) SiO2 
 PCOD9087877
Probable space group: P -1
;
_chemical_formula_sum "Si O2"
_cell_formula_units_Z 14
_cell_length_a 10.429117
_cell_length_b 5.320595
_cell_length_c 21.954539
_cell_angle_alpha 105.182773
_cell_angle_beta 148.821506
_cell_angle_gamma 70.739298
_cell_volume 594.872703
_symmetry_space_group_name_H-M "P -1"
_symmetry_group_IT_number 2
_symmetry_cell_setting 'triclinic'
loop_
_space_group_symop_operation_xyz
x,y,z
-x,-y,-z
loop_
_atom_site_type_symbol
_atom_site_label
_atom_site_fract_x
_atom_site_fract_y
_atom_site_fract_z
Si Si1 0.345845 0.239498 0.303583
Si Si2 0.061867 0.275575 0.942758
Si Si3 0.775156 0.482574 0.327847
Si Si4 0.817185 0.199241 0.118090
Si Si5 0.656809 0.691890 0.428479
Si Si6 0.653755 0.780756 0.833541
Si Si7 0.508543 0.549412 0.106172
O O1 0.495962 0.476117 0.370830
O O2 0.326753 0.117547 0.219969
O O3 0.057225 0.336601 0.214681
O O4 0.502660 0.994821 0.390883
O O5 0.801194 0.468994 0.866055
O O6 0.060709 0.099846 0.871537
O O7 0.189727 0.111043 0.043209
O O8 0.255848 0.465341 0.020463
O O9 0.731444 0.641967 0.383865
O O10 0.625420 0.243392 0.261678
O O11 0.645350 0.641227 0.225961
O O12 0.072184 0.372687 0.432328
O O13 0.697304 0.285070 0.139648
O O14 0.583705 0.275458 0.979840
#
# Coordination Sequence:
#
# PCOD9087877 Si02
#       7
#     2   2   2   2   2   2   2
#     4  11  22  40  62  90 122 159 203 251 306 363
#     4  10  19  37  55  89 124 158 195 247 307 374
#     4   9  20  40  60  87 121 154 204 252 305 361
#     4  11  22  35  61  86 122 163 202 245 304 367
#     4  10  23  41  66  88 121 160 203 259 308 351
#     4   9  19  34  60  89 121 154 197 249 312 360
#     4  10  22  39  56  89 121 160 204 247 302 366
#
# _framework density 23.534448000000001
#
# number of rings (size 3 to 8) (size 9 to 14) (size 15 to 20)
#    0.000    2.000    1.429    2.143    2.000    5.714 
#    2.571    1.429    0.000    0.000    0.000    0.000 
#    0.000    0.000    0.000    0.000    0.000    0.000 
#
# Total GULP energy -78192.849880 kJ/mol
# GULP energy per Si atom -5585.203563 kJ/mol
# Density = 2.348088 g / cm^3
# Si number density = 23.534448 Si / 1000 Ang^3
#
#
#
# Elastic Constant Matrix: (Units=GPa)
#
#
# Indices 1 2 3 4 5 6 
#
# 1 47.4406 22.9104 22.5175 3.2764 14.6608 -5.9435
# 2 22.9104 75.6717 9.8715 -3.4770 10.1297 1.6132
# 3 22.5175 9.8715 127.6339 -8.5766 24.7731 13.6646
# 4 3.2764 -3.4770 -8.5766 23.0955 0.5282 -6.2484
# 5 14.6608 10.1297 24.7731 0.5282 27.3059 -4.0875
# 6 -5.9435 1.6132 13.6646 -6.2484 -4.0875 23.5791
#
#
#
# Elastic Compliance Matrix: (Units=1/GPa)
#
#
# Indices 1 2 3 4 5 6 
#
# 1 0.031032 -0.008103 -0.004445 -0.004857 -0.008297 0.008227
# 2 -0.008103 0.016189 0.001511 0.003200 -0.003658 -0.003812
# 3 -0.004445 0.001511 0.011620 0.002992 -0.010109 -0.008917
# 4 -0.004857 0.003200 0.002992 0.048154 -0.000811 0.009443
# 5 -0.008297 -0.003658 -0.010109 -0.000811 0.053581 0.013091
# 6 0.008227 -0.003812 -0.008917 0.009443 0.013091 0.054684
#
#
# Mechanical properties :
#
#
# Convention : Reuss Voigt Hill
#
# Bulk Modulus (GPa) = 27.19851 40.14943 33.67397
# Shear Modulus (GPa) = 20.03276 27.82589 23.92933
#
# Velocity S-wave (km/s) = 2.92072 3.44226 3.19216
# Velocity P-wave (km/s) = 4.79125 5.73548 5.28450
#
# Compressibility (1/GPa) = 0.03676672
#
# Stress axis : x y z
#
# Youngs Moduli (GPa) = 32.22436 61.76926 86.05785
#
# Poissons Ratio (x) = 0.50054 0.38251
# Poissons Ratio (y) = 0.26113 -0.13000
# Poissons Ratio (z) = 0.14323 -0.09331
#
# Static dielectric constant tensor:
#      x y z
#    x 1.890010 0.005380 -0.048730 
#    y 0.005380 1.968350 -0.028480 
#    z -0.048730 -0.028480 1.938610 
# 
# From -- ./inp_files/542033.got.cif
#   From: 2010.05.17/outbox.cif.g08.bks.cpg/sg2_272_cif.got.tgz:542033.got - 2010.06.03 11:33:40.
