data_PCOD9088425
_publ_section_title
;
Structure prediction by ZEFSAII (Michael W. Deem and Ramdas Pophale) SiO2 
 PCOD9088425
Probable space group: P -1
;
_chemical_formula_sum "Si O2"
_cell_formula_units_Z 14
_cell_length_a 9.311446
_cell_length_b 7.131005
_cell_length_c 12.005261
_cell_angle_alpha 89.047419
_cell_angle_beta 59.765883
_cell_angle_gamma 91.073832
_cell_volume 688.282442
_symmetry_space_group_name_H-M "P -1"
_symmetry_group_IT_number 2
_symmetry_cell_setting 'triclinic'
loop_
_space_group_symop_operation_xyz
x,y,z
-x,-y,-z
loop_
_atom_site_type_symbol
_atom_site_label
_atom_site_fract_x
_atom_site_fract_y
_atom_site_fract_z
Si Si1 0.881098 0.500418 0.687185
Si Si2 0.808745 0.235089 0.399760
Si Si3 0.231050 0.501782 0.797541
Si Si4 0.133732 0.633490 0.077534
Si Si5 0.410926 0.659167 0.314675
Si Si6 0.344678 0.920788 0.128784
Si Si7 0.030692 0.939893 0.362519
O O1 0.826104 0.514607 0.838179
O O2 0.723941 0.505871 0.666632
O O3 0.947013 0.284660 0.652667
O O4 0.034975 0.642602 0.610834
O O5 0.766615 0.341098 0.301549
O O6 0.666119 0.240607 0.548545
O O7 0.878239 0.028644 0.355784
O O8 0.406741 0.405770 0.729570
O O9 0.066878 0.367736 0.844668
O O10 0.199297 0.584200 0.931587
O O11 0.228884 0.817455 0.082547
O O12 0.411595 0.786706 0.201981
O O13 0.204886 0.033663 0.248810
O O14 0.500000 0.000000 0.000000
O O15 0.000000 0.000000 0.500000
#
# Coordination Sequence:
#
# PCOD9088425 Si02
#       7
#     2   2   2   2   2   2   2
#     4   9  20  36  61  88 113 156 207 252 294 349
#     4  11  20  37  61  88 120 164 198 243 311 361
#     4  10  20  35  60  85 121 161 195 243 306 373
#     4   8  19  39  54  82 119 157 202 237 297 367
#     4  10  20  35  57  87 120 150 205 257 288 357
#     4  10  22  39  61  90 118 156 207 260 299 344
#     4  10  19  37  61  86 118 152 200 250 295 356
#
# _framework density 20.340488000000001
#
# number of rings (size 3 to 8) (size 9 to 14) (size 15 to 20)
#    0.000    2.571    2.857    0.857    0.000    6.857 
#    0.000    7.857    0.000    9.429    0.000    0.000 
#    0.000    0.000    0.000    0.000    0.000    0.000 
#
# Total GULP energy -77980.862428 kJ/mol
# GULP energy per Si atom -5570.061602 kJ/mol
# Density = 2.029419 g / cm^3
# Si number density = 20.340488 Si / 1000 Ang^3
#
#
#
# Elastic Constant Matrix: (Units=GPa)
#
#
# Indices 1 2 3 4 5 6 
#
# 1 87.2131 24.6493 44.9901 2.9440 -11.7018 -23.7204
# 2 24.6493 49.3943 29.5104 -1.7382 -3.1288 -10.8480
# 3 44.9901 29.5104 160.7210 -8.6605 -2.7086 -3.1189
# 4 2.9440 -1.7382 -8.6605 15.0431 -4.0253 0.7543
# 5 -11.7018 -3.1288 -2.7086 -4.0253 37.2019 1.4181
# 6 -23.7204 -10.8480 -3.1189 0.7543 1.4181 31.7599
#
#
#
# Elastic Compliance Matrix: (Units=1/GPa)
#
#
# Indices 1 2 3 4 5 6 
#
# 1 0.019169 -0.004004 -0.004664 -0.006404 0.004186 0.012457
# 2 -0.004004 0.025520 -0.003359 0.001698 0.000623 0.005328
# 3 -0.004664 -0.003359 0.008354 0.005422 -0.000405 -0.003921
# 4 -0.006404 0.001698 0.005422 0.073113 0.006652 -0.005704
# 5 0.004186 0.000623 -0.000405 0.006652 0.028869 0.001852
# 6 0.012457 0.005328 -0.003921 -0.005704 0.001852 0.042277
#
#
# Mechanical properties :
#
#
# Convention : Reuss Voigt Hill
#
# Bulk Modulus (GPa) = 34.49705 55.06979 44.78342
# Shear Modulus (GPa) = 21.64321 30.01287 25.82804
#
# Velocity S-wave (km/s) = 3.26551 3.84542 3.56727
# Velocity P-wave (km/s) = 5.58701 6.84464 6.24755
#
# Compressibility (1/GPa) = 0.02898799
#
# Stress axis : x y z
#
# Youngs Moduli (GPa) = 52.16629 39.18496 119.71014
#
# Poissons Ratio (x) = 0.15691 0.55828
# Poissons Ratio (y) = 0.20890 0.40216
# Poissons Ratio (z) = 0.24328 0.13164
#
# Static dielectric constant tensor:
#      x y z
#    x 1.734510 0.002510 0.007130 
#    y 0.002510 1.793660 -0.015370 
#    z 0.007130 -0.015370 1.765230 
# 
# From -- ./inp_files/376294.got.cif
#   From: 2010.05.17/outbox.cif.g08.bks.cpg/sg2_189_cif.got.tgz:376294.got - 2010.06.03 11:33:40.
