data_PCOD9088193
_publ_section_title
;
Structure prediction by ZEFSAII (Michael W. Deem and Ramdas Pophale) SiO2 
 PCOD9088193
Probable space group: P -1
;
_chemical_formula_sum "Si O2"
_cell_formula_units_Z 16
_cell_length_a 14.550506
_cell_length_b 9.904419
_cell_length_c 6.328893
_cell_angle_alpha 103.274606
_cell_angle_beta 75.677996
_cell_angle_gamma 53.771594
_cell_volume 625.064327
_symmetry_space_group_name_H-M "P -1"
_symmetry_group_IT_number 2
_symmetry_cell_setting 'triclinic'
loop_
_space_group_symop_operation_xyz
x,y,z
-x,-y,-z
loop_
_atom_site_type_symbol
_atom_site_label
_atom_site_fract_x
_atom_site_fract_y
_atom_site_fract_z
Si Si1 0.509040 0.888835 0.751923
Si Si2 0.091556 0.720064 0.534761
Si Si3 0.957097 0.920442 0.287596
Si Si4 0.633674 0.500419 0.495293
Si Si5 0.743059 0.997643 0.679699
Si Si6 0.108531 0.233446 0.094641
Si Si7 0.727959 0.783615 0.296408
Si Si8 0.518776 0.375363 0.756192
O O1 0.522035 0.713126 0.731153
O O2 0.642244 0.771118 0.493269
O O3 0.389265 0.040712 0.720777
O O4 0.500000 0.000000 0.000000
O O5 0.232919 0.586172 0.506896
O O6 0.076606 0.744201 0.298758
O O7 0.015964 0.660914 0.643641
O O8 0.028820 0.931894 0.719171
O O9 0.833582 0.031547 0.559131
O O10 0.923247 0.852897 0.091902
O O11 0.608310 0.367819 0.533874
O O12 0.611710 0.526550 0.264301
O O13 0.598715 0.168400 0.733567
O O14 0.773241 0.936387 0.881728
O O15 0.788225 0.821016 0.455645
O O16 0.153768 0.329187 0.985190
O O17 0.500000 0.500000 0.000000
#
# Coordination Sequence:
#
# PCOD9088193 Si02
#       8
#     2   2   2   2   2   2   2   2
#     4  11  24  42  68  89 123 173 218 265 314 369
#     4  10  20  37  57  88 128 168 207 254 320 373
#     4   9  19  35  56  88 126 167 210 253 295 387
#     4  11  25  43  60  95 136 166 208 266 318 382
#     4  10  19  37  59  93 124 162 205 257 315 379
#     4  10  21  34  65  87 122 168 211 254 313 375
#     4  10  22  40  62  91 123 152 227 264 299 375
#     4  11  25  36  62  96 136 165 197 259 335 389
#
# _framework density 25.597366999999998
#
# number of rings (size 3 to 8) (size 9 to 14) (size 15 to 20)
#    0.000    1.750    2.500    1.125    5.250    1.000 
#    0.000    0.625    0.000   10.500    0.000    0.000 
#    0.000    0.000    0.000    0.000    0.000    0.000 
#
# Total GULP energy -89201.287562 kJ/mol
# GULP energy per Si atom -5575.080473 kJ/mol
# Density = 2.553911 g / cm^3
# Si number density = 25.597367 Si / 1000 Ang^3
#
#
#
# Elastic Constant Matrix: (Units=GPa)
#
#
# Indices 1 2 3 4 5 6 
#
# 1 95.8366 34.4664 39.1276 -20.7705 10.9926 -17.3290
# 2 34.4664 98.8883 36.2858 -25.7806 25.1686 -35.3481
# 3 39.1276 36.2858 89.0127 -33.7815 13.7946 -7.2528
# 4 -20.7705 -25.7806 -33.7815 25.5586 -4.3865 10.8525
# 5 10.9926 25.1686 13.7946 -4.3865 67.7152 -21.4951
# 6 -17.3290 -35.3481 -7.2528 10.8525 -21.4951 51.1898
#
#
#
# Elastic Compliance Matrix: (Units=1/GPa)
#
#
# Indices 1 2 3 4 5 6 
#
# 1 0.013771 -0.001712 -0.003927 0.003331 0.000139 0.002275
# 2 -0.001712 0.017497 -0.001175 0.010890 -0.002786 0.007858
# 3 -0.003927 -0.001175 0.025536 0.031623 -0.004313 -0.007038
# 4 0.003331 0.010890 0.031623 0.097908 -0.008203 -0.011074
# 5 0.000139 -0.002786 -0.004313 -0.008203 0.018334 0.006950
# 6 0.002275 0.007858 -0.007038 -0.011074 0.006950 0.030000
#
#
# Mechanical properties :
#
#
# Convention : Reuss Voigt Hill
#
# Bulk Modulus (GPa) = 23.16174 55.94414 39.55294
# Shear Modulus (GPa) = 21.63865 40.48323 31.06094
#
# Velocity S-wave (km/s) = 2.91064 3.98117 3.48723
# Velocity P-wave (km/s) = 4.51264 6.56017 5.63026
#
# Compressibility (1/GPa) = 0.04317466
#
# Stress axis : x y z
#
# Youngs Moduli (GPa) = 72.61609 57.15126 39.16029
#
# Poissons Ratio (x) = 0.09787 0.15380
# Poissons Ratio (y) = 0.12435 0.04602
# Poissons Ratio (z) = 0.28520 0.06716
#
# Static dielectric constant tensor:
#      x y z
#    x 2.092820 0.036030 -0.114450 
#    y 0.036030 2.040980 -0.025830 
#    z -0.114450 -0.025830 2.143560 
# 
# From -- ./inp_files/95142.got.cif
#   From: 2010.05.17/outbox.cif.g08.bks.cpg/sg2_48_cif.got.tgz:95142.got - 2010.06.03 11:33:40.
