data_PCOD9088939
_publ_section_title
;
Structure prediction by ZEFSAII (Michael W. Deem and Ramdas Pophale) SiO2 
 PCOD9088939
Probable space group: P -1
;
_chemical_formula_sum "Si O2"
_cell_formula_units_Z 13
_cell_length_a 11.573199
_cell_length_b 9.146421
_cell_length_c 14.069104
_cell_angle_alpha 50.191363
_cell_angle_beta 149.308863
_cell_angle_gamma 112.532741
_cell_volume 528.074187
_symmetry_space_group_name_H-M "P -1"
_symmetry_group_IT_number 2
_symmetry_cell_setting 'triclinic'
loop_
_space_group_symop_operation_xyz
x,y,z
-x,-y,-z
loop_
_atom_site_type_symbol
_atom_site_label
_atom_site_fract_x
_atom_site_fract_y
_atom_site_fract_z
Si Si1 0.836461 0.381759 0.565994
Si Si2 0.586940 0.020891 0.189242
Si Si3 0.877813 0.761220 0.339412
Si Si4 0.332398 0.699473 0.150501
Si Si5 0.838175 0.816052 0.632675
Si Si6 0.009867 0.671000 0.101215
Si Si7 0.500000 0.000000 0.500000
O O1 0.921455 0.562701 0.519273
O O2 0.547576 0.485650 0.348697
O O3 0.903805 0.248548 0.572349
O O4 0.980963 0.263168 0.810716
O O5 0.772025 0.948880 0.260890
O O6 0.460233 0.858403 0.177037
O O7 0.736304 0.989153 0.404814
O O8 0.350413 0.222376 0.899433
O O9 0.228422 0.685056 0.186120
O O10 0.093557 0.780286 0.880572
O O11 0.911881 0.580847 0.740063
O O12 0.626270 0.887219 0.534022
O O13 0.746918 0.818083 0.806870
#
# Coordination Sequence:
#
# PCOD9088939 Si02
#       7
#     2   2   2   2   2   2   1
#     4  10  19  37  64  85 118 159 198 242 292 354
#     4  10  20  40  63  83 121 159 193 246 298 341
#     4   9  19  37  62  87 115 159 203 240 289 347
#     4  10  21  37  59  92 116 152 198 239 296 360
#     4  11  22  41  61  87 124 160 187 246 305 343
#     4  11  21  41  62  86 126 158 186 249 307 342
#     4  10  22  36  58  90 118 152 198 232 290 370
#
# _framework density 24.617753
#
# number of rings (size 3 to 8) (size 9 to 14) (size 15 to 20)
#    0.000    1.846    3.077    3.231    0.000    0.000 
#   11.077   11.538    0.000    0.000    0.000    0.000 
#    0.000    0.000    0.000    0.000    0.000    0.000 
#
# Total GULP energy -72402.510832 kJ/mol
# GULP energy per Si atom -5569.423910 kJ/mol
# Density = 2.456172 g / cm^3
# Si number density = 24.617753 Si / 1000 Ang^3
#
#
#
# Elastic Constant Matrix: (Units=GPa)
#
#
# Indices 1 2 3 4 5 6 
#
# 1 193.1629 23.1587 80.5593 -4.4398 -13.0424 -20.6858
# 2 23.1587 30.5367 7.1390 6.4972 10.2250 4.1544
# 3 80.5593 7.1390 141.3370 -14.0721 -7.4558 -21.9481
# 4 -4.4398 6.4972 -14.0721 30.2976 -12.3536 4.7579
# 5 -13.0424 10.2250 -7.4558 -12.3536 53.7564 -7.1266
# 6 -20.6858 4.1544 -21.9481 4.7579 -7.1266 30.2955
#
#
#
# Elastic Compliance Matrix: (Units=1/GPa)
#
#
# Indices 1 2 3 4 5 6 
#
# 1 0.008396 -0.008482 -0.003019 0.002662 0.004554 0.005362
# 2 -0.008482 0.052882 -0.003427 -0.019371 -0.019300 -0.017024
# 3 -0.003019 -0.003427 0.010667 0.005730 0.003519 0.006064
# 4 0.002662 -0.019371 0.005730 0.046078 0.016410 0.005248
# 5 0.004554 -0.019300 0.003519 0.016410 0.029311 0.012624
# 6 0.005362 -0.017024 0.006064 0.005248 0.012624 0.045543
#
#
# Mechanical properties :
#
#
# Convention : Reuss Voigt Hill
#
# Bulk Modulus (GPa) = 23.75958 65.19449 44.47704
# Shear Modulus (GPa) = 21.11818 39.81520 30.46669
#
# Velocity S-wave (km/s) = 2.93207 4.02598 3.52176
# Velocity P-wave (km/s) = 4.59729 6.93913 5.88586
#
# Compressibility (1/GPa) = 0.04208829
#
# Stress axis : x y z
#
# Youngs Moduli (GPa) = 119.10399 18.91012 93.74646
#
# Poissons Ratio (x) = 0.16041 0.28304
# Poissons Ratio (y) = 1.01030 0.32123
# Poissons Ratio (z) = 0.35959 0.06480
#
# Static dielectric constant tensor:
#      x y z
#    x 1.936320 0.020210 0.019970 
#    y 0.020210 2.018010 -0.046320 
#    z 0.019970 -0.046320 1.984580 
# 
# From -- ./inp_files/517731.got.cif
#   From: 2010.05.17/outbox.cif.g08.bks.cpg/sg2_259_cif.got.tgz:517731.got - 2010.06.03 11:33:40.
