data_PCOD9088612
_publ_section_title
;
Structure prediction by ZEFSAII (Michael W. Deem and Ramdas Pophale) SiO2 
 PCOD9088612
Probable space group: P -1
;
_chemical_formula_sum "Si O2"
_cell_formula_units_Z 16
_cell_length_a 20.492868
_cell_length_b 5.115147
_cell_length_c 9.662564
_cell_angle_alpha 78.499041
_cell_angle_beta 44.898052
_cell_angle_gamma 82.391762
_cell_volume 700.518956
_symmetry_space_group_name_H-M "P -1"
_symmetry_group_IT_number 2
_symmetry_cell_setting 'triclinic'
loop_
_space_group_symop_operation_xyz
x,y,z
-x,-y,-z
loop_
_atom_site_type_symbol
_atom_site_label
_atom_site_fract_x
_atom_site_fract_y
_atom_site_fract_z
Si Si1 0.348260 0.209765 0.972000
Si Si2 0.524715 0.210811 0.557122
Si Si3 0.287499 0.604438 0.799983
Si Si4 0.927592 0.204351 0.023024
Si Si5 0.185066 0.320721 0.742322
Si Si6 0.207777 0.343939 0.381134
Si Si7 0.179244 0.839195 0.173322
Si Si8 0.012416 0.236084 0.601463
O O1 0.305364 0.248467 0.183272
O O2 0.268406 0.028284 0.038664
O O3 0.455143 0.140429 0.796146
O O4 0.338966 0.476685 0.868119
O O5 0.500000 0.500000 0.500000
O O6 0.635459 0.207505 0.407913
O O7 0.500000 0.000000 0.500000
O O8 0.257022 0.401969 0.746379
O O9 0.198719 0.695322 0.011860
O O10 0.894261 0.459836 0.131413
O O11 0.843269 0.987374 0.163153
O O12 0.981129 0.304673 0.796639
O O13 0.000000 0.000000 0.000000
O O14 0.211409 0.356028 0.538756
O O15 0.186229 0.624913 0.309063
O O16 0.120332 0.166510 0.472090
O O17 0.074426 0.951956 0.301393
O O18 0.000000 0.500000 0.500000
#
# Coordination Sequence:
#
# PCOD9088612 Si02
#       8
#     2   2   2   2   2   2   2   2
#     4  10  21  39  62  94 125 166 217 272 332 389
#     4  10  20  37  67  97 124 159 211 275 336 384
#     4  10  21  38  65  97 124 164 216 278 327 390
#     4  12  25  43  67  91 135 179 228 269 321 392
#     4  12  26  43  65  95 136 176 221 267 332 392
#     4  10  24  38  57  90 131 178 208 264 324 392
#     4  10  19  37  62  87 127 161 224 267 323 375
#     4  10  21  41  61  95 129 174 221 271 321 383
#
# _framework density 22.840209000000002
#
# number of rings (size 3 to 8) (size 9 to 14) (size 15 to 20)
#    0.000    1.500    3.750    1.125    1.750    0.500 
#    2.250    0.625    0.000    0.750    0.000    0.000 
#    0.000    0.000    0.000    0.000    0.000    0.000 
#
# Total GULP energy -89109.502078 kJ/mol
# GULP energy per Si atom -5569.343880 kJ/mol
# Density = 2.278822 g / cm^3
# Si number density = 22.840209 Si / 1000 Ang^3
#
#
#
# Elastic Constant Matrix: (Units=GPa)
#
#
# Indices 1 2 3 4 5 6 
#
# 1 34.5728 -9.1231 39.0364 -0.9650 9.2638 0.8019
# 2 -9.1231 64.0056 24.9227 3.4182 13.0392 2.0916
# 3 39.0364 24.9227 182.8701 1.9606 17.5814 -2.2804
# 4 -0.9650 3.4182 1.9606 18.5804 5.6567 0.3064
# 5 9.2638 13.0392 17.5814 5.6567 59.1040 -1.2935
# 6 0.8019 2.0916 -2.2804 0.3064 -1.2935 27.9441
#
#
#
# Elastic Compliance Matrix: (Units=1/GPa)
#
#
# Indices 1 2 3 4 5 6 
#
# 1 0.046790 0.012367 -0.011065 0.003570 -0.007190 -0.003543
# 2 0.012367 0.020466 -0.004976 -0.001056 -0.004927 -0.002509
# 3 -0.011065 -0.004976 0.008495 -0.000702 0.000403 0.001410
# 4 0.003570 -0.001056 -0.000702 0.055962 -0.005495 -0.000949
# 5 -0.007190 -0.004927 0.000403 -0.005495 0.019574 0.001574
# 6 -0.003543 -0.002509 0.001410 -0.000949 0.001574 0.036274
#
#
# Mechanical properties :
#
#
# Convention : Reuss Voigt Hill
#
# Bulk Modulus (GPa) = 14.61883 43.45784 29.03833
# Shear Modulus (GPa) = 22.96663 36.23319 29.59991
#
# Velocity S-wave (km/s) = 3.17446 3.98726 3.60384
# Velocity P-wave (km/s) = 4.45540 6.34554 5.48254
#
# Compressibility (1/GPa) = 0.06840495
#
# Stress axis : x y z
#
# Youngs Moduli (GPa) = 21.37224 48.86148 117.71987
#
# Poissons Ratio (x) = -0.60429 1.30254
# Poissons Ratio (y) = -0.26432 0.58572
# Poissons Ratio (z) = 0.23648 0.24311
#
# Static dielectric constant tensor:
#      x y z
#    x 2.007890 -0.040250 -0.089230 
#    y -0.040250 1.939390 0.074000 
#    z -0.089230 0.074000 1.970290 
# 
# From -- ./inp_files/117767.got.cif
#   From: 2010.05.17/outbox.cif.g08.bks.cpg/sg2_59_cif.got.tgz:117767.got - 2010.06.03 11:33:40.
