data_PCOD9088186
_publ_section_title
;
Structure prediction by ZEFSAII (Michael W. Deem and Ramdas Pophale) SiO2 
 PCOD9088186
Probable space group: P -1
;
_chemical_formula_sum "Si O2"
_cell_formula_units_Z 14
_cell_length_a 11.627530
_cell_length_b 8.877767
_cell_length_c 13.175250
_cell_angle_alpha 36.121639
_cell_angle_beta 109.895079
_cell_angle_gamma 97.809372
_cell_volume 729.803789
_symmetry_space_group_name_H-M "P -1"
_symmetry_group_IT_number 2
_symmetry_cell_setting 'triclinic'
loop_
_space_group_symop_operation_xyz
x,y,z
-x,-y,-z
loop_
_atom_site_type_symbol
_atom_site_label
_atom_site_fract_x
_atom_site_fract_y
_atom_site_fract_z
Si Si1 0.438812 0.870213 0.640511
Si Si2 0.138331 0.306669 0.663448
Si Si3 0.080138 0.750474 0.929727
Si Si4 0.025559 0.316510 0.276826
Si Si5 0.310886 0.513633 0.005007
Si Si6 0.226731 0.562137 0.743969
Si Si7 0.264358 0.129477 0.595974
O O1 0.549578 0.625091 0.844230
O O2 0.318445 0.752913 0.641366
O O3 0.500000 0.000000 0.500000
O O4 0.391936 0.096295 0.588745
O O5 0.204489 0.399262 0.729168
O O6 0.222712 0.299390 0.591391
O O7 0.000000 0.500000 0.500000
O O8 0.117968 0.013369 0.831034
O O9 0.995025 0.814293 0.766725
O O10 0.018236 0.615423 0.073319
O O11 0.203597 0.523476 0.052157
O O12 0.151672 0.219142 0.432393
O O13 0.911627 0.299780 0.326771
O O14 0.287154 0.397177 0.951905
O O15 0.285426 0.825545 0.804306
#
# Coordination Sequence:
#
# PCOD9088186 Si02
#       7
#     2   2   2   2   2   2   2
#     4  11  23  41  64  85 112 155 212 253 282 339
#     4  11  22  37  55  92 130 160 183 231 308 369
#     4   9  21  35  60  87 125 147 204 240 294 347
#     4  10  19  37  59  92 112 159 196 252 288 344
#     4   9  20  39  59  85 112 155 207 243 285 342
#     4  10  21  37  58  86 122 155 194 238 302 346
#     4  10  20  36  63  82 122 152 199 240 296 346
#
# _framework density 19.183239
#
# number of rings (size 3 to 8) (size 9 to 14) (size 15 to 20)
#    0.000    2.000    1.429    3.429    4.000    4.000 
#    0.000    7.143    0.000    0.000    0.000    0.000 
#    0.000    0.000    0.000    0.000    0.000    0.000 
#
# Total GULP energy -77970.527226 kJ/mol
# GULP energy per Si atom -5569.323373 kJ/mol
# Density = 1.913958 g / cm^3
# Si number density = 19.183239 Si / 1000 Ang^3
#
#
#
# Elastic Constant Matrix: (Units=GPa)
#
#
# Indices 1 2 3 4 5 6 
#
# 1 102.5455 41.9653 41.7602 -0.2762 -5.3852 -15.6709
# 2 41.9653 138.4805 39.1281 8.1876 0.2556 -1.2955
# 3 41.7602 39.1281 90.4590 9.4905 9.0656 -2.4264
# 4 -0.2762 8.1876 9.4905 14.5386 0.5937 0.9025
# 5 -5.3852 0.2556 9.0656 0.5937 34.9103 0.0396
# 6 -15.6709 -1.2955 -2.4264 0.9025 0.0396 34.0910
#
#
#
# Elastic Compliance Matrix: (Units=1/GPa)
#
#
# Indices 1 2 3 4 5 6 
#
# 1 0.014653 -0.002939 -0.006292 0.005511 0.003815 0.006026
# 2 -0.002939 0.008927 -0.002165 -0.003607 0.000106 -0.001071
# 3 -0.006292 -0.002165 0.016330 -0.009258 -0.005036 -0.001561
# 4 0.005511 -0.003607 -0.009258 0.076900 0.001973 -0.000301
# 5 0.003815 0.000106 -0.005036 0.001973 0.030505 0.001312
# 6 0.006026 -0.001071 -0.001561 -0.000301 0.001312 0.031958
#
#
# Mechanical properties :
#
#
# Convention : Reuss Voigt Hill
#
# Bulk Modulus (GPa) = 58.42202 64.13249 61.27726
# Shear Modulus (GPa) = 24.06487 30.61675 27.34081
#
# Velocity S-wave (km/s) = 3.54570 3.99935 3.77934
# Velocity P-wave (km/s) = 6.87630 7.40476 7.14542
#
# Compressibility (1/GPa) = 0.01711683
#
# Stress axis : x y z
#
# Youngs Moduli (GPa) = 68.24538 112.02209 61.23626
#
# Poissons Ratio (x) = 0.32925 0.38531
# Poissons Ratio (y) = 0.20058 0.13260
# Poissons Ratio (z) = 0.42941 0.24257
#
# Static dielectric constant tensor:
#      x y z
#    x 1.733220 -0.031850 -0.016870 
#    y -0.031850 1.699840 0.001250 
#    z -0.016870 0.001250 1.700600 
# 
# From -- ./inp_files/416136.got.cif
#   From: 2010.05.17/outbox.cif.g08.bks.cpg/sg2_209_cif.got.tgz:416136.got - 2010.06.03 11:33:40.
