data_PCOD9088629
_publ_section_title
;
Structure prediction by ZEFSAII (Michael W. Deem and Ramdas Pophale) SiO2 
 PCOD9088629
Probable space group: P -1
;
_chemical_formula_sum "Si O2"
_cell_formula_units_Z 16
_cell_length_a 17.750507
_cell_length_b 10.025799
_cell_length_c 11.002027
_cell_angle_alpha 43.072811
_cell_angle_beta 30.835517
_cell_angle_gamma 37.222638
_cell_volume 600.148248
_symmetry_space_group_name_H-M "P -1"
_symmetry_group_IT_number 2
_symmetry_cell_setting 'triclinic'
loop_
_space_group_symop_operation_xyz
x,y,z
-x,-y,-z
loop_
_atom_site_type_symbol
_atom_site_label
_atom_site_fract_x
_atom_site_fract_y
_atom_site_fract_z
Si Si1 0.682295 0.360011 0.283126
Si Si2 0.804993 0.570946 0.363571
Si Si3 0.658427 0.995330 0.919504
Si Si4 0.922457 0.828386 0.882498
Si Si5 0.992419 0.241364 0.821647
Si Si6 0.484895 0.534729 0.812647
Si Si7 0.297702 0.059037 0.380679
Si Si8 0.853701 0.309410 0.703223
O O1 0.500000 0.500000 0.500000
O O2 0.627947 0.350842 0.225996
O O3 0.743023 0.142070 0.424206
O O4 0.843216 0.398130 0.017421
O O5 0.612550 0.629951 0.589367
O O6 0.884115 0.430977 0.468397
O O7 0.901942 0.387883 0.245587
O O8 0.840163 0.772683 0.149270
O O9 0.795315 0.885336 0.907375
O O10 0.718722 0.881190 0.779079
O O11 0.589751 0.264808 0.829380
O O12 0.490518 0.982063 0.193243
O O13 0.936340 0.048666 0.734365
O O14 0.919134 0.331830 0.728290
O O15 0.179834 0.201671 0.560696
O O16 0.000000 0.000000 0.000000
O O17 0.346353 0.595600 0.068551
#
# Coordination Sequence:
#
# PCOD9088629 Si02
#       8
#     2   2   2   2   2   2   2   2
#     4  10  19  37  62  88 124 165 215 267 321 386
#     4  11  24  42  65  98 129 167 219 267 325 395
#     4  11  22  39  66  92 132 176 219 271 321 387
#     4  11  25  42  68  99 129 169 220 269 328 386
#     4   9  21  39  64  94 123 168 218 261 325 389
#     4  11  23  40  64  94 130 171 219 262 332 389
#     4  10  21  39  64  90 129 173 220 264 329 377
#     4  11  23  43  67  94 133 171 209 271 328 385
#
# _framework density 26.660079
#
# number of rings (size 3 to 8) (size 9 to 14) (size 15 to 20)
#    0.000    1.500    2.500    2.250    1.750    0.500 
#    6.750    2.500    2.750    0.000    0.000    0.000 
#    0.000    0.000    0.000    0.000    0.000    0.000 
#
# Total GULP energy -89479.935456 kJ/mol
# GULP energy per Si atom -5592.495966 kJ/mol
# Density = 2.659940 g / cm^3
# Si number density = 26.660079 Si / 1000 Ang^3
#
#
#
# Elastic Constant Matrix: (Units=GPa)
#
#
# Indices 1 2 3 4 5 6 
#
# 1 70.5216 7.5840 34.5058 0.1690 0.2769 -23.3082
# 2 7.5840 80.6665 33.6381 -11.5422 4.9941 -1.5190
# 3 34.5058 33.6381 202.6104 22.8971 11.4985 -9.7362
# 4 0.1690 -11.5422 22.8971 53.2553 -8.6264 2.5355
# 5 0.2769 4.9941 11.4985 -8.6264 39.7268 4.8830
# 6 -23.3082 -1.5190 -9.7362 2.5355 4.8830 43.8563
#
#
#
# Elastic Compliance Matrix: (Units=1/GPa)
#
#
# Indices 1 2 3 4 5 6 
#
# 1 0.018610 -0.000349 -0.002707 0.000534 -0.000327 0.009283
# 2 -0.000349 0.014211 -0.002819 0.004327 0.000042 -0.000574
# 3 -0.002707 -0.002819 0.006443 -0.003772 -0.002357 0.000374
# 4 0.000534 0.004327 -0.003772 0.022368 0.005687 -0.002330
# 5 -0.000327 0.000042 -0.002357 0.005687 0.027589 -0.004096
# 6 0.009283 -0.000574 0.000374 -0.002330 -0.004096 0.028389
#
#
# Mechanical properties :
#
#
# Convention : Reuss Voigt Hill
#
# Bulk Modulus (GPa) = 36.34607 56.13935 46.24271
# Shear Modulus (GPa) = 36.09274 45.90572 40.99923
#
# Velocity S-wave (km/s) = 3.68341 4.15407 3.92580
# Velocity P-wave (km/s) = 5.63496 6.64165 6.15891
#
# Compressibility (1/GPa) = 0.02751329
#
# Stress axis : x y z
#
# Youngs Moduli (GPa) = 53.73315 70.36922 155.21657
#
# Poissons Ratio (x) = 0.02458 0.42020
# Poissons Ratio (y) = 0.01877 0.43753
# Poissons Ratio (z) = 0.14547 0.19836
#
# Static dielectric constant tensor:
#      x y z
#    x 2.198250 0.137430 -0.042410 
#    y 0.137430 2.291360 0.038270 
#    z -0.042410 0.038270 2.118690 
# 
# From -- ./inp_files/471134.got.cif
#   From: 2010.05.17/outbox.cif.g08.bks.cpg/sg2_236_cif.got.tgz:471134.got - 2010.06.03 11:33:40.
