data_PCOD9088343
_publ_section_title
;
Structure prediction by ZEFSAII (Michael W. Deem and Ramdas Pophale) SiO2 
 PCOD9088343
Probable space group: P -1
;
_chemical_formula_sum "Si O2"
_cell_formula_units_Z 14
_cell_length_a 9.061913
_cell_length_b 13.780336
_cell_length_c 20.491215
_cell_angle_alpha 24.354616
_cell_angle_beta 145.869302
_cell_angle_gamma 149.251741
_cell_volume 527.175764
_symmetry_space_group_name_H-M "P -1"
_symmetry_group_IT_number 2
_symmetry_cell_setting 'triclinic'
loop_
_space_group_symop_operation_xyz
x,y,z
-x,-y,-z
loop_
_atom_site_type_symbol
_atom_site_label
_atom_site_fract_x
_atom_site_fract_y
_atom_site_fract_z
Si Si1 0.882249 0.440410 0.224595
Si Si2 0.764229 0.900554 0.327212
Si Si3 0.211296 0.117587 0.164161
Si Si4 0.071970 0.259704 0.821971
Si Si5 0.630409 0.640464 0.710806
Si Si6 0.746771 0.166143 0.041790
Si Si7 0.442738 0.364627 0.457526
O O1 0.549496 0.215431 0.244309
O O2 0.004743 0.565301 0.263373
O O3 0.119930 0.356147 0.337372
O O4 0.845560 0.662469 0.032129
O O5 0.654940 0.635864 0.406052
O O6 0.625111 0.852095 0.378115
O O7 0.644832 0.067817 0.137541
O O8 0.117528 0.066105 0.362688
O O9 0.015365 0.100189 0.165589
O O10 0.090695 0.862759 0.230242
O O11 0.395093 0.474101 0.782413
O O12 0.000000 0.000000 0.000000
O O13 0.473638 0.636527 0.586698
O O14 0.807807 0.464969 0.876159
O O15 0.500000 0.000000 0.000000
#
# Coordination Sequence:
#
# PCOD9088343 Si02
#       7
#     2   2   2   2   2   2   2
#     4  10  21  38  61  90 129 171 213 264 327 391
#     4  11  25  40  68  99 133 173 225 273 331 389
#     4  10  19  37  60  92 130 166 212 271 328 376
#     4  10  22  37  62  98 132 164 216 276 329 390
#     4  12  23  42  70  98 132 173 226 276 324 393
#     4  12  20  40  69  98 129 168 225 283 328 379
#     4  11  24  46  65  96 137 178 220 271 328 401
#
# _framework density 26.556609000000002
#
# number of rings (size 3 to 8) (size 9 to 14) (size 15 to 20)
#    0.000    1.143    4.286    1.714    2.000    1.143 
#    0.000    2.857    0.000    5.143    0.000    0.000 
#    0.000    0.000    0.000    0.000    0.000    0.000 
#
# Total GULP energy -78337.180683 kJ/mol
# GULP energy per Si atom -5595.512906 kJ/mol
# Density = 2.649617 g / cm^3
# Si number density = 26.556609 Si / 1000 Ang^3
#
#
#
# Elastic Constant Matrix: (Units=GPa)
#
#
# Indices 1 2 3 4 5 6 
#
# 1 98.3500 19.2636 35.8682 -3.8177 -37.3217 11.0894
# 2 19.2636 151.8279 28.9734 -8.0175 -7.8810 10.6614
# 3 35.8682 28.9734 126.5017 7.7876 -46.5860 -3.3604
# 4 -3.8177 -8.0175 7.7876 35.4292 3.5617 -5.7089
# 5 -37.3217 -7.8810 -46.5860 3.5617 41.1781 0.4400
# 6 11.0894 10.6614 -3.3604 -5.7089 0.4400 43.9052
#
#
#
# Elastic Compliance Matrix: (Units=1/GPa)
#
#
# Indices 1 2 3 4 5 6 
#
# 1 0.016650 -0.001362 0.001853 -0.001295 0.017082 -0.004072
# 2 -0.001362 0.007292 -0.002490 0.002123 -0.002825 -0.001313
# 3 0.001853 -0.002490 0.015294 -0.005571 0.018984 0.000393
# 4 -0.001295 0.002123 -0.005571 0.031352 -0.009819 0.003560
# 5 0.017082 -0.002825 0.018984 -0.009819 0.061596 -0.004070
# 6 -0.004072 -0.001313 0.000393 0.003560 -0.004070 0.024657
#
#
# Mechanical properties :
#
#
# Convention : Reuss Voigt Hill
#
# Bulk Modulus (GPa) = 28.37794 60.54333 44.46063
# Shear Modulus (GPa) = 28.97134 43.60745 36.28940
#
# Velocity S-wave (km/s) = 3.30650 4.05663 3.70062
# Velocity P-wave (km/s) = 5.02855 6.69245 5.91926
#
# Compressibility (1/GPa) = 0.03523864
#
# Stress axis : x y z
#
# Youngs Moduli (GPa) = 60.06079 137.13591 65.38429
#
# Poissons Ratio (x) = 0.18676 -0.12118
# Poissons Ratio (y) = 0.08180 0.16281
# Poissons Ratio (z) = -0.11131 0.34148
#
# Static dielectric constant tensor:
#      x y z
#    x 2.096850 0.031670 -0.042830 
#    y 0.031670 2.070230 -0.022030 
#    z -0.042830 -0.022030 2.144590 
# 
# From -- ./inp_files/315034.got.cif
#   From: 2010.05.17/outbox.cif.g08.bks.cpg/sg2_158_cif.got.tgz:315034.got - 2010.06.03 11:33:40.
