data_PCOD9088278
_publ_section_title
;
Structure prediction by ZEFSAII (Michael W. Deem and Ramdas Pophale) SiO2 
 PCOD9088278
Probable space group: P -1
;
_chemical_formula_sum "Si O2"
_cell_formula_units_Z 16
_cell_length_a 12.545348
_cell_length_b 8.500295
_cell_length_c 8.112755
_cell_angle_alpha 130.766067
_cell_angle_beta 76.504332
_cell_angle_gamma 108.291319
_cell_volume 621.645495
_symmetry_space_group_name_H-M "P -1"
_symmetry_group_IT_number 2
_symmetry_cell_setting 'triclinic'
loop_
_space_group_symop_operation_xyz
x,y,z
-x,-y,-z
loop_
_atom_site_type_symbol
_atom_site_label
_atom_site_fract_x
_atom_site_fract_y
_atom_site_fract_z
Si Si1 0.117335 0.050613 0.228335
Si Si2 0.935095 0.554522 0.334230
Si Si3 0.139807 0.626139 0.101531
Si Si4 0.640120 0.742139 0.587872
Si Si5 0.385450 0.650907 0.117117
Si Si6 0.621091 0.812675 0.261429
Si Si7 0.415283 0.733620 0.785207
Si Si8 0.789366 0.138384 0.214089
O O1 0.046337 0.214685 0.431157
O O2 0.242944 0.168979 0.310711
O O3 0.096964 0.830052 0.186325
O O4 0.128738 0.993627 0.993948
O O5 0.866767 0.375573 0.359238
O O6 0.053065 0.518645 0.198596
O O7 0.863396 0.521858 0.163037
O O8 0.262347 0.697409 0.183825
O O9 0.648699 0.780130 0.417164
O O10 0.538520 0.845374 0.756251
O O11 0.611778 0.489271 0.457772
O O12 0.486257 0.793935 0.281203
O O13 0.367875 0.399605 0.990697
O O14 0.425503 0.676863 0.931595
O O15 0.713412 0.011830 0.298227
O O16 0.310766 0.837373 0.859575
#
# Coordination Sequence:
#
# PCOD9088278 Si02
#       8
#     2   2   2   2   2   2   2   2
#     4  11  20  37  65  94 118 161 209 254 307 358
#     4  10  20  40  61  96 121 152 215 263 298 357
#     4  10  21  37  67  89 122 161 205 263 306 350
#     4  10  21  36  59  92 123 164 198 255 299 373
#     4  10  19  41  58  91 125 165 201 251 305 367
#     4  10  23  37  60  92 135 162 198 247 318 368
#     4  10  19  37  60  86 123 159 207 247 305 358
#     4  11  22  39  62  94 124 166 196 258 311 364
#
# _framework density 25.738142
#
# number of rings (size 3 to 8) (size 9 to 14) (size 15 to 20)
#    0.000    1.750    3.750    1.875    1.750    2.500 
#    0.000    0.625    0.000    1.500    0.000    0.000 
#    0.000    0.000    0.000    0.000    0.000    0.000 
#
# Total GULP energy -89521.453807 kJ/mol
# GULP energy per Si atom -5595.090863 kJ/mol
# Density = 2.567956 g / cm^3
# Si number density = 25.738142 Si / 1000 Ang^3
#
#
#
# Elastic Constant Matrix: (Units=GPa)
#
#
# Indices 1 2 3 4 5 6 
#
# 1 62.3334 28.0219 24.2083 -6.6372 -19.9311 9.6645
# 2 28.0219 93.3663 1.0651 0.0562 -8.6227 26.8486
# 3 24.2083 1.0651 76.9302 17.5700 -7.9795 -1.0826
# 4 -6.6372 0.0562 17.5700 29.7294 7.0686 -3.1145
# 5 -19.9311 -8.6227 -7.9795 7.0686 22.7030 -2.0483
# 6 9.6645 26.8486 -1.0826 -3.1145 -2.0483 35.0072
#
#
#
# Elastic Compliance Matrix: (Units=1/GPa)
#
#
# Indices 1 2 3 4 5 6 
#
# 1 0.029109 -0.006575 -0.009005 0.007529 0.017405 -0.001583
# 2 -0.006575 0.015866 0.002992 -0.004814 0.001849 -0.010581
# 3 -0.009005 0.002992 0.019652 -0.014777 0.004717 -0.000240
# 4 0.007529 -0.004814 -0.014777 0.048099 -0.014977 0.004560
# 5 0.017405 0.001849 0.004717 -0.014977 0.066031 -0.003547
# 6 -0.001583 -0.010581 -0.000240 0.004560 -0.003547 0.037308
#
#
# Mechanical properties :
#
#
# Convention : Reuss Voigt Hill
#
# Bulk Modulus (GPa) = 25.34898 37.69115 31.52006
# Shear Modulus (GPa) = 19.65477 29.44355 24.54916
#
# Velocity S-wave (km/s) = 2.76641 3.38593 3.09172
# Velocity P-wave (km/s) = 4.48042 5.47374 5.00180
#
# Compressibility (1/GPa) = 0.03944933
#
# Stress axis : x y z
#
# Youngs Moduli (GPa) = 34.35415 63.02725 50.88559
#
# Poissons Ratio (x) = 0.41443 0.45824
# Poissons Ratio (y) = 0.22589 -0.15225
# Poissons Ratio (z) = 0.30937 -0.18858
#
# Static dielectric constant tensor:
#      x y z
#    x 2.017580 -0.001210 -0.021930 
#    y -0.001210 2.044730 0.078480 
#    z -0.021930 0.078480 2.114000 
# 
# From -- ./inp_files/296715.got.cif
#   From: 2010.05.17/outbox.cif.g08.bks.cpg/sg2_149_cif.got.tgz:296715.got - 2010.06.03 11:33:40.
