data_PCOD9088147
_publ_section_title
;
Structure prediction by ZEFSAII (Michael W. Deem and Ramdas Pophale) SiO2 
 PCOD9088147
Probable space group: P -1
;
_chemical_formula_sum "Si O2"
_cell_formula_units_Z 12
_cell_length_a 14.050695
_cell_length_b 13.401894
_cell_length_c 6.029470
_cell_angle_alpha 108.578473
_cell_angle_beta 59.704319
_cell_angle_gamma 147.806506
_cell_volume 507.619633
_symmetry_space_group_name_H-M "P -1"
_symmetry_group_IT_number 2
_symmetry_cell_setting 'triclinic'
loop_
_space_group_symop_operation_xyz
x,y,z
-x,-y,-z
loop_
_atom_site_type_symbol
_atom_site_label
_atom_site_fract_x
_atom_site_fract_y
_atom_site_fract_z
Si Si1 0.067095 0.801876 0.420880
Si Si2 0.203737 0.771311 0.883983
Si Si3 0.467445 0.810391 0.371704
Si Si4 0.870004 0.489863 0.752832
Si Si5 0.279146 0.146526 0.701643
Si Si6 0.057624 0.130547 0.712978
O O1 0.926148 0.640948 0.661213
O O2 0.945955 0.762610 0.337186
O O3 0.210946 0.004604 0.501525
O O4 0.192095 0.805167 0.169889
O O5 0.327879 0.766818 0.669771
O O6 0.974136 0.579570 0.931839
O O7 0.325739 0.959270 0.738993
O O8 0.358136 0.716253 0.194300
O O9 0.514892 0.733394 0.356082
O O10 0.000000 0.500000 0.500000
O O11 0.253894 0.240199 0.683992
O O12 0.117903 0.012254 0.997144
O O13 0.000000 0.000000 0.500000
#
# Coordination Sequence:
#
# PCOD9088147 Si02
#       6
#     2   2   2   2   2   2
#     4  11  19  37  61  83 117 158 189 234 290 342
#     4  10  21  39  56  85 120 157 190 231 291 338
#     4  10  20  38  58  84 120 153 191 238 283 341
#     4  10  22  38  54  84 123 155 187 239 284 337
#     4  10  19  37  59  87 115 148 195 242 285 338
#     4   9  19  34  61  86 111 152 194 237 292 339
#
# _framework density 23.639747
#
# number of rings (size 3 to 8) (size 9 to 14) (size 15 to 20)
#    0.000    2.000    3.333    0.000    0.000    3.333 
#    3.000    0.833    0.000   14.000    0.000    0.000 
#    0.000    0.000    0.000    0.000    0.000    0.000 
#
# Total GULP energy -66987.525887 kJ/mol
# GULP energy per Si atom -5582.293824 kJ/mol
# Density = 2.358594 g / cm^3
# Si number density = 23.639747 Si / 1000 Ang^3
#
#
#
# Elastic Constant Matrix: (Units=GPa)
#
#
# Indices 1 2 3 4 5 6 
#
# 1 145.8958 8.7425 5.0203 -15.4794 0.7704 21.2875
# 2 8.7425 61.5936 14.9854 2.1257 -3.4651 17.0008
# 3 5.0203 14.9854 93.6525 16.0047 -6.9571 4.6059
# 4 -15.4794 2.1257 16.0047 26.9788 -11.2645 9.0265
# 5 0.7704 -3.4651 -6.9571 -11.2645 31.5806 -3.7111
# 6 21.2875 17.0008 4.6059 9.0265 -3.7111 28.4917
#
#
#
# Elastic Compliance Matrix: (Units=1/GPa)
#
#
# Indices 1 2 3 4 5 6 
#
# 1 0.009657 0.002004 -0.002051 0.011343 0.002241 -0.011381
# 2 0.002004 0.021092 -0.003910 0.008077 0.002441 -0.015692
# 3 -0.002051 -0.003910 0.012908 -0.010490 -0.000688 0.005012
# 4 0.011343 0.008077 -0.010490 0.067140 0.018670 -0.030437
# 5 0.002241 0.002441 -0.000688 0.018670 0.037916 -0.003996
# 6 -0.011381 -0.015692 0.005012 -0.030437 -0.003996 0.061277
#
#
# Mechanical properties :
#
#
# Convention : Reuss Voigt Hill
#
# Bulk Modulus (GPa) = 27.97564 39.84869 33.91217
# Shear Modulus (GPa) = 21.75645 35.56981 28.66313
#
# Velocity S-wave (km/s) = 3.03699 3.88320 3.48587
# Velocity P-wave (km/s) = 4.91504 6.08268 5.52976
#
# Compressibility (1/GPa) = 0.03574538
#
# Stress axis : x y z
#
# Youngs Moduli (GPa) = 103.55255 47.41159 77.46892
#
# Poissons Ratio (x) = -0.09502 0.15886
# Poissons Ratio (y) = -0.20754 0.30287
# Poissons Ratio (z) = 0.21234 0.18536
#
# Static dielectric constant tensor:
#      x y z
#    x 1.991660 0.018740 0.029280 
#    y 0.018740 1.892470 0.017030 
#    z 0.029280 0.017030 1.886190 
# 
# From -- ./inp_files/20293.got.cif
#   From: 2010.05.17/outbox.cif.g08.bks.cpg/sg2_11_cif.got.tgz:20293.got - 2010.06.03 11:33:40.
