data_PCOD9088360
_publ_section_title
;
Structure prediction by ZEFSAII (Michael W. Deem and Ramdas Pophale) SiO2 
 PCOD9088360
Probable space group: P -1
;
_chemical_formula_sum "Si O2"
_cell_formula_units_Z 16
_cell_length_a 14.823951
_cell_length_b 14.672653
_cell_length_c 11.720585
_cell_angle_alpha 42.466134
_cell_angle_beta 62.904439
_cell_angle_gamma 30.525040
_cell_volume 744.151507
_symmetry_space_group_name_H-M "P -1"
_symmetry_group_IT_number 2
_symmetry_cell_setting 'triclinic'
loop_
_space_group_symop_operation_xyz
x,y,z
-x,-y,-z
loop_
_atom_site_type_symbol
_atom_site_label
_atom_site_fract_x
_atom_site_fract_y
_atom_site_fract_z
Si Si1 0.240018 0.969871 0.251434
Si Si2 0.362290 0.628156 0.342452
Si Si3 0.156724 0.694998 0.212744
Si Si4 0.520523 0.641546 0.858145
Si Si5 0.548014 0.675226 0.071699
Si Si6 0.975747 0.175454 0.406549
Si Si7 0.042721 0.228246 0.550437
Si Si8 0.299227 0.163934 0.903101
O O1 0.175658 0.924185 0.243034
O O2 0.481382 0.641238 0.420099
O O3 0.143899 0.068002 0.340162
O O4 0.216449 0.144117 0.053967
O O5 0.299324 0.587670 0.328720
O O6 0.472632 0.617476 0.215179
O O7 0.303219 0.509401 0.190369
O O8 0.030891 0.723714 0.323086
O O9 0.000000 0.000000 0.000000
O O10 0.579277 0.620662 0.970471
O O11 0.500000 0.500000 0.000000
O O12 0.290438 0.963899 0.658829
O O13 0.380383 0.984422 0.913433
O O14 0.750131 0.481000 0.208136
O O15 0.010556 0.148377 0.546077
O O16 0.000000 0.000000 0.500000
O O17 0.886649 0.522205 0.318203
O O18 0.500000 0.000000 0.000000
#
# Coordination Sequence:
#
# PCOD9088360 Si02
#       8
#     2   2   2   2   2   2   2   2
#     4  10  22  35  65  96 135 171 223 284 344 401
#     4  10  19  37  60  99 129 170 218 281 344 396
#     4  12  24  40  69  97 136 179 223 281 354 407
#     4  12  24  46  68 104 138 173 230 288 349 415
#     4  11  23  42  68  97 141 173 223 293 339 407
#     4  12  22  39  69 106 133 168 229 295 351 399
#     4  12  26  45  70  97 141 187 226 287 344 413
#     4  11  24  47  65  97 140 187 234 278 342 417
#
# _framework density 21.500999
#
# number of rings (size 3 to 8) (size 9 to 14) (size 15 to 20)
#    0.000    0.750    5.000    3.000    3.500    1.000 
#    2.250    0.625    0.000    0.000    0.000    0.000 
#    0.000    0.000    0.000    0.000    0.000    0.000 
#
# Total GULP energy -89284.734273 kJ/mol
# GULP energy per Si atom -5580.295892 kJ/mol
# Density = 2.145206 g / cm^3
# Si number density = 21.500999 Si / 1000 Ang^3
#
#
#
# Elastic Constant Matrix: (Units=GPa)
#
#
# Indices 1 2 3 4 5 6 
#
# 1 15.5233 19.3372 -11.4599 4.4865 4.4479 7.6438
# 2 19.3372 150.5812 45.3078 22.6739 5.2060 4.6007
# 3 -11.4599 45.3078 112.8667 -11.1475 -9.4530 -9.4696
# 4 4.4865 22.6739 -11.1475 41.9621 1.7187 7.9971
# 5 4.4479 5.2060 -9.4530 1.7187 34.5836 2.6792
# 6 7.6438 4.6007 -9.4696 7.9971 2.6792 25.2423
#
#
#
# Elastic Compliance Matrix: (Units=1/GPa)
#
#
# Indices 1 2 3 4 5 6 
#
# 1 0.115784 -0.020731 0.018293 0.008986 -0.005147 -0.026721
# 2 -0.020731 0.012659 -0.007717 -0.007293 -0.001259 0.003520
# 3 0.018293 -0.007717 0.014562 0.006147 0.002553 -0.000889
# 4 0.008986 -0.007293 0.006147 0.030069 0.000802 -0.008697
# 5 -0.005147 -0.001259 0.002553 0.000802 0.030482 -0.000744
# 6 -0.026721 0.003520 -0.000889 -0.008697 -0.000744 0.049567
#
#
# Mechanical properties :
#
#
# Convention : Reuss Voigt Hill
#
# Bulk Modulus (GPa) = 8.15041 42.81569 25.48305
# Shear Modulus (GPa) = 15.90672 35.40999 25.65835
#
# Velocity S-wave (km/s) = 2.72290 4.06260 3.45825
# Velocity P-wave (km/s) = 3.69926 6.47788 5.27482
#
# Compressibility (1/GPa) = 0.12269318
#
# Stress axis : x y z
#
# Youngs Moduli (GPa) = 8.63679 78.99295 68.67347
#
# Poissons Ratio (x) = 1.63762 -1.25622
# Poissons Ratio (y) = 0.17905 0.52997
# Poissons Ratio (z) = -0.15799 0.60961
#
# Static dielectric constant tensor:
#      x y z
#    x 1.696050 -0.057510 -0.123830 
#    y -0.057510 1.872540 -0.030950 
#    z -0.123830 -0.030950 1.691610 
# 
# From -- ./inp_files/455467.got.cif
#   From: 2010.05.17/outbox.cif.g08.bks.cpg/sg2_228_cif.got.tgz:455467.got - 2010.06.03 11:33:40.
