data_PCOD9088414
_publ_section_title
;
Structure prediction by ZEFSAII (Michael W. Deem and Ramdas Pophale) SiO2 
 PCOD9088414
Probable space group: P -1
;
_chemical_formula_sum "Si O2"
_cell_formula_units_Z 16
_cell_length_a 8.929487
_cell_length_b 20.711698
_cell_length_c 12.444303
_cell_angle_alpha 26.128615
_cell_angle_beta 120.882867
_cell_angle_gamma 128.131912
_cell_volume 791.626281
_symmetry_space_group_name_H-M "P -1"
_symmetry_group_IT_number 2
_symmetry_cell_setting 'triclinic'
loop_
_space_group_symop_operation_xyz
x,y,z
-x,-y,-z
loop_
_atom_site_type_symbol
_atom_site_label
_atom_site_fract_x
_atom_site_fract_y
_atom_site_fract_z
Si Si1 0.118374 0.615286 0.689477
Si Si2 0.243404 0.353733 0.405636
Si Si3 0.150833 0.846525 0.782203
Si Si4 0.215740 0.308582 0.225917
Si Si5 0.558723 0.264798 0.061412
Si Si6 0.467198 0.320052 0.725855
Si Si7 0.531480 0.812512 0.613669
Si Si8 0.910851 0.424153 0.692810
O O1 0.326996 0.760328 0.559388
O O2 0.970685 0.656496 0.645334
O O3 0.009681 0.560392 0.617253
O O4 0.162112 0.462681 0.970501
O O5 0.272602 0.294240 0.389454
O O6 0.307941 0.268137 0.652742
O O7 0.374054 0.545601 0.174795
O O8 0.259140 0.763404 0.871904
O O9 0.976820 0.844259 0.650635
O O10 0.313560 0.015121 0.623539
O O11 0.053919 0.728142 0.023369
O O12 0.380832 0.314298 0.197371
O O13 0.486430 0.180305 0.274543
O O14 0.425681 0.222781 0.968469
O O15 0.500000 0.500000 0.500000
O O16 0.679182 0.350358 0.717033
O O17 0.000000 0.500000 0.500000
#
# Coordination Sequence:
#
# PCOD9088414 Si02
#       8
#     2   2   2   2   2   2   2   2
#     4  11  21  37  57  91 113 153 208 240 296 341
#     4  11  19  36  62  86 119 153 204 252 276 354
#     4  10  22  42  58  86 121 157 196 233 309 358
#     4  11  22  37  59  86 119 155 198 250 294 340
#     4  10  19  37  61  85 119 156 195 241 291 351
#     4   9  18  34  57  91 113 149 195 242 291 333
#     4  12  24  35  60  91 122 154 193 251 298 350
#     4  10  21  38  65  86 117 154 196 249 287 355
#
# _framework density 20.211558
#
# number of rings (size 3 to 8) (size 9 to 14) (size 15 to 20)
#    0.000    1.500    6.250    2.250    1.750    3.000 
#    0.000    0.625    0.000    3.750    0.000    0.000 
#    0.000    0.000    0.000    0.000    0.000    0.000 
#
# Total GULP energy -89194.323439 kJ/mol
# GULP energy per Si atom -5574.645215 kJ/mol
# Density = 2.016556 g / cm^3
# Si number density = 20.211558 Si / 1000 Ang^3
#
#
#
# Elastic Constant Matrix: (Units=GPa)
#
#
# Indices 1 2 3 4 5 6 
#
# 1 76.2828 29.5809 19.2704 22.6629 -9.9323 -5.1019
# 2 29.5809 90.3567 32.9428 6.4975 -8.1745 8.2968
# 3 19.2704 32.9428 47.5370 7.2395 -17.9526 -3.3938
# 4 22.6629 6.4975 7.2395 33.0775 1.4904 -6.0624
# 5 -9.9323 -8.1745 -17.9526 1.4904 22.1493 5.8889
# 6 -5.1019 8.2968 -3.3938 -6.0624 5.8889 27.9915
#
#
#
# Elastic Compliance Matrix: (Units=1/GPa)
#
#
# Indices 1 2 3 4 5 6 
#
# 1 0.019932 -0.005131 0.000623 -0.013034 0.008248 0.000671
# 2 -0.005131 0.017255 -0.012237 0.001859 -0.004322 -0.006221
# 3 0.000623 -0.012237 0.042006 -0.008460 0.030208 0.000646
# 4 -0.013034 0.001859 -0.008460 0.043082 -0.017313 0.009021
# 5 0.008248 -0.004322 0.030208 -0.017313 0.076461 -0.013389
# 6 0.000671 -0.006221 0.000646 0.009021 -0.013389 0.042540
#
#
# Mechanical properties :
#
#
# Convention : Reuss Voigt Hill
#
# Bulk Modulus (GPa) = 21.87957 41.97385 31.92671
# Shear Modulus (GPa) = 17.24130 25.46915 21.35523
#
# Velocity S-wave (km/s) = 2.92386 3.55368 3.25404
# Velocity P-wave (km/s) = 4.71671 6.13600 5.47256
#
# Compressibility (1/GPa) = 0.04570473
#
# Stress axis : x y z
#
# Youngs Moduli (GPa) = 50.16976 57.95388 23.80584
#
# Poissons Ratio (x) = 0.29735 -0.01484
# Poissons Ratio (y) = 0.25741 0.29132
# Poissons Ratio (z) = -0.03128 0.70919
#
# Static dielectric constant tensor:
#      x y z
#    x 1.641770 -0.169270 -0.038490 
#    y -0.169270 1.423350 -0.112540 
#    z -0.038490 -0.112540 1.714070 
# 
# From -- ./inp_files/239336.got.cif
#   From: 2010.05.17/outbox.cif.g08.bks.cpg/sg2_120_cif.got.tgz:239336.got - 2010.06.03 11:33:40.
