data_PCOD9088700
_publ_section_title
;
Structure prediction by ZEFSAII (Michael W. Deem and Ramdas Pophale) SiO2 
 PCOD9088700
Probable space group: P -1
;
_chemical_formula_sum "Si O2"
_cell_formula_units_Z 16
_cell_length_a 11.144895
_cell_length_b 8.768814
_cell_length_c 14.843335
_cell_angle_alpha 90.730574
_cell_angle_beta 52.547932
_cell_angle_gamma 126.057298
_cell_volume 784.854025
_symmetry_space_group_name_H-M "P -1"
_symmetry_group_IT_number 2
_symmetry_cell_setting 'triclinic'
loop_
_space_group_symop_operation_xyz
x,y,z
-x,-y,-z
loop_
_atom_site_type_symbol
_atom_site_label
_atom_site_fract_x
_atom_site_fract_y
_atom_site_fract_z
Si Si1 0.066381 0.644438 0.055990
Si Si2 0.589681 0.404514 0.759881
Si Si3 0.533125 0.095274 0.888101
Si Si4 0.772075 0.280789 0.555386
Si Si5 0.755048 0.742149 0.377164
Si Si6 0.172466 0.211917 0.857909
Si Si7 0.972589 0.574061 0.301223
Si Si8 0.936688 0.082544 0.456494
O O1 0.013874 0.544564 0.180344
O O2 0.926633 0.695589 0.112737
O O3 0.000000 0.500000 0.000000
O O4 0.327785 0.870631 0.928666
O O5 0.512051 0.261815 0.885188
O O6 0.603056 0.270664 0.682198
O O7 0.409306 0.384134 0.800936
O O8 0.828018 0.658061 0.666788
O O9 0.790632 0.251951 0.754431
O O10 0.500000 0.000000 0.000000
O O11 0.000000 0.500000 0.500000
O O12 0.802261 0.351291 0.437479
O O13 0.769084 0.095285 0.562763
O O14 0.500000 0.500000 0.500000
O O15 0.798860 0.832785 0.256368
O O16 0.893643 0.689779 0.331631
O O17 0.830340 0.919883 0.418198
O O18 0.000000 0.000000 0.000000
O O19 0.000000 0.000000 0.500000
#
# Coordination Sequence:
#
# PCOD9088700 Si02
#       8
#     2   2   2   2   2   2   2   2
#     4  10  23  41  63  92 126 166 213 260 321 384
#     4  11  22  43  67  93 131 170 217 266 318 386
#     4  10  20  39  66  88 123 167 214 261 317 371
#     4  10  19  37  62  94 123 157 209 268 312 368
#     4  11  24  44  64  93 134 175 210 269 327 386
#     4  11  23  43  63  92 135 173 206 266 332 381
#     4  10  20  40  68  87 125 166 212 260 319 376
#     4  11  23  39  66  99 129 166 220 268 321 386
#
# _framework density 20.385954999999999
#
# number of rings (size 3 to 8) (size 9 to 14) (size 15 to 20)
#    0.000    1.500    3.750    3.000    0.000    2.000 
#    4.500    1.875    0.000    0.000    0.000    0.000 
#    0.000    0.000    0.000    0.000    0.000    0.000 
#
# Total GULP energy -89179.188899 kJ/mol
# GULP energy per Si atom -5573.699306 kJ/mol
# Density = 2.033956 g / cm^3
# Si number density = 20.385955 Si / 1000 Ang^3
#
#
#
# Elastic Constant Matrix: (Units=GPa)
#
#
# Indices 1 2 3 4 5 6 
#
# 1 108.0714 37.7260 27.0414 -1.1471 5.1397 9.9759
# 2 37.7260 125.7330 42.1344 11.8439 10.8728 19.8913
# 3 27.0414 42.1344 90.8169 3.0456 23.1945 8.4301
# 4 -1.1471 11.8439 3.0456 27.3925 -2.6490 -0.6130
# 5 5.1397 10.8728 23.1945 -2.6490 46.1820 -10.7804
# 6 9.9759 19.8913 8.4301 -0.6130 -10.7804 33.0076
#
#
#
# Elastic Compliance Matrix: (Units=1/GPa)
#
#
# Indices 1 2 3 4 5 6 
#
# 1 0.010766 -0.002572 -0.002051 0.001796 0.000295 -0.001051
# 2 -0.002572 0.011478 -0.003141 -0.005113 -0.002598 -0.006281
# 3 -0.002051 -0.003141 0.015496 -0.001298 -0.007829 -0.004026
# 4 0.001796 -0.005113 -0.001298 0.039554 0.005159 0.005289
# 5 0.000295 -0.002598 -0.007829 0.005159 0.029547 0.013222
# 6 -0.001051 -0.006281 -0.004026 0.005289 0.013222 0.039843
#
#
# Mechanical properties :
#
#
# Convention : Reuss Voigt Hill
#
# Bulk Modulus (GPa) = 45.01998 59.82500 52.42249
# Shear Modulus (GPa) = 29.47867 35.83105 32.65486
#
# Velocity S-wave (km/s) = 3.80679 4.19696 4.00663
# Velocity P-wave (km/s) = 6.43848 7.27296 6.86840
#
# Compressibility (1/GPa) = 0.02221236
#
# Stress axis : x y z
#
# Youngs Moduli (GPa) = 92.88540 87.12690 64.53294
#
# Poissons Ratio (x) = 0.22405 0.13233
# Poissons Ratio (y) = 0.23886 0.20272
# Poissons Ratio (z) = 0.19047 0.27370
#
# Static dielectric constant tensor:
#      x y z
#    x 1.765280 -0.004090 0.040300 
#    y -0.004090 1.700770 0.001740 
#    z 0.040300 0.001740 1.836240 
# 
# From -- ./inp_files/515760.got.cif
#   From: 2010.05.17/outbox.cif.g08.bks.cpg/sg2_258_cif.got.tgz:515760.got - 2010.06.03 11:33:40.
