data_PCOD9088811
_publ_section_title
;
Structure prediction by ZEFSAII (Michael W. Deem and Ramdas Pophale) SiO2 
 PCOD9088811
Probable space group: P -1
;
_chemical_formula_sum "Si O2"
_cell_formula_units_Z 16
_cell_length_a 15.285136
_cell_length_b 10.285947
_cell_length_c 14.776659
_cell_angle_alpha 74.508837
_cell_angle_beta 32.472268
_cell_angle_gamma 98.360485
_cell_volume 838.444987
_symmetry_space_group_name_H-M "P -1"
_symmetry_group_IT_number 2
_symmetry_cell_setting 'triclinic'
loop_
_space_group_symop_operation_xyz
x,y,z
-x,-y,-z
loop_
_atom_site_type_symbol
_atom_site_label
_atom_site_fract_x
_atom_site_fract_y
_atom_site_fract_z
Si Si1 0.991411 0.636701 0.429564
Si Si2 0.311200 0.962356 0.521112
Si Si3 0.207215 0.583690 0.699908
Si Si4 0.488630 0.019546 0.159109
Si Si5 0.607932 0.353955 0.668211
Si Si6 0.031038 0.859859 0.511271
Si Si7 0.314212 0.638206 0.792953
Si Si8 0.184795 0.300193 0.075000
O O1 0.939095 0.722451 0.531632
O O2 0.000000 0.500000 0.500000
O O3 0.802212 0.521752 0.536763
O O4 0.247645 0.809506 0.133063
O O5 0.460585 0.136290 0.428912
O O6 0.281728 0.786407 0.601750
O O7 0.447626 0.050620 0.290146
O O8 0.050211 0.860894 0.748861
O O9 0.309734 0.582670 0.519286
O O10 0.295859 0.573904 0.718120
O O11 0.925201 0.418455 0.973728
O O12 0.419977 0.821787 0.257283
O O13 0.304409 0.985784 0.261753
O O14 0.367058 0.288075 0.908033
O O15 0.902929 0.738353 0.738042
O O16 0.000000 0.000000 0.500000
O O17 0.301112 0.506603 0.898643
#
# Coordination Sequence:
#
# PCOD9088811 Si02
#       8
#     2   2   2   2   2   2   2   2
#     4  12  25  38  66  90 115 164 209 244 305 368
#     4   9  19  37  62  84 120 158 199 241 307 363
#     4   9  20  37  62  92 117 159 195 255 302 354
#     4  10  22  40  59  85 120 157 197 259 295 356
#     4  11  23  42  59  87 127 155 206 249 307 363
#     4  11  24  42  62  87 125 160 203 255 307 356
#     4  10  19  37  63  89 121 152 207 247 300 365
#     4  10  24  38  57  87 123 160 196 256 302 354
#
# _framework density 19.082946
#
# number of rings (size 3 to 8) (size 9 to 14) (size 15 to 20)
#    0.000    1.750    1.250    3.000    3.500    4.000 
#    0.000    0.625    0.000    0.000    0.000    0.000 
#    0.000    0.000    0.000    0.000    0.000    0.000 
#
# Total GULP energy -89411.960805 kJ/mol
# GULP energy per Si atom -5588.247550 kJ/mol
# Density = 1.903951 g / cm^3
# Si number density = 19.082946 Si / 1000 Ang^3
#
#
#
# Elastic Constant Matrix: (Units=GPa)
#
#
# Indices 1 2 3 4 5 6 
#
# 1 87.3274 40.6828 38.3659 0.6116 -2.3008 8.6013
# 2 40.6828 83.7555 34.8721 5.6625 -15.2143 9.0151
# 3 38.3659 34.8721 93.9764 4.8988 -7.0974 13.2626
# 4 0.6116 5.6625 4.8988 24.0349 -5.1043 -1.4817
# 5 -2.3008 -15.2143 -7.0974 -5.1043 24.5948 -2.2998
# 6 8.6013 9.0151 13.2626 -1.4817 -2.2998 24.9238
#
#
#
# Elastic Compliance Matrix: (Units=1/GPa)
#
#
# Indices 1 2 3 4 5 6 
#
# 1 0.016600 -0.006878 -0.004411 0.001211 -0.003833 -0.001175
# 2 -0.006878 0.018574 -0.003003 -0.001706 0.009441 -0.001977
# 3 -0.004411 -0.003003 0.014471 -0.002242 0.000960 -0.005136
# 4 0.001211 -0.001706 -0.002242 0.044445 0.008082 0.004780
# 5 -0.003833 0.009441 0.000960 0.008082 0.048313 0.002336
# 6 -0.001175 -0.001977 -0.005136 0.004780 0.002336 0.044476
#
#
# Mechanical properties :
#
#
# Convention : Reuss Voigt Hill
#
# Bulk Modulus (GPa) = 47.48661 54.76678 51.12670
# Shear Modulus (GPa) = 22.47357 24.78660 23.63009
#
# Velocity S-wave (km/s) = 3.43545 3.60792 3.52274
# Velocity P-wave (km/s) = 6.37768 6.79100 6.58758
#
# Compressibility (1/GPa) = 0.02105857
#
# Stress axis : x y z
#
# Youngs Moduli (GPa) = 60.24188 53.83892 69.10552
#
# Poissons Ratio (x) = 0.37031 0.30485
# Poissons Ratio (y) = 0.41435 0.20755
# Poissons Ratio (z) = 0.26575 0.16170
#
# Static dielectric constant tensor:
#      x y z
#    x 1.681820 0.007810 0.017860 
#    y 0.007810 1.644630 0.000170 
#    z 0.017860 0.000170 1.638890 
# 
# From -- ./inp_files/52085.got.cif
#   From: 2010.05.17/outbox.cif.g08.bks.cpg/sg2_27_cif.got.tgz:52085.got - 2010.06.03 11:33:40.
