data_PCOD9088117
_publ_section_title
;
Structure prediction by ZEFSAII (Michael W. Deem and Ramdas Pophale) SiO2 
 PCOD9088117
Probable space group: P -1
;
_chemical_formula_sum "Si O2"
_cell_formula_units_Z 16
_cell_length_a 20.367942
_cell_length_b 8.922054
_cell_length_c 17.401958
_cell_angle_alpha 45.413519
_cell_angle_beta 18.571420
_cell_angle_gamma 44.173999
_cell_volume 698.343146
_symmetry_space_group_name_H-M "P -1"
_symmetry_group_IT_number 2
_symmetry_cell_setting 'triclinic'
loop_
_space_group_symop_operation_xyz
x,y,z
-x,-y,-z
loop_
_atom_site_type_symbol
_atom_site_label
_atom_site_fract_x
_atom_site_fract_y
_atom_site_fract_z
Si Si1 0.938483 0.982737 0.485654
Si Si2 0.896786 0.454264 0.789676
Si Si3 0.711056 0.852444 0.039889
Si Si4 0.790013 0.122915 0.147110
Si Si5 0.371825 0.405215 0.327278
Si Si6 0.570710 0.914398 0.336969
Si Si7 0.505364 0.262261 0.822043
Si Si8 0.736456 0.318294 0.858424
O O1 0.691016 0.058992 0.712787
O O2 0.052775 0.156506 0.251285
O O3 0.000000 0.000000 0.500000
O O4 0.062025 0.748253 0.398655
O O5 0.859846 0.326309 0.799743
O O6 0.137427 0.448599 0.541188
O O7 0.828944 0.322398 0.983665
O O8 0.726613 0.683194 0.899350
O O9 0.636033 0.113427 0.025082
O O10 0.689693 0.797432 0.172425
O O11 0.560171 0.756040 0.186673
O O12 0.604069 0.189280 0.391826
O O13 0.723437 0.959474 0.218515
O O14 0.000000 0.000000 0.000000
O O15 0.400475 0.541349 0.321462
O O16 0.449596 0.155860 0.356166
O O17 0.516055 0.480192 0.072320
#
# Coordination Sequence:
#
# PCOD9088117 Si02
#       8
#     2   2   2   2   2   2   2   2
#     4  10  22  39  62  91 114 147 194 243 291 351
#     4  11  20  38  59  89 115 160 194 241 287 336
#     4   9  20  38  58  85 113 152 194 234 294 344
#     4  11  19  31  58  87 115 150 201 247 274 325
#     4  10  19  37  59  84 117 152 197 234 282 347
#     4  10  20  35  57  87 111 150 206 237 275 340
#     4  11  22  37  61  86 122 152 190 236 301 349
#     4   8  20  36  60  85 109 152 196 233 282 347
#
# _framework density 22.911370000000002
#
# number of rings (size 3 to 8) (size 9 to 14) (size 15 to 20)
#    0.750    1.250    5.000    0.750    3.500    1.500 
#    0.000    3.125    0.000    6.750    0.000    0.000 
#    0.000    0.000    0.000    0.000    0.000    0.000 
#
# Total GULP energy -89070.649828 kJ/mol
# GULP energy per Si atom -5566.915614 kJ/mol
# Density = 2.285922 g / cm^3
# Si number density = 22.911370 Si / 1000 Ang^3
#
#
#
# Elastic Constant Matrix: (Units=GPa)
#
#
# Indices 1 2 3 4 5 6 
#
# 1 132.4045 35.8317 105.3231 15.0281 15.0768 21.2565
# 2 35.8317 57.9379 32.6713 9.8808 -1.6692 2.4358
# 3 105.3231 32.6713 127.3102 40.7627 -28.4064 -11.6086
# 4 15.0281 9.8808 40.7627 29.4133 4.6732 2.8310
# 5 15.0768 -1.6692 -28.4064 4.6732 41.5171 0.0157
# 6 21.2565 2.4358 -11.6086 2.8310 0.0157 28.3799
#
#
#
# Elastic Compliance Matrix: (Units=1/GPa)
#
#
# Indices 1 2 3 4 5 6 
#
# 1 -0.003788 -0.002180 0.013794 -0.019522 0.012919 0.010607
# 2 -0.002180 0.020860 -0.003838 -0.000258 -0.000966 -0.001701
# 3 0.013794 -0.003838 -0.012685 0.015918 -0.015628 -0.016770
# 4 -0.019522 -0.000258 0.015918 0.017594 0.015982 0.019391
# 5 0.012919 -0.000966 -0.015628 0.015982 0.006871 -0.017584
# 6 0.010607 -0.001701 -0.016770 0.019391 -0.017584 0.018653
#
#
# Mechanical properties :
#
#
# Convention : Reuss Voigt Hill
#
# Bulk Modulus (GPa) = 50.15226 73.92275 62.03750
# Shear Modulus (GPa) = 129.53526 29.45050 79.49288
#
# Velocity S-wave (km/s) = 7.52730 3.58915 5.89671
# Velocity P-wave (km/s) = 9.87341 7.03638 8.57307
#
# Compressibility (1/GPa) = 0.01993928
#
# Stress axis : x y z
#
# Youngs Moduli (GPa) = -263.97865 47.93895 -78.83553
#
# Poissons Ratio (x) = 0.10451 1.08745
# Poissons Ratio (y) = -0.57547 -0.30255
# Poissons Ratio (z) = 3.64130 0.18398
#
# Static dielectric constant tensor:
#      x y z
#    x 1.863300 -0.029580 0.079670 
#    y -0.029580 1.931500 -0.003940 
#    z 0.079670 -0.003940 1.985070 
# 
# From -- ./inp_files/577577.got.cif
#   From: 2010.05.17/outbox.cif.g08.bks.cpg/sg2_289_cif.got.tgz:577577.got - 2010.06.03 11:33:40.
