data_PCOD9088740
_publ_section_title
;
Structure prediction by ZEFSAII (Michael W. Deem and Ramdas Pophale) SiO2 
 PCOD9088740
Probable space group: P -1
;
_chemical_formula_sum "Si O2"
_cell_formula_units_Z 16
_cell_length_a 7.446510
_cell_length_b 23.928470
_cell_length_c 13.691367
_cell_angle_alpha 22.481724
_cell_angle_beta 59.997131
_cell_angle_gamma 50.494539
_cell_volume 687.185545
_symmetry_space_group_name_H-M "P -1"
_symmetry_group_IT_number 2
_symmetry_cell_setting 'triclinic'
loop_
_space_group_symop_operation_xyz
x,y,z
-x,-y,-z
loop_
_atom_site_type_symbol
_atom_site_label
_atom_site_fract_x
_atom_site_fract_y
_atom_site_fract_z
Si Si1 0.697464 0.129194 0.562738
Si Si2 0.845513 0.923807 0.598152
Si Si3 0.359986 0.456101 0.001397
Si Si4 0.229051 0.032576 0.003208
Si Si5 0.624502 0.020724 0.167192
Si Si6 0.853385 0.735312 0.731444
Si Si7 0.250275 0.724912 0.947944
Si Si8 0.301161 0.698083 0.210537
O O1 0.945650 0.077514 0.523592
O O2 0.488377 0.314876 0.280132
O O3 0.600952 0.001374 0.766742
O O4 0.756557 0.104480 0.701506
O O5 0.986166 0.800772 0.848797
O O6 0.743951 0.836675 0.697957
O O7 0.691494 0.124953 0.339408
O O8 0.221780 0.400801 0.052236
O O9 0.569315 0.441052 0.898254
O O10 0.146749 0.627475 0.830352
O O11 0.232080 0.004340 0.932313
O O12 0.975749 0.209232 0.817710
O O13 0.500000 0.000000 0.000000
O O14 0.769276 0.868030 0.451570
O O15 0.592736 0.187252 0.961627
O O16 0.270569 0.705477 0.089181
O O17 0.500000 0.500000 0.500000
#
# Coordination Sequence:
#
# PCOD9088740 Si02
#       8
#     2   2   2   2   2   2   2   2
#     4   9  18  38  60  88 120 152 204 253 299 362
#     4  10  19  37  63  83 118 162 198 244 309 374
#     4   9  21  35  59  92 122 153 198 256 297 367
#     4  10  21  41  67  86 118 165 211 250 302 366
#     4  10  21  39  64  86 118 170 205 251 304 367
#     4  10  19  38  60  89 122 157 205 246 302 364
#     4  10  21  38  56  88 120 158 197 253 310 365
#     4  12  25  43  62  91 125 160 210 262 304 362
#
# _framework density 23.283374999999999
#
# number of rings (size 3 to 8) (size 9 to 14) (size 15 to 20)
#    0.000    2.000    2.500    0.375    1.750    2.500 
#    6.750    2.500    0.000    0.000    0.000    0.000 
#    0.000    0.000    0.000    0.000    0.000    0.000 
#
# Total GULP energy -89233.830661 kJ/mol
# GULP energy per Si atom -5577.114416 kJ/mol
# Density = 2.323038 g / cm^3
# Si number density = 23.283375 Si / 1000 Ang^3
#
#
#
# Elastic Constant Matrix: (Units=GPa)
#
#
# Indices 1 2 3 4 5 6 
#
# 1 88.1162 17.9238 12.8921 3.3652 2.4924 11.4677
# 2 17.9238 136.5337 40.1434 4.3336 24.7060 9.3035
# 3 12.8921 40.1434 75.2366 0.3339 26.3838 1.6546
# 4 3.3652 4.3336 0.3339 45.1657 5.2566 13.1147
# 5 2.4924 24.7060 26.3838 5.2566 39.5643 7.7400
# 6 11.4677 9.3035 1.6546 13.1147 7.7400 50.4637
#
#
#
# Elastic Compliance Matrix: (Units=1/GPa)
#
#
# Indices 1 2 3 4 5 6 
#
# 1 0.012195 -0.001138 -0.002086 -0.000212 0.001896 -0.002729
# 2 -0.001138 0.009144 -0.003591 -0.000179 -0.003065 -0.000793
# 3 -0.002086 -0.003591 0.019406 0.001090 -0.011087 0.001917
# 4 -0.000212 -0.000179 0.001090 0.024168 -0.002673 -0.005825
# 5 0.001896 -0.003065 -0.011087 -0.002673 0.035655 -0.004276
# 6 -0.002729 -0.000793 0.001917 -0.005825 -0.004276 0.022689
#
#
# Mechanical properties :
#
#
# Convention : Reuss Voigt Hill
#
# Bulk Modulus (GPa) = 36.88074 49.08947 42.98510
# Shear Modulus (GPa) = 34.26418 42.30056 38.28237
#
# Velocity S-wave (km/s) = 3.84033 4.26698 4.05926
# Velocity P-wave (km/s) = 5.96142 6.73836 6.36176
#
# Compressibility (1/GPa) = 0.02711443
#
# Stress axis : x y z
#
# Youngs Moduli (GPa) = 82.00113 109.36630 51.53096
#
# Poissons Ratio (x) = 0.12444 0.10751
# Poissons Ratio (y) = 0.09330 0.18504
# Poissons Ratio (z) = 0.17108 0.39271
#
# Static dielectric constant tensor:
#      x y z
#    x 2.019090 -0.034550 -0.028620 
#    y -0.034550 1.947200 -0.020530 
#    z -0.028620 -0.020530 1.864760 
# 
# From -- ./inp_files/508966.got.cif
#   From: 2010.05.17/outbox.cif.g08.bks.cpg/sg2_255_cif.got.tgz:508966.got - 2010.06.03 11:33:40.
