data_PCOD9088086
_publ_section_title
;
Structure prediction by ZEFSAII (Michael W. Deem and Ramdas Pophale) SiO2 
 PCOD9088086
Probable space group: P -1
;
_chemical_formula_sum "Si O2"
_cell_formula_units_Z 16
_cell_length_a 7.086333
_cell_length_b 19.940072
_cell_length_c 10.101568
_cell_angle_alpha 105.629331
_cell_angle_beta 67.878822
_cell_angle_gamma 140.687810
_cell_volume 837.153075
_symmetry_space_group_name_H-M "P -1"
_symmetry_group_IT_number 2
_symmetry_cell_setting 'triclinic'
loop_
_space_group_symop_operation_xyz
x,y,z
-x,-y,-z
loop_
_atom_site_type_symbol
_atom_site_label
_atom_site_fract_x
_atom_site_fract_y
_atom_site_fract_z
Si Si1 0.128783 0.909257 0.252397
Si Si2 0.780784 0.403348 0.606444
Si Si3 0.260547 0.587719 0.080739
Si Si4 0.708218 0.903764 0.782060
Si Si5 0.578496 0.930621 0.310717
Si Si6 0.396295 0.770532 0.059185
Si Si7 0.483161 0.182891 0.503148
Si Si8 0.777587 0.682519 0.156884
O O1 0.852942 0.875811 0.388938
O O2 0.978959 0.805790 0.157940
O O3 0.263711 0.004907 0.175880
O O4 0.378315 0.940458 0.303868
O O5 0.713935 0.306508 0.533681
O O6 0.449739 0.358406 0.682045
O O7 0.000000 0.500000 0.500000
O O8 0.888543 0.433296 0.747229
O O9 0.439212 0.701420 0.041808
O O10 0.540533 0.608418 0.059710
O O11 0.000000 0.500000 0.000000
O O12 0.540749 0.841581 0.656615
O O13 0.532299 0.829679 0.915762
O O14 0.056072 0.961886 0.717714
O O15 0.541355 0.855893 0.180006
O O16 0.453479 0.868303 0.449755
O O17 0.026898 0.687818 0.114928
#
# Coordination Sequence:
#
# PCOD9088086 Si02
#       8
#     2   2   2   2   2   2   2   2
#     4   9  18  36  57  79 114 152 184 224 270 325
#     4   9  19  40  64  78 106 144 186 229 281 330
#     4  10  21  38  61  82 108 143 183 231 285 326
#     4  11  23  30  55  90 113 147 189 223 266 328
#     4  10  19  37  59  78 113 155 187 223 271 322
#     4  11  21  38  57  80 118 148 182 227 276 331
#     4  10  20  37  54  81 116 146 180 235 279 316
#     4   8  20  37  59  79 113 146 177 229 286 316
#
# _framework density 19.112393000000001
#
# number of rings (size 3 to 8) (size 9 to 14) (size 15 to 20)
#    0.750    1.500    1.250    2.625    1.750    5.500 
#    0.000    0.625    2.750    0.000    0.000    0.000 
#    0.000    0.000    0.000    0.000    0.000    0.000 
#
# Total GULP energy -89173.747611 kJ/mol
# GULP energy per Si atom -5573.359226 kJ/mol
# Density = 1.906889 g / cm^3
# Si number density = 19.112393 Si / 1000 Ang^3
#
#
#
# Elastic Constant Matrix: (Units=GPa)
#
#
# Indices 1 2 3 4 5 6 
#
# 1 66.6529 20.4137 -0.7472 -4.6333 20.6564 6.6064
# 2 20.4137 59.3088 45.6059 -14.1270 14.7641 3.9787
# 3 -0.7472 45.6059 99.9065 -1.7408 31.7041 4.1720
# 4 -4.6333 -14.1270 -1.7408 38.7983 -0.3121 14.2977
# 5 20.6564 14.7641 31.7041 -0.3121 23.7943 3.2069
# 6 6.6064 3.9787 4.1720 14.2977 3.2069 21.4456
#
#
#
# Elastic Compliance Matrix: (Units=1/GPa)
#
#
# Indices 1 2 3 4 5 6 
#
# 1 0.042031 -0.021955 0.030468 -0.000153 -0.062747 -0.005316
# 2 -0.021955 0.043931 -0.030161 0.016574 0.033772 -0.011619
# 3 0.030468 -0.030161 0.045696 -0.006598 -0.068983 0.002035
# 4 -0.000153 0.016574 -0.006598 0.042886 0.003359 -0.030838
# 5 -0.062747 0.033772 -0.068983 0.003359 0.167613 -0.000820
# 6 -0.005316 -0.011619 0.002035 -0.030838 -0.000820 0.070710
#
#
# Mechanical properties :
#
#
# Convention : Reuss Voigt Hill
#
# Bulk Modulus (GPa) = 11.31725 39.60146 25.45936
# Shear Modulus (GPa) = 10.29618 27.51403 18.90510
#
# Velocity S-wave (km/s) = 2.32355 3.79831 3.14849
# Velocity P-wave (km/s) = 3.62392 6.32467 5.15433
#
# Compressibility (1/GPa) = 0.08836069
#
# Stress axis : x y z
#
# Youngs Moduli (GPa) = 23.79200 22.76317 21.88361
#
# Poissons Ratio (x) = 0.49977 -0.66675
# Poissons Ratio (y) = 0.52236 0.66003
# Poissons Ratio (z) = -0.72489 0.68656
#
# Static dielectric constant tensor:
#      x y z
#    x 1.693920 0.003910 -0.004660 
#    y 0.003910 1.668680 0.024210 
#    z -0.004660 0.024210 1.651540 
# 
# From -- ./inp_files/225454.got.cif
#   From: 2010.05.17/outbox.cif.g08.bks.cpg/sg2_113_cif.got.tgz:225454.got - 2010.06.03 11:33:40.
