data_PCOD9088521
_publ_section_title
;
Structure prediction by ZEFSAII (Michael W. Deem and Ramdas Pophale) SiO2 
 PCOD9088521
Probable space group: P -1
;
_chemical_formula_sum "Si O2"
_cell_formula_units_Z 16
_cell_length_a 13.833954
_cell_length_b 11.271450
_cell_length_c 10.101843
_cell_angle_alpha 58.081500
_cell_angle_beta 140.812391
_cell_angle_gamma 97.905839
_cell_volume 727.864628
_symmetry_space_group_name_H-M "P -1"
_symmetry_group_IT_number 2
_symmetry_cell_setting 'triclinic'
loop_
_space_group_symop_operation_xyz
x,y,z
-x,-y,-z
loop_
_atom_site_type_symbol
_atom_site_label
_atom_site_fract_x
_atom_site_fract_y
_atom_site_fract_z
Si Si1 0.351968 0.630186 0.663419
Si Si2 0.523234 0.738758 0.368664
Si Si3 0.132553 0.506244 0.959297
Si Si4 0.701232 0.909475 0.019469
Si Si5 0.013649 0.361665 0.694521
Si Si6 0.780635 0.818597 0.459263
Si Si7 0.378263 0.616129 0.080453
Si Si8 0.361930 0.874092 0.701255
O O1 0.450518 0.556401 0.673655
O O2 0.314288 0.807389 0.559413
O O3 0.175664 0.621214 0.493579
O O4 0.500000 0.500000 0.000000
O O5 0.697005 0.604542 0.705945
O O6 0.609322 0.798635 0.310278
O O7 0.407708 0.670959 0.221705
O O8 0.401399 0.899106 0.228525
O O9 0.205730 0.600376 0.891992
O O10 0.084882 0.394704 0.886772
O O11 0.958402 0.645431 0.764041
O O12 0.851496 0.806031 0.134372
O O13 0.773939 0.878635 0.266305
O O14 0.554047 0.854577 0.893310
O O15 0.000000 0.500000 0.500000
O O16 0.761454 0.946735 0.474988
O O17 0.365761 0.753393 0.888676
#
# Coordination Sequence:
#
# PCOD9088521 Si02
#       8
#     2   2   2   2   2   2   2   2
#     4  10  22  35  59  90 123 158 194 257 308 352
#     4  11  23  43  61  90 128 165 202 243 312 366
#     4  12  26  37  63  94 125 165 200 252 305 364
#     4  11  21  39  68  88 122 162 205 255 297 360
#     4  12  22  39  61  93 124 155 212 254 299 360
#     4  11  21  39  64  91 120 161 206 257 296 355
#     4  11  20  39  60  87 128 162 201 243 308 367
#     4  10  19  37  61  92 119 157 205 251 304 353
#
# _framework density 21.982109000000001
#
# number of rings (size 3 to 8) (size 9 to 14) (size 15 to 20)
#    0.000    1.000    3.750    6.000    0.000    2.000 
#    0.000    0.000    0.000    4.500    0.000    0.000 
#    0.000    0.000    0.000    0.000    0.000    0.000 
#
# Total GULP energy -89447.031637 kJ/mol
# GULP energy per Si atom -5590.439477 kJ/mol
# Density = 2.193208 g / cm^3
# Si number density = 21.982109 Si / 1000 Ang^3
#
#
#
# Elastic Constant Matrix: (Units=GPa)
#
#
# Indices 1 2 3 4 5 6 
#
# 1 39.6791 29.6237 14.3356 -2.7125 32.4596 -3.2128
# 2 29.6237 138.2619 43.1890 -0.5949 30.4592 -13.8839
# 3 14.3356 43.1890 90.0327 -10.6767 30.8784 -9.7381
# 4 -2.7125 -0.5949 -10.6767 42.9988 -1.1777 13.1448
# 5 32.4596 30.4592 30.8784 -1.1777 44.5421 -6.1029
# 6 -3.2128 -13.8839 -9.7381 13.1448 -6.1029 25.7545
#
#
#
# Elastic Compliance Matrix: (Units=1/GPa)
#
#
# Indices 1 2 3 4 5 6 
#
# 1 0.073502 -0.007560 0.011717 0.008434 -0.057443 -0.008393
# 2 -0.007560 0.010190 -0.004189 -0.002814 0.002040 0.004886
# 3 0.011717 -0.004189 0.017952 0.004885 -0.018098 -0.000791
# 4 0.008434 -0.002814 0.004885 0.029557 -0.008996 -0.015835
# 5 -0.057443 0.002040 -0.018098 -0.008996 0.076571 0.009827
# 6 -0.008393 0.004886 -0.000791 -0.015835 0.009827 0.050527
#
#
# Mechanical properties :
#
#
# Convention : Reuss Voigt Hill
#
# Bulk Modulus (GPa) = 9.84460 49.14115 29.49288
# Shear Modulus (GPa) = 17.11014 34.71411 25.91213
#
# Velocity S-wave (km/s) = 2.79295 3.97822 3.43707
# Velocity P-wave (km/s) = 3.85862 6.59585 5.40344
#
# Compressibility (1/GPa) = 0.10157849
#
# Stress axis : x y z
#
# Youngs Moduli (GPa) = 13.60506 98.13400 55.70461
#
# Poissons Ratio (x) = 0.74189 -0.65268
# Poissons Ratio (y) = 0.10285 0.23337
# Poissons Ratio (z) = -0.15941 0.41113
#
# Static dielectric constant tensor:
#      x y z
#    x 1.873810 -0.016070 -0.046800 
#    y -0.016070 1.827510 -0.018200 
#    z -0.046800 -0.018200 1.782860 
# 
# From -- ./inp_files/235292.got.cif
#   From: 2010.05.17/outbox.cif.g08.bks.cpg/sg2_118_cif.got.tgz:235292.got - 2010.06.03 11:33:40.
