data_PCOD9088290
_publ_section_title
;
Structure prediction by ZEFSAII (Michael W. Deem and Ramdas Pophale) SiO2 
 PCOD9088290
Probable space group: P -1
;
_chemical_formula_sum "Si O2"
_cell_formula_units_Z 16
_cell_length_a 12.431831
_cell_length_b 11.541180
_cell_length_c 6.841538
_cell_angle_alpha 73.319339
_cell_angle_beta 129.167501
_cell_angle_gamma 90.131048
_cell_volume 707.528001
_symmetry_space_group_name_H-M "P -1"
_symmetry_group_IT_number 2
_symmetry_cell_setting 'triclinic'
loop_
_space_group_symop_operation_xyz
x,y,z
-x,-y,-z
loop_
_atom_site_type_symbol
_atom_site_label
_atom_site_fract_x
_atom_site_fract_y
_atom_site_fract_z
Si Si1 0.620142 0.785613 0.334239
Si Si2 0.717780 0.156776 0.114420
Si Si3 0.417036 0.472192 0.609516
Si Si4 0.819543 0.878235 0.253401
Si Si5 0.328367 0.641081 0.753682
Si Si6 0.165493 0.212625 0.100329
Si Si7 0.934198 0.287143 0.120978
Si Si8 0.129170 0.487516 0.804722
O O1 0.449418 0.829404 0.132939
O O2 0.665540 0.634649 0.476955
O O3 0.680949 0.829351 0.183371
O O4 0.706275 0.837528 0.576928
O O5 0.727613 0.216731 0.311380
O O6 0.791727 0.239616 0.017404
O O7 0.800428 0.014999 0.253120
O O8 0.500000 0.500000 0.500000
O O9 0.339926 0.600993 0.561837
O O10 0.523034 0.402278 0.936292
O O11 0.954740 0.784866 0.552116
O O12 0.836459 0.875541 0.042124
O O13 0.236042 0.555145 0.786774
O O14 0.016812 0.249938 0.031487
O O15 0.188569 0.342379 0.979293
O O16 0.908897 0.431873 0.079895
O O17 0.000000 0.500000 0.500000
#
# Coordination Sequence:
#
# PCOD9088290 Si02
#       8
#     2   2   2   2   2   2   2   2
#     4  10  23  40  63  94 123 161 211 253 308 371
#     4  10  22  43  63  89 127 166 211 256 300 366
#     4  10  19  37  60  87 122 156 188 248 311 364
#     4  11  22  42  66  87 124 170 211 255 302 358
#     4   9  21  37  57  87 120 153 200 243 301 364
#     4  11  23  39  64  93 125 162 202 260 312 364
#     4  10  23  42  62  94 124 160 211 253 313 371
#     4  11  20  39  63  89 121 158 200 252 308 370
#
# _framework density 22.613947
#
# number of rings (size 3 to 8) (size 9 to 14) (size 15 to 20)
#    0.000    1.750    1.250    2.625    1.750    3.000 
#    6.750    6.250    0.000    0.000    0.000    0.000 
#    0.000    0.000    0.000    0.000    0.000    0.000 
#
# Total GULP energy -89422.645270 kJ/mol
# GULP energy per Si atom -5588.915329 kJ/mol
# Density = 2.256248 g / cm^3
# Si number density = 22.613947 Si / 1000 Ang^3
#
#
#
# Elastic Constant Matrix: (Units=GPa)
#
#
# Indices 1 2 3 4 5 6 
#
# 1 109.4280 14.4518 10.5158 19.9878 -13.2180 -3.7275
# 2 14.4518 93.3141 -11.4736 9.9696 -22.8414 -21.1256
# 3 10.5158 -11.4736 30.3181 5.4457 -7.5299 -4.4889
# 4 19.9878 9.9696 5.4457 19.7037 -12.9030 -4.8343
# 5 -13.2180 -22.8414 -7.5299 -12.9030 43.3955 9.6674
# 6 -3.7275 -21.1256 -4.4889 -4.8343 9.6674 32.4673
#
#
#
# Elastic Compliance Matrix: (Units=1/GPa)
#
#
# Indices 1 2 3 4 5 6 
#
# 1 0.011475 -0.001489 -0.002983 -0.010893 -0.000717 -0.001472
# 2 -0.001489 0.016362 0.010338 -0.002698 0.007056 0.009402
# 3 -0.002983 0.010338 0.042399 -0.006521 0.007967 0.008903
# 4 -0.010893 -0.002698 -0.006521 0.076229 0.016213 0.002615
# 5 -0.000717 0.007056 0.007967 0.016213 0.033154 -0.001848
# 6 -0.001472 0.009402 0.008903 0.002615 -0.001848 0.038919
#
#
# Mechanical properties :
#
#
# Convention : Reuss Voigt Hill
#
# Bulk Modulus (GPa) = 12.20005 28.89425 20.54715
# Shear Modulus (GPa) = 21.35586 33.75104 27.55345
#
# Velocity S-wave (km/s) = 3.07639 3.86746 3.49438
# Velocity P-wave (km/s) = 4.24565 5.72258 5.03853
#
# Compressibility (1/GPa) = 0.08196686
#
# Stress axis : x y z
#
# Youngs Moduli (GPa) = 87.14851 61.11694 23.58571
#
# Poissons Ratio (x) = 0.09100 0.07035
# Poissons Ratio (y) = 0.12975 -0.24382
# Poissons Ratio (z) = 0.25995 -0.63180
#
# Static dielectric constant tensor:
#      x y z
#    x 1.847540 -0.061490 -0.015090 
#    y -0.061490 1.844580 -0.018840 
#    z -0.015090 -0.018840 1.816990 
# 
# From -- ./inp_files/70139.got.cif
#   From: 2010.05.17/outbox.cif.g08.bks.cpg/sg2_36_cif.got.tgz:70139.got - 2010.06.03 11:33:40.
