data_PCOD9088142
_publ_section_title
;
Structure prediction by ZEFSAII (Michael W. Deem and Ramdas Pophale) SiO2 
 PCOD9088142
Probable space group: P -1
;
_chemical_formula_sum "Si O2"
_cell_formula_units_Z 16
_cell_length_a 12.261737
_cell_length_b 7.892706
_cell_length_c 7.691675
_cell_angle_alpha 102.970751
_cell_angle_beta 125.425998
_cell_angle_gamma 90.828610
_cell_volume 581.219621
_symmetry_space_group_name_H-M "P -1"
_symmetry_group_IT_number 2
_symmetry_cell_setting 'triclinic'
loop_
_space_group_symop_operation_xyz
x,y,z
-x,-y,-z
loop_
_atom_site_type_symbol
_atom_site_label
_atom_site_fract_x
_atom_site_fract_y
_atom_site_fract_z
Si Si1 0.943320 0.986082 0.652501
Si Si2 0.449089 0.821742 0.145724
Si Si3 0.054427 0.651135 0.769507
Si Si4 0.704457 0.533476 0.184351
Si Si5 0.777703 0.746268 0.971212
Si Si6 0.294635 0.917239 0.683449
Si Si7 0.262136 0.947521 0.225564
Si Si8 0.222552 0.526687 0.391639
O O1 0.854729 0.035528 0.421458
O O2 0.826678 0.983007 0.690836
O O3 0.978094 0.791237 0.633924
O O4 0.067991 0.142673 0.849928
O O5 0.596593 0.933508 0.274783
O O6 0.394967 0.860582 0.294347
O O7 0.420236 0.614302 0.032526
O O8 0.356240 0.881957 0.918185
O O9 0.157079 0.551650 0.737513
O O10 0.939153 0.515342 0.729018
O O11 0.149335 0.784399 0.014546
O O12 0.705391 0.556725 0.398332
O O13 0.720305 0.690794 0.096138
O O14 0.704053 0.882109 0.830616
O O15 0.761836 0.570316 0.797269
O O16 0.274991 0.736125 0.510535
#
# Coordination Sequence:
#
# PCOD9088142 Si02
#       8
#     2   2   2   2   2   2   2   2
#     4  11  21  38  62  89 124 162 195 242 312 359
#     4   9  22  46  60  84 122 154 215 255 288 365
#     4  10  19  37  59  86 129 154 190 252 296 364
#     4  10  23  38  65  89 122 166 202 248 304 357
#     4  11  22  40  63  95 128 161 194 249 312 361
#     4  10  23  40  66  86 113 168 202 252 310 347
#     4  10  20  39  61  86 128 158 195 249 299 363
#     4  11  21  39  59  94 124 154 204 252 297 365
#
# _framework density 27.528317000000001
#
# number of rings (size 3 to 8) (size 9 to 14) (size 15 to 20)
#    0.000    1.750    2.500    1.875    3.500    4.500 
#    0.000    9.375    0.000    4.500    0.000    0.000 
#    0.000    0.000    0.000    0.000    0.000    0.000 
#
# Total GULP energy -89608.320328 kJ/mol
# GULP energy per Si atom -5600.520020 kJ/mol
# Density = 2.746566 g / cm^3
# Si number density = 27.528317 Si / 1000 Ang^3
#
#
#
# Elastic Constant Matrix: (Units=GPa)
#
#
# Indices 1 2 3 4 5 6 
#
# 1 95.2788 39.7174 25.2448 21.7482 -23.1985 8.8422
# 2 39.7174 118.7783 31.7401 37.7324 -9.7488 11.9889
# 3 25.2448 31.7401 114.7466 37.1834 2.2393 -3.2270
# 4 21.7482 37.7324 37.1834 53.9069 2.5539 2.0045
# 5 -23.1985 -9.7488 2.2393 2.5539 45.8758 7.9466
# 6 8.8422 11.9889 -3.2270 2.0045 7.9466 49.2083
#
#
#
# Elastic Compliance Matrix: (Units=1/GPa)
#
#
# Indices 1 2 3 4 5 6 
#
# 1 0.015004 -0.002498 -0.001780 -0.003327 0.007908 -0.003346
# 2 -0.002498 0.012099 -0.000635 -0.007030 0.002182 -0.002607
# 3 -0.001780 -0.000635 0.011568 -0.006809 -0.001525 0.001757
# 4 -0.003327 -0.007030 -0.006809 0.029682 -0.004742 0.001421
# 5 0.007908 0.002182 -0.001525 -0.004742 0.027696 -0.006332
# 6 -0.003346 -0.002607 0.001757 0.001421 -0.006332 0.022638
#
#
# Mechanical properties :
#
#
# Convention : Reuss Voigt Hill
#
# Bulk Modulus (GPa) = 34.66834 58.02313 46.34574
# Shear Modulus (GPa) = 36.19831 45.27162 40.73497
#
# Velocity S-wave (km/s) = 3.63016 4.05970 3.85092
# Velocity P-wave (km/s) = 5.49470 6.56493 6.05351
#
# Compressibility (1/GPa) = 0.02884476
#
# Stress axis : x y z
#
# Youngs Moduli (GPa) = 66.65005 82.64986 86.44524
#
# Poissons Ratio (x) = 0.20642 0.15390
# Poissons Ratio (y) = 0.16646 0.05492
# Poissons Ratio (z) = 0.11866 0.05251
#
# Static dielectric constant tensor:
#      x y z
#    x 2.206960 0.022810 -0.095380 
#    y 0.022810 2.175660 -0.116980 
#    z -0.095380 -0.116980 2.250330 
# 
# From -- ./inp_files/295876.got.cif
#   From: 2010.05.17/outbox.cif.g08.bks.cpg/sg2_148_cif.got.tgz:295876.got - 2010.06.03 11:33:40.
