data_PCOD9088374
_publ_section_title
;
Structure prediction by ZEFSAII (Michael W. Deem and Ramdas Pophale) SiO2 
 PCOD9088374
Probable space group: P -1
;
_chemical_formula_sum "Si O2"
_cell_formula_units_Z 12
_cell_length_a 11.467499
_cell_length_b 13.932735
_cell_length_c 13.120649
_cell_angle_alpha 29.858372
_cell_angle_beta 131.730842
_cell_angle_gamma 151.839747
_cell_volume 446.723209
_symmetry_space_group_name_H-M "P -1"
_symmetry_group_IT_number 2
_symmetry_cell_setting 'triclinic'
loop_
_space_group_symop_operation_xyz
x,y,z
-x,-y,-z
loop_
_atom_site_type_symbol
_atom_site_label
_atom_site_fract_x
_atom_site_fract_y
_atom_site_fract_z
Si Si1 0.836751 0.020185 0.315215
Si Si2 0.896675 0.496881 0.819998
Si Si3 0.387937 0.144031 0.274383
Si Si4 0.497783 0.791032 0.493089
Si Si5 0.058297 0.166378 0.097263
Si Si6 0.090281 0.599171 0.301730
O O1 0.096703 0.314210 0.273459
O O2 0.579689 0.723020 0.513110
O O3 0.793986 0.197328 0.085904
O O4 0.913075 0.988619 0.285418
O O5 0.802871 0.404138 0.734920
O O6 0.222101 0.804679 0.711764
O O7 0.510797 0.306784 0.309727
O O8 0.639308 0.433860 0.079602
O O9 0.223662 0.779563 0.514876
O O10 0.142611 0.050356 0.202770
O O11 0.262935 0.692380 0.408844
O O12 0.900570 0.165839 0.938402
#
# Coordination Sequence:
#
# PCOD9088374 Si02
#       6
#     2   2   2   2   2   2
#     4   8  15  34  56  82 107 146 177 226 275 320
#     4   7  15  31  53  83 110 134 178 224 269 321
#     4  10  22  40  54  81 115 144 185 227 263 330
#     4   9  18  34  59  81 112 139 183 232 268 322
#     4  10  21  37  60  78 112 152 179 221 280 321
#     4  10  19  37  61  81 109 146 182 225 277 321
#
# _framework density 26.862272999999998
#
# number of rings (size 3 to 8) (size 9 to 14) (size 15 to 20)
#    1.000    2.000    0.000    0.500    0.000    4.000 
#    0.000    9.167    0.000    0.000    0.000    0.000 
#    0.000    0.000    0.000    0.000    0.000    0.000 
#
# Total GULP energy -66923.696926 kJ/mol
# GULP energy per Si atom -5576.974744 kJ/mol
# Density = 2.680113 g / cm^3
# Si number density = 26.862273 Si / 1000 Ang^3
#
#
#
# Elastic Constant Matrix: (Units=GPa)
#
#
# Indices 1 2 3 4 5 6 
#
# 1 108.7218 11.8663 15.4434 17.5835 -6.9378 6.2568
# 2 11.8663 117.0364 22.6176 30.3418 -7.7329 12.6529
# 3 15.4434 22.6176 81.8472 24.9042 -9.5304 0.0818
# 4 17.5835 30.3418 24.9042 36.8954 4.3445 -4.2269
# 5 -6.9378 -7.7329 -9.5304 4.3445 41.5431 9.2033
# 6 6.2568 12.6529 0.0818 -4.2269 9.2033 30.0690
#
#
#
# Elastic Compliance Matrix: (Units=1/GPa)
#
#
# Indices 1 2 3 4 5 6 
#
# 1 0.010829 0.001773 0.000411 -0.008023 0.004276 -0.005437
# 2 0.001773 0.013529 0.001248 -0.014804 0.006923 -0.010265
# 3 0.000411 0.001248 0.016792 -0.013869 0.006630 -0.004635
# 4 -0.008023 -0.014804 -0.013869 0.057041 -0.017997 0.021464
# 5 0.004276 0.006923 0.006630 -0.017997 0.033131 -0.016491
# 6 -0.005437 -0.010265 -0.004635 0.021464 -0.016491 0.046785
#
#
# Mechanical properties :
#
#
# Convention : Reuss Voigt Hill
#
# Bulk Modulus (GPa) = 20.82720 45.27332 33.05026
# Shear Modulus (GPa) = 26.70270 38.88006 32.79138
#
# Velocity S-wave (km/s) = 3.15629 3.80858 3.49767
# Velocity P-wave (km/s) = 4.58836 6.01920 5.35182
#
# Compressibility (1/GPa) = 0.04801414
#
# Stress axis : x y z
#
# Youngs Moduli (GPa) = 92.34267 73.91789 59.55211
#
# Poissons Ratio (x) = -0.13105 -0.02450
# Poissons Ratio (y) = -0.16372 -0.07431
# Poissons Ratio (z) = -0.03799 -0.09224
#
# Static dielectric constant tensor:
#      x y z
#    x 2.244930 -0.032730 -0.005880 
#    y -0.032730 2.092740 0.034830 
#    z -0.005880 0.034830 2.093230 
# 
# From -- ./inp_files/454124.got.cif
#   From: 2010.05.17/outbox.cif.g08.bks.cpg/sg2_228_cif.got.tgz:454124.got - 2010.06.03 11:33:40.
