data_PCOD9088634
_publ_section_title
;
Structure prediction by ZEFSAII (Michael W. Deem and Ramdas Pophale) SiO2 
 PCOD9088634
Probable space group: P -1
;
_chemical_formula_sum "Si O2"
_cell_formula_units_Z 16
_cell_length_a 10.193854
_cell_length_b 10.363725
_cell_length_c 14.677333
_cell_angle_alpha 129.067064
_cell_angle_beta 83.341524
_cell_angle_gamma 56.532256
_cell_volume 701.470451
_symmetry_space_group_name_H-M "P -1"
_symmetry_group_IT_number 2
_symmetry_cell_setting 'triclinic'
loop_
_space_group_symop_operation_xyz
x,y,z
-x,-y,-z
loop_
_atom_site_type_symbol
_atom_site_label
_atom_site_fract_x
_atom_site_fract_y
_atom_site_fract_z
Si Si1 0.861243 0.643535 0.980544
Si Si2 0.762239 0.364644 0.834199
Si Si3 0.253601 0.435649 0.775181
Si Si4 0.040455 0.278545 0.326422
Si Si5 0.011334 0.184397 0.492786
Si Si6 0.739907 0.242943 0.985787
Si Si7 0.331181 0.144912 0.469291
Si Si8 0.598198 0.825735 0.820155
O O1 0.612886 0.976357 0.142839
O O2 0.833447 0.482899 0.876976
O O3 0.000000 0.500000 0.000000
O O4 0.013707 0.597216 0.880285
O O5 0.504650 0.593918 0.927399
O O6 0.771787 0.305789 0.914581
O O7 0.917627 0.080929 0.636150
O O8 0.251273 0.631998 0.880059
O O9 0.351754 0.265384 0.598099
O O10 0.430610 0.175692 0.718155
O O11 0.231961 0.209510 0.248327
O O12 0.064539 0.184869 0.383866
O O13 0.808920 0.612758 0.486183
O O14 0.069297 0.091456 0.174893
O O15 0.755602 0.501606 0.674789
O O16 0.180125 0.139721 0.511199
O O17 0.500000 0.000000 0.000000
#
# Coordination Sequence:
#
# PCOD9088634 Si02
#       8
#     2   2   2   2   2   2   2   2
#     4  12  24  37  63  94 125 161 197 256 321 367
#     4  10  20  38  61  93 117 157 210 256 298 360
#     4  11  23  38  59  89 130 155 197 256 317 361
#     4  10  21  37  68  90 113 162 221 249 289 367
#     4  10  21  39  69  87 116 162 220 254 283 371
#     4  10  19  37  62  89 118 157 210 254 292 364
#     4  10  21  38  59  89 121 163 200 255 303 362
#     4  11  23  41  60  93 129 166 201 253 317 371
#
# _framework density 22.809228000000001
#
# number of rings (size 3 to 8) (size 9 to 14) (size 15 to 20)
#    0.000    1.500    3.750    3.000    3.500    0.500 
#    0.000    6.875    0.000    0.000    0.000    0.000 
#    0.000    0.000    0.000    0.000    0.000    0.000 
#
# Total GULP energy -89408.560994 kJ/mol
# GULP energy per Si atom -5588.035062 kJ/mol
# Density = 2.275731 g / cm^3
# Si number density = 22.809228 Si / 1000 Ang^3
#
#
#
# Elastic Constant Matrix: (Units=GPa)
#
#
# Indices 1 2 3 4 5 6 
#
# 1 116.0394 14.4808 38.8066 18.7977 24.7235 -5.4013
# 2 14.4808 40.0305 21.2905 8.8982 -1.9980 -8.8615
# 3 38.8066 21.2905 135.1536 22.8360 23.1291 -3.4318
# 4 18.7977 8.8982 22.8360 46.6059 2.4348 3.0420
# 5 24.7235 -1.9980 23.1291 2.4348 55.8134 3.4732
# 6 -5.4013 -8.8615 -3.4318 3.0420 3.4732 22.8776
#
#
#
# Elastic Compliance Matrix: (Units=1/GPa)
#
#
# Indices 1 2 3 4 5 6 
#
# 1 0.010939 -0.002094 -0.001452 -0.003246 -0.004342 0.002644
# 2 -0.002094 0.031350 -0.003897 -0.004122 0.003152 0.011134
# 3 -0.001452 -0.003897 0.009559 -0.003213 -0.003350 0.000517
# 4 -0.003246 -0.004122 -0.003213 0.025453 0.001917 -0.006521
# 5 -0.004342 0.003152 -0.003350 0.001917 0.021495 -0.003825
# 6 0.002644 0.011134 0.000517 -0.006521 -0.003825 0.050173
#
#
# Mechanical properties :
#
#
# Convention : Reuss Voigt Hill
#
# Bulk Modulus (GPa) = 27.05649 48.93103 37.99376
# Shear Modulus (GPa) = 28.38065 39.50240 33.94153
#
# Velocity S-wave (km/s) = 3.53124 4.16608 3.86172
# Velocity P-wave (km/s) = 5.33985 6.68135 6.04791
#
# Compressibility (1/GPa) = 0.03695971
#
# Stress axis : x y z
#
# Youngs Moduli (GPa) = 91.41767 31.89825 104.61249
#
# Poissons Ratio (x) = 0.06681 0.15193
# Poissons Ratio (y) = 0.19146 0.40770
# Poissons Ratio (z) = 0.13277 0.12432
#
# Static dielectric constant tensor:
#      x y z
#    x 1.835230 -0.039270 0.011200 
#    y -0.039270 1.982720 -0.022510 
#    z 0.011200 -0.022510 1.861390 
# 
# From -- ./inp_files/559288.got.cif
#   From: 2010.05.17/outbox.cif.g08.bks.cpg/sg2_280_cif.got.tgz:559288.got - 2010.06.03 11:33:40.
