data_PCOD9089153
_publ_section_title
;
Structure prediction by ZEFSAII (Michael W. Deem and Ramdas Pophale) SiO2 
 PCOD9089153
Probable space group: P -1
;
_chemical_formula_sum "Si O2"
_cell_formula_units_Z 16
_cell_length_a 12.105941
_cell_length_b 9.697315
_cell_length_c 13.108224
_cell_angle_alpha 45.101604
_cell_angle_beta 67.341613
_cell_angle_gamma 37.027905
_cell_volume 596.359692
_symmetry_space_group_name_H-M "P -1"
_symmetry_group_IT_number 2
_symmetry_cell_setting 'triclinic'
loop_
_space_group_symop_operation_xyz
x,y,z
-x,-y,-z
loop_
_atom_site_type_symbol
_atom_site_label
_atom_site_fract_x
_atom_site_fract_y
_atom_site_fract_z
Si Si1 0.104595 0.475002 0.844833
Si Si2 0.748243 0.326766 0.014164
Si Si3 0.278086 0.243754 0.112309
Si Si4 0.367931 0.750742 0.084618
Si Si5 0.279617 0.499385 0.610223
Si Si6 0.640300 0.237877 0.429486
Si Si7 0.834929 0.876968 0.344461
Si Si8 0.561509 0.884648 0.421800
O O1 0.110866 0.616762 0.676233
O O2 0.881472 0.720687 0.835804
O O3 0.235455 0.382171 0.941780
O O4 0.220334 0.126260 0.953127
O O5 0.552866 0.558523 0.040396
O O6 0.888188 0.976154 0.195381
O O7 0.789357 0.498479 0.921659
O O8 0.733344 0.290519 0.920524
O O9 0.511880 0.885217 0.229517
O O10 0.447035 0.576362 0.257665
O O11 0.310789 0.677198 0.542843
O O12 0.263757 0.471827 0.510875
O O13 0.611212 0.054117 0.572919
O O14 0.791066 0.028538 0.390296
O O15 0.641760 0.999606 0.307568
O O16 0.000000 0.500000 0.500000
O O17 0.500000 0.000000 0.500000
#
# Coordination Sequence:
#
# PCOD9089153 Si02
#       8
#     2   2   2   2   2   2   2   2
#     4  11  22  40  63 105 139 175 219 272 346 408
#     4  10  21  37  66  99 131 180 219 275 350 396
#     4  11  24  38  67 108 140 176 219 279 341 418
#     4  10  19  37  65  96 135 168 224 275 340 408
#     4  12  22  45  70  96 144 177 225 287 341 411
#     4  10  22  41  68  94 128 187 224 274 352 397
#     4  10  22  43  64  96 138 179 228 286 334 402
#     4  10  24  44  67  94 127 184 236 272 338 415
#
# _framework density 26.829446000000001
#
# number of rings (size 3 to 8) (size 9 to 14) (size 15 to 20)
#    0.000    1.500    2.500    3.000    5.250    1.500 
#   11.250    0.625    0.000    0.000    0.000    0.000 
#    0.000    0.000    0.000    0.000    0.000    0.000 
#
# Total GULP energy -89384.323045 kJ/mol
# GULP energy per Si atom -5586.520190 kJ/mol
# Density = 2.676838 g / cm^3
# Si number density = 26.829446 Si / 1000 Ang^3
#
#
#
# Elastic Constant Matrix: (Units=GPa)
#
#
# Indices 1 2 3 4 5 6 
#
# 1 114.4996 44.3671 36.6021 -7.3713 -15.5204 43.2463
# 2 44.3671 100.5980 28.6934 8.3098 -3.4373 25.5906
# 3 36.6021 28.6934 119.8435 -12.3268 -11.9776 -3.4056
# 4 -7.3713 8.3098 -12.3268 46.6460 0.4598 -8.8756
# 5 -15.5204 -3.4373 -11.9776 0.4598 34.2619 -4.6804
# 6 43.2463 25.5906 -3.4056 -8.8756 -4.6804 64.2776
#
#
#
# Elastic Compliance Matrix: (Units=1/GPa)
#
#
# Indices 1 2 3 4 5 6 
#
# 1 0.014976 -0.003272 -0.003602 0.000316 0.004014 -0.008629
# 2 -0.003272 0.013602 -0.003004 -0.004501 -0.001670 -0.004117
# 3 -0.003602 -0.003004 0.010941 0.003765 0.002511 0.004902
# 4 0.000316 -0.004501 0.003765 0.024266 0.001397 0.005231
# 5 0.004014 -0.001670 0.002511 0.001397 0.031779 0.000604
# 6 -0.008629 -0.004117 0.004902 0.005231 0.000604 0.024028
#
#
# Mechanical properties :
#
#
# Convention : Reuss Voigt Hill
#
# Bulk Modulus (GPa) = 50.59827 61.58515 56.09171
# Shear Modulus (GPa) = 34.26129 44.05566 39.15848
#
# Velocity S-wave (km/s) = 3.57739 4.05663 3.82453
# Velocity P-wave (km/s) = 5.99699 6.70417 6.36041
#
# Compressibility (1/GPa) = 0.01976352
#
# Stress axis : x y z
#
# Youngs Moduli (GPa) = 66.77236 73.51708 91.39733
#
# Poissons Ratio (x) = 0.24052 0.32923
# Poissons Ratio (y) = 0.21845 0.27459
# Poissons Ratio (z) = 0.24053 0.22087
#
# Static dielectric constant tensor:
#      x y z
#    x 2.220940 -0.074340 0.106250 
#    y -0.074340 2.092690 -0.000090 
#    z 0.106250 -0.000090 2.166820 
# 
# From -- ./inp_files/515052.got.cif
#   From: 2010.05.17/outbox.cif.g08.bks.cpg/sg2_258_cif.got.tgz:515052.got - 2010.06.03 11:33:40.
