data_PCOD9089436
_publ_section_title
;
Structure prediction by ZEFSAII (Michael W. Deem and Ramdas Pophale) SiO2 
 PCOD9089436
Probable space group: P -1
;
_chemical_formula_sum "Si O2"
_cell_formula_units_Z 10
_cell_length_a 15.969484
_cell_length_b 5.410776
_cell_length_c 7.296505
_cell_angle_alpha 113.415968
_cell_angle_beta 70.937370
_cell_angle_gamma 65.190337
_cell_volume 423.125621
_symmetry_space_group_name_H-M "P -1"
_symmetry_group_IT_number 2
_symmetry_cell_setting 'triclinic'
loop_
_space_group_symop_operation_xyz
x,y,z
-x,-y,-z
loop_
_atom_site_type_symbol
_atom_site_label
_atom_site_fract_x
_atom_site_fract_y
_atom_site_fract_z
Si Si1 0.713949 0.103923 0.405682
Si Si2 0.125927 0.057864 0.455275
Si Si3 0.308107 0.432229 0.716208
Si Si4 0.504759 0.308049 0.762711
Si Si5 0.000444 0.121794 0.237525
O O1 0.756001 0.228015 0.260597
O O2 0.576480 0.342871 0.572276
O O3 0.754570 0.116215 0.580787
O O4 0.755788 0.718644 0.225873
O O5 0.063092 0.468010 0.615172
O O6 0.115210 0.966800 0.229621
O O7 0.065128 0.961512 0.606266
O O8 0.384426 0.428084 0.814610
O O9 0.405433 0.113168 0.413901
O O10 0.500000 0.500000 0.000000
O O11 0.000000 0.000000 0.000000
#
# Coordination Sequence:
#
# PCOD9089436 Si02
#       5
#     2   2   2   2   2
#     4  10  19  38  54  81 113 143 183 226 274 317
#     4  10  21  38  60  84 118 144 182 243 271 334
#     4   9  20  36  54  74 114 146 180 223 276 312
#     4   9  20  36  56  77 111 149 185 221 268 323
#     4  10  21  40  62  82 113 150 184 224 296 339
#
# _framework density 23.633644
#
# number of rings (size 3 to 8) (size 9 to 14) (size 15 to 20)
#    1.200    1.200    0.000    2.400    0.000    0.800 
#    7.200    0.000    0.000    0.000    0.000    0.000 
#    0.000    0.000    0.000    0.000    0.000    0.000 
#
# Total GULP energy -55742.940645 kJ/mol
# GULP energy per Si atom -5574.294064 kJ/mol
# Density = 2.357985 g / cm^3
# Si number density = 23.633644 Si / 1000 Ang^3
#
#
#
# Elastic Constant Matrix: (Units=GPa)
#
#
# Indices 1 2 3 4 5 6 
#
# 1 149.0174 48.5248 43.5466 -11.8048 41.4603 -6.3611
# 2 48.5248 150.5512 44.2423 -24.3312 12.4362 35.7865
# 3 43.5466 44.2423 130.7708 -10.2149 50.2009 12.4455
# 4 -11.8048 -24.3312 -10.2149 29.5606 4.4392 4.9608
# 5 41.4603 12.4362 50.2009 4.4392 51.8062 -4.7228
# 6 -6.3611 35.7865 12.4455 4.9608 -4.7228 41.8824
#
#
#
# Elastic Compliance Matrix: (Units=1/GPa)
#
#
# Indices 1 2 3 4 5 6 
#
# 1 0.010004 -0.003013 0.000640 0.002460 -0.007866 0.002725
# 2 -0.003013 0.012998 -0.000067 0.012141 -0.002898 -0.013309
# 3 0.000640 -0.000067 0.015351 0.009277 -0.016842 -0.007405
# 4 0.002460 0.012141 0.009277 0.054710 -0.020526 -0.021552
# 5 -0.007866 -0.002898 -0.016842 -0.020526 0.045636 0.013863
# 6 0.002725 -0.013309 -0.007405 -0.021552 0.013863 0.041979
#
#
# Mechanical properties :
#
#
# Convention : Reuss Voigt Hill
#
# Bulk Modulus (GPa) = 29.87329 78.10740 53.99034
# Shear Modulus (GPa) = 25.41735 44.25156 34.83445
#
# Velocity S-wave (km/s) = 3.28300 4.33181 3.84335
# Velocity P-wave (km/s) = 5.19984 7.62499 6.52606
#
# Compressibility (1/GPa) = 0.03347472
#
# Stress axis : x y z
#
# Youngs Moduli (GPa) = 99.95524 76.93371 65.14165
#
# Poissons Ratio (x) = 0.23182 -0.04172
# Poissons Ratio (y) = 0.30119 0.00435
# Poissons Ratio (z) = -0.06402 0.00514
#
# Static dielectric constant tensor:
#      x y z
#    x 1.987070 0.135770 -0.072350 
#    y 0.135770 2.356630 0.037920 
#    z -0.072350 0.037920 1.939410 
# 
# From -- ./inp_files/2520.got.cif
#   From: 2010.05.17/outbox.cif.g08.bks.cpg/sg2_2_cif.got.tgz:2520.got - 2010.06.03 11:33:40.
