data_PCOD9089877
_publ_section_title
;
Structure prediction by ZEFSAII (Michael W. Deem and Ramdas Pophale) SiO2 
 PCOD9089877
Probable space group: P -1
;
_chemical_formula_sum "Si O2"
_cell_formula_units_Z 14
_cell_length_a 21.303500
_cell_length_b 9.423620
_cell_length_c 5.360855
_cell_angle_alpha 120.221584
_cell_angle_beta 53.421409
_cell_angle_gamma 137.808403
_cell_volume 576.615490
_symmetry_space_group_name_H-M "P -1"
_symmetry_group_IT_number 2
_symmetry_cell_setting 'triclinic'
loop_
_space_group_symop_operation_xyz
x,y,z
-x,-y,-z
loop_
_atom_site_type_symbol
_atom_site_label
_atom_site_fract_x
_atom_site_fract_y
_atom_site_fract_z
Si Si1 0.181768 0.323880 0.369529
Si Si2 0.629973 0.361433 0.490478
Si Si3 0.113318 0.082217 0.807028
Si Si4 0.565336 0.981504 0.033849
Si Si5 0.566701 0.612641 0.688360
Si Si6 0.888089 0.425950 0.177629
Si Si7 0.118636 0.710517 0.433954
O O1 0.293787 0.530225 0.362654
O O2 0.155575 0.154062 0.489409
O O3 0.108210 0.374239 0.670758
O O4 0.165559 0.248384 0.059036
O O5 0.518112 0.182425 0.706415
O O6 0.636451 0.543429 0.489475
O O7 0.644305 0.219823 0.162361
O O8 0.118770 0.897577 0.680667
O O9 0.000000 0.000000 0.000000
O O10 0.609007 0.855535 0.767039
O O11 0.500000 0.000000 0.000000
O O12 0.500000 0.500000 0.500000
O O13 0.500000 0.500000 0.000000
O O14 0.834738 0.324847 0.477876
O O15 0.837260 0.274070 0.926111
O O16 0.000000 0.500000 0.000000
O O17 0.000000 0.500000 0.500000
#
# Coordination Sequence:
#
# PCOD9089877 Si02
#       7
#     2   2   2   2   2   2   2
#     4  12  26  42  67  99 135 170 224 292 324 390
#     4  10  24  42  64 103 138 170 227 279 331 395
#     4  12  24  43  67  92 126 181 225 266 345 402
#     4  10  20  41  73  95 131 185 219 258 345 416
#     4  10  20  38  66  94 130 175 216 266 326 406
#     4  10  19  38  62  87 123 169 209 264 330 382
#     4  10  20  38  62  87 117 160 219 266 315 398
#
# _framework density 24.279610000000002
#
# number of rings (size 3 to 8) (size 9 to 14) (size 15 to 20)
#    0.000    1.429    1.429    5.571    2.000    0.000 
#    5.143    0.000    0.000    0.000    0.000    0.000 
#    0.000    0.000    0.000    0.000    0.000    0.000 
#
# Total GULP energy -78147.601368 kJ/mol
# GULP energy per Si atom -5581.971526 kJ/mol
# Density = 2.422435 g / cm^3
# Si number density = 24.279610 Si / 1000 Ang^3
#
#
#
# Elastic Constant Matrix: (Units=GPa)
#
#
# Indices 1 2 3 4 5 6 
#
# 1 134.3129 38.2388 54.4076 27.9739 15.3007 -13.1400
# 2 38.2388 70.6818 34.7007 35.2241 -14.7362 -13.4995
# 3 54.4076 34.7007 116.6304 30.5833 22.4453 5.1448
# 4 27.9739 35.2241 30.5833 54.1635 -8.3509 -6.7576
# 5 15.3007 -14.7362 22.4453 -8.3509 50.2126 10.0089
# 6 -13.1400 -13.4995 5.1448 -6.7576 10.0089 43.2520
#
#
#
# Elastic Compliance Matrix: (Units=1/GPa)
#
#
# Indices 1 2 3 4 5 6 
#
# 1 0.010804 -0.003882 -0.002779 -0.001733 -0.004091 0.003077
# 2 -0.003882 0.026677 -0.005239 -0.010520 0.008789 0.004093
# 3 -0.002779 -0.005239 0.014174 -0.004668 -0.007157 -0.003239
# 4 -0.001733 -0.010520 -0.004668 0.029553 0.004372 0.000351
# 5 -0.004091 0.008789 -0.007157 0.004372 0.028372 -0.003531
# 6 0.003077 0.004093 -0.003239 0.000351 -0.003531 0.026590
#
#
# Mechanical properties :
#
#
# Convention : Reuss Voigt Hill
#
# Bulk Modulus (GPa) = 35.90249 64.03548 49.96899
# Shear Modulus (GPa) = 29.54123 42.47750 36.00937
#
# Velocity S-wave (km/s) = 3.49192 4.18726 3.85530
# Velocity P-wave (km/s) = 5.57469 7.05754 6.35949
#
# Compressibility (1/GPa) = 0.02785322
#
# Stress axis : x y z
#
# Youngs Moduli (GPa) = 92.55513 37.48557 70.55290
#
# Poissons Ratio (x) = 0.14553 0.19607
# Poissons Ratio (y) = 0.35933 0.36966
# Poissons Ratio (z) = 0.25722 0.19640
#
# Static dielectric constant tensor:
#      x y z
#    x 1.914310 0.053330 -0.018130 
#    y 0.053330 1.793630 0.051610 
#    z -0.018130 0.051610 1.943510 
# 
# From -- ./inp_files/107515.got.cif
#   From: 2010.05.17/outbox.cif.g08.bks.cpg/sg2_54_cif.got.tgz:107515.got - 2010.06.03 11:33:40.
