data_PCOD9089156
_publ_section_title
;
Structure prediction by ZEFSAII (Michael W. Deem and Ramdas Pophale) SiO2 
 PCOD9089156
Probable space group: P -1
;
_chemical_formula_sum "Si O2"
_cell_formula_units_Z 14
_cell_length_a 12.109058
_cell_length_b 14.021991
_cell_length_c 15.351364
_cell_angle_alpha 38.203978
_cell_angle_beta 152.165880
_cell_angle_gamma 125.655334
_cell_volume 693.782685
_symmetry_space_group_name_H-M "P -1"
_symmetry_group_IT_number 2
_symmetry_cell_setting 'triclinic'
loop_
_space_group_symop_operation_xyz
x,y,z
-x,-y,-z
loop_
_atom_site_type_symbol
_atom_site_label
_atom_site_fract_x
_atom_site_fract_y
_atom_site_fract_z
Si Si1 0.603043 0.569715 0.439930
Si Si2 0.622640 0.033812 0.418470
Si Si3 0.907271 0.266102 0.098779
Si Si4 0.105659 0.480475 0.949689
Si Si5 0.366516 0.833724 0.480562
Si Si6 0.362724 0.408480 0.907471
Si Si7 0.194409 0.576709 0.488350
O O1 0.500000 0.500000 0.500000
O O2 0.655166 0.450446 0.477905
O O3 0.877287 0.567135 0.659876
O O4 0.362718 0.733250 0.124356
O O5 0.701715 0.067081 0.547744
O O6 0.426763 0.943880 0.369085
O O7 0.499690 0.211760 0.159770
O O8 0.861616 0.911629 0.617805
O O9 0.865531 0.368156 0.086047
O O10 0.996850 0.378346 0.013658
O O11 0.365315 0.332611 0.201986
O O12 0.155012 0.761747 0.359301
O O13 0.348318 0.458846 0.759709
O O14 0.063159 0.453627 0.686481
O O15 0.500000 0.500000 0.000000
#
# Coordination Sequence:
#
# PCOD9089156 Si02
#       7
#     2   2   2   2   2   2   2
#     4  10  20  34  61  95 122 162 212 256 312 372
#     4  10  21  37  62  94 129 161 200 275 320 357
#     4   9  18  34  55  88 124 154 201 249 316 375
#     4   9  17  33  58  85 123 162 191 253 318 371
#     4  10  19  37  65  97 122 154 218 267 315 366
#     4  11  24  44  64  88 130 177 208 254 321 384
#     4  11  23  40  68  95 120 169 222 255 305 398
#
# _framework density 20.179228999999999
#
# number of rings (size 3 to 8) (size 9 to 14) (size 15 to 20)
#    0.000    2.000    2.857    0.857    2.000    1.714 
#    2.571    0.714    0.000    1.714    0.000    0.000 
#    0.000    0.000    0.000    0.000    0.000    0.000 
#
# Total GULP energy -78004.700422 kJ/mol
# GULP energy per Si atom -5571.764316 kJ/mol
# Density = 2.013330 g / cm^3
# Si number density = 20.179229 Si / 1000 Ang^3
#
#
#
# Elastic Constant Matrix: (Units=GPa)
#
#
# Indices 1 2 3 4 5 6 
#
# 1 65.8501 38.5380 13.1211 -2.8368 -0.1046 -10.7577
# 2 38.5380 89.4131 59.5190 8.8446 -9.0176 3.3442
# 3 13.1211 59.5190 108.8499 -2.7410 -11.3386 -2.3635
# 4 -2.8368 8.8446 -2.7410 37.2867 0.5152 -0.7457
# 5 -0.1046 -9.0176 -11.3386 0.5152 21.6579 -3.1120
# 6 -10.7577 3.3442 -2.3635 -0.7457 -3.1120 27.2321
#
#
#
# Elastic Compliance Matrix: (Units=1/GPa)
#
#
# Indices 1 2 3 4 5 6 
#
# 1 0.026158 -0.016795 0.006284 0.006720 -0.001881 0.012910
# 2 -0.016795 0.029699 -0.014356 -0.009652 0.003359 -0.011408
# 3 0.006284 -0.014356 0.016932 0.005203 0.003696 0.006280
# 4 0.006720 -0.009652 0.005203 0.030119 -0.001265 0.004972
# 5 -0.001881 0.003359 0.003696 -0.001265 0.050227 0.004870
# 6 0.012910 -0.011408 0.006280 0.004972 0.004870 0.044460
#
#
# Mechanical properties :
#
#
# Convention : Reuss Voigt Hill
#
# Bulk Modulus (GPa) = 43.37364 54.05215 48.71290
# Shear Modulus (GPa) = 19.60673 27.43102 23.51888
#
# Velocity S-wave (km/s) = 3.12048 3.69096 3.41764
# Velocity P-wave (km/s) = 5.87572 6.70883 6.30605
#
# Compressibility (1/GPa) = 0.02305548
#
# Stress axis : x y z
#
# Youngs Moduli (GPa) = 38.22857 33.67102 59.06113
#
# Poissons Ratio (x) = 0.56550 -0.37112
# Poissons Ratio (y) = 0.64204 0.84787
# Poissons Ratio (z) = -0.24022 0.48338
#
# Static dielectric constant tensor:
#      x y z
#    x 1.757590 0.019120 0.014650 
#    y 0.019120 1.729050 0.046280 
#    z 0.014650 0.046280 1.742440 
# 
# From -- ./inp_files/345675.got.cif
#   From: 2010.05.17/outbox.cif.g08.bks.cpg/sg2_173_cif.got.tgz:345675.got - 2010.06.03 11:33:40.
