data_PCOD9089245
_publ_section_title
;
Structure prediction by ZEFSAII (Michael W. Deem and Ramdas Pophale) SiO2 
 PCOD9089245
Probable space group: P -1
;
_chemical_formula_sum "Si O2"
_cell_formula_units_Z 16
_cell_length_a 6.703904
_cell_length_b 14.189141
_cell_length_c 11.854182
_cell_angle_alpha 51.557210
_cell_angle_beta 52.036201
_cell_angle_gamma 40.560627
_cell_volume 551.240225
_symmetry_space_group_name_H-M "P -1"
_symmetry_group_IT_number 2
_symmetry_cell_setting 'triclinic'
loop_
_space_group_symop_operation_xyz
x,y,z
-x,-y,-z
loop_
_atom_site_type_symbol
_atom_site_label
_atom_site_fract_x
_atom_site_fract_y
_atom_site_fract_z
Si Si1 0.048829 0.946783 0.865239
Si Si2 0.362007 0.916754 0.562131
Si Si3 0.476951 0.240588 0.690951
Si Si4 0.615702 0.392269 0.929514
Si Si5 0.944621 0.316873 0.461413
Si Si6 0.569933 0.558274 0.610062
Si Si7 0.610242 0.955276 0.764500
Si Si8 0.369294 0.264183 0.947911
O O1 0.108876 0.927924 0.723054
O O2 0.323020 0.958448 0.807252
O O3 0.131520 0.787043 0.994006
O O4 0.717511 0.100581 0.912657
O O5 0.253480 0.002404 0.415879
O O6 0.693149 0.750247 0.597149
O O7 0.500000 0.000000 0.500000
O O8 0.808599 0.220995 0.607317
O O9 0.391894 0.315663 0.539828
O O10 0.475942 0.098086 0.785833
O O11 0.266384 0.332439 0.806800
O O12 0.688668 0.471573 0.749835
O O13 0.387058 0.370046 0.948952
O O14 0.500000 0.500000 0.000000
O O15 0.757727 0.441884 0.529262
O O16 0.799003 0.369195 0.347343
O O17 0.797810 0.797683 0.884612
#
# Coordination Sequence:
#
# PCOD9089245 Si02
#       8
#     2   2   2   2   2   2   2   2
#     4  10  24  41  65  95 139 176 219 275 335 396
#     4  10  21  38  59  95 133 173 220 269 328 390
#     4  10  19  37  66  96 136 168 224 276 329 404
#     4  11  22  39  68  96 131 173 228 277 329 401
#     4   9  18  38  65  89 128 179 214 273 328 396
#     4   9  20  37  67  93 130 179 224 262 342 400
#     4  10  21  34  62 101 130 165 224 278 327 390
#     4  11  21  43  69  97 133 182 216 279 341 394
#
# _framework density 29.025458
#
# number of rings (size 3 to 8) (size 9 to 14) (size 15 to 20)
#    0.750    1.250    1.250    3.375    3.500    0.000 
#    0.000   11.875    0.000    1.500    0.000    0.000 
#    0.000    0.000    0.000    0.000    0.000    0.000 
#
# Total GULP energy -89199.734414 kJ/mol
# GULP energy per Si atom -5574.983401 kJ/mol
# Density = 2.895939 g / cm^3
# Si number density = 29.025458 Si / 1000 Ang^3
#
#
#
# Elastic Constant Matrix: (Units=GPa)
#
#
# Indices 1 2 3 4 5 6 
#
# 1 122.5088 41.2789 60.1658 -0.6589 4.0300 18.2886
# 2 41.2789 118.8868 38.1900 -13.3035 -14.0441 20.7787
# 3 60.1658 38.1900 207.9824 -10.3125 21.0451 -6.9416
# 4 -0.6589 -13.3035 -10.3125 53.7302 9.3440 -5.6993
# 5 4.0300 -14.0441 21.0451 9.3440 57.3575 -3.4114
# 6 18.2886 20.7787 -6.9416 -5.6993 -3.4114 57.0966
#
#
#
# Elastic Compliance Matrix: (Units=1/GPa)
#
#
# Indices 1 2 3 4 5 6 
#
# 1 0.010849 -0.002513 -0.002811 -0.001297 -0.000316 -0.003051
# 2 -0.002513 0.010843 -0.001592 0.001509 0.002991 -0.003005
# 3 -0.002811 -0.001592 0.006327 0.001479 -0.002621 0.002240
# 4 -0.001297 0.001509 0.001479 0.020012 -0.003232 0.001851
# 5 -0.000316 0.002991 -0.002621 -0.003232 0.019650 -0.000454
# 6 -0.003051 -0.003005 0.002240 0.001851 -0.000454 0.020015
#
#
# Mechanical properties :
#
#
# Convention : Reuss Voigt Hill
#
# Bulk Modulus (GPa) = 70.49179 80.96080 75.72630
# Shear Modulus (GPa) = 47.05578 54.28642 50.67110
#
# Velocity S-wave (km/s) = 4.03077 4.32939 4.18275
# Velocity P-wave (km/s) = 6.78246 7.27634 7.03373
#
# Compressibility (1/GPa) = 0.01418605
#
# Stress axis : x y z
#
# Youngs Moduli (GPa) = 92.17548 92.22671 158.05307
#
# Poissons Ratio (x) = 0.23179 0.44429
# Poissons Ratio (y) = 0.23166 0.25163
# Poissons Ratio (z) = 0.25911 0.14683
#
# Static dielectric constant tensor:
#      x y z
#    x 0.613740 1.239610 -0.904030 
#    y 1.239610 1.453410 0.793260 
#    z -0.904030 0.793260 1.708780 
# 
# From -- ./inp_files/398748.got.cif
#   From: 2010.05.17/outbox.cif.g08.bks.cpg/sg2_200_cif.got.tgz:398748.got - 2010.06.03 11:33:40.
