data_PCOD9089400
_publ_section_title
;
Structure prediction by ZEFSAII (Michael W. Deem and Ramdas Pophale) SiO2 
 PCOD9089400
Probable space group: P -1
;
_chemical_formula_sum "Si O2"
_cell_formula_units_Z 14
_cell_length_a 14.059839
_cell_length_b 10.233376
_cell_length_c 14.690775
_cell_angle_alpha 44.688633
_cell_angle_beta 38.984748
_cell_angle_gamma 75.677864
_cell_volume 676.926717
_symmetry_space_group_name_H-M "P -1"
_symmetry_group_IT_number 2
_symmetry_cell_setting 'triclinic'
loop_
_space_group_symop_operation_xyz
x,y,z
-x,-y,-z
loop_
_atom_site_type_symbol
_atom_site_label
_atom_site_fract_x
_atom_site_fract_y
_atom_site_fract_z
Si Si1 0.922679 0.563817 0.943568
Si Si2 0.530649 0.643593 0.612493
Si Si3 0.165773 0.055986 0.918890
Si Si4 0.039061 0.503544 0.692919
Si Si5 0.959765 0.272820 0.595185
Si Si6 0.499202 0.809595 0.154452
Si Si7 0.102116 0.035057 0.681950
O O1 0.965418 0.501109 0.847673
O O2 0.681500 0.421172 0.193607
O O3 0.055773 0.861921 0.718276
O O4 0.000000 0.500000 0.000000
O O5 0.501547 0.400833 0.779499
O O6 0.707110 0.860444 0.446173
O O7 0.618261 0.733263 0.399310
O O8 0.098767 0.781624 0.105498
O O9 0.103447 0.118577 0.024177
O O10 0.000000 0.000000 0.000000
O O11 0.033818 0.673804 0.543105
O O12 0.279130 0.637816 0.454956
O O13 0.000000 0.500000 0.500000
O O14 0.123245 0.259216 0.513978
O O15 0.727399 0.015647 0.925994
O O16 0.500000 0.000000 0.000000
#
# Coordination Sequence:
#
# PCOD9089400 Si02
#       7
#     2   2   2   2   2   2   2
#     4  12  28  44  63 101 146 180 219 281 346 402
#     4  11  23  44  71  97 136 181 229 278 337 398
#     4  10  19  37  70  95 129 176 231 277 318 396
#     4  11  23  43  67 100 140 175 226 284 334 398
#     4  11  21  42  72 101 132 173 234 283 331 402
#     4  10  20  40  70  97 130 174 227 281 330 392
#     4  11  22  42  68  98 133 179 227 278 335 402
#
# _framework density 20.681705999999998
#
# number of rings (size 3 to 8) (size 9 to 14) (size 15 to 20)
#    0.000    1.143    5.714    2.571    0.000    4.571 
#    2.571    0.714    0.000    0.000    0.000    0.000 
#    0.000    0.000    0.000    0.000    0.000    0.000 
#
# Total GULP energy -78030.430580 kJ/mol
# GULP energy per Si atom -5573.602184 kJ/mol
# Density = 2.063463 g / cm^3
# Si number density = 20.681706 Si / 1000 Ang^3
#
#
#
# Elastic Constant Matrix: (Units=GPa)
#
#
# Indices 1 2 3 4 5 6 
#
# 1 107.2055 16.8106 33.9458 19.3024 -14.5392 -15.0427
# 2 16.8106 80.6172 29.3769 5.6329 -3.0132 0.8325
# 3 33.9458 29.3769 89.3450 8.5337 -18.4997 -3.1095
# 4 19.3024 5.6329 8.5337 37.1047 -2.6808 -2.8635
# 5 -14.5392 -3.0132 -18.4997 -2.6808 32.0812 -0.8566
# 6 -15.0427 0.8325 -3.1095 -2.8635 -0.8566 37.6682
#
#
#
# Elastic Compliance Matrix: (Units=1/GPa)
#
#
# Indices 1 2 3 4 5 6 
#
# 1 0.012455 -0.001059 -0.003025 -0.005027 0.003500 0.004445
# 2 -0.001059 0.014324 -0.004675 -0.000783 -0.001928 -0.001229
# 3 -0.003025 -0.004675 0.015413 -0.000733 0.007024 0.000272
# 4 -0.005027 -0.000783 -0.000733 0.029850 -0.000275 0.000212
# 5 0.003500 -0.001928 0.007024 -0.000275 0.036679 0.002833
# 6 0.004445 -0.001229 0.000272 0.000212 0.002833 0.028453
#
#
# Mechanical properties :
#
#
# Convention : Reuss Voigt Hill
#
# Bulk Modulus (GPa) = 40.52631 48.60381 44.56506
# Shear Modulus (GPa) = 30.69091 34.50645 32.59868
#
# Velocity S-wave (km/s) = 3.85640 4.08910 3.97446
# Velocity P-wave (km/s) = 6.28227 6.77098 6.53120
#
# Compressibility (1/GPa) = 0.02467533
#
# Stress axis : x y z
#
# Youngs Moduli (GPa) = 80.28847 69.81354 64.88180
#
# Poissons Ratio (x) = 0.07392 0.19624
# Poissons Ratio (y) = 0.08502 0.30330
# Poissons Ratio (z) = 0.24283 0.32636
#
# Static dielectric constant tensor:
#      x y z
#    x 1.831250 -0.013790 0.036970 
#    y -0.013790 1.778320 -0.034670 
#    z 0.036970 -0.034670 1.777690 
# 
# From -- ./inp_files/397200.got.cif
#   From: 2010.05.17/outbox.cif.g08.bks.cpg/sg2_199_cif.got.tgz:397200.got - 2010.06.03 11:33:40.
