data_PCOD9089011
_publ_section_title
;
Structure prediction by ZEFSAII (Michael W. Deem and Ramdas Pophale) SiO2 
 PCOD9089011
Probable space group: P -1
;
_chemical_formula_sum "Si O2"
_cell_formula_units_Z 14
_cell_length_a 7.322165
_cell_length_b 12.895017
_cell_length_c 10.271476
_cell_angle_alpha 55.398110
_cell_angle_beta 72.040878
_cell_angle_gamma 114.100544
_cell_volume 506.461310
_symmetry_space_group_name_H-M "P -1"
_symmetry_group_IT_number 2
_symmetry_cell_setting 'triclinic'
loop_
_space_group_symop_operation_xyz
x,y,z
-x,-y,-z
loop_
_atom_site_type_symbol
_atom_site_label
_atom_site_fract_x
_atom_site_fract_y
_atom_site_fract_z
Si Si1 0.127492 0.233088 0.920298
Si Si2 0.625021 0.807412 0.443170
Si Si3 0.669401 0.343987 0.638302
Si Si4 0.690015 0.333930 0.126194
Si Si5 0.237286 0.265065 0.154617
Si Si6 0.068021 0.882420 0.419594
Si Si7 0.639736 0.144700 0.012230
O O1 0.201448 0.317187 0.989524
O O2 0.946096 0.229367 0.864405
O O3 0.430287 0.334042 0.728857
O O4 0.869980 0.006081 0.170431
O O5 0.359793 0.673493 0.498391
O O6 0.517622 0.807181 0.606640
O O7 0.787433 0.756784 0.480651
O O8 0.000000 0.500000 0.500000
O O9 0.548890 0.178724 0.882098
O O10 0.549572 0.393961 0.057043
O O11 0.700127 0.248244 0.060639
O O12 0.000000 0.500000 0.000000
O O13 0.019972 0.202069 0.357952
O O14 0.157846 0.075937 0.276108
O O15 0.333154 0.933378 0.270366
#
# Coordination Sequence:
#
# PCOD9089011 Si02
#       7
#     2   2   2   2   2   2   2
#     4  11  22  39  66  92 121 158 213 254 302 363
#     4  10  21  38  65  93 121 162 208 253 301 363
#     4  12  25  43  63  85 128 168 199 253 313 364
#     4  10  19  37  64  93 124 165 203 241 311 372
#     4   8  15  31  57  85 118 151 191 247 292 349
#     4   8  15  32  57  88 115 147 199 246 294 345
#     4  11  22  38  67  90 120 161 207 252 310 361
#
# _framework density 27.642779999999998
#
# number of rings (size 3 to 8) (size 9 to 14) (size 15 to 20)
#    0.000    2.000    4.286    3.857    0.000    3.429 
#    0.000    0.714    3.143    0.000    0.000    0.000 
#    0.000    0.000    0.000    0.000    0.000    0.000 
#
# Total GULP energy -78220.663686 kJ/mol
# GULP energy per Si atom -5587.190263 kJ/mol
# Density = 2.757986 g / cm^3
# Si number density = 27.642780 Si / 1000 Ang^3
#
#
#
# Elastic Constant Matrix: (Units=GPa)
#
#
# Indices 1 2 3 4 5 6 
#
# 1 155.1923 48.9292 39.4055 5.8980 -38.4670 47.9221
# 2 48.9292 123.3179 39.7052 17.7947 -10.8259 47.0014
# 3 39.4055 39.7052 122.2510 4.4079 -31.7776 -0.4558
# 4 5.8980 17.7947 4.4079 51.9009 9.1251 -6.2968
# 5 -38.4670 -10.8259 -31.7776 9.1251 53.7625 -5.8993
# 6 47.9221 47.0014 -0.4558 -6.2968 -5.8993 52.9984
#
#
#
# Elastic Compliance Matrix: (Units=1/GPa)
#
#
# Indices 1 2 3 4 5 6 
#
# 1 0.012374 0.002221 -0.002753 -0.004747 0.007058 -0.012961
# 2 0.002221 0.017344 -0.005871 -0.008091 0.000977 -0.018292
# 3 -0.002753 -0.005871 0.012181 0.001492 0.004728 0.008504
# 4 -0.004747 -0.008091 0.001492 0.025339 -0.006940 0.013719
# 5 0.007058 0.000977 0.004728 -0.006940 0.027271 -0.004997
# 6 -0.012961 -0.018292 0.008504 0.013719 -0.004997 0.047957
#
#
# Mechanical properties :
#
#
# Convention : Reuss Voigt Hill
#
# Bulk Modulus (GPa) = 34.37241 72.98233 53.67737
# Shear Modulus (GPa) = 30.30859 49.91378 40.11118
#
# Velocity S-wave (km/s) = 3.31484 4.25393 3.81340
# Velocity P-wave (km/s) = 5.20696 7.11246 6.23296
#
# Compressibility (1/GPa) = 0.02909310
#
# Stress axis : x y z
#
# Youngs Moduli (GPa) = 80.81296 57.65802 82.09541
#
# Poissons Ratio (x) = -0.12806 0.22598
# Poissons Ratio (y) = -0.17948 0.48200
# Poissons Ratio (z) = 0.22245 0.33852
#
# Static dielectric constant tensor:
#      x y z
#    x 2.259740 -0.113460 0.076280 
#    y -0.113460 2.395580 -0.101320 
#    z 0.076280 -0.101320 2.240960 
# 
# From -- ./inp_files/398916.got.cif
#   From: 2010.05.17/outbox.cif.g08.bks.cpg/sg2_200_cif.got.tgz:398916.got - 2010.06.03 11:33:40.
