data_PCOD9089673
_publ_section_title
;
Structure prediction by ZEFSAII (Michael W. Deem and Ramdas Pophale) SiO2 
 PCOD9089673
Probable space group: P -1
;
_chemical_formula_sum "Si O2"
_cell_formula_units_Z 16
_cell_length_a 14.323896
_cell_length_b 9.682798
_cell_length_c 9.695044
_cell_angle_alpha 81.394083
_cell_angle_beta 54.949668
_cell_angle_gamma 120.475215
_cell_volume 740.671338
_symmetry_space_group_name_H-M "P -1"
_symmetry_group_IT_number 2
_symmetry_cell_setting 'triclinic'
loop_
_space_group_symop_operation_xyz
x,y,z
-x,-y,-z
loop_
_atom_site_type_symbol
_atom_site_label
_atom_site_fract_x
_atom_site_fract_y
_atom_site_fract_z
Si Si1 0.376343 0.739049 0.401611
Si Si2 0.549616 0.704289 0.461005
Si Si3 0.014501 0.340901 0.635047
Si Si4 0.481648 0.150126 0.010691
Si Si5 0.664830 0.977488 0.576773
Si Si6 0.986107 0.637580 0.922309
Si Si7 0.925562 0.068798 0.980130
Si Si8 0.171160 0.540766 0.192826
O O1 0.410383 0.679659 0.516036
O O2 0.189752 0.556907 0.521290
O O3 0.498937 0.785242 0.172176
O O4 0.414353 0.936087 0.372635
O O5 0.500000 0.500000 0.500000
O O6 0.579620 0.784219 0.580876
O O7 0.728506 0.894406 0.206507
O O8 0.047228 0.366025 0.439982
O O9 0.873536 0.333119 0.783311
O O10 0.965324 0.151411 0.777757
O O11 0.647758 0.338075 0.925578
O O12 0.500000 0.000000 0.000000
O O13 0.336274 0.058736 0.253723
O O14 0.846748 0.168489 0.330877
O O15 0.977414 0.727805 0.045835
O O16 0.848642 0.521136 0.938302
O O17 0.000000 0.500000 0.000000
O O18 0.000000 0.000000 0.000000
#
# Coordination Sequence:
#
# PCOD9089673 Si02
#       8
#     2   2   2   2   2   2   2   2
#     4  10  19  38  60  89 118 151 194 244 301 348
#     4  11  25  39  58  83 120 164 198 241 297 354
#     4  10  20  36  61  88 121 153 194 246 297 349
#     4   9  21  33  56  90 123 149 190 240 295 354
#     4  10  21  37  58  89 118 151 194 248 294 349
#     4  11  21  37  61  91 118 153 201 250 296 350
#     4  11  24  40  60  87 120 159 203 245 296 358
#     4  10  20  35  59  91 120 153 192 245 302 346
#
# _framework density 21.602024
#
# number of rings (size 3 to 8) (size 9 to 14) (size 15 to 20)
#    0.000    1.750    2.500    1.125    5.250    3.000 
#    0.000    1.250    0.000    0.000    0.000    0.000 
#    0.000    0.000    0.000    0.000    0.000    0.000 
#
# Total GULP energy -89233.151586 kJ/mol
# GULP energy per Si atom -5577.071974 kJ/mol
# Density = 2.155286 g / cm^3
# Si number density = 21.602024 Si / 1000 Ang^3
#
#
#
# Elastic Constant Matrix: (Units=GPa)
#
#
# Indices 1 2 3 4 5 6 
#
# 1 57.6145 10.1589 2.5040 -4.1287 6.4493 3.2883
# 2 10.1589 98.5726 8.0884 -3.5296 10.4818 6.0332
# 3 2.5040 8.0884 92.1502 1.0479 11.4102 10.0918
# 4 -4.1287 -3.5296 1.0479 22.0029 3.2689 8.2209
# 5 6.4493 10.4818 11.4102 3.2689 29.4688 -2.9287
# 6 3.2883 6.0332 10.0918 8.2209 -2.9287 33.2176
#
#
#
# Elastic Compliance Matrix: (Units=1/GPa)
#
#
# Indices 1 2 3 4 5 6 
#
# 1 0.018650 -0.001037 0.000516 0.005365 -0.004863 -0.003571
# 2 -0.001037 0.011031 -0.000103 0.003378 -0.004339 -0.003088
# 3 0.000516 -0.000103 0.012005 0.002057 -0.005417 -0.004666
# 4 0.005365 0.003378 0.002057 0.054575 -0.010839 -0.016232
# 5 -0.004863 -0.004339 -0.005417 -0.010839 0.040755 0.009191
# 6 -0.003571 -0.003088 -0.004666 -0.016232 0.009191 0.037264
#
#
# Mechanical properties :
#
#
# Convention : Reuss Voigt Hill
#
# Bulk Modulus (GPa) = 24.72803 32.20442 28.46622
# Shear Modulus (GPa) = 26.45414 32.11025 29.28220
#
# Velocity S-wave (km/s) = 3.50325 3.85963 3.68575
# Velocity P-wave (km/s) = 5.27594 5.89938 5.59635
#
# Compressibility (1/GPa) = 0.04043994
#
# Stress axis : x y z
#
# Youngs Moduli (GPa) = 53.62008 90.64986 83.29732
#
# Poissons Ratio (x) = 0.09397 -0.04302
# Poissons Ratio (y) = 0.05558 0.00859
# Poissons Ratio (z) = -0.02769 0.00934
#
# Static dielectric constant tensor:
#      x y z
#    x 1.774710 0.019850 -0.045890 
#    y 0.019850 1.774750 -0.007570 
#    z -0.045890 -0.007570 1.882350 
# 
# From -- ./inp_files/190775.got.cif
#   From: 2010.05.17/outbox.cif.g08.bks.cpg/sg2_96_cif.got.tgz:190775.got - 2010.06.03 11:33:40.
