data_PCOD9089077
_publ_section_title
;
Structure prediction by ZEFSAII (Michael W. Deem and Ramdas Pophale) SiO2 
 PCOD9089077
Probable space group: P -1
;
_chemical_formula_sum "Si O2"
_cell_formula_units_Z 16
_cell_length_a 15.184258
_cell_length_b 7.705118
_cell_length_c 7.618643
_cell_angle_alpha 58.406005
_cell_angle_beta 64.999502
_cell_angle_gamma 51.728914
_cell_volume 589.617665
_symmetry_space_group_name_H-M "P -1"
_symmetry_group_IT_number 2
_symmetry_cell_setting 'triclinic'
loop_
_space_group_symop_operation_xyz
x,y,z
-x,-y,-z
loop_
_atom_site_type_symbol
_atom_site_label
_atom_site_fract_x
_atom_site_fract_y
_atom_site_fract_z
Si Si1 0.803419 0.218046 0.803883
Si Si2 0.467276 0.692331 0.606930
Si Si3 0.948639 0.230063 0.219438
Si Si4 0.703686 0.972931 0.199501
Si Si5 0.443279 0.275283 0.847027
Si Si6 0.779640 0.672760 0.934752
Si Si7 0.104884 0.479495 0.525878
Si Si8 0.235309 0.893804 0.476605
O O1 0.923928 0.969824 0.821363
O O2 0.832638 0.420201 0.699947
O O3 0.747946 0.251602 0.640999
O O4 0.731458 0.176425 0.026427
O O5 0.499053 0.429177 0.781723
O O6 0.546508 0.705972 0.383959
O O7 0.348169 0.781231 0.555380
O O8 0.423665 0.887957 0.692359
O O9 0.897689 0.443784 0.010956
O O10 0.937214 0.347107 0.358562
O O11 0.869039 0.115228 0.344207
O O12 0.728558 0.831810 0.072186
O O13 0.799484 0.778648 0.350142
O O14 0.318418 0.387642 0.972501
O O15 0.500000 0.000000 0.000000
O O16 0.789310 0.849602 0.700783
O O17 0.000000 0.500000 0.500000
#
# Coordination Sequence:
#
# PCOD9089077 Si02
#       8
#     2   2   2   2   2   2   2   2
#     4  10  23  41  60  88 129 175 207 238 305 365
#     4  11  24  41  66  95 123 153 204 265 312 362
#     4  10  21  39  62  89 125 175 210 243 297 366
#     4  10  25  42  57  94 131 159 201 256 312 359
#     4  11  23  43  70  95 115 157 210 254 317 377
#     4  10  21  41  66  89 125 163 206 255 304 370
#     4  10  22  37  59  90 125 163 212 255 295 350
#     4  10  19  37  65  87 121 159 208 248 294 363
#
# _framework density 27.136232
#
# number of rings (size 3 to 8) (size 9 to 14) (size 15 to 20)
#    0.000    1.750    2.500    1.500    3.500    7.500 
#    0.000    0.625    0.000    0.000    0.000    0.000 
#    0.000    0.000    0.000    0.000    0.000    0.000 
#
# Total GULP energy -89722.076004 kJ/mol
# GULP energy per Si atom -5607.629750 kJ/mol
# Density = 2.707447 g / cm^3
# Si number density = 27.136232 Si / 1000 Ang^3
#
#
#
# Elastic Constant Matrix: (Units=GPa)
#
#
# Indices 1 2 3 4 5 6 
#
# 1 91.3279 10.7789 27.6446 -14.6851 -18.9374 0.9288
# 2 10.7789 93.7537 29.3600 -8.7700 -2.3510 7.6680
# 3 27.6446 29.3600 145.7692 -16.1857 -22.8751 2.1440
# 4 -14.6851 -8.7700 -16.1857 52.0852 -2.7678 -8.9709
# 5 -18.9374 -2.3510 -22.8751 -2.7678 47.5654 -3.7969
# 6 0.9288 7.6680 2.1440 -8.9709 -3.7969 38.5032
#
#
#
# Elastic Compliance Matrix: (Units=1/GPa)
#
#
# Indices 1 2 3 4 5 6 
#
# 1 0.012975 -0.000768 -0.001153 0.003643 0.004884 0.001235
# 2 -0.000768 0.011669 -0.002251 0.000632 -0.000945 -0.002126
# 3 -0.001153 -0.002251 0.008339 0.002234 0.003641 0.000891
# 4 0.003643 0.000632 0.002234 0.022157 0.004264 0.005245
# 5 0.004884 -0.000945 0.003641 0.004264 0.025187 0.003345
# 6 0.001235 -0.002126 0.000891 0.005245 0.003345 0.027868
#
#
# Mechanical properties :
#
#
# Convention : Reuss Voigt Hill
#
# Bulk Modulus (GPa) = 40.58967 51.82420 46.20693
# Shear Modulus (GPa) = 40.07918 45.16859 42.62388
#
# Velocity S-wave (km/s) = 3.84730 4.08427 3.96755
# Velocity P-wave (km/s) = 5.89286 6.43280 6.16874
#
# Compressibility (1/GPa) = 0.02463681
#
# Stress axis : x y z
#
# Youngs Moduli (GPa) = 77.07022 85.69756 119.92361
#
# Poissons Ratio (x) = 0.06585 0.13830
# Poissons Ratio (y) = 0.05922 0.26999
# Poissons Ratio (z) = 0.08888 0.19294
#
# Static dielectric constant tensor:
#      x y z
#    x 2.155590 0.086770 0.042670 
#    y 0.086770 2.185320 0.039690 
#    z 0.042670 0.039690 2.088450 
# 
# From -- ./inp_files/327060.got.cif
#   From: 2010.05.17/outbox.cif.g08.bks.cpg/sg2_164_cif.got.tgz:327060.got - 2010.06.03 11:33:40.
