data_PCOD9089641
_publ_section_title
;
Structure prediction by ZEFSAII (Michael W. Deem and Ramdas Pophale) SiO2 
 PCOD9089641
Probable space group: P -1
;
_chemical_formula_sum "Si O2"
_cell_formula_units_Z 14
_cell_length_a 12.178451
_cell_length_b 7.771733
_cell_length_c 6.949152
_cell_angle_alpha 116.770951
_cell_angle_beta 108.981463
_cell_angle_gamma 69.097636
_cell_volume 537.793974
_symmetry_space_group_name_H-M "P -1"
_symmetry_group_IT_number 2
_symmetry_cell_setting 'triclinic'
loop_
_space_group_symop_operation_xyz
x,y,z
-x,-y,-z
loop_
_atom_site_type_symbol
_atom_site_label
_atom_site_fract_x
_atom_site_fract_y
_atom_site_fract_z
Si Si1 0.650944 0.658227 0.754034
Si Si2 0.839148 0.991468 0.483028
Si Si3 0.873467 0.664533 0.651971
Si Si4 0.331652 0.574568 0.010559
Si Si5 0.565764 0.156796 0.531761
Si Si6 0.942159 0.199027 0.948626
Si Si7 0.761723 0.326735 0.378908
O O1 0.747903 0.751075 0.743850
O O2 0.658668 0.632592 0.975420
O O3 0.518898 0.747627 0.646314
O O4 0.698898 0.428701 0.591442
O O5 0.700148 0.045524 0.496339
O O6 0.814564 0.090133 0.305168
O O7 0.883009 0.788060 0.526008
O O8 0.923564 0.129218 0.686767
O O9 0.862956 0.447947 0.471866
O O10 0.973957 0.660882 0.868650
O O11 0.193887 0.702292 0.020540
O O12 0.337989 0.587435 0.792963
O O13 0.420862 0.686766 0.217458
O O14 0.500000 0.000000 0.500000
O O15 0.000000 0.000000 0.000000
#
# Coordination Sequence:
#
# PCOD9089641 Si02
#       7
#     2   2   2   2   2   2   2
#     4  10  21  38  61  82 121 155 188 247 285 345
#     4  10  19  38  60  85 121 151 196 245 286 342
#     4   9  19  38  59  87 117 154 195 240 292 338
#     4  11  23  38  60  89 113 158 194 233 304 340
#     4  11  19  38  62  84 116 154 198 238 290 349
#     4   9  18  36  64  84 115 155 195 239 287 348
#     4  10  22  39  58  87 125 148 192 245 287 350
#
# _framework density 26.032277000000001
#
# number of rings (size 3 to 8) (size 9 to 14) (size 15 to 20)
#    0.857    1.143    4.286    0.429    0.000    3.429 
#    2.571    3.571    0.000    0.000    0.000    0.000 
#    0.000    0.000    0.000    0.000    0.000    0.000 
#
# Total GULP energy -78069.873822 kJ/mol
# GULP energy per Si atom -5576.419559 kJ/mol
# Density = 2.597303 g / cm^3
# Si number density = 26.032277 Si / 1000 Ang^3
#
#
#
# Elastic Constant Matrix: (Units=GPa)
#
#
# Indices 1 2 3 4 5 6 
#
# 1 84.0228 47.1821 41.9494 -10.2580 34.9048 -10.7824
# 2 47.1821 135.9790 37.8165 -49.2054 10.7561 19.4122
# 3 41.9494 37.8165 99.4119 -34.9324 17.7511 12.5009
# 4 -10.2580 -49.2054 -34.9324 44.5886 -1.5707 4.8635
# 5 34.9048 10.7561 17.7511 -1.5707 36.8167 -11.9732
# 6 -10.7824 19.4122 12.5009 4.8635 -11.9732 59.9086
#
#
#
# Elastic Compliance Matrix: (Units=1/GPa)
#
#
# Indices 1 2 3 4 5 6 
#
# 1 0.036718 -0.018906 -0.016878 -0.027893 -0.017451 0.015033
# 2 -0.018906 0.026025 0.013196 0.036622 -0.000204 -0.017603
# 3 -0.016878 0.013196 0.026793 0.033309 -0.004735 -0.016555
# 4 -0.027893 0.036622 0.033309 0.085784 -0.007136 -0.032228
# 5 -0.017451 -0.000204 -0.004735 -0.007136 0.048400 0.008166
# 6 0.015033 -0.017603 -0.016555 -0.032228 0.008166 0.032804
#
#
# Mechanical properties :
#
#
# Convention : Reuss Voigt Hill
#
# Bulk Modulus (GPa) = 22.54211 63.70109 43.12160
# Shear Modulus (GPa) = 15.79850 41.09380 28.44615
#
# Velocity S-wave (km/s) = 2.46617 3.97743 3.30923
# Velocity P-wave (km/s) = 4.09724 6.75400 5.58587
#
# Compressibility (1/GPa) = 0.04436141
#
# Stress axis : x y z
#
# Youngs Moduli (GPa) = 27.23494 38.42438 37.32291
#
# Poissons Ratio (x) = 0.72644 0.62993
# Poissons Ratio (y) = 0.51489 -0.49252
# Poissons Ratio (z) = 0.45967 -0.50706
#
# Static dielectric constant tensor:
#      x y z
#    x 2.158130 0.055530 -0.082240 
#    y 0.055530 2.050300 0.014330 
#    z -0.082240 0.014330 2.120600 
# 
# From -- ./inp_files/240599.got.cif
#   From: 2010.05.17/outbox.cif.g08.bks.cpg/sg2_121_cif.got.tgz:240599.got - 2010.06.03 11:33:40.
