data_PCOD9089024
_publ_section_title
;
Structure prediction by ZEFSAII (Michael W. Deem and Ramdas Pophale) SiO2 
 PCOD9089024
Probable space group: P -1
;
_chemical_formula_sum "Si O2"
_cell_formula_units_Z 16
_cell_length_a 13.918353
_cell_length_b 8.635563
_cell_length_c 25.279151
_cell_angle_alpha 49.382759
_cell_angle_beta 160.564699
_cell_angle_gamma 119.628302
_cell_volume 676.036451
_symmetry_space_group_name_H-M "P -1"
_symmetry_group_IT_number 2
_symmetry_cell_setting 'triclinic'
loop_
_space_group_symop_operation_xyz
x,y,z
-x,-y,-z
loop_
_atom_site_type_symbol
_atom_site_label
_atom_site_fract_x
_atom_site_fract_y
_atom_site_fract_z
Si Si1 0.213809 0.471272 0.400654
Si Si2 0.520373 0.301108 0.260150
Si Si3 0.314676 0.299762 0.387900
Si Si4 0.384372 0.812101 0.052043
Si Si5 0.792398 0.749776 0.368661
Si Si6 0.948511 0.785177 0.278074
Si Si7 0.567597 0.755262 0.653936
Si Si8 0.384821 0.927245 0.223539
O O1 0.074601 0.441171 0.279480
O O2 0.404602 0.625718 0.468258
O O3 0.471435 0.228785 0.614329
O O4 0.935149 0.608788 0.267978
O O5 0.413746 0.561288 0.128057
O O6 0.359875 0.313693 0.231935
O O7 0.921186 0.175259 0.499499
O O8 0.416525 0.156852 0.199372
O O9 0.221344 0.350792 0.266579
O O10 0.442042 0.029616 0.524509
O O11 0.453621 0.881038 0.130353
O O12 0.673690 0.823997 0.167871
O O13 0.087755 0.992163 0.822908
O O14 0.637774 0.780306 0.340274
O O15 0.000000 0.500000 0.500000
O O16 0.273158 0.700474 0.499354
O O17 0.000000 0.000000 0.000000
#
# Coordination Sequence:
#
# PCOD9089024 Si02
#       8
#     2   2   2   2   2   2   2   2
#     4  10  20  39  62  89 134 185 226 272 349 414
#     4  11  22  43  72 100 138 184 233 286 354 415
#     4   9  20  34  61  88 124 173 227 263 329 415
#     4  10  22  40  66 104 130 173 232 292 334 412
#     4  10  22  43  73 100 137 187 228 277 351 428
#     4  10  21  39  68  95 133 177 230 280 344 414
#     4  10  19  37  64  94 127 179 227 272 341 418
#     4  12  27  43  68 108 144 177 232 301 352 403
#
# _framework density 23.667362000000001
#
# number of rings (size 3 to 8) (size 9 to 14) (size 15 to 20)
#    0.000    1.750    2.500    1.875    5.250    4.000 
#    0.000    2.500    0.000    3.750    0.000    0.000 
#    0.000    0.000    0.000    0.000    0.000    0.000 
#
# Total GULP energy -89133.001363 kJ/mol
# GULP energy per Si atom -5570.812585 kJ/mol
# Density = 2.361349 g / cm^3
# Si number density = 23.667362 Si / 1000 Ang^3
#
#
#
# Elastic Constant Matrix: (Units=GPa)
#
#
# Indices 1 2 3 4 5 6 
#
# 1 127.3037 43.4455 20.4767 -4.3564 -7.1570 -14.1533
# 2 43.4455 131.5864 35.7762 -0.3308 -8.7449 -0.7979
# 3 20.4767 35.7762 41.9650 7.0549 -1.8344 7.7275
# 4 -4.3564 -0.3308 7.0549 37.1668 12.0239 -8.1422
# 5 -7.1570 -8.7449 -1.8344 12.0239 20.9758 -7.4159
# 6 -14.1533 -0.7979 7.7275 -8.1422 -7.4159 41.1047
#
#
#
# Elastic Compliance Matrix: (Units=1/GPa)
#
#
# Indices 1 2 3 4 5 6 
#
# 1 0.010034 -0.001857 -0.004531 0.002256 0.002807 0.005224
# 2 -0.001857 0.010804 -0.008673 0.000889 0.003300 0.001972
# 3 -0.004531 -0.008673 0.037083 -0.009998 0.000039 -0.010673
# 4 0.002256 0.000889 -0.009998 0.036437 -0.018290 0.006591
# 5 0.002807 0.003300 0.000039 -0.018290 0.063635 0.008881
# 6 0.005224 0.001972 -0.010673 0.006591 0.008881 0.031080
#
#
# Mechanical properties :
#
#
# Convention : Reuss Voigt Hill
#
# Bulk Modulus (GPa) = 35.97473 55.58355 45.77914
# Shear Modulus (GPa) = 21.88563 33.25992 27.57278
#
# Velocity S-wave (km/s) = 3.04422 3.75281 3.41693
# Velocity P-wave (km/s) = 5.25257 6.50495 5.91202
#
# Compressibility (1/GPa) = 0.02779729
#
# Stress axis : x y z
#
# Youngs Moduli (GPa) = 99.66548 92.55587 26.96688
#
# Poissons Ratio (x) = 0.17187 0.12220
# Poissons Ratio (y) = 0.18507 0.23389
# Poissons Ratio (z) = 0.45161 0.80277
#
# Static dielectric constant tensor:
#      x y z
#    x 2.027720 -0.018840 0.049040 
#    y -0.018840 1.886720 -0.039440 
#    z 0.049040 -0.039440 2.078740 
# 
# From -- ./inp_files/619257.got.cif
#   From: 2010.05.17/outbox.cif.g08.bks.cpg/sg2_310_cif.got.tgz:619257.got - 2010.06.03 11:33:40.
