data_PCOD9089121
_publ_section_title
;
Structure prediction by ZEFSAII (Michael W. Deem and Ramdas Pophale) SiO2 
 PCOD9089121
Probable space group: P -1
;
_chemical_formula_sum "Si O2"
_cell_formula_units_Z 14
_cell_length_a 13.745460
_cell_length_b 7.081847
_cell_length_c 13.555174
_cell_angle_alpha 65.529515
_cell_angle_beta 40.426296
_cell_angle_gamma 47.697504
_cell_volume 619.459876
_symmetry_space_group_name_H-M "P -1"
_symmetry_group_IT_number 2
_symmetry_cell_setting 'triclinic'
loop_
_space_group_symop_operation_xyz
x,y,z
-x,-y,-z
loop_
_atom_site_type_symbol
_atom_site_label
_atom_site_fract_x
_atom_site_fract_y
_atom_site_fract_z
Si Si1 0.935692 0.881085 0.918951
Si Si2 0.126701 0.140591 0.684173
Si Si3 0.554233 0.171765 0.043768
Si Si4 0.553024 0.194836 0.820511
Si Si5 0.197350 0.318007 0.773224
Si Si6 0.465982 0.706954 0.400209
Si Si7 0.842386 0.623180 0.677650
O O1 0.056014 0.631140 0.808018
O O2 0.732501 0.098192 0.982165
O O3 0.903854 0.773928 0.064504
O O4 0.055699 0.986107 0.819267
O O5 0.241351 0.183012 0.663462
O O6 0.943302 0.420458 0.732536
O O7 0.260850 0.970724 0.526054
O O8 0.537421 0.288476 0.923223
O O9 0.347132 0.341269 0.215690
O O10 0.580791 0.899020 0.062885
O O11 0.518587 0.359459 0.713567
O O12 0.759609 0.915332 0.710044
O O13 0.378845 0.248360 0.706080
O O14 0.500000 0.500000 0.500000
O O15 0.000000 0.500000 0.500000
#
# Coordination Sequence:
#
# PCOD9089121 Si02
#       7
#     2   2   2   2   2   2   2
#     4  11  23  42  66  98 133 174 226 273 332 406
#     4  12  24  40  67 100 131 173 230 269 333 407
#     4   9  19  38  65  94 126 174 220 270 331 396
#     4   9  19  39  68  92 127 181 216 267 343 387
#     4  11  24  42  66  93 137 181 218 274 337 390
#     4  12  23  44  65  97 138 177 223 279 332 401
#     4  10  19  37  65  92 132 170 214 280 334 384
#
# _framework density 22.600332999999999
#
# number of rings (size 3 to 8) (size 9 to 14) (size 15 to 20)
#    0.857    0.571    4.286    1.714    0.000    0.571 
#    2.571    2.143    0.000    0.000    0.000    0.000 
#    0.000    0.000    0.000    0.000    0.000    0.000 
#
# Total GULP energy -78160.874323 kJ/mol
# GULP energy per Si atom -5582.919595 kJ/mol
# Density = 2.254889 g / cm^3
# Si number density = 22.600333 Si / 1000 Ang^3
#
#
#
# Elastic Constant Matrix: (Units=GPa)
#
#
# Indices 1 2 3 4 5 6 
#
# 1 52.0647 17.1549 18.0224 2.2827 -2.4502 -6.7638
# 2 17.1549 86.5058 23.9214 -6.5267 -0.2894 -13.7389
# 3 18.0224 23.9214 98.4536 9.4060 0.9020 -1.2382
# 4 2.2827 -6.5267 9.4060 39.6450 -12.8374 -3.5678
# 5 -2.4502 -0.2894 0.9020 -12.8374 32.5595 -0.5028
# 6 -6.7638 -13.7389 -1.2382 -3.5678 -0.5028 21.4644
#
#
#
# Elastic Compliance Matrix: (Units=1/GPa)
#
#
# Indices 1 2 3 4 5 6 
#
# 1 0.021973 -0.002591 -0.003362 0.000175 0.001872 0.005144
# 2 -0.002591 0.014929 -0.003531 0.004987 0.002147 0.009415
# 3 -0.003362 -0.003531 0.012021 -0.004313 -0.002370 -0.003398
# 4 0.000175 0.004987 -0.004313 0.032023 0.012936 0.008624
# 5 0.001872 0.002147 -0.002370 0.012936 0.036113 0.004824
# 6 0.005144 0.009415 -0.003398 0.008624 0.004824 0.055586
#
#
# Mechanical properties :
#
#
# Convention : Reuss Voigt Hill
#
# Bulk Modulus (GPa) = 33.38260 39.46906 36.42583
# Shear Modulus (GPa) = 24.80169 30.59549 27.69859
#
# Velocity S-wave (km/s) = 3.31630 3.68334 3.50463
# Velocity P-wave (km/s) = 5.42833 5.96584 5.70342
#
# Compressibility (1/GPa) = 0.02995573
#
# Stress axis : x y z
#
# Youngs Moduli (GPa) = 45.51008 66.98456 83.18527
#
# Poissons Ratio (x) = 0.17358 0.27966
# Poissons Ratio (y) = 0.11793 0.29370
# Poissons Ratio (z) = 0.15300 0.23650
#
# Static dielectric constant tensor:
#      x y z
#    x 1.848140 0.014780 0.046010 
#    y 0.014780 1.891730 -0.016020 
#    z 0.046010 -0.016020 1.842320 
# 
# From -- ./inp_files/528242.got.cif
#   From: 2010.05.17/outbox.cif.g08.bks.cpg/sg2_265_cif.got.tgz:528242.got - 2010.06.03 11:33:40.
