data_PCOD9089392
_publ_section_title
;
Structure prediction by ZEFSAII (Michael W. Deem and Ramdas Pophale) SiO2 
 PCOD9089392
Probable space group: P -1
;
_chemical_formula_sum "Si O2"
_cell_formula_units_Z 16
_cell_length_a 18.987649
_cell_length_b 9.395399
_cell_length_c 22.335726
_cell_angle_alpha 34.085179
_cell_angle_beta 19.607665
_cell_angle_gamma 34.229644
_cell_volume 725.991654
_symmetry_space_group_name_H-M "P -1"
_symmetry_group_IT_number 2
_symmetry_cell_setting 'triclinic'
loop_
_space_group_symop_operation_xyz
x,y,z
-x,-y,-z
loop_
_atom_site_type_symbol
_atom_site_label
_atom_site_fract_x
_atom_site_fract_y
_atom_site_fract_z
Si Si1 0.573266 0.304883 0.351370
Si Si2 0.787200 0.448090 0.657130
Si Si3 0.235000 0.077249 0.757093
Si Si4 0.090692 0.408529 0.207203
Si Si5 0.784716 0.709392 0.081211
Si Si6 0.244259 0.714858 0.395369
Si Si7 0.351654 0.060485 0.015430
Si Si8 0.328769 0.821564 0.899109
O O1 0.470753 0.121877 0.538403
O O2 0.608298 0.539067 0.282325
O O3 0.410474 0.449704 0.379627
O O4 0.780188 0.129411 0.211723
O O5 0.827338 0.347553 0.591577
O O6 0.586203 0.702984 0.729672
O O7 0.000000 0.500000 0.500000
O O8 0.696232 0.221557 0.841102
O O9 0.078908 0.364392 0.773221
O O10 0.238331 0.947325 0.863803
O O11 0.257138 0.230072 0.090426
O O12 0.954075 0.249439 0.411519
O O13 0.217755 0.581786 0.083497
O O14 0.728401 0.958447 0.081735
O O15 0.781006 0.802328 0.983418
O O16 0.000000 0.500000 0.000000
O O17 0.399877 0.917349 0.199417
#
# Coordination Sequence:
#
# PCOD9089392 Si02
#       8
#     2   2   2   2   2   2   2   2
#     4   9  19  38  65  98 136 180 224 288 344 420
#     4  12  28  46  70 102 147 188 236 299 349 409
#     4  10  19  37  70 100 133 174 236 286 349 420
#     4  11  23  41  78 105 129 185 239 289 356 423
#     4  11  24  41  67 102 146 180 225 295 367 415
#     4  10  22  46  72  99 134 183 240 288 345 418
#     4  11  25  49  70  99 145 183 238 290 346 418
#     4  12  24  42  68 105 145 188 232 289 358 421
#
# _framework density 22.038823000000001
#
# number of rings (size 3 to 8) (size 9 to 14) (size 15 to 20)
#    0.000    1.250    2.500    3.000    1.750    5.500 
#    0.000    0.000    0.000    0.000    0.000    0.000 
#    0.000    0.000    0.000    0.000    0.000    0.000 
#
# Total GULP energy -89435.933378 kJ/mol
# GULP energy per Si atom -5589.745836 kJ/mol
# Density = 2.198866 g / cm^3
# Si number density = 22.038823 Si / 1000 Ang^3
#
#
#
# Elastic Constant Matrix: (Units=GPa)
#
#
# Indices 1 2 3 4 5 6 
#
# 1 106.2936 36.3619 61.8714 -10.3250 -8.6361 8.5732
# 2 36.3619 108.2488 53.6270 -3.9510 -6.1775 16.0136
# 3 61.8714 53.6270 154.5431 -13.2777 5.0724 4.3777
# 4 -10.3250 -3.9510 -13.2777 42.0333 -3.2461 -6.8639
# 5 -8.6361 -6.1775 5.0724 -3.2461 35.1697 -1.2641
# 6 8.5732 16.0136 4.3777 -6.8639 -1.2641 41.1505
#
#
#
# Elastic Compliance Matrix: (Units=1/GPa)
#
#
# Indices 1 2 3 4 5 6 
#
# 1 0.013273 -0.001690 -0.004668 0.001719 0.003751 -0.001209
# 2 -0.001690 0.012292 -0.003617 -0.000921 0.002032 -0.004138
# 3 -0.004668 -0.003617 0.009790 0.001623 -0.002989 0.001518
# 4 0.001719 -0.000921 0.001623 0.025514 0.002531 0.004161
# 5 0.003751 0.002032 -0.002989 0.002531 0.030380 0.000101
# 6 -0.001209 -0.004138 0.001518 0.004161 0.000101 0.026699
#
#
# Mechanical properties :
#
#
# Convention : Reuss Voigt Hill
#
# Bulk Modulus (GPa) = 64.92439 74.75623 69.84031
# Shear Modulus (GPa) = 34.95693 38.15238 36.55466
#
# Velocity S-wave (km/s) = 3.98697 4.16522 4.07707
# Velocity P-wave (km/s) = 7.12163 7.55817 7.34315
#
# Compressibility (1/GPa) = 0.01540253
#
# Stress axis : x y z
#
# Youngs Moduli (GPa) = 75.34264 81.35202 102.15004
#
# Poissons Ratio (x) = 0.13749 0.47688
# Poissons Ratio (y) = 0.12733 0.36953
# Poissons Ratio (z) = 0.35173 0.29429
#
# Static dielectric constant tensor:
#      x y z
#    x 1.820030 -0.028980 -0.036920 
#    y -0.028980 1.836590 0.009610 
#    z -0.036920 0.009610 1.859650 
# 
# From -- ./inp_files/599688.got.cif
#   From: 2010.05.17/outbox.cif.g08.bks.cpg/sg2_300_cif.got.tgz:599688.got - 2010.06.03 11:33:40.
