data_PCOD9089017
_publ_section_title
;
Structure prediction by ZEFSAII (Michael W. Deem and Ramdas Pophale) SiO2 
 PCOD9089017
Probable space group: P -1
;
_chemical_formula_sum "Si O2"
_cell_formula_units_Z 16
_cell_length_a 17.299280
_cell_length_b 10.471413
_cell_length_c 21.227064
_cell_angle_alpha 136.499782
_cell_angle_beta 20.485971
_cell_angle_gamma 145.238937
_cell_volume 748.217377
_symmetry_space_group_name_H-M "P -1"
_symmetry_group_IT_number 2
_symmetry_cell_setting 'triclinic'
loop_
_space_group_symop_operation_xyz
x,y,z
-x,-y,-z
loop_
_atom_site_type_symbol
_atom_site_label
_atom_site_fract_x
_atom_site_fract_y
_atom_site_fract_z
Si Si1 0.458777 0.236116 0.371293
Si Si2 0.032677 0.658757 0.379403
Si Si3 0.029787 0.735083 0.547320
Si Si4 0.389608 0.871053 0.903876
Si Si5 0.988252 0.426441 0.109592
Si Si6 0.822166 0.681801 0.819201
Si Si7 0.946910 0.848053 0.141254
Si Si8 0.313092 0.529173 0.546426
O O1 0.503675 0.235039 0.262606
O O2 0.753100 0.397248 0.234424
O O3 0.282320 0.334195 0.546169
O O4 0.326719 0.980486 0.406318
O O5 0.044537 0.448387 0.312543
O O6 0.943643 0.716457 0.533276
O O7 0.829636 0.586228 0.451506
O O8 0.341404 0.871744 0.200238
O O9 0.892052 0.765025 0.722791
O O10 0.000000 0.500000 0.500000
O O11 0.247643 0.692409 0.005169
O O12 0.156874 0.856432 0.033915
O O13 0.840306 0.369849 0.269607
O O14 0.051533 0.266615 0.966651
O O15 0.500000 0.500000 0.000000
O O16 0.927312 0.884561 0.860892
O O17 0.638377 0.714032 0.355106
#
# Coordination Sequence:
#
# PCOD9089017 Si02
#       8
#     2   2   2   2   2   2   2   2
#     4  10  19  37  64  94 123 170 216 260 314 378
#     4  10  24  43  62  97 131 165 215 266 319 382
#     4   9  21  39  63  92 120 164 215 264 306 377
#     4  10  19  39  64  91 129 162 218 266 306 377
#     4  11  22  38  65  96 131 169 216 260 314 379
#     4  11  22  42  70  90 120 168 221 265 315 382
#     4  11  22  42  64  94 125 169 217 264 314 380
#     4  12  24  39  64  98 136 169 206 265 331 377
#
# _framework density 21.384160999999999
#
# number of rings (size 3 to 8) (size 9 to 14) (size 15 to 20)
#    0.000    1.500    3.750    1.875    3.500    3.000 
#    2.250    0.625    0.000    0.000    0.000    0.000 
#    0.000    0.000    0.000    0.000    0.000    0.000 
#
# Total GULP energy -89138.980220 kJ/mol
# GULP energy per Si atom -5571.186264 kJ/mol
# Density = 2.133549 g / cm^3
# Si number density = 21.384161 Si / 1000 Ang^3
#
#
#
# Elastic Constant Matrix: (Units=GPa)
#
#
# Indices 1 2 3 4 5 6 
#
# 1 51.4724 26.3941 31.8443 -6.7770 -1.6556 12.5392
# 2 26.3941 106.8370 34.6029 -8.4751 5.5021 8.1473
# 3 31.8443 34.6029 102.8807 -8.0158 21.0800 8.5833
# 4 -6.7770 -8.4751 -8.0158 38.5305 8.8876 3.5320
# 5 -1.6556 5.5021 21.0800 8.8876 20.6453 0.2944
# 6 12.5392 8.1473 8.5833 3.5320 0.2944 17.3368
#
#
#
# Elastic Compliance Matrix: (Units=1/GPa)
#
#
# Indices 1 2 3 4 5 6 
#
# 1 0.032416 -0.004099 -0.009915 0.001177 0.013553 -0.017080
# 2 -0.004099 0.011377 -0.001707 0.002189 -0.002533 -0.001940
# 3 -0.009915 -0.001707 0.018742 0.007198 -0.022541 -0.002389
# 4 0.001177 0.002189 0.007198 0.034434 -0.022490 -0.012077
# 5 0.013553 -0.002533 -0.022541 -0.022490 0.082815 0.005724
# 6 -0.017080 -0.001940 -0.002389 -0.012077 0.005724 0.074492
#
#
# Mechanical properties :
#
#
# Convention : Reuss Voigt Hill
#
# Bulk Modulus (GPa) = 32.16114 49.65252 40.90683
# Shear Modulus (GPa) = 16.88724 26.52578 21.70651
#
# Velocity S-wave (km/s) = 2.81322 3.52581 3.18948
# Velocity P-wave (km/s) = 5.06208 6.31228 5.72143
#
# Compressibility (1/GPa) = 0.03109343
#
# Stress axis : x y z
#
# Youngs Moduli (GPa) = 30.84931 87.89311 53.35656
#
# Poissons Ratio (x) = 0.36028 0.52904
# Poissons Ratio (y) = 0.12645 0.09106
# Poissons Ratio (z) = 0.30588 0.14999
#
# Static dielectric constant tensor:
#      x y z
#    x 1.780880 -0.011210 0.065400 
#    y -0.011210 1.852360 0.025900 
#    z 0.065400 0.025900 1.827750 
# 
# From -- ./inp_files/600083.got.cif
#   From: 2010.05.17/outbox.cif.g08.bks.cpg/sg2_301_cif.got.tgz:600083.got - 2010.06.03 11:33:40.
