data_PCOD9089936
_publ_section_title
;
Structure prediction by ZEFSAII (Michael W. Deem and Ramdas Pophale) SiO2 
 PCOD9089936
Probable space group: P -1
;
_chemical_formula_sum "Si O2"
_cell_formula_units_Z 16
_cell_length_a 10.914885
_cell_length_b 10.266113
_cell_length_c 23.594747
_cell_angle_alpha 35.492269
_cell_angle_beta 153.126648
_cell_angle_gamma 140.453989
_cell_volume 683.651359
_symmetry_space_group_name_H-M "P -1"
_symmetry_group_IT_number 2
_symmetry_cell_setting 'triclinic'
loop_
_space_group_symop_operation_xyz
x,y,z
-x,-y,-z
loop_
_atom_site_type_symbol
_atom_site_label
_atom_site_fract_x
_atom_site_fract_y
_atom_site_fract_z
Si Si1 0.226379 0.681721 0.064610
Si Si2 0.221712 0.325066 0.339146
Si Si3 0.594777 0.746250 0.682957
Si Si4 0.991368 0.240451 0.601149
Si Si5 0.744162 0.486736 0.560476
Si Si6 0.197242 0.822297 0.133694
Si Si7 0.984360 0.909154 0.209373
Si Si8 0.815715 0.934611 0.365795
O O1 0.452573 0.515708 0.222885
O O2 0.173934 0.752744 0.082368
O O3 0.000000 0.500000 0.000000
O O4 0.239025 0.931487 0.953667
O O5 0.206720 0.257463 0.289756
O O6 0.549718 0.371699 0.469252
O O7 0.132543 0.570846 0.223149
O O8 0.046389 0.157514 0.371934
O O9 0.324082 0.842966 0.519945
O O10 0.737726 0.903624 0.736664
O O11 0.053720 0.181255 0.710842
O O12 0.000000 0.500000 0.500000
O O13 0.191698 0.156467 0.669139
O O14 0.500000 0.500000 0.500000
O O15 0.950583 0.309393 0.721300
O O16 0.882640 0.736920 0.505901
O O17 0.494994 0.942345 0.238944
O O18 0.000000 0.000000 0.000000
#
# Coordination Sequence:
#
# PCOD9089936 Si02
#       8
#     2   2   2   2   2   2   2   2
#     4   9  21  38  63  92 128 167 215 264 338 388
#     4  10  20  40  66  93 126 165 225 274 317 387
#     4  10  19  38  62  93 124 167 207 265 327 386
#     4  12  19  34  63  94 123 156 219 262 320 386
#     4  11  24  39  60  91 134 174 218 271 329 383
#     4  10  23  43  67  90 127 180 224 268 328 403
#     4  11  20  35  64  89 122 171 204 265 334 380
#     4  11  23  39  67  96 120 168 228 279 315 395
#
# _framework density 23.403742000000001
#
# number of rings (size 3 to 8) (size 9 to 14) (size 15 to 20)
#    0.000    1.500    3.750    2.625    3.500    1.000 
#    0.000    2.500    0.000    0.000    0.000    0.000 
#    0.000    0.000    0.000    0.000    0.000    0.000 
#
# Total GULP energy -89090.385335 kJ/mol
# GULP energy per Si atom -5568.149083 kJ/mol
# Density = 2.335047 g / cm^3
# Si number density = 23.403742 Si / 1000 Ang^3
#
#
#
# Elastic Constant Matrix: (Units=GPa)
#
#
# Indices 1 2 3 4 5 6 
#
# 1 54.4933 2.6992 36.7544 -6.6557 -5.4355 4.1985
# 2 2.6992 80.3819 41.0967 -12.9536 -2.2702 30.4886
# 3 36.7544 41.0967 168.9248 -58.5378 2.5293 17.6692
# 4 -6.6557 -12.9536 -58.5378 36.4970 -3.2765 -13.4559
# 5 -5.4355 -2.2702 2.5293 -3.2765 37.4989 -2.6848
# 6 4.1985 30.4886 17.6692 -13.4559 -2.6848 37.0294
#
#
#
# Elastic Compliance Matrix: (Units=1/GPa)
#
#
# Indices 1 2 3 4 5 6 
#
# 1 0.024083 0.004660 -0.009830 -0.011620 0.003000 -0.005882
# 2 0.004660 0.021834 -0.008505 -0.011948 0.000183 -0.018776
# 3 -0.009830 -0.008505 0.019558 0.030159 0.000074 0.009750
# 4 -0.011620 -0.011948 0.030159 0.079357 0.004348 0.025917
# 5 0.003000 0.000183 0.000074 0.004348 0.027707 0.003063
# 6 -0.005882 -0.018776 0.009750 0.025917 0.003063 0.048119
#
#
# Mechanical properties :
#
#
# Convention : Reuss Voigt Hill
#
# Bulk Modulus (GPa) = 26.22921 51.65564 38.94242
# Shear Modulus (GPa) = 19.17785 37.08836 28.13311
#
# Velocity S-wave (km/s) = 2.86568 3.98517 3.47086
# Velocity P-wave (km/s) = 4.70968 6.57989 5.72171
#
# Compressibility (1/GPa) = 0.03812543
#
# Stress axis : x y z
#
# Youngs Moduli (GPa) = 41.52227 45.80072 51.13014
#
# Poissons Ratio (x) = -0.21345 0.50262
# Poissons Ratio (y) = -0.19351 0.43486
# Poissons Ratio (z) = 0.40818 0.38954
#
# Static dielectric constant tensor:
#      x y z
#    x 1.921830 -0.008760 -0.035110 
#    y -0.008760 2.048020 0.003400 
#    z -0.035110 0.003400 1.911280 
# 
# From -- ./inp_files/618360.got.cif
#   From: 2010.05.17/outbox.cif.g08.bks.cpg/sg2_310_cif.got.tgz:618360.got - 2010.06.03 11:33:40.
