data_PCOD9089244
_publ_section_title
;
Structure prediction by ZEFSAII (Michael W. Deem and Ramdas Pophale) SiO2 
 PCOD9089244
Probable space group: P -1
;
_chemical_formula_sum "Si O2"
_cell_formula_units_Z 16
_cell_length_a 6.227883
_cell_length_b 5.853212
_cell_length_c 27.747404
_cell_angle_alpha 44.310122
_cell_angle_beta 77.359780
_cell_angle_gamma 72.908835
_cell_volume 675.302607
_symmetry_space_group_name_H-M "P -1"
_symmetry_group_IT_number 2
_symmetry_cell_setting 'triclinic'
loop_
_space_group_symop_operation_xyz
x,y,z
-x,-y,-z
loop_
_atom_site_type_symbol
_atom_site_label
_atom_site_fract_x
_atom_site_fract_y
_atom_site_fract_z
Si Si1 0.327725 0.940601 0.220742
Si Si2 0.366579 0.622587 0.833703
Si Si3 0.964650 0.625942 0.561754
Si Si4 0.725058 0.430663 0.528345
Si Si5 0.804614 0.044785 0.879593
Si Si6 0.782024 0.839943 0.014072
Si Si7 0.889098 0.660381 0.663775
Si Si8 0.049744 0.612085 0.765950
O O1 0.246675 0.089605 0.149762
O O2 0.292715 0.562047 0.279537
O O3 0.564550 0.037032 0.204202
O O4 0.165060 0.128329 0.241706
O O5 0.589538 0.338401 0.858096
O O6 0.222520 0.473002 0.903587
O O7 0.249595 0.669767 0.780763
O O8 0.119468 0.437468 0.540203
O O9 0.724241 0.611812 0.552615
O O10 0.003997 0.505971 0.631895
O O11 0.000000 0.000000 0.500000
O O12 0.500000 0.500000 0.500000
O O13 0.784045 0.038014 0.597470
O O14 0.005693 0.243251 0.835135
O O15 0.831662 0.804465 0.960106
O O16 0.500000 0.000000 0.000000
O O17 0.000000 0.000000 0.000000
O O18 0.049658 0.655131 0.702332
#
# Coordination Sequence:
#
# PCOD9089244 Si02
#       8
#     2   2   2   2   2   2   2   2
#     4  10  22  39  57  87 123 165 214 266 318 389
#     4  10  21  38  62  86 125 165 217 269 326 384
#     4   9  20  40  62  91 123 153 196 251 310 379
#     4  10  21  41  66  93 123 158 198 259 315 380
#     4   9  20  38  59  86 125 163 213 270 333 385
#     4  10  19  37  66  96 129 177 229 285 351 403
#     4  10  21  40  61  85 127 165 203 253 323 386
#     4  10  20  39  59  83 122 166 208 264 314 383
#
# _framework density 23.693082
#
# number of rings (size 3 to 8) (size 9 to 14) (size 15 to 20)
#    0.000    2.250    1.250    0.750    0.000    4.500 
#    0.000   30.625    0.000    0.000    0.000    0.000 
#    0.000    0.000    0.000    0.000    0.000    0.000 
#
# Total GULP energy -89155.707958 kJ/mol
# GULP energy per Si atom -5572.231747 kJ/mol
# Density = 2.363916 g / cm^3
# Si number density = 23.693082 Si / 1000 Ang^3
#
#
#
# Elastic Constant Matrix: (Units=GPa)
#
#
# Indices 1 2 3 4 5 6 
#
# 1 98.2484 42.2886 64.1221 -3.7730 5.4767 34.1316
# 2 42.2886 84.4412 69.7854 24.4757 7.6655 38.2886
# 3 64.1221 69.7854 173.9300 35.5165 10.1262 22.6926
# 4 -3.7730 24.4757 35.5165 56.9151 6.8135 9.8820
# 5 5.4767 7.6655 10.1262 6.8135 29.8919 4.0439
# 6 34.1316 38.2886 22.6926 9.8820 4.0439 50.2857
#
#
#
# Elastic Compliance Matrix: (Units=1/GPa)
#
#
# Indices 1 2 3 4 5 6 
#
# 1 0.019157 -0.001736 -0.006609 0.008062 -0.001286 -0.010179
# 2 -0.001736 0.026901 -0.007217 -0.004430 -0.001084 -0.015090
# 3 -0.006609 -0.007217 0.011446 -0.005460 -0.000372 0.005919
# 4 0.008062 -0.004430 -0.005460 0.024565 -0.003525 -0.004179
# 5 -0.001286 -0.001084 -0.000372 -0.003525 0.034931 -0.000250
# 6 -0.010179 -0.015090 0.005919 -0.004179 -0.000250 0.036456
#
#
# Mechanical properties :
#
#
# Convention : Reuss Voigt Hill
#
# Bulk Modulus (GPa) = 37.90825 78.77911 58.34368
# Shear Modulus (GPa) = 25.85680 39.44677 32.65178
#
# Velocity S-wave (km/s) = 3.30710 4.08475 3.71632
# Velocity P-wave (km/s) = 5.53326 7.45446 6.56452
#
# Compressibility (1/GPa) = 0.02637948
#
# Stress axis : x y z
#
# Youngs Moduli (GPa) = 52.20145 37.17286 87.36672
#
# Poissons Ratio (x) = 0.06455 0.57741
# Poissons Ratio (y) = 0.09064 0.63051
# Poissons Ratio (z) = 0.34500 0.26827
#
# Static dielectric constant tensor:
#      x y z
#    x 2.327390 0.048380 0.038080 
#    y 0.048380 1.996980 0.024280 
#    z 0.038080 0.024280 1.845820 
# 
# From -- ./inp_files/10706.got.cif
#   From: 2010.05.17/outbox.cif.g08.bks.cpg/sg2_6_cif.got.tgz:10706.got - 2010.06.03 11:33:40.
