data_PCOD9089013
_publ_section_title
;
Structure prediction by ZEFSAII (Michael W. Deem and Ramdas Pophale) SiO2 
 PCOD9089013
Probable space group: P -1
;
_chemical_formula_sum "Si O2"
_cell_formula_units_Z 16
_cell_length_a 11.962292
_cell_length_b 11.081570
_cell_length_c 8.565715
_cell_angle_alpha 121.826625
_cell_angle_beta 54.326088
_cell_angle_gamma 115.490703
_cell_volume 771.210282
_symmetry_space_group_name_H-M "P -1"
_symmetry_group_IT_number 2
_symmetry_cell_setting 'triclinic'
loop_
_space_group_symop_operation_xyz
x,y,z
-x,-y,-z
loop_
_atom_site_type_symbol
_atom_site_label
_atom_site_fract_x
_atom_site_fract_y
_atom_site_fract_z
Si Si1 0.770910 0.751450 0.262345
Si Si2 0.151978 0.971956 0.397314
Si Si3 0.362890 0.418697 0.471461
Si Si4 0.641378 0.456754 0.777401
Si Si5 0.801582 0.210594 0.488605
Si Si6 0.628589 0.931695 0.298618
Si Si7 0.289196 0.137199 0.137176
Si Si8 0.100824 0.297970 0.183903
O O1 0.742817 0.622889 0.323699
O O2 0.793024 0.893073 0.445230
O O3 0.644469 0.784985 0.277523
O O4 0.891227 0.749411 0.035334
O O5 0.160632 0.833515 0.397619
O O6 0.239165 0.996398 0.184753
O O7 0.000000 0.000000 0.500000
O O8 0.500000 0.500000 0.500000
O O9 0.344319 0.514620 0.401149
O O10 0.361542 0.265651 0.279064
O O11 0.674001 0.297116 0.663923
O O12 0.778329 0.560868 0.808132
O O13 0.500000 0.500000 0.000000
O O14 0.758451 0.062754 0.321648
O O15 0.942856 0.302929 0.363727
O O16 0.500000 0.000000 0.500000
O O17 0.616867 0.895659 0.102558
O O18 0.159634 0.190506 0.186595
#
# Coordination Sequence:
#
# PCOD9089013 Si02
#       8
#     2   2   2   2   2   2   2   2
#     4   9  21  38  61  91 120 168 203 259 323 370
#     4  10  19  37  64  93 130 154 204 262 317 382
#     4  10  21  39  65  88 122 170 214 255 311 380
#     4  11  25  43  66  89 126 173 216 265 315 375
#     4  11  24  39  65  96 125 171 212 262 320 380
#     4  10  23  39  61  92 134 160 212 267 316 388
#     4   9  20  38  64  94 123 167 204 261 322 370
#     4  10  20  40  67  92 126 164 217 257 313 386
#
# _framework density 20.746611999999999
#
# number of rings (size 3 to 8) (size 9 to 14) (size 15 to 20)
#    0.000    2.000    1.250    1.125    8.750    1.500 
#    2.250    3.750    0.000    0.000    0.000    0.000 
#    0.000    0.000    0.000    0.000    0.000    0.000 
#
# Total GULP energy -89091.311138 kJ/mol
# GULP energy per Si atom -5568.206946 kJ/mol
# Density = 2.069939 g / cm^3
# Si number density = 20.746612 Si / 1000 Ang^3
#
#
#
# Elastic Constant Matrix: (Units=GPa)
#
#
# Indices 1 2 3 4 5 6 
#
# 1 53.5389 27.2709 58.4787 -14.1220 4.7063 -10.4250
# 2 27.2709 66.8086 35.9149 -19.0250 -0.8562 -19.1953
# 3 58.4787 35.9149 127.7253 -21.1863 8.3675 -15.4043
# 4 -14.1220 -19.0250 -21.1863 29.1560 -4.4520 3.2766
# 5 4.7063 -0.8562 8.3675 -4.4520 36.6665 -4.3922
# 6 -10.4250 -19.1953 -15.4043 3.2766 -4.3922 35.6549
#
#
#
# Elastic Compliance Matrix: (Units=1/GPa)
#
#
# Indices 1 2 3 4 5 6 
#
# 1 0.040846 -0.006865 -0.016027 0.003374 -0.001233 0.000861
# 2 -0.006865 0.024546 -0.000883 0.011549 0.004291 0.010293
# 3 -0.016027 -0.000883 0.016169 0.003083 -0.001111 0.001404
# 4 0.003374 0.011549 0.003083 0.045961 0.005308 0.004966
# 5 -0.001233 0.004291 -0.001111 0.005308 0.028975 0.004551
# 6 0.000861 0.010293 0.001404 0.004966 0.004551 0.034551
#
#
# Mechanical properties :
#
#
# Convention : Reuss Voigt Hill
#
# Bulk Modulus (GPa) = 29.40195 54.60022 42.00108
# Shear Modulus (GPa) = 20.00521 28.72269 24.36395
#
# Velocity S-wave (km/s) = 3.10863 3.72486 3.43061
# Velocity P-wave (km/s) = 5.20456 6.69882 5.99840
#
# Compressibility (1/GPa) = 0.03401135
#
# Stress axis : x y z
#
# Youngs Moduli (GPa) = 24.48202 40.73924 61.84737
#
# Poissons Ratio (x) = 0.27969 0.99121
# Poissons Ratio (y) = 0.16808 0.05460
# Poissons Ratio (z) = 0.39237 0.03597
#
# Static dielectric constant tensor:
#      x y z
#    x 1.733440 0.005370 0.011420 
#    y 0.005370 1.835400 -0.025230 
#    z 0.011420 -0.025230 1.758480 
# 
# From -- ./inp_files/259864.got.cif
#   From: 2010.05.17/outbox.cif.g08.bks.cpg/sg2_130_cif.got.tgz:259864.got - 2010.06.03 11:33:40.
