data_PCOD9089940
_publ_section_title
;
Structure prediction by ZEFSAII (Michael W. Deem and Ramdas Pophale) SiO2 
 PCOD9089940
Probable space group: P -1
;
_chemical_formula_sum "Si O2"
_cell_formula_units_Z 16
_cell_length_a 17.121612
_cell_length_b 9.196326
_cell_length_c 8.798752
_cell_angle_alpha 59.819195
_cell_angle_beta 42.318112
_cell_angle_gamma 49.075471
_cell_volume 704.283251
_symmetry_space_group_name_H-M "P -1"
_symmetry_group_IT_number 2
_symmetry_cell_setting 'triclinic'
loop_
_space_group_symop_operation_xyz
x,y,z
-x,-y,-z
loop_
_atom_site_type_symbol
_atom_site_label
_atom_site_fract_x
_atom_site_fract_y
_atom_site_fract_z
Si Si1 0.865316 0.533435 0.023486
Si Si2 0.775130 0.127410 0.562743
Si Si3 0.378846 0.330420 0.924248
Si Si4 0.517462 0.521986 0.782616
Si Si5 0.214710 0.066375 0.035227
Si Si6 0.651229 0.766468 0.418492
Si Si7 0.978577 0.897998 0.939134
Si Si8 0.637787 0.957315 0.654884
O O1 0.753260 0.574014 0.036684
O O2 0.787902 0.576373 0.273689
O O3 0.982765 0.319556 0.956481
O O4 0.893466 0.712503 0.880641
O O5 0.651881 0.340666 0.623316
O O6 0.913069 0.116205 0.331773
O O7 0.765567 0.057926 0.781300
O O8 0.749796 0.997920 0.544467
O O9 0.405842 0.495445 0.868152
O O10 0.506975 0.168908 0.733622
O O11 0.372930 0.195466 0.136966
O O12 0.539014 0.703429 0.622408
O O13 0.500000 0.500000 0.000000
O O14 0.161039 0.005983 0.998045
O O15 0.341970 0.091083 0.794380
O O16 0.662417 0.858402 0.509634
O O17 0.000000 0.000000 0.000000
#
# Coordination Sequence:
#
# PCOD9089940 Si02
#       8
#     2   2   2   2   2   2   2   2
#     4  10  23  43  61  91 124 163 213 255 312 370
#     4  11  22  44  64  94 128 163 209 262 313 378
#     4  10  21  37  62  90 132 167 202 254 307 373
#     4  11  22  38  64  95 131 167 203 250 314 375
#     4  10  23  43  66  88 121 168 210 266 317 362
#     4  10  21  40  62  94 127 166 207 256 305 380
#     4  12  25  45  66  92 123 166 213 273 320 361
#     4  10  19  38  62  93 128 166 202 249 312 373
#
# _framework density 22.718132000000001
#
# number of rings (size 3 to 8) (size 9 to 14) (size 15 to 20)
#    0.750    0.750    3.750    1.500    0.000    2.000 
#    2.250    0.625    0.000    0.000    0.000    0.000 
#    0.000    0.000    0.000    0.000    0.000    0.000 
#
# Total GULP energy -89327.350165 kJ/mol
# GULP energy per Si atom -5582.959385 kJ/mol
# Density = 2.266642 g / cm^3
# Si number density = 22.718132 Si / 1000 Ang^3
#
#
#
# Elastic Constant Matrix: (Units=GPa)
#
#
# Indices 1 2 3 4 5 6 
#
# 1 149.7440 22.6451 23.6326 -7.6908 3.3139 25.3572
# 2 22.6451 85.9102 6.7023 -3.8008 5.8081 16.6194
# 3 23.6326 6.7023 87.1802 -13.9785 -1.3527 8.9730
# 4 -7.6908 -3.8008 -13.9785 24.8238 10.2518 5.8690
# 5 3.3139 5.8081 -1.3527 10.2518 34.8283 0.5068
# 6 25.3572 16.6194 8.9730 5.8690 0.5068 32.0835
#
#
#
# Elastic Compliance Matrix: (Units=1/GPa)
#
#
# Indices 1 2 3 4 5 6 
#
# 1 0.008319 -0.000464 -0.000821 0.004486 -0.001966 -0.006895
# 2 -0.000464 0.013768 0.000772 0.005873 -0.003834 -0.007995
# 3 -0.000821 0.000772 0.013722 0.009817 -0.002330 -0.005348
# 4 0.004486 0.005873 0.009817 0.060515 -0.018545 -0.020111
# 5 -0.001966 -0.003834 -0.002330 -0.018545 0.034805 0.007034
# 6 -0.006895 -0.007995 -0.005348 -0.020111 0.007034 0.045823
#
#
# Mechanical properties :
#
#
# Convention : Reuss Voigt Hill
#
# Bulk Modulus (GPa) = 28.74844 47.64382 38.19613
# Shear Modulus (GPa) = 26.37534 36.33741 31.35638
#
# Velocity S-wave (km/s) = 3.41101 4.00370 3.71918
# Velocity P-wave (km/s) = 5.30992 6.51077 5.94076
#
# Compressibility (1/GPa) = 0.03478450
#
# Stress axis : x y z
#
# Youngs Moduli (GPa) = 120.20307 72.63380 72.87510
#
# Poissons Ratio (x) = 0.03367 0.05983
# Poissons Ratio (y) = 0.05572 -0.05628
# Poissons Ratio (z) = 0.09869 -0.05609
#
# Static dielectric constant tensor:
#      x y z
#    x 1.847670 0.010130 -0.014820 
#    y 0.010130 1.865770 0.008840 
#    z -0.014820 0.008840 1.857660 
# 
# From -- ./inp_files/327290.got.cif
#   From: 2010.05.17/outbox.cif.g08.bks.cpg/sg2_164_cif.got.tgz:327290.got - 2010.06.03 11:33:40.
