data_PCOD9090098
_publ_section_title
;
Structure prediction by ZEFSAII (Michael W. Deem and Ramdas Pophale) SiO2 
 PCOD9090098
Probable space group: P -1
;
_chemical_formula_sum "Si O2"
_cell_formula_units_Z 16
_cell_length_a 9.422932
_cell_length_b 19.043033
_cell_length_c 8.844803
_cell_angle_alpha 43.876589
_cell_angle_beta 106.615057
_cell_angle_gamma 134.662434
_cell_volume 699.588714
_symmetry_space_group_name_H-M "P -1"
_symmetry_group_IT_number 2
_symmetry_cell_setting 'triclinic'
loop_
_space_group_symop_operation_xyz
x,y,z
-x,-y,-z
loop_
_atom_site_type_symbol
_atom_site_label
_atom_site_fract_x
_atom_site_fract_y
_atom_site_fract_z
Si Si1 0.621866 0.293687 0.564362
Si Si2 0.241220 0.115219 0.978057
Si Si3 0.311826 0.353638 0.823098
Si Si4 0.044977 0.178733 0.323226
Si Si5 0.451499 0.404716 0.274559
Si Si6 0.234279 0.886039 0.431364
Si Si7 0.090618 0.746495 0.268024
Si Si8 0.647950 0.977835 0.324560
O O1 0.439891 0.203706 0.781428
O O2 0.646542 0.422452 0.326291
O O3 0.827633 0.326684 0.614426
O O4 0.501395 0.178451 0.565770
O O5 0.294703 0.241500 0.898222
O O6 0.244876 0.013360 0.231369
O O7 0.000000 0.000000 0.000000
O O8 0.542890 0.523477 0.684657
O O9 0.162722 0.360687 0.682549
O O10 0.189760 0.271765 0.073235
O O11 0.219143 0.231764 0.423581
O O12 0.929237 0.215237 0.318786
O O13 0.830432 0.018723 0.424101
O O14 0.500000 0.500000 0.000000
O O15 0.137900 0.803674 0.366296
O O16 0.475526 0.958198 0.396249
O O17 0.235503 0.892047 0.971288
#
# Coordination Sequence:
#
# PCOD9090098 Si02
#       8
#     2   2   2   2   2   2   2   2
#     4  11  21  37  65  90 123 155 204 248 311 353
#     4  12  20  34  61  98 120 153 192 259 307 362
#     4  10  23  40  61  83 126 163 210 243 297 351
#     4  10  22  38  58  86 122 165 196 247 303 354
#     4  10  24  43  58  81 123 171 207 250 288 358
#     4  11  19  34  61  96 129 146 197 250 316 363
#     4  10  19  39  63  94 122 156 193 256 306 370
#     4  10  19  38  63  94 125 157 191 251 315 369
#
# _framework density 22.87058
#
# number of rings (size 3 to 8) (size 9 to 14) (size 15 to 20)
#    0.000    1.500    3.750    2.625    0.000    4.000 
#    0.000    0.000    0.000    6.750    0.000    0.000 
#    0.000    0.000    0.000    0.000    0.000    0.000 
#
# Total GULP energy -89240.972621 kJ/mol
# GULP energy per Si atom -5577.560789 kJ/mol
# Density = 2.281853 g / cm^3
# Si number density = 22.870580 Si / 1000 Ang^3
#
#
#
# Elastic Constant Matrix: (Units=GPa)
#
#
# Indices 1 2 3 4 5 6 
#
# 1 130.1897 49.8403 29.9695 7.8446 7.7882 -20.4611
# 2 49.8403 152.0200 3.9279 19.2491 15.4723 -16.7766
# 3 29.9695 3.9279 60.0148 -1.1221 0.4451 -18.3455
# 4 7.8446 19.2491 -1.1221 14.7382 -12.4534 -0.5420
# 5 7.7882 15.4723 0.4451 -12.4534 48.9309 7.2404
# 6 -20.4611 -16.7766 -18.3455 -0.5420 7.2404 34.8504
#
#
#
# Elastic Compliance Matrix: (Units=1/GPa)
#
#
# Indices 1 2 3 4 5 6 
#
# 1 0.010440 -0.001851 -0.004065 -0.005923 -0.003086 0.003648
# 2 -0.001851 0.011960 0.002113 -0.023070 -0.010503 0.007606
# 3 -0.004065 0.002113 0.021763 -0.000060 -0.001782 0.010456
# 4 -0.005923 -0.023070 -0.000060 0.140205 0.047213 -0.022243
# 5 -0.003086 -0.010503 -0.001782 0.047213 0.038512 -0.015073
# 6 0.003648 0.007606 0.010456 -0.022243 -0.015073 0.042787
#
#
# Mechanical properties :
#
#
# Convention : Reuss Voigt Hill
#
# Bulk Modulus (GPa) = 27.35483 56.63333 41.99408
# Shear Modulus (GPa) = 17.51564 36.93634 27.22599
#
# Velocity S-wave (km/s) = 2.77042 4.02309 3.45401
# Velocity P-wave (km/s) = 4.71384 6.81150 5.85734
#
# Compressibility (1/GPa) = 0.03655661
#
# Stress axis : x y z
#
# Youngs Moduli (GPa) = 95.78154 83.61208 45.95052
#
# Poissons Ratio (x) = 0.15479 0.18680
# Poissons Ratio (y) = 0.17732 -0.09711
# Poissons Ratio (z) = 0.38938 -0.17671
#
# Static dielectric constant tensor:
#      x y z
#    x 1.879100 0.024410 -0.052440 
#    y 0.024410 1.939010 -0.042040 
#    z -0.052440 -0.042040 1.961160 
# 
# From -- ./inp_files/216791.got.cif
#   From: 2010.05.17/outbox.cif.g08.bks.cpg/sg2_109_cif.got.tgz:216791.got - 2010.06.03 11:33:40.
