data_PCOD9090188
_publ_section_title
;
Structure prediction by ZEFSAII (Michael W. Deem and Ramdas Pophale) SiO2 
 PCOD9090188
Probable space group: P -1
;
_chemical_formula_sum "Si O2"
_cell_formula_units_Z 16
_cell_length_a 7.695092
_cell_length_b 15.880445
_cell_length_c 22.575112
_cell_angle_alpha 161.278092
_cell_angle_beta 122.415955
_cell_angle_gamma 59.593783
_cell_volume 747.489154
_symmetry_space_group_name_H-M "P -1"
_symmetry_group_IT_number 2
_symmetry_cell_setting 'triclinic'
loop_
_space_group_symop_operation_xyz
x,y,z
-x,-y,-z
loop_
_atom_site_type_symbol
_atom_site_label
_atom_site_fract_x
_atom_site_fract_y
_atom_site_fract_z
Si Si1 0.083857 0.221510 0.804858
Si Si2 0.910505 0.009065 0.227598
Si Si3 0.085026 0.328327 0.632259
Si Si4 0.524703 0.260121 0.638951
Si Si5 0.981564 0.447389 0.825816
Si Si6 0.317632 0.481910 0.500368
Si Si7 0.987735 0.275298 0.214256
Si Si8 0.320808 0.349981 0.543974
O O1 0.149193 0.321851 0.818033
O O2 0.191527 0.100723 0.802821
O O3 0.943006 0.970180 0.593782
O O4 0.000000 0.500000 0.000000
O O5 0.772695 0.224700 0.314361
O O6 0.120631 0.162971 0.383835
O O7 0.977641 0.761025 0.036262
O O8 0.324649 0.417946 0.730885
O O9 0.961955 0.510853 0.685574
O O10 0.013272 0.348516 0.699690
O O11 0.754070 0.371157 0.757878
O O12 0.479738 0.237625 0.545444
O O13 0.500000 0.000000 0.500000
O O14 0.500000 0.500000 0.500000
O O15 0.385808 0.375162 0.505034
O O16 0.141494 0.308703 0.320147
O O17 0.766506 0.369646 0.262008
O O18 0.000000 0.000000 0.000000
#
# Coordination Sequence:
#
# PCOD9090188 Si02
#       8
#     2   2   2   2   2   2   2   2
#     4  10  19  38  64  90 121 167 210 255 320 381
#     4  10  20  43  62  87 123 171 205 258 322 372
#     4  11  22  40  64  95 123 165 213 255 322 379
#     4  11  22  41  64  94 127 160 207 267 314 371
#     4  11  24  36  70  91 125 164 212 261 317 377
#     4  11  24  40  61  92 129 164 215 262 311 380
#     4  10  22  40  65  88 122 166 209 258 317 379
#     4  10  22  41  64  86 128 167 208 257 320 375
#
# _framework density 21.404990999999999
#
# number of rings (size 3 to 8) (size 9 to 14) (size 15 to 20)
#    0.000    1.500    5.000    1.875    5.250    2.000 
#    0.000    1.250    0.000    3.750    0.000    0.000 
#    0.000    0.000    0.000    0.000    0.000    0.000 
#
# Total GULP energy -89084.517550 kJ/mol
# GULP energy per Si atom -5567.782347 kJ/mol
# Density = 2.135627 g / cm^3
# Si number density = 21.404991 Si / 1000 Ang^3
#
#
#
# Elastic Constant Matrix: (Units=GPa)
#
#
# Indices 1 2 3 4 5 6 
#
# 1 53.3443 17.1873 23.7281 -7.8414 -8.9936 19.1929
# 2 17.1873 137.7192 36.8947 -7.6114 -5.8670 33.1633
# 3 23.7281 36.8947 110.3492 9.0414 -9.2465 14.7145
# 4 -7.8414 -7.6114 9.0414 24.5589 10.8772 -6.6146
# 5 -8.9936 -5.8670 -9.2465 10.8772 12.1957 -8.9892
# 6 19.1929 33.1633 14.7145 -6.6146 -8.9892 37.0829
#
#
#
# Elastic Compliance Matrix: (Units=1/GPa)
#
#
# Indices 1 2 3 4 5 6 
#
# 1 0.025701 0.001112 -0.004822 0.006488 0.002156 -0.010703
# 2 0.001112 0.010438 -0.003913 0.007122 -0.010594 -0.009655
# 3 -0.004822 -0.003913 0.014431 -0.017621 0.023256 0.002763
# 4 0.006488 0.007122 -0.017621 0.089720 -0.091790 -0.008982
# 5 0.002156 -0.010594 0.023256 -0.091790 0.201235 0.031538
# 6 -0.010703 -0.009655 0.002763 -0.008982 0.031538 0.046087
#
#
# Mechanical properties :
#
#
# Convention : Reuss Voigt Hill
#
# Bulk Modulus (GPa) = 28.30871 50.78145 39.54508
# Shear Modulus (GPa) = 12.05887 29.67434 20.86660
#
# Velocity S-wave (km/s) = 2.37611 3.72738 3.12564
# Velocity P-wave (km/s) = 4.55871 6.50385 5.61614
#
# Compressibility (1/GPa) = 0.03532482
#
# Stress axis : x y z
#
# Youngs Moduli (GPa) = 38.90929 95.80451 69.29409
#
# Poissons Ratio (x) = -0.10654 0.33413
# Poissons Ratio (y) = -0.04327 0.27113
# Poissons Ratio (z) = 0.18762 0.37486
#
# Static dielectric constant tensor:
#      x y z
#    x 1.811290 -0.026310 -0.009230 
#    y -0.026310 1.884840 0.014140 
#    z -0.009230 0.014140 1.779140 
# 
# From -- ./inp_files/220274.got.cif
#   From: 2010.05.17/outbox.cif.g08.bks.cpg/sg2_111_cif.got.tgz:220274.got - 2010.06.03 11:33:40.
