data_PCOD9090615
_publ_section_title
;
Structure prediction by ZEFSAII (Michael W. Deem and Ramdas Pophale) SiO2 
 PCOD9090615
Probable space group: P -1
;
_chemical_formula_sum "Si O2"
_cell_formula_units_Z 14
_cell_length_a 6.772565
_cell_length_b 8.469229
_cell_length_c 11.185470
_cell_angle_alpha 123.822319
_cell_angle_beta 75.777721
_cell_angle_gamma 100.844471
_cell_volume 515.614763
_symmetry_space_group_name_H-M "P -1"
_symmetry_group_IT_number 2
_symmetry_cell_setting 'triclinic'
loop_
_space_group_symop_operation_xyz
x,y,z
-x,-y,-z
loop_
_atom_site_type_symbol
_atom_site_label
_atom_site_fract_x
_atom_site_fract_y
_atom_site_fract_z
Si Si1 0.125122 0.395471 0.273564
Si Si2 0.344825 0.713982 0.764814
Si Si3 0.843071 0.623123 0.998704
Si Si4 0.691484 0.246811 0.468495
Si Si5 0.818967 0.045010 0.903753
Si Si6 0.016791 0.073271 0.660835
Si Si7 0.397272 0.339483 0.736254
O O1 0.188517 0.553051 0.428639
O O2 0.882766 0.359694 0.274815
O O3 0.199084 0.182940 0.189963
O O4 0.200431 0.466614 0.161440
O O5 0.437986 0.752311 0.635264
O O6 0.431039 0.541847 0.751820
O O7 0.319616 0.875777 0.936681
O O8 0.636422 0.648326 0.112590
O O9 0.964877 0.830925 0.047664
O O10 0.000000 0.500000 0.000000
O O11 0.850230 0.085217 0.362739
O O12 0.550616 0.210475 0.591208
O O13 0.818799 0.095519 0.782584
O O14 0.166701 0.259615 0.706382
O O15 0.000000 0.000000 0.500000
#
# Coordination Sequence:
#
# PCOD9090615 Si02
#       7
#     2   2   2   2   2   2   2
#     4  11  22  39  66  95 122 167 220 260 305 376
#     4  11  21  42  67  90 126 173 217 250 314 390
#     4  10  19  38  68  90 121 164 217 261 306 375
#     4  12  26  40  62  97 136 165 204 270 326 374
#     4  10  22  39  67  93 117 165 221 259 305 367
#     4  11  25  41  68  95 125 163 222 268 310 375
#     4  11  24  41  64  95 131 169 204 264 336 371
#
# _framework density 27.152054
#
# number of rings (size 3 to 8) (size 9 to 14) (size 15 to 20)
#    0.000    1.143    4.286    3.857    6.000    0.571 
#    0.000    0.714    0.000    0.000    0.000    0.000 
#    0.000    0.000    0.000    0.000    0.000    0.000 
#
# Total GULP energy -78246.191466 kJ/mol
# GULP energy per Si atom -5589.013676 kJ/mol
# Density = 2.709025 g / cm^3
# Si number density = 27.152054 Si / 1000 Ang^3
#
#
#
# Elastic Constant Matrix: (Units=GPa)
#
#
# Indices 1 2 3 4 5 6 
#
# 1 55.4449 24.0628 34.4317 5.7580 5.9884 6.6982
# 2 24.0628 116.4767 40.7514 13.2026 6.6447 -2.4929
# 3 34.4317 40.7514 214.2002 -22.9128 14.8980 4.8792
# 4 5.7580 13.2026 -22.9128 71.5067 -1.0176 -0.8004
# 5 5.9884 6.6447 14.8980 -1.0176 44.8971 -2.4055
# 6 6.6982 -2.4929 4.8792 -0.8004 -2.4055 39.8898
#
#
#
# Elastic Compliance Matrix: (Units=1/GPa)
#
#
# Indices 1 2 3 4 5 6 
#
# 1 0.022164 -0.003271 -0.002971 -0.002199 -0.001735 -0.003712
# 2 -0.003271 0.010125 -0.001622 -0.002118 -0.000502 0.001308
# 3 -0.002971 -0.001622 0.005804 0.002377 -0.001254 -0.000340
# 4 -0.002199 -0.002118 0.002377 0.015320 0.000180 0.000264
# 5 -0.001735 -0.000502 -0.001254 0.000180 0.023096 0.001810
# 6 -0.003712 0.001308 -0.000340 0.000264 0.001810 0.025930
#
#
# Mechanical properties :
#
#
# Convention : Reuss Voigt Hill
#
# Bulk Modulus (GPa) = 44.70921 64.95704 54.83312
# Shear Modulus (GPa) = 39.80194 50.38378 45.09286
#
# Velocity S-wave (km/s) = 3.83285 4.31236 4.07966
# Velocity P-wave (km/s) = 6.00746 6.98360 6.51384
#
# Compressibility (1/GPa) = 0.02236676
#
# Stress axis : x y z
#
# Youngs Moduli (GPa) = 45.11751 98.76185 172.30008
#
# Poissons Ratio (x) = 0.32303 0.51182
# Poissons Ratio (y) = 0.14757 0.27948
# Poissons Ratio (z) = 0.13402 0.16020
#
# Static dielectric constant tensor:
#      x y z
#    x 2.200180 0.022230 -0.039010 
#    y 0.022230 2.192240 -0.076960 
#    z -0.039010 -0.076960 2.309710 
# 
# From -- ./inp_files/213033.got.cif
#   From: 2010.05.17/outbox.cif.g08.bks.cpg/sg2_107_cif.got.tgz:213033.got - 2010.06.03 11:33:40.
