data_PCOD9090131
_publ_section_title
;
Structure prediction by ZEFSAII (Michael W. Deem and Ramdas Pophale) SiO2 
 PCOD9090131
Probable space group: P -1
;
_chemical_formula_sum "Si O2"
_cell_formula_units_Z 16
_cell_length_a 15.303210
_cell_length_b 9.258133
_cell_length_c 14.398113
_cell_angle_alpha 123.154980
_cell_angle_beta 36.241321
_cell_angle_gamma 138.373774
_cell_volume 792.909136
_symmetry_space_group_name_H-M "P -1"
_symmetry_group_IT_number 2
_symmetry_cell_setting 'triclinic'
loop_
_space_group_symop_operation_xyz
x,y,z
-x,-y,-z
loop_
_atom_site_type_symbol
_atom_site_label
_atom_site_fract_x
_atom_site_fract_y
_atom_site_fract_z
Si Si1 0.274225 0.947636 0.591997
Si Si2 0.441819 0.014427 0.267052
Si Si3 0.188796 0.529630 0.835945
Si Si4 0.325250 0.003537 0.168539
Si Si5 0.983229 0.952080 0.207560
Si Si6 0.593306 0.752146 0.994914
Si Si7 0.938008 0.825539 0.411918
Si Si8 0.664057 0.354980 0.461345
O O1 0.349310 0.972012 0.431629
O O2 0.259529 0.755359 0.588317
O O3 0.087293 0.924945 0.736285
O O4 0.439905 0.172683 0.581733
O O5 0.641978 0.258502 0.179395
O O6 0.324397 0.013174 0.283569
O O7 0.475070 0.834454 0.157555
O O8 0.130975 0.291367 0.823346
O O9 0.256000 0.586041 0.691220
O O10 0.000000 0.500000 0.000000
O O11 0.369942 0.193122 0.127532
O O12 0.110086 0.808608 0.253799
O O13 0.500000 0.000000 0.000000
O O14 0.928162 0.906549 0.348172
O O15 0.207672 0.093617 0.067113
O O16 0.500000 0.500000 0.000000
O O17 0.745891 0.588555 0.516017
O O18 0.000000 0.000000 0.500000
#
# Coordination Sequence:
#
# PCOD9090131 Si02
#       8
#     2   2   2   2   2   2   2   2
#     4  10  21  39  59  86 118 150 190 243 296 341
#     4  10  20  37  61  82 113 157 195 227 292 349
#     4  10  19  38  64  83 112 151 197 239 285 338
#     4   9  20  35  53  80 111 148 192 229 275 340
#     4  10  21  37  59  86 113 147 198 242 279 340
#     4  10  21  38  55  83 121 151 187 244 288 335
#     4  10  20  35  57  81 113 151 192 232 280 340
#     4   9  22  38  59  82 122 152 186 243 295 334
#
# _framework density 20.178857000000001
#
# number of rings (size 3 to 8) (size 9 to 14) (size 15 to 20)
#    0.000    2.250    1.250    0.750    1.750    9.500 
#    0.000    5.000    0.000    0.000    0.000    0.000 
#    0.000    0.000    0.000    0.000    0.000    0.000 
#
# Total GULP energy -89214.440224 kJ/mol
# GULP energy per Si atom -5575.902514 kJ/mol
# Density = 2.013293 g / cm^3
# Si number density = 20.178857 Si / 1000 Ang^3
#
#
#
# Elastic Constant Matrix: (Units=GPa)
#
#
# Indices 1 2 3 4 5 6 
#
# 1 103.0177 26.1939 -4.9305 0.6345 -19.9180 -10.8289
# 2 26.1939 105.0084 -3.3935 -0.0619 6.3446 0.4465
# 3 -4.9305 -3.3935 23.8200 6.1567 -12.5384 -3.9870
# 4 0.6345 -0.0619 6.1567 24.4535 -1.9612 5.3658
# 5 -19.9180 6.3446 -12.5384 -1.9612 21.2268 4.4313
# 6 -10.8289 0.4465 -3.9870 5.3658 4.4313 18.8103
#
#
#
# Elastic Compliance Matrix: (Units=1/GPa)
#
#
# Indices 1 2 3 4 5 6 
#
# 1 0.019364 -0.005993 0.022564 -0.006082 0.030510 0.010620
# 2 -0.005993 0.011560 -0.007042 0.001547 -0.012531 -0.002707
# 3 0.022564 -0.007042 0.093013 -0.023284 0.071326 0.022711
# 4 -0.006082 0.001547 -0.023284 0.050483 -0.011026 -0.020276
# 5 0.030510 -0.012531 0.071326 -0.011026 0.118903 0.008114
# 6 0.010620 -0.002707 0.022711 -0.020276 0.008114 0.068026
#
#
# Mechanical properties :
#
#
# Convention : Reuss Voigt Hill
#
# Bulk Modulus (GPa) = 6.99337 29.73177 18.36257
# Shear Modulus (GPa) = 12.82194 27.16321 19.99258
#
# Velocity S-wave (km/s) = 2.52348 3.67293 3.15106
# Velocity P-wave (km/s) = 3.45887 5.72306 4.72849
#
# Compressibility (1/GPa) = 0.14299248
#
# Stress axis : x y z
#
# Youngs Moduli (GPa) = 51.64344 86.50559 10.75121
#
# Poissons Ratio (x) = 0.51844 -0.24259
# Poissons Ratio (y) = 0.30951 0.07571
# Poissons Ratio (z) = -1.16526 0.60920
#
# Static dielectric constant tensor:
#      x y z
#    x 1.710160 0.027040 -0.012250 
#    y 0.027040 1.731130 0.026950 
#    z -0.012250 0.026950 1.776680 
# 
# From -- ./inp_files/277256.got.cif
#   From: 2010.05.17/outbox.cif.g08.bks.cpg/sg2_139_cif.got.tgz:277256.got - 2010.06.03 11:33:40.
