data_PCOD9090304
_publ_section_title
;
Structure prediction by ZEFSAII (Michael W. Deem and Ramdas Pophale) SiO2 
 PCOD9090304
Probable space group: P -1
;
_chemical_formula_sum "Si O2"
_cell_formula_units_Z 16
_cell_length_a 12.965589
_cell_length_b 8.613251
_cell_length_c 9.047979
_cell_angle_alpha 58.315871
_cell_angle_beta 81.449231
_cell_angle_gamma 56.003338
_cell_volume 697.650718
_symmetry_space_group_name_H-M "P -1"
_symmetry_group_IT_number 2
_symmetry_cell_setting 'triclinic'
loop_
_space_group_symop_operation_xyz
x,y,z
-x,-y,-z
loop_
_atom_site_type_symbol
_atom_site_label
_atom_site_fract_x
_atom_site_fract_y
_atom_site_fract_z
Si Si1 0.609908 0.747281 0.047410
Si Si2 0.539967 0.639306 0.826613
Si Si3 0.054429 0.013710 0.634450
Si Si4 0.230356 0.096509 0.004978
Si Si5 0.269644 0.057220 0.668158
Si Si6 0.039967 0.780760 0.005886
Si Si7 0.890092 0.467097 0.595400
Si Si8 0.445571 0.622568 0.297412
O O1 0.737017 0.723533 0.076581
O O2 0.565985 0.606500 0.205832
O O3 0.607265 0.705868 0.894606
O O4 0.500000 0.000000 0.000000
O O5 0.602410 0.492786 0.741253
O O6 0.411464 0.867309 0.691636
O O7 0.500000 0.500000 0.000000
O O8 0.170571 0.040764 0.599324
O O9 0.934015 0.238470 0.621683
O O10 0.000000 0.000000 0.500000
O O11 0.102410 0.802393 0.836450
O O12 0.250000 0.026759 0.861621
O O13 0.088536 0.190237 0.029590
O O14 0.329429 0.881905 0.189341
O O15 0.237017 0.302433 0.537131
O O16 0.107265 0.579601 0.207739
O O17 0.000000 0.000000 0.000000
O O18 0.000000 0.500000 0.500000
O O19 0.500000 0.500000 0.500000
#
# Coordination Sequence:
#
# PCOD9090304 Si02
#       8
#     2   2   2   2   2   2   2   2
#     4   9  18  36  61  87 115 159 203 248 311 367
#     4  10  19  38  65  87 119 163 208 254 307 376
#     4  10  22  40  62  94 123 156 215 261 305 371
#     4  11  19  38  65  86 123 167 208 249 321 375
#     4  11  19  38  65  86 123 167 208 249 321 375
#     4  10  19  38  65  87 119 163 208 254 307 376
#     4   9  18  36  61  87 115 159 203 248 311 367
#     4  10  22  40  62  94 123 156 215 261 305 371
#
# _framework density 22.934114999999998
#
# number of rings (size 3 to 8) (size 9 to 14) (size 15 to 20)
#    0.000    2.000    7.500    0.000    0.000    1.000 
#    9.000    5.000    5.500    0.000    0.000    0.000 
#    0.000    0.000    0.000    0.000    0.000    0.000 
#
# Total GULP energy -89324.789195 kJ/mol
# GULP energy per Si atom -5582.799325 kJ/mol
# Density = 2.288192 g / cm^3
# Si number density = 22.934115 Si / 1000 Ang^3
#
#
#
# Elastic Constant Matrix: (Units=GPa)
#
#
# Indices 1 2 3 4 5 6 
#
# 1 89.8895 16.2506 4.4414 8.2501 9.0153 26.7555
# 2 16.2506 63.9912 33.2194 -1.8083 6.2609 16.9013
# 3 4.4414 33.2194 149.1536 -5.6479 10.2505 11.1896
# 4 8.2501 -1.8083 -5.6479 38.7027 4.4952 20.4004
# 5 9.0153 6.2609 10.2505 4.4952 27.5581 5.2090
# 6 26.7555 16.9013 11.1896 20.4004 5.2090 30.8505
#
#
#
# Elastic Compliance Matrix: (Units=1/GPa)
#
#
# Indices 1 2 3 4 5 6 
#
# 1 0.016366 0.000854 0.001305 0.007393 -0.003568 -0.019421
# 2 0.000854 0.022377 -0.003075 0.010355 -0.002446 -0.018318
# 3 0.001305 -0.003075 0.007934 0.003112 -0.002436 -0.003971
# 4 0.007393 0.010355 0.003112 0.049603 -0.005498 -0.045086
# 5 -0.003568 -0.002446 -0.002436 -0.005498 0.039377 0.002305
# 6 -0.019421 -0.018318 -0.003971 -0.045086 0.002305 0.090158
#
#
# Mechanical properties :
#
#
# Convention : Reuss Voigt Hill
#
# Bulk Modulus (GPa) = 22.29964 45.65080 33.97522
# Shear Modulus (GPa) = 20.61053 36.03046 28.32049
#
# Velocity S-wave (km/s) = 3.00106 3.96794 3.51787
# Velocity P-wave (km/s) = 4.66400 6.39852 5.59884
#
# Compressibility (1/GPa) = 0.04484378
#
# Stress axis : x y z
#
# Youngs Moduli (GPa) = 61.10308 44.68960 126.04563
#
# Poissons Ratio (x) = -0.03817 -0.16443
# Poissons Ratio (y) = -0.05218 0.38755
# Poissons Ratio (z) = -0.07971 0.13741
#
# Static dielectric constant tensor:
#      x y z
#    x 1.920920 -0.040350 -0.028190 
#    y -0.040350 1.935500 0.011360 
#    z -0.028190 0.011360 1.879410 
# 
# From -- ./inp_files/207280.got.cif
#   From: 2010.05.17/outbox.cif.g08.bks.cpg/sg2_104_cif.got.tgz:207280.got - 2010.06.03 11:33:40.
