data_PCOD9090025
_publ_section_title
;
Structure prediction by ZEFSAII (Michael W. Deem and Ramdas Pophale) SiO2 
 PCOD9090025
Probable space group: P -1
;
_chemical_formula_sum "Si O2"
_cell_formula_units_Z 16
_cell_length_a 20.758917
_cell_length_b 14.300811
_cell_length_c 8.932141
_cell_angle_alpha 53.697160
_cell_angle_beta 126.275595
_cell_angle_gamma 158.934428
_cell_volume 761.049761
_symmetry_space_group_name_H-M "P -1"
_symmetry_group_IT_number 2
_symmetry_cell_setting 'triclinic'
loop_
_space_group_symop_operation_xyz
x,y,z
-x,-y,-z
loop_
_atom_site_type_symbol
_atom_site_label
_atom_site_fract_x
_atom_site_fract_y
_atom_site_fract_z
Si Si1 0.353103 0.812175 0.345865
Si Si2 0.535853 0.573142 0.305517
Si Si3 0.184476 0.012211 0.295210
Si Si4 0.053556 0.645152 0.677641
Si Si5 0.669593 0.976944 0.023400
Si Si6 0.959648 0.264837 0.930008
Si Si7 0.186604 0.404355 0.332045
Si Si8 0.127906 0.088889 0.434483
O O1 0.346836 0.684509 0.364362
O O2 0.147911 0.568117 0.358835
O O3 0.500000 0.000000 0.500000
O O4 0.394203 0.976828 0.142458
O O5 0.500000 0.500000 0.500000
O O6 0.521804 0.689773 0.138230
O O7 0.746214 0.814326 0.362241
O O8 0.396187 0.312367 0.271204
O O9 0.145147 0.840687 0.489330
O O10 0.074551 0.865749 0.130397
O O11 0.135466 0.044552 0.321953
O O12 0.043375 0.495594 0.770948
O O13 0.178274 0.819619 0.830878
O O14 0.770165 0.057815 0.938720
O O15 0.079209 0.361316 0.130666
O O16 0.206257 0.320599 0.328668
O O17 0.070341 0.193027 0.505681
#
# Coordination Sequence:
#
# PCOD9090025 Si02
#       8
#     2   2   2   2   2   2   2   2
#     4  11  22  38  66  96 122 153 208 268 305 354
#     4  10  19  38  63  88 119 159 208 253 303 357
#     4  11  22  37  61  91 126 157 207 259 304 359
#     4  11  19  41  66  87 119 166 208 248 310 374
#     4  11  19  40  68  89 118 166 211 247 307 373
#     4  11  21  35  63  93 115 161 213 251 299 371
#     4  11  20  40  61  85 120 168 202 244 311 373
#     4  10  21  37  62  83 123 168 199 247 306 370
#
# _framework density 21.023591
#
# number of rings (size 3 to 8) (size 9 to 14) (size 15 to 20)
#    0.000    1.250    7.500    1.125    0.000    3.000 
#    4.500    2.500    0.000    4.500    0.000    0.000 
#    0.000    0.000    0.000    0.000    0.000    0.000 
#
# Total GULP energy -89251.991854 kJ/mol
# GULP energy per Si atom -5578.249491 kJ/mol
# Density = 2.097574 g / cm^3
# Si number density = 21.023591 Si / 1000 Ang^3
#
#
#
# Elastic Constant Matrix: (Units=GPa)
#
#
# Indices 1 2 3 4 5 6 
#
# 1 56.5846 25.5189 9.1889 2.1688 -2.0683 -35.3635
# 2 25.5189 111.8737 57.3507 -9.1177 -2.2125 -36.3756
# 3 9.1889 57.3507 74.4068 -2.3114 4.7275 -18.5043
# 4 2.1688 -9.1177 -2.3114 43.0668 -13.8308 0.1763
# 5 -2.0683 -2.2125 4.7275 -13.8308 26.6149 -2.2431
# 6 -35.3635 -36.3756 -18.5043 0.1763 -2.2431 36.7672
#
#
#
# Elastic Compliance Matrix: (Units=1/GPa)
#
#
# Indices 1 2 3 4 5 6 
#
# 1 0.049204 0.005414 0.002805 0.001545 0.009184 0.054647
# 2 0.005414 0.021688 -0.012600 0.006668 0.009687 0.020882
# 3 0.002805 -0.012600 0.023540 -0.003740 -0.006813 0.001682
# 4 0.001545 0.006668 -0.003740 0.029944 0.017500 0.007124
# 5 0.009184 0.009687 -0.006813 0.017500 0.050914 0.018010
# 6 0.054647 0.020882 0.001682 0.007124 0.018010 0.102329
#
#
# Mechanical properties :
#
#
# Convention : Reuss Voigt Hill
#
# Bulk Modulus (GPa) = 11.67266 47.44246 29.55756
# Shear Modulus (GPa) = 15.87617 31.34355 23.60986
#
# Velocity S-wave (km/s) = 2.75100 3.86537 3.35478
# Velocity P-wave (km/s) = 3.95662 6.52202 5.39405
#
# Compressibility (1/GPa) = 0.08567031
#
# Stress axis : x y z
#
# Youngs Moduli (GPa) = 20.32336 46.10921 42.48110
#
# Poissons Ratio (x) = -0.24964 -0.11916
# Poissons Ratio (y) = -0.11003 0.53527
# Poissons Ratio (z) = -0.05701 0.58098
#
# Static dielectric constant tensor:
#      x y z
#    x 1.851410 0.043660 0.025200 
#    y 0.043660 1.804560 -0.022130 
#    z 0.025200 -0.022130 1.743540 
# 
# From -- ./inp_files/204329.got.cif
#   From: 2010.05.17/outbox.cif.g08.bks.cpg/sg2_103_cif.got.tgz:204329.got - 2010.06.03 11:33:40.
