data_PCOD9090193
_publ_section_title
;
Structure prediction by ZEFSAII (Michael W. Deem and Ramdas Pophale) SiO2 
 PCOD9090193
Probable space group: P -1
;
_chemical_formula_sum "Si O2"
_cell_formula_units_Z 16
_cell_length_a 9.606738
_cell_length_b 11.969172
_cell_length_c 14.981034
_cell_angle_alpha 54.466140
_cell_angle_beta 39.906117
_cell_angle_gamma 84.053636
_cell_volume 679.119850
_symmetry_space_group_name_H-M "P -1"
_symmetry_group_IT_number 2
_symmetry_cell_setting 'triclinic'
loop_
_space_group_symop_operation_xyz
x,y,z
-x,-y,-z
loop_
_atom_site_type_symbol
_atom_site_label
_atom_site_fract_x
_atom_site_fract_y
_atom_site_fract_z
Si Si1 0.901746 0.054510 0.104789
Si Si2 0.177984 0.422652 0.205087
Si Si3 0.751055 0.571723 0.633384
Si Si4 0.495703 0.262294 0.779989
Si Si5 0.609885 0.058385 0.690311
Si Si6 0.242080 0.558492 0.924669
Si Si7 0.316185 0.059305 0.548360
Si Si8 0.203853 0.012333 0.204327
O O1 0.667368 0.063144 0.179416
O O2 0.748092 0.916344 0.329196
O O3 0.209409 0.229503 0.909695
O O4 0.000000 0.000000 0.000000
O O5 0.180610 0.469783 0.285562
O O6 0.924798 0.203803 0.425298
O O7 0.500000 0.500000 0.000000
O O8 0.129321 0.500138 0.108106
O O9 0.730979 0.461109 0.611897
O O10 0.428841 0.500834 0.835051
O O11 0.984720 0.791018 0.404367
O O12 0.574742 0.193236 0.693255
O O13 0.404240 0.121500 0.970540
O O14 0.625008 0.947384 0.808674
O O15 0.489183 0.771739 0.690546
O O16 0.000000 0.500000 0.000000
O O17 0.001859 0.939407 0.715356
O O18 0.500000 0.000000 0.500000
#
# Coordination Sequence:
#
# PCOD9090193 Si02
#       8
#     2   2   2   2   2   2   2   2
#     4   9  20  38  63  88 127 168 203 260 323 375
#     4   9  19  37  59  85 126 162 201 257 320 370
#     4   9  20  38  60  89 124 162 206 264 309 375
#     4  10  20  37  65  92 126 166 216 251 315 389
#     4  10  19  38  64  90 125 172 201 259 323 378
#     4  10  20  34  61  83 118 164 200 251 321 368
#     4  10  21  38  60  86 120 161 213 258 304 379
#     4   9  20  37  59  89 127 161 208 259 320 372
#
# _framework density 23.559905000000001
#
# number of rings (size 3 to 8) (size 9 to 14) (size 15 to 20)
#    0.000    2.500    0.000    1.875    3.500    2.000 
#    2.250    0.625    8.250   19.500    0.000    0.000 
#    0.000    0.000    0.000    0.000    0.000    0.000 
#
# Total GULP energy -89219.956702 kJ/mol
# GULP energy per Si atom -5576.247294 kJ/mol
# Density = 2.350628 g / cm^3
# Si number density = 23.559905 Si / 1000 Ang^3
#
#
#
# Elastic Constant Matrix: (Units=GPa)
#
#
# Indices 1 2 3 4 5 6 
#
# 1 185.2503 19.0187 18.0153 6.7212 -22.2028 2.6963
# 2 19.0187 77.7211 15.4540 16.6297 8.0810 10.5882
# 3 18.0153 15.4540 64.4348 8.1833 -7.8439 -4.5698
# 4 6.7212 16.6297 8.1833 24.5383 -2.8389 3.8926
# 5 -22.2028 8.0810 -7.8439 -2.8389 48.0087 9.8878
# 6 2.6963 10.5882 -4.5698 3.8926 9.8878 21.4185
#
#
#
# Elastic Compliance Matrix: (Units=1/GPa)
#
#
# Indices 1 2 3 4 5 6 
#
# 1 0.006059 -0.001416 -0.001135 0.000354 0.003262 -0.001875
# 2 -0.001416 0.017042 -0.003296 -0.009575 -0.003474 -0.005606
# 3 -0.001135 -0.003296 0.017728 -0.004076 0.001535 0.005587
# 4 0.000354 -0.009575 -0.004076 0.050436 0.005739 -0.007996
# 5 0.003262 -0.003474 0.001535 0.005739 0.025849 -0.011342
# 6 -0.001875 -0.005606 0.005587 -0.007996 -0.011342 0.057577
#
#
# Mechanical properties :
#
#
# Convention : Reuss Voigt Hill
#
# Bulk Modulus (GPa) = 34.32319 48.04245 41.18282
# Shear Modulus (GPa) = 25.49740 37.12100 31.30920
#
# Velocity S-wave (km/s) = 3.29331 3.97369 3.64939
# Velocity P-wave (km/s) = 5.39085 6.44123 5.93931
#
# Compressibility (1/GPa) = 0.02913482
#
# Stress axis : x y z
#
# Youngs Moduli (GPa) = 165.03340 58.67840 56.40749
#
# Poissons Ratio (x) = 0.08312 0.06403
# Poissons Ratio (y) = 0.23376 0.18590
# Poissons Ratio (z) = 0.18734 0.19339
#
# Static dielectric constant tensor:
#      x y z
#    x 1.929830 -0.023620 -0.038650 
#    y -0.023620 1.964710 0.038410 
#    z -0.038650 0.038410 1.913200 
# 
# From -- ./inp_files/327565.got.cif
#   From: 2010.05.17/outbox.cif.g08.bks.cpg/sg2_164_cif.got.tgz:327565.got - 2010.06.03 11:33:40.
