data_PCOD9090496
_publ_section_title
;
Structure prediction by ZEFSAII (Michael W. Deem and Ramdas Pophale) SiO2 
 PCOD9090496
Probable space group: P -1
;
_chemical_formula_sum "Si O2"
_cell_formula_units_Z 16
_cell_length_a 10.080381
_cell_length_b 26.461547
_cell_length_c 9.774440
_cell_angle_alpha 44.032720
_cell_angle_beta 41.509381
_cell_angle_gamma 26.993324
_cell_volume 772.630231
_symmetry_space_group_name_H-M "P -1"
_symmetry_group_IT_number 2
_symmetry_cell_setting 'triclinic'
loop_
_space_group_symop_operation_xyz
x,y,z
-x,-y,-z
loop_
_atom_site_type_symbol
_atom_site_label
_atom_site_fract_x
_atom_site_fract_y
_atom_site_fract_z
Si Si1 0.823325 0.358269 0.875202
Si Si2 0.652973 0.730619 0.917016
Si Si3 0.347541 0.752150 0.870171
Si Si4 0.801599 0.208826 0.627694
Si Si5 0.455678 0.806631 0.402207
Si Si6 0.696281 0.032595 0.191554
Si Si7 0.302919 0.003170 0.046020
Si Si8 0.255955 0.618109 0.786318
O O1 0.595473 0.488487 0.765848
O O2 0.177535 0.277159 0.720833
O O3 0.694854 0.321641 0.973470
O O4 0.808608 0.348806 0.068322
O O5 0.629921 0.701802 0.842315
O O6 0.534687 0.847915 0.785505
O O7 0.993743 0.635452 0.903174
O O8 0.414817 0.751763 0.154191
O O9 0.368130 0.785722 0.643291
O O10 0.035608 0.868326 0.957357
O O11 0.647291 0.210179 0.617027
O O12 0.783151 0.298264 0.433326
O O13 0.149307 0.079833 0.634350
O O14 0.284301 0.931182 0.275857
O O15 0.572776 0.045600 0.109739
O O16 0.000000 0.000000 0.000000
O O17 0.500000 0.000000 0.000000
#
# Coordination Sequence:
#
# PCOD9090496 Si02
#       8
#     2   2   2   2   2   2   2   2
#     4  11  25  45  64  98 132 165 230 277 314 383
#     4  11  23  44  67  96 138 166 213 273 325 385
#     4  12  25  41  67 100 136 172 211 268 334 385
#     4  11  21  41  70  94 127 173 217 262 325 391
#     4  12  23  41  69  99 133 172 216 263 329 393
#     4  10  19  38  66  94 129 167 206 261 316 394
#     4  12  22  38  68  99 139 169 204 269 329 385
#     4  11  25  43  70  95 122 178 229 269 321 382
#
# _framework density 20.708483999999999
#
# number of rings (size 3 to 8) (size 9 to 14) (size 15 to 20)
#    0.000    0.750    8.750    0.375    0.000    4.500 
#    0.000    1.250    0.000    0.000    0.000    0.000 
#    0.000    0.000    0.000    0.000    0.000    0.000 
#
# Total GULP energy -89449.241700 kJ/mol
# GULP energy per Si atom -5590.577606 kJ/mol
# Density = 2.066135 g / cm^3
# Si number density = 20.708484 Si / 1000 Ang^3
#
#
#
# Elastic Constant Matrix: (Units=GPa)
#
#
# Indices 1 2 3 4 5 6 
#
# 1 128.7535 17.8297 18.3721 -1.5114 6.4331 -1.2681
# 2 17.8297 47.8466 13.7349 -15.1634 -6.9777 -8.4688
# 3 18.3721 13.7349 80.4814 -24.6007 -1.1117 3.7955
# 4 -1.5114 -15.1634 -24.6007 16.9464 -0.3465 2.6925
# 5 6.4331 -6.9777 -1.1117 -0.3465 28.3648 -3.9697
# 6 -1.2681 -8.4688 3.7955 2.6925 -3.9697 24.6011
#
#
#
# Elastic Compliance Matrix: (Units=1/GPa)
#
#
# Indices 1 2 3 4 5 6 
#
# 1 0.009418 -0.006623 -0.004703 -0.011930 -0.004156 -0.000434
# 2 -0.006623 0.038778 0.008514 0.045329 0.013169 0.008858
# 3 -0.004703 0.008514 0.026779 0.047101 0.003952 -0.005961
# 4 -0.011930 0.045329 0.047101 0.168497 0.016637 -0.008035
# 5 -0.004156 0.013169 0.003952 0.016637 0.040985 0.008502
# 6 -0.000434 0.008858 -0.005961 -0.008035 0.008502 0.046846
#
#
# Mechanical properties :
#
#
# Convention : Reuss Voigt Hill
#
# Bulk Modulus (GPa) = 14.41970 39.66168 27.04069
# Shear Modulus (GPa) = 13.88708 27.79212 20.83960
#
# Velocity S-wave (km/s) = 2.59240 3.66739 3.17571
# Velocity P-wave (km/s) = 3.99237 6.09319 5.15102
#
# Compressibility (1/GPa) = 0.06934958
#
# Stress axis : x y z
#
# Youngs Moduli (GPa) = 106.17427 25.78780 37.34272
#
# Poissons Ratio (x) = 0.17080 0.17564
# Poissons Ratio (y) = 0.70324 -0.31793
# Poissons Ratio (z) = 0.49938 -0.21956
#
# Static dielectric constant tensor:
#      x y z
#    x 1.763460 0.008010 0.013740 
#    y 0.008010 1.733340 0.003200 
#    z 0.013740 0.003200 1.752330 
# 
# From -- ./inp_files/216859.got.cif
#   From: 2010.05.17/outbox.cif.g08.bks.cpg/sg2_109_cif.got.tgz:216859.got - 2010.06.03 11:33:40.
