data_PCOD9090501
_publ_section_title
;
Structure prediction by ZEFSAII (Michael W. Deem and Ramdas Pophale) SiO2 
 PCOD9090501
Probable space group: P -1
;
_chemical_formula_sum "Si O2"
_cell_formula_units_Z 14
_cell_length_a 15.623351
_cell_length_b 12.045940
_cell_length_c 8.071888
_cell_angle_alpha 78.736930
_cell_angle_beta 83.982679
_cell_angle_gamma 151.413888
_cell_volume 576.158465
_symmetry_space_group_name_H-M "P -1"
_symmetry_group_IT_number 2
_symmetry_cell_setting 'triclinic'
loop_
_space_group_symop_operation_xyz
x,y,z
-x,-y,-z
loop_
_atom_site_type_symbol
_atom_site_label
_atom_site_fract_x
_atom_site_fract_y
_atom_site_fract_z
Si Si1 0.366589 0.498363 0.442894
Si Si2 0.820411 0.113785 0.057075
Si Si3 0.934412 0.651838 0.724663
Si Si4 0.388135 0.611420 0.933003
Si Si5 0.384274 0.288204 0.335168
Si Si6 0.192698 0.729080 0.260030
Si Si7 0.049974 0.183324 0.853814
O O1 0.338180 0.362757 0.358411
O O2 0.475945 0.579056 0.567118
O O3 0.139862 0.276041 0.623199
O O4 0.562355 0.813729 0.242743
O O5 0.889303 0.300148 0.874293
O O6 0.856948 0.039350 0.971133
O O7 0.959033 0.268550 0.150915
O O8 0.779652 0.368814 0.761015
O O9 0.791814 0.587142 0.829069
O O10 0.149068 0.940236 0.490029
O O11 0.481478 0.599518 0.879755
O O12 0.255392 0.481881 0.830537
O O13 0.588816 0.940731 0.822338
O O14 0.000000 0.500000 0.500000
O O15 0.000000 0.000000 0.000000
#
# Coordination Sequence:
#
# PCOD9090501 Si02
#       7
#     2   2   2   2   2   2   2
#     4   9  17  32  58  90 118 148 194 251 295 353
#     4  10  22  39  61  91 121 158 207 251 294 361
#     4  10  20  39  62  85 115 161 208 245 293 362
#     4  10  20  36  60  88 115 160 200 242 303 357
#     4   9  16  32  59  88 115 149 193 242 300 352
#     4  12  24  42  59  84 129 165 200 255 305 348
#     4  10  19  38  66  95 121 155 202 249 300 367
#
# _framework density 24.298870999999998
#
# number of rings (size 3 to 8) (size 9 to 14) (size 15 to 20)
#    0.000    2.000    1.429    5.143    0.000    0.000 
#    5.143    4.286    0.000    2.571    0.000    0.000 
#    0.000    0.000    0.000    0.000    0.000    0.000 
#
# Total GULP energy -78291.449212 kJ/mol
# GULP energy per Si atom -5592.246372 kJ/mol
# Density = 2.424357 g / cm^3
# Si number density = 24.298871 Si / 1000 Ang^3
#
#
#
# Elastic Constant Matrix: (Units=GPa)
#
#
# Indices 1 2 3 4 5 6 
#
# 1 82.5622 25.1825 36.8500 16.0512 -6.7459 -8.1709
# 2 25.1825 101.6986 1.2746 -2.8926 -8.3605 -4.5438
# 3 36.8500 1.2746 132.4024 7.0174 -30.8645 -9.7140
# 4 16.0512 -2.8926 7.0174 26.7455 -8.2979 -7.2496
# 5 -6.7459 -8.3605 -30.8645 -8.2979 39.2615 14.7651
# 6 -8.1709 -4.5438 -9.7140 -7.2496 14.7651 42.9444
#
#
#
# Elastic Compliance Matrix: (Units=1/GPa)
#
#
# Indices 1 2 3 4 5 6 
#
# 1 0.017984 -0.005060 -0.005471 -0.011100 -0.005225 0.001572
# 2 -0.005060 0.011557 0.002017 0.005097 0.004205 0.000131
# 3 -0.005471 0.002017 0.010944 0.003204 0.009127 -0.000949
# 4 -0.011100 0.005097 0.003204 0.048000 0.010467 0.003657
# 5 -0.005225 0.004205 0.009127 0.010467 0.038613 -0.009994
# 6 0.001572 0.000131 -0.000949 0.003657 -0.009994 0.027437
#
#
# Mechanical properties :
#
#
# Convention : Reuss Voigt Hill
#
# Bulk Modulus (GPa) = 42.63110 49.25305 45.94208
# Shear Modulus (GPa) = 27.87341 38.68071 33.27706
#
# Velocity S-wave (km/s) = 3.39057 3.99416 3.70468
# Velocity P-wave (km/s) = 5.73677 6.44862 6.10308
#
# Compressibility (1/GPa) = 0.02345705
#
# Stress axis : x y z
#
# Youngs Moduli (GPa) = 55.60591 86.52709 91.37326
#
# Poissons Ratio (x) = 0.43779 0.49990
# Poissons Ratio (y) = 0.28134 -0.18426
# Poissons Ratio (z) = 0.30422 -0.17449
#
# Static dielectric constant tensor:
#      x y z
#    x 1.972420 0.027620 -0.017820 
#    y 0.027620 1.945630 0.036390 
#    z -0.017820 0.036390 1.918080 
# 
# From -- ./inp_files/221620.got.cif
#   From: 2010.05.17/outbox.cif.g08.bks.cpg/sg2_111_cif.got.tgz:221620.got - 2010.06.03 11:33:40.
