data_PCOD9090167
_publ_section_title
;
Structure prediction by ZEFSAII (Michael W. Deem and Ramdas Pophale) SiO2 
 PCOD9090167
Probable space group: P -1
;
_chemical_formula_sum "Si O2"
_cell_formula_units_Z 16
_cell_length_a 22.627926
_cell_length_b 12.398503
_cell_length_c 8.749178
_cell_angle_alpha 74.635553
_cell_angle_beta 105.499518
_cell_angle_gamma 158.988151
_cell_volume 847.263711
_symmetry_space_group_name_H-M "P -1"
_symmetry_group_IT_number 2
_symmetry_cell_setting 'triclinic'
loop_
_space_group_symop_operation_xyz
x,y,z
-x,-y,-z
loop_
_atom_site_type_symbol
_atom_site_label
_atom_site_fract_x
_atom_site_fract_y
_atom_site_fract_z
Si Si1 0.007259 0.790599 0.291125
Si Si2 0.780292 0.225270 0.483393
Si Si3 0.961515 0.150768 0.069075
Si Si4 0.682250 0.816245 0.581158
Si Si5 0.227783 0.755627 0.183346
Si Si6 0.881103 0.801012 0.348947
Si Si7 0.323040 0.164029 0.061981
Si Si8 0.491820 0.854246 0.577798
O O1 0.893303 0.489079 0.352518
O O2 0.911339 0.731920 0.319295
O O3 0.186113 0.062589 0.387474
O O4 0.026570 0.847778 0.104316
O O5 0.848017 0.352303 0.657582
O O6 0.764822 0.070889 0.483337
O O7 0.595670 0.964787 0.476883
O O8 0.116979 0.483873 0.113659
O O9 0.932920 0.988492 0.201809
O O10 0.806151 0.969204 0.048482
O O11 0.500000 0.500000 0.500000
O O12 0.670174 0.814712 0.756654
O O13 0.264177 0.938451 0.069453
O O14 0.403231 0.996939 0.254188
O O15 0.694447 0.497989 0.392374
O O16 0.000000 0.000000 0.500000
O O17 0.500000 0.500000 0.000000
O O18 0.500000 0.000000 0.500000
#
# Coordination Sequence:
#
# PCOD9090167 Si02
#       8
#     2   2   2   2   2   2   2   2
#     4  11  23  40  59  89 129 156 197 254 312 356
#     4   9  20  39  62  83 118 158 204 245 291 358
#     4  11  23  38  59  91 124 157 197 254 315 355
#     4  10  23  38  59  91 124 158 202 249 303 359
#     4   9  20  38  60  87 115 159 210 241 291 365
#     4  12  24  40  66  88 118 164 205 248 300 376
#     4  10  21  38  60  87 123 162 202 254 296 357
#     4  10  19  38  64  89 114 149 218 248 285 349
#
# _framework density 18.884322999999998
#
# number of rings (size 3 to 8) (size 9 to 14) (size 15 to 20)
#    0.750    1.000    1.250    3.375    1.750    2.000 
#    0.000    0.625    0.000    0.000    0.000    0.000 
#    0.000    0.000    0.000    0.000    0.000    0.000 
#
# Total GULP energy -89231.199219 kJ/mol
# GULP energy per Si atom -5576.949951 kJ/mol
# Density = 1.884134 g / cm^3
# Si number density = 18.884323 Si / 1000 Ang^3
#
#
#
# Elastic Constant Matrix: (Units=GPa)
#
#
# Indices 1 2 3 4 5 6 
#
# 1 65.2945 19.5387 17.0768 -2.2905 24.3040 8.7408
# 2 19.5387 106.0907 35.6294 -1.4126 17.3054 15.9781
# 3 17.0768 35.6294 63.1957 -11.3202 28.3229 2.1630
# 4 -2.2905 -1.4126 -11.3202 39.8766 -1.6947 8.7351
# 5 24.3040 17.3054 28.3229 -1.6947 25.5175 -5.4100
# 6 8.7408 15.9781 2.1630 8.7351 -5.4100 39.3430
#
#
#
# Elastic Compliance Matrix: (Units=1/GPa)
#
#
# Indices 1 2 3 4 5 6 
#
# 1 0.034020 -0.000494 0.018013 0.008613 -0.055275 -0.017861
# 2 -0.000494 0.012622 -0.005398 -0.000125 -0.003194 -0.005131
# 3 0.018013 -0.005398 0.049100 0.015656 -0.070709 -0.017708
# 4 0.008613 -0.000125 0.015656 0.031832 -0.026222 -0.013397
# 5 -0.055275 -0.003194 -0.070709 -0.026222 0.180956 0.048170
# 6 -0.017861 -0.005131 -0.017708 -0.013397 0.048170 0.042041
#
#
# Mechanical properties :
#
#
# Convention : Reuss Voigt Hill
#
# Bulk Modulus (GPa) = 8.33439 42.11898 25.22669
# Shear Modulus (GPa) = 13.64912 31.76982 22.70947
#
# Velocity S-wave (km/s) = 2.69136 4.10608 3.47155
# Velocity P-wave (km/s) = 3.75245 6.69567 5.42738
#
# Compressibility (1/GPa) = 0.11998474
#
# Stress axis : x y z
#
# Youngs Moduli (GPa) = 29.39468 79.22802 20.36642
#
# Poissons Ratio (x) = 0.03911 -0.36686
# Poissons Ratio (y) = 0.01451 0.10993
# Poissons Ratio (z) = -0.52948 0.42766
#
# Static dielectric constant tensor:
#      x y z
#    x 1.995960 -0.064410 -0.025730 
#    y -0.064410 1.563770 0.013460 
#    z -0.025730 0.013460 1.647660 
# 
# From -- ./inp_files/353820.got.cif
#   From: 2010.05.17/outbox.cif.g08.bks.cpg/sg2_177_cif.got.tgz:353820.got - 2010.06.03 11:33:40.
