data_PCOD9090013
_publ_section_title
;
Structure prediction by ZEFSAII (Michael W. Deem and Ramdas Pophale) SiO2 
 PCOD9090013
Probable space group: P -1
;
_chemical_formula_sum "Si O2"
_cell_formula_units_Z 12
_cell_length_a 7.803978
_cell_length_b 10.573903
_cell_length_c 8.136270
_cell_angle_alpha 87.312836
_cell_angle_beta 126.178359
_cell_angle_gamma 117.037218
_cell_volume 459.241590
_symmetry_space_group_name_H-M "P -1"
_symmetry_group_IT_number 2
_symmetry_cell_setting 'triclinic'
loop_
_space_group_symop_operation_xyz
x,y,z
-x,-y,-z
loop_
_atom_site_type_symbol
_atom_site_label
_atom_site_fract_x
_atom_site_fract_y
_atom_site_fract_z
Si Si1 0.071022 0.356236 0.494490
Si Si2 0.563176 0.198384 0.809437
Si Si3 0.399220 0.324929 0.455654
Si Si4 0.060087 0.238344 0.984543
Si Si5 0.228381 0.536350 0.869100
Si Si6 0.249556 0.918100 0.474842
O O1 0.993720 0.440824 0.319387
O O2 0.832120 0.236788 0.472028
O O3 0.176362 0.269544 0.465346
O O4 0.275574 0.473979 0.732025
O O5 0.585378 0.287208 0.648217
O O6 0.809943 0.188347 0.952897
O O7 0.318721 0.037930 0.650190
O O8 0.573144 0.303064 0.954461
O O9 0.500000 0.500000 0.500000
O O10 0.274425 0.247630 0.218785
O O11 0.152055 0.406308 0.965302
O O12 0.971715 0.132890 0.780662
O O13 0.500000 0.000000 0.500000
#
# Coordination Sequence:
#
# PCOD9090013 Si02
#       6
#     2   2   2   2   2   2
#     4  10  22  38  63  92 122 160 206 249 302 364
#     4  11  21  37  65  89 120 167 199 244 309 359
#     4  12  23  37  66  95 121 160 204 250 308 358
#     4  10  20  42  62  89 127 154 205 259 292 360
#     4  10  19  38  63  87 120 159 201 255 294 352
#     4   9  22  42  64  88 123 165 203 248 307 359
#
# _framework density 26.130036
#
# number of rings (size 3 to 8) (size 9 to 14) (size 15 to 20)
#    0.000    1.667    3.333    1.500    0.000    4.000 
#    0.000    0.000    0.000    0.000    0.000    0.000 
#    0.000    0.000    0.000    0.000    0.000    0.000 
#
# Total GULP energy -67082.802413 kJ/mol
# GULP energy per Si atom -5590.233534 kJ/mol
# Density = 2.607056 g / cm^3
# Si number density = 26.130036 Si / 1000 Ang^3
#
#
#
# Elastic Constant Matrix: (Units=GPa)
#
#
# Indices 1 2 3 4 5 6 
#
# 1 59.9126 14.5093 10.6432 10.6377 1.9572 9.7588
# 2 14.5093 88.6358 34.5021 27.4046 -5.1885 5.4192
# 3 10.6432 34.5021 197.5607 31.2310 -34.4583 -7.7247
# 4 10.6377 27.4046 31.2310 53.3813 -17.5655 -5.6791
# 5 1.9572 -5.1885 -34.4583 -17.5655 38.1263 7.8125
# 6 9.7588 5.4192 -7.7247 -5.6791 7.8125 28.8164
#
#
#
# Elastic Compliance Matrix: (Units=1/GPa)
#
#
# Indices 1 2 3 4 5 6 
#
# 1 0.019038 -0.001238 -0.000838 -0.004185 -0.002481 -0.006591
# 2 -0.001238 0.014543 -0.001858 -0.007254 -0.002233 -0.003638
# 3 -0.000838 -0.001858 0.006493 -0.000924 0.005065 0.000819
# 4 -0.004185 -0.007254 -0.000924 0.027708 0.010080 0.005262
# 5 -0.002481 -0.002233 0.005065 0.010080 0.036350 -0.005250
# 6 -0.006591 -0.003638 0.000819 0.005262 -0.005250 0.040298
#
#
# Mechanical properties :
#
#
# Convention : Reuss Voigt Hill
#
# Bulk Modulus (GPa) = 31.05225 51.71314 41.38270
# Shear Modulus (GPa) = 30.66862 43.16179 36.91520
#
# Velocity S-wave (km/s) = 3.42964 4.06865 3.76273
# Velocity P-wave (km/s) = 5.25288 6.47345 5.89484
#
# Compressibility (1/GPa) = 0.03220378
#
# Stress axis : x y z
#
# Youngs Moduli (GPa) = 52.52788 68.76388 154.01482
#
# Poissons Ratio (x) = 0.08515 0.12909
# Poissons Ratio (y) = 0.06505 0.28617
# Poissons Ratio (z) = 0.04403 0.12777
#
# Static dielectric constant tensor:
#      x y z
#    x 2.108450 0.010250 -0.038130 
#    y 0.010250 2.036370 0.014940 
#    z -0.038130 0.014940 2.053400 
# 
# From -- ./inp_files/157297.got.cif
#   From: 2010.05.17/outbox.cif.g08.bks.cpg/sg2_79_cif.got.tgz:157297.got - 2010.06.03 11:33:40.
