data_PCOD9090757
_publ_section_title
;
Structure prediction by ZEFSAII (Michael W. Deem and Ramdas Pophale) SiO2 
 PCOD9090757
Probable space group: P -1
;
_chemical_formula_sum "Si O2"
_cell_formula_units_Z 16
_cell_length_a 28.551733
_cell_length_b 16.770089
_cell_length_c 14.317401
_cell_angle_alpha 158.313321
_cell_angle_beta 20.900940
_cell_angle_gamma 164.435975
_cell_volume 624.769256
_symmetry_space_group_name_H-M "P -1"
_symmetry_group_IT_number 2
_symmetry_cell_setting 'triclinic'
loop_
_space_group_symop_operation_xyz
x,y,z
-x,-y,-z
loop_
_atom_site_type_symbol
_atom_site_label
_atom_site_fract_x
_atom_site_fract_y
_atom_site_fract_z
Si Si1 0.324715 0.748656 0.182807
Si Si2 0.074716 0.313159 0.667441
Si Si3 0.698709 0.901255 0.256470
Si Si4 0.715317 0.442388 0.146666
Si Si5 0.478844 0.732304 0.310883
Si Si6 0.085978 0.596851 0.121241
Si Si7 0.179226 0.400182 0.360717
Si Si8 0.561367 0.680913 0.765487
O O1 0.245614 0.850247 0.502851
O O2 0.526326 0.082520 0.134091
O O3 0.218147 0.551988 0.073439
O O4 0.381588 0.605038 0.980868
O O5 0.302665 0.592452 0.552049
O O6 0.056428 0.264877 0.537934
O O7 0.987763 0.381833 0.976261
O O8 0.000000 0.000000 0.500000
O O9 0.652972 0.958230 0.304171
O O10 0.509495 0.553850 0.273012
O O11 0.823744 0.837409 0.936206
O O12 0.651228 0.615256 0.454903
O O13 0.854152 0.538256 0.075480
O O14 0.392777 0.706871 0.340538
O O15 0.500000 0.500000 0.000000
O O16 0.955030 0.585196 0.421502
O O17 0.276414 0.949283 0.118144
#
# Coordination Sequence:
#
# PCOD9090757 Si02
#       8
#     2   2   2   2   2   2   2   2
#     4   9  18  35  59  88 113 144 188 239 284 339
#     4  10  21  37  58  81 112 154 190 234 279 330
#     4  10  19  39  58  83 119 151 185 237 283 331
#     4   9  19  34  59  87 116 143 187 239 287 327
#     4   8  17  33  54  77 109 148 179 224 276 318
#     4  11  22  38  56  87 114 151 192 233 276 343
#     4   9  22  37  55  81 123 151 187 231 281 336
#     4  10  20  34  64  83 114 145 192 231 289 328
#
# _framework density 25.609455000000001
#
# number of rings (size 3 to 8) (size 9 to 14) (size 15 to 20)
#    0.750    1.750    0.000    3.000    3.500    1.000 
#    2.250    1.250    0.000    1.500    0.000    0.000 
#    0.000    0.000    0.000    0.000    0.000    0.000 
#
# Total GULP energy -89099.091762 kJ/mol
# GULP energy per Si atom -5568.693235 kJ/mol
# Density = 2.555117 g / cm^3
# Si number density = 25.609455 Si / 1000 Ang^3
#
#
#
# Elastic Constant Matrix: (Units=GPa)
#
#
# Indices 1 2 3 4 5 6 
#
# 1 80.7404 7.1702 53.4284 9.6715 11.3817 0.9238
# 2 7.1702 55.4083 1.7380 6.9894 -1.5155 -15.1251
# 3 53.4284 1.7380 218.5678 -6.0298 23.7720 1.0966
# 4 9.6715 6.9894 -6.0298 30.8558 7.6598 -5.5494
# 5 11.3817 -1.5155 23.7720 7.6598 37.5348 3.3085
# 6 0.9238 -15.1251 1.0966 -5.5494 3.3085 21.4469
#
#
#
# Elastic Compliance Matrix: (Units=1/GPa)
#
#
# Indices 1 2 3 4 5 6 
#
# 1 0.016038 -0.002176 -0.003932 -0.005650 -0.001014 -0.003330
# 2 -0.002176 0.022833 0.000175 -0.001749 0.000447 0.015666
# 3 -0.003932 0.000175 0.005997 0.003471 -0.003432 0.001414
# 4 -0.005650 -0.001749 0.003471 0.039518 -0.009548 0.010530
# 5 -0.001014 0.000447 -0.003432 -0.009548 0.031691 -0.006825
# 6 -0.003330 0.015666 0.001414 0.010530 -0.006825 0.061524
#
#
# Mechanical properties :
#
#
# Convention : Reuss Voigt Hill
#
# Bulk Modulus (GPa) = 30.30124 53.26554 41.78339
# Shear Modulus (GPa) = 24.94146 37.45949 31.20047
#
# Velocity S-wave (km/s) = 3.12415 3.82870 3.49423
# Velocity P-wave (km/s) = 4.98713 6.35528 5.71232
#
# Compressibility (1/GPa) = 0.03300195
#
# Stress axis : x y z
#
# Youngs Moduli (GPa) = 62.35019 43.79563 166.75212
#
# Poissons Ratio (x) = 0.09531 0.65568
# Poissons Ratio (y) = 0.13569 -0.02917
# Poissons Ratio (z) = 0.24517 -0.00766
#
# Static dielectric constant tensor:
#      x y z
#    x 2.031930 -0.124420 0.075120 
#    y -0.124420 2.372210 -0.078420 
#    z 0.075120 -0.078420 1.933890 
# 
# From -- ./inp_files/545102.got.cif
#   From: 2010.05.17/outbox.cif.g08.bks.cpg/sg2_273_cif.got.tgz:545102.got - 2010.06.03 11:33:40.
