data_PCOD9090636
_publ_section_title
;
Structure prediction by ZEFSAII (Michael W. Deem and Ramdas Pophale) SiO2 
 PCOD9090636
Probable space group: P -1
;
_chemical_formula_sum "Si O2"
_cell_formula_units_Z 14
_cell_length_a 18.806563
_cell_length_b 7.780292
_cell_length_c 11.691903
_cell_angle_alpha 43.889116
_cell_angle_beta 27.140220
_cell_angle_gamma 49.039378
_cell_volume 540.477174
_symmetry_space_group_name_H-M "P -1"
_symmetry_group_IT_number 2
_symmetry_cell_setting 'triclinic'
loop_
_space_group_symop_operation_xyz
x,y,z
-x,-y,-z
loop_
_atom_site_type_symbol
_atom_site_label
_atom_site_fract_x
_atom_site_fract_y
_atom_site_fract_z
Si Si1 0.318578 0.975072 0.805446
Si Si2 0.571130 0.245119 0.833248
Si Si3 0.123655 0.266823 0.106518
Si Si4 0.252683 0.441623 0.252249
Si Si5 0.132027 0.038603 0.438764
Si Si6 0.646476 0.356064 0.422605
Si Si7 0.826975 0.895813 0.286264
O O1 0.224570 0.096149 0.775223
O O2 0.500000 0.000000 0.500000
O O3 0.249534 0.703466 0.063312
O O4 0.280240 0.120407 0.907406
O O5 0.615860 0.386064 0.586627
O O6 0.722115 0.132089 0.732099
O O7 0.438784 0.391346 0.020491
O O8 0.500000 0.000000 0.000000
O O9 0.075843 0.201693 0.334059
O O10 0.184339 0.537188 0.892762
O O11 0.994298 0.162763 0.258053
O O12 0.180132 0.230014 0.375340
O O13 0.180827 0.370593 0.511393
O O14 0.500000 0.500000 0.500000
O O15 0.688090 0.072924 0.460323
O O16 0.000000 0.000000 0.000000
#
# Coordination Sequence:
#
# PCOD9090636 Si02
#       7
#     2   2   2   2   2   2   2
#     4  12  28  47  69 107 152 189 235 296 375 439
#     4  10  19  38  68  95 122 172 239 282 332 414
#     4  11  25  42  67 102 141 180 232 300 353 423
#     4  11  24  48  75  99 143 193 239 299 356 436
#     4  10  22  43  68  98 131 179 241 288 353 413
#     4  12  23  44  75  99 138 189 243 293 352 434
#     4  12  27  47  75 111 144 192 245 295 370 438
#
# _framework density 25.903036
#
# number of rings (size 3 to 8) (size 9 to 14) (size 15 to 20)
#    0.000    0.857    2.857    6.000    2.000    5.714 
#    5.143    0.000    0.000    0.000    0.000    0.000 
#    0.000    0.000    0.000    0.000    0.000    0.000 
#
# Total GULP energy -78214.830791 kJ/mol
# GULP energy per Si atom -5586.773628 kJ/mol
# Density = 2.584408 g / cm^3
# Si number density = 25.903036 Si / 1000 Ang^3
#
#
#
# Elastic Constant Matrix: (Units=GPa)
#
#
# Indices 1 2 3 4 5 6 
#
# 1 119.9779 31.3002 50.5523 -16.3084 8.9073 -14.6366
# 2 31.3002 79.6606 8.6895 -1.0791 -4.0612 -10.1596
# 3 50.5523 8.6895 133.3866 -14.7612 3.5293 -20.6201
# 4 -16.3084 -1.0791 -14.7612 45.6402 -4.5723 -3.2828
# 5 8.9073 -4.0612 3.5293 -4.5723 45.3198 -5.8777
# 6 -14.6366 -10.1596 -20.6201 -3.2828 -5.8777 28.7436
#
#
#
# Elastic Compliance Matrix: (Units=1/GPa)
#
#
# Indices 1 2 3 4 5 6 
#
# 1 0.011603 -0.003983 -0.003465 0.002891 -0.001820 0.001973
# 2 -0.003983 0.014697 0.001170 -0.000113 0.002584 0.004522
# 3 -0.003465 0.001170 0.009967 0.002576 0.001089 0.006316
# 4 0.002891 -0.000113 0.002576 0.024504 0.002549 0.006600
# 5 -0.001820 0.002584 0.001089 0.002549 0.023590 0.005883
# 6 0.001973 0.004522 0.006316 0.006600 0.005883 0.043881
#
#
# Mechanical properties :
#
#
# Convention : Reuss Voigt Hill
#
# Bulk Modulus (GPa) = 42.17379 57.12323 49.64851
# Shear Modulus (GPa) = 33.62460 40.10623 36.86542
#
# Velocity S-wave (km/s) = 3.60682 3.93914 3.77664
# Velocity P-wave (km/s) = 5.80192 6.54138 6.18272
#
# Compressibility (1/GPa) = 0.02371141
#
# Stress axis : x y z
#
# Youngs Moduli (GPa) = 86.18805 68.03908 100.33522
#
# Poissons Ratio (x) = 0.27100 0.34764
# Poissons Ratio (y) = 0.34328 -0.11740
# Poissons Ratio (z) = 0.29862 -0.07961
#
# Static dielectric constant tensor:
#      x y z
#    x 1.998850 -0.018200 -0.019200 
#    y -0.018200 2.162350 -0.055130 
#    z -0.019200 -0.055130 2.072520 
# 
# From -- ./inp_files/250817.got.cif
#   From: 2010.05.17/outbox.cif.g08.bks.cpg/sg2_126_cif.got.tgz:250817.got - 2010.06.03 11:33:40.
