data_PCOD9090698
_publ_section_title
;
Structure prediction by ZEFSAII (Michael W. Deem and Ramdas Pophale) SiO2 
 PCOD9090698
Probable space group: P -1
;
_chemical_formula_sum "Si O2"
_cell_formula_units_Z 12
_cell_length_a 14.995029
_cell_length_b 11.787350
_cell_length_c 7.914122
_cell_angle_alpha 55.973943
_cell_angle_beta 44.959857
_cell_angle_gamma 32.521329
_cell_volume 528.857684
_symmetry_space_group_name_H-M "P -1"
_symmetry_group_IT_number 2
_symmetry_cell_setting 'triclinic'
loop_
_space_group_symop_operation_xyz
x,y,z
-x,-y,-z
loop_
_atom_site_type_symbol
_atom_site_label
_atom_site_fract_x
_atom_site_fract_y
_atom_site_fract_z
Si Si1 0.000388 0.580828 0.607724
Si Si2 0.439094 0.203043 0.460990
Si Si3 0.299280 0.769104 0.913137
Si Si4 0.540825 0.368648 0.715914
Si Si5 0.625937 0.765464 0.086427
Si Si6 0.906408 0.974679 0.380184
O O1 0.220596 0.408466 0.519869
O O2 0.000000 0.500000 0.500000
O O3 0.919059 0.800751 0.511783
O O4 0.852038 0.621033 0.893283
O O5 0.593106 0.185666 0.200162
O O6 0.435357 0.220415 0.653844
O O7 0.500000 0.000000 0.500000
O O8 0.459767 0.522413 0.852314
O O9 0.194374 0.898348 0.767960
O O10 0.123667 0.855823 0.187454
O O11 0.500000 0.500000 0.500000
O O12 0.419964 0.328236 0.888842
O O13 0.767235 0.142037 0.577728
O O14 0.500000 0.000000 0.000000
#
# Coordination Sequence:
#
# PCOD9090698 Si02
#       6
#     2   2   2   2   2   2
#     4  12  25  43  68  99 137 186 235 283 351 410
#     4  12  26  44  65 102 141 180 235 287 342 416
#     4  10  21  41  69  96 137 178 234 282 347 406
#     4  10  19  38  70  97 131 177 226 278 341 412
#     4  12  22  44  72 100 138 179 230 283 347 413
#     4  10  20  40  66  98 128 184 225 279 345 412
#
# _framework density 22.690411999999998
#
# number of rings (size 3 to 8) (size 9 to 14) (size 15 to 20)
#    0.000    1.000    5.000    3.500    0.000    3.333 
#    3.000    0.833    0.000    0.000    0.000    0.000 
#    0.000    0.000    0.000    0.000    0.000    0.000 
#
# Total GULP energy -67221.721435 kJ/mol
# GULP energy per Si atom -5601.810120 kJ/mol
# Density = 2.263877 g / cm^3
# Si number density = 22.690412 Si / 1000 Ang^3
#
#
#
# Elastic Constant Matrix: (Units=GPa)
#
#
# Indices 1 2 3 4 5 6 
#
# 1 103.3307 47.6154 44.5502 6.8540 -21.9871 17.7102
# 2 47.6154 143.9175 47.9625 16.8432 -17.3148 29.0652
# 3 44.5502 47.9625 142.9245 25.3544 -48.7210 11.1682
# 4 6.8540 16.8432 25.3544 47.6580 -8.0064 -7.0490
# 5 -21.9871 -17.3148 -48.7210 -8.0064 48.4228 -8.4061
# 6 17.7102 29.0652 11.1682 -7.0490 -8.4061 43.4356
#
#
#
# Elastic Compliance Matrix: (Units=1/GPa)
#
#
# Indices 1 2 3 4 5 6 
#
# 1 0.012748 -0.002814 -0.002128 0.000345 0.002305 -0.002265
# 2 -0.002814 0.009872 -0.001793 -0.003155 -0.001065 -0.005716
# 3 -0.002128 -0.001793 0.012456 -0.003921 0.010317 0.000224
# 4 0.000345 -0.003155 -0.003921 0.025282 0.000510 0.007180
# 5 0.002305 -0.001065 0.010317 0.000510 0.032384 0.003470
# 6 -0.002265 -0.005716 0.000224 0.007180 0.003470 0.029550
#
#
# Mechanical properties :
#
#
# Convention : Reuss Voigt Hill
#
# Bulk Modulus (GPa) = 46.27980 74.49209 60.38595
# Shear Modulus (GPa) = 34.97398 44.57292 39.77345
#
# Velocity S-wave (km/s) = 3.93027 4.43696 4.19128
# Velocity P-wave (km/s) = 6.40597 7.69089 7.07765
#
# Compressibility (1/GPa) = 0.02160770
#
# Stress axis : x y z
#
# Youngs Moduli (GPa) = 78.44646 101.29301 80.28120
#
# Poissons Ratio (x) = 0.28505 0.17080
# Poissons Ratio (y) = 0.22075 0.14391
# Poissons Ratio (z) = 0.16690 0.18157
#
# Static dielectric constant tensor:
#      x y z
#    x 1.830180 -0.030260 0.028660 
#    y -0.030260 1.820750 0.003410 
#    z 0.028660 0.003410 1.856340 
# 
# From -- ./inp_files/151809.got.cif
#   From: 2010.05.17/outbox.cif.g08.bks.cpg/sg2_76_cif.got.tgz:151809.got - 2010.06.03 11:33:40.
