data_PCOD9090603
_publ_section_title
;
Structure prediction by ZEFSAII (Michael W. Deem and Ramdas Pophale) SiO2 
 PCOD9090603
Probable space group: P -1
;
_chemical_formula_sum "Si O2"
_cell_formula_units_Z 16
_cell_length_a 15.397828
_cell_length_b 8.392458
_cell_length_c 12.766122
_cell_angle_alpha 60.795468
_cell_angle_beta 68.952054
_cell_angle_gamma 121.984983
_cell_volume 673.581635
_symmetry_space_group_name_H-M "P -1"
_symmetry_group_IT_number 2
_symmetry_cell_setting 'triclinic'
loop_
_space_group_symop_operation_xyz
x,y,z
-x,-y,-z
loop_
_atom_site_type_symbol
_atom_site_label
_atom_site_fract_x
_atom_site_fract_y
_atom_site_fract_z
Si Si1 0.505480 0.788686 0.361155
Si Si2 0.118382 0.269459 0.708278
Si Si3 0.522009 0.681656 0.834832
Si Si4 0.025456 0.762142 0.029597
Si Si5 0.930896 0.304976 0.483935
Si Si6 0.092103 0.500708 0.139590
Si Si7 0.545376 0.491251 0.325473
Si Si8 0.139733 0.172555 0.218986
O O1 0.330713 0.619492 0.468898
O O2 0.453465 0.510095 0.415046
O O3 0.518986 0.783927 0.482797
O O4 0.705558 0.167047 0.106151
O O5 0.105888 0.359015 0.792602
O O6 0.973816 0.101251 0.742115
O O7 0.043709 0.934491 0.870763
O O8 0.486040 0.563549 0.767161
O O9 0.741505 0.089708 0.608489
O O10 0.500000 0.500000 0.000000
O O11 0.358012 0.546208 0.975002
O O12 0.981184 0.471403 0.133809
O O13 0.234586 0.123665 0.870099
O O14 0.000000 0.500000 0.500000
O O15 0.077093 0.554893 0.246514
O O16 0.881823 0.008628 0.620676
O O17 0.045402 0.208347 0.265959
#
# Coordination Sequence:
#
# PCOD9090603 Si02
#       8
#     2   2   2   2   2   2   2   2
#     4   9  21  36  69  97 137 177 213 271 333 403
#     4  10  19  38  68 100 131 176 225 263 329 393
#     4  10  23  42  71  93 132 174 226 281 339 383
#     4   9  19  37  69  95 132 182 215 270 323 402
#     4  11  26  47  71  93 124 181 233 280 337 401
#     4  11  24  43  63  97 140 170 227 271 339 395
#     4   9  17  40  65 101 133 173 224 271 333 390
#     4  11  24  43  65  99 136 170 220 287 333 395
#
# _framework density 23.753616999999998
#
# number of rings (size 3 to 8) (size 9 to 14) (size 15 to 20)
#    0.000    2.000    1.250    1.875    7.000    2.500 
#    2.250    1.875    0.000    0.000    0.000    0.000 
#    0.000    0.000    0.000    0.000    0.000    0.000 
#
# Total GULP energy -89270.310931 kJ/mol
# GULP energy per Si atom -5579.394433 kJ/mol
# Density = 2.369955 g / cm^3
# Si number density = 23.753617 Si / 1000 Ang^3
#
#
#
# Elastic Constant Matrix: (Units=GPa)
#
#
# Indices 1 2 3 4 5 6 
#
# 1 141.8035 29.6972 31.1501 10.3438 -1.9179 -11.3556
# 2 29.6972 61.2532 20.1251 25.2222 3.9449 10.6594
# 3 31.1501 20.1251 132.6589 23.2760 -0.0088 2.8690
# 4 10.3438 25.2222 23.2760 37.7380 3.0859 1.9804
# 5 -1.9179 3.9449 -0.0088 3.0859 43.5600 -1.9860
# 6 -11.3556 10.6594 2.8690 1.9804 -1.9860 46.4554
#
#
#
# Elastic Compliance Matrix: (Units=1/GPa)
#
#
# Indices 1 2 3 4 5 6 
#
# 1 0.008605 -0.004980 -0.001642 0.001738 0.000857 0.003310
# 2 -0.004980 0.026560 0.000081 -0.015937 -0.001802 -0.006714
# 3 -0.001642 0.000081 0.008808 -0.005018 0.000244 -0.000740
# 4 0.001738 -0.015937 -0.005018 0.039726 -0.001175 0.002648
# 5 0.000857 -0.001802 0.000244 -0.001175 0.023316 0.001655
# 6 0.003310 -0.006714 -0.000740 0.002648 0.001655 0.023879
#
#
# Mechanical properties :
#
#
# Convention : Reuss Voigt Hill
#
# Bulk Modulus (GPa) = 32.36984 55.29560 43.83272
# Shear Modulus (GPa) = 32.41021 42.53355 37.47188
#
# Velocity S-wave (km/s) = 3.69783 4.23615 3.97611
# Velocity P-wave (km/s) = 5.64702 6.87430 6.29066
#
# Compressibility (1/GPa) = 0.03089296
#
# Stress axis : x y z
#
# Youngs Moduli (GPa) = 116.20614 37.65055 113.53651
#
# Poissons Ratio (x) = 0.18749 0.18640
# Poissons Ratio (y) = 0.57867 -0.00924
# Poissons Ratio (z) = 0.19078 -0.00306
#
# Static dielectric constant tensor:
#      x y z
#    x 1.944200 -0.074090 0.081620 
#    y -0.074090 1.922030 -0.055100 
#    z 0.081620 -0.055100 1.929130 
# 
# From -- ./inp_files/446952.got.cif
#   From: 2010.05.17/outbox.cif.g08.bks.cpg/sg2_224_cif.got.tgz:446952.got - 2010.06.03 11:33:40.
