data_PCOD9090451
_publ_section_title
;
Structure prediction by ZEFSAII (Michael W. Deem and Ramdas Pophale) SiO2 
 PCOD9090451
Probable space group: P -1
;
_chemical_formula_sum "Si O2"
_cell_formula_units_Z 16
_cell_length_a 14.538699
_cell_length_b 11.161217
_cell_length_c 9.359164
_cell_angle_alpha 115.684019
_cell_angle_beta 67.079501
_cell_angle_gamma 150.121798
_cell_volume 681.491557
_symmetry_space_group_name_H-M "P -1"
_symmetry_group_IT_number 2
_symmetry_cell_setting 'triclinic'
loop_
_space_group_symop_operation_xyz
x,y,z
-x,-y,-z
loop_
_atom_site_type_symbol
_atom_site_label
_atom_site_fract_x
_atom_site_fract_y
_atom_site_fract_z
Si Si1 0.796814 0.271706 0.935768
Si Si2 0.444110 0.732844 0.416145
Si Si3 0.908863 0.156808 0.641830
Si Si4 0.327280 0.678202 0.746956
Si Si5 0.819240 0.014245 0.298417
Si Si6 0.352454 0.345902 0.375307
Si Si7 0.204203 0.501949 0.181841
Si Si8 0.644565 0.528979 0.146001
O O1 0.777992 0.109305 0.787549
O O2 0.791945 0.374333 0.867400
O O3 0.662826 0.175251 0.091314
O O4 0.000000 0.500000 0.000000
O O5 0.457896 0.825297 0.605834
O O6 0.635148 0.894244 0.316600
O O7 0.341894 0.484299 0.404150
O O8 0.314135 0.655144 0.339296
O O9 0.117475 0.428488 0.689011
O O10 0.874222 0.126532 0.480042
O O11 0.840727 0.934574 0.612397
O O12 0.344530 0.570578 0.786963
O O13 0.770613 0.802592 0.227867
O O14 0.991281 0.230377 0.203616
O O15 0.500000 0.500000 0.500000
O O16 0.442337 0.365299 0.200263
O O17 0.301587 0.485382 0.038153
#
# Coordination Sequence:
#
# PCOD9090451 Si02
#       8
#     2   2   2   2   2   2   2   2
#     4   9  23  45  66  90 122 173 222 264 309 377
#     4  11  22  40  66 100 130 160 215 263 321 378
#     4  11  20  38  67  95 123 175 214 258 321 370
#     4  10  19  38  66  90 127 170 219 260 305 384
#     4  11  22  38  64  95 133 167 203 264 328 377
#     4  11  20  37  65  94 133 161 206 267 306 384
#     4  11  24  43  65  90 131 173 208 266 320 376
#     4  10  21  40  59  95 133 164 213 257 315 384
#
# _framework density 23.477913999999998
#
# number of rings (size 3 to 8) (size 9 to 14) (size 15 to 20)
#    0.000    1.500    5.000    0.375    1.750    3.500 
#    9.000    6.250    2.750    0.000    0.000    0.000 
#    0.000    0.000    0.000    0.000    0.000    0.000 
#
# Total GULP energy -89484.193084 kJ/mol
# GULP energy per Si atom -5592.762068 kJ/mol
# Density = 2.342448 g / cm^3
# Si number density = 23.477914 Si / 1000 Ang^3
#
#
#
# Elastic Constant Matrix: (Units=GPa)
#
#
# Indices 1 2 3 4 5 6 
#
# 1 77.8409 12.9722 27.0447 -4.3371 0.0316 1.2208
# 2 12.9722 86.1283 23.5650 -5.9686 -0.5133 7.3685
# 3 27.0447 23.5650 111.5074 -24.0620 -17.5542 1.4464
# 4 -4.3371 -5.9686 -24.0620 30.7005 9.2887 -0.3228
# 5 0.0316 -0.5133 -17.5542 9.2887 43.7149 2.6109
# 6 1.2208 7.3685 1.4464 -0.3228 2.6109 22.4214
#
#
#
# Elastic Compliance Matrix: (Units=1/GPa)
#
#
# Indices 1 2 3 4 5 6 
#
# 1 0.014246 -0.001229 -0.003531 -0.000596 -0.001316 0.000001
# 2 -0.001229 0.012807 -0.002323 0.000663 -0.000690 -0.003902
# 3 -0.003531 -0.002323 0.012541 0.007865 0.003348 -0.000130
# 4 -0.000596 0.000663 0.007865 0.040438 -0.005457 0.000525
# 5 -0.001316 -0.000690 0.003348 -0.005457 0.025550 -0.002971
# 6 0.000001 -0.003902 -0.000130 0.000525 -0.002971 0.046245
#
#
# Mechanical properties :
#
#
# Convention : Reuss Voigt Hill
#
# Bulk Modulus (GPa) = 39.32761 44.73781 42.03271
# Shear Modulus (GPa) = 28.65838 33.49366 31.07602
#
# Velocity S-wave (km/s) = 3.49757 3.78114 3.64212
# Velocity P-wave (km/s) = 5.75308 6.17732 5.96897
#
# Compressibility (1/GPa) = 0.02542743
#
# Stress axis : x y z
#
# Youngs Moduli (GPa) = 70.19673 78.08225 79.73641
#
# Poissons Ratio (x) = 0.09593 0.28157
# Poissons Ratio (y) = 0.08625 0.18526
# Poissons Ratio (z) = 0.24788 0.18142
#
# Static dielectric constant tensor:
#      x y z
#    x 1.885870 0.014200 -0.050550 
#    y 0.014200 1.883110 0.018810 
#    z -0.050550 0.018810 1.931370 
# 
# From -- ./inp_files/214425.got.cif
#   From: 2010.05.17/outbox.cif.g08.bks.cpg/sg2_108_cif.got.tgz:214425.got - 2010.06.03 11:33:40.
