data_PCOD9090690
_publ_section_title
;
Structure prediction by ZEFSAII (Michael W. Deem and Ramdas Pophale) SiO2 
 PCOD9090690
Probable space group: P -1
;
_chemical_formula_sum "Si O2"
_cell_formula_units_Z 16
_cell_length_a 12.566673
_cell_length_b 6.790508
_cell_length_c 22.949270
_cell_angle_alpha 71.575170
_cell_angle_beta 33.701836
_cell_angle_gamma 98.061016
_cell_volume 662.898578
_symmetry_space_group_name_H-M "P -1"
_symmetry_group_IT_number 2
_symmetry_cell_setting 'triclinic'
loop_
_space_group_symop_operation_xyz
x,y,z
-x,-y,-z
loop_
_atom_site_type_symbol
_atom_site_label
_atom_site_fract_x
_atom_site_fract_y
_atom_site_fract_z
Si Si1 0.257708 0.625828 0.261585
Si Si2 0.309499 0.534966 0.919522
Si Si3 0.344743 0.378225 0.341491
Si Si4 0.833604 0.373587 0.819744
Si Si5 0.092816 0.684113 0.086402
Si Si6 0.128441 0.009284 0.306261
Si Si7 0.735544 0.608800 0.427751
Si Si8 0.262163 0.212678 0.775798
O O1 0.196448 0.418081 0.360976
O O2 0.145851 0.469496 0.262626
O O3 0.151757 0.773405 0.310260
O O4 0.616524 0.936782 0.067788
O O5 0.516061 0.693368 0.753103
O O6 0.187475 0.395109 0.782239
O O7 0.540246 0.660111 0.854094
O O8 0.166228 0.629760 0.997930
O O9 0.620478 0.711079 0.219225
O O10 0.107477 0.135988 0.522232
O O11 0.902662 0.475536 0.846473
O O12 0.075099 0.399299 0.692919
O O13 0.500000 0.000000 0.000000
O O14 0.032962 0.157147 0.069460
O O15 0.984585 0.955425 0.315028
O O16 0.500000 0.500000 0.500000
O O17 0.524689 0.356427 0.599946
#
# Coordination Sequence:
#
# PCOD9090690 Si02
#       8
#     2   2   2   2   2   2   2   2
#     4   9  18  35  62  87 121 167 209 254 317 380
#     4  11  23  40  62  93 129 166 222 257 317 386
#     4  11  21  38  63  89 127 167 216 261 323 378
#     4   9  18  36  66  92 123 167 208 252 321 379
#     4  10  20  38  61  89 126 164 208 260 319 368
#     4   9  21  38  61  92 126 166 214 267 314 378
#     4  10  19  38  70  92 125 173 209 258 326 375
#     4  11  23  40  64  93 127 169 210 264 322 379
#
# _framework density 24.136422
#
# number of rings (size 3 to 8) (size 9 to 14) (size 15 to 20)
#    0.000    2.000    2.500    1.875    0.000    0.500 
#    2.250    3.125   13.750    0.000    0.000    0.000 
#    0.000    0.000    0.000    0.000    0.000    0.000 
#
# Total GULP energy -89291.187027 kJ/mol
# GULP energy per Si atom -5580.699189 kJ/mol
# Density = 2.408149 g / cm^3
# Si number density = 24.136422 Si / 1000 Ang^3
#
#
#
# Elastic Constant Matrix: (Units=GPa)
#
#
# Indices 1 2 3 4 5 6 
#
# 1 104.5637 22.9996 19.5572 -5.0758 -5.2411 19.4789
# 2 22.9996 84.3753 28.8112 6.1095 -4.6096 23.8914
# 3 19.5572 28.8112 124.8725 23.4302 -20.8202 2.9951
# 4 -5.0758 6.1095 23.4302 47.0535 9.6360 -7.0967
# 5 -5.2411 -4.6096 -20.8202 9.6360 42.0679 1.1367
# 6 19.4789 23.8914 2.9951 -7.0967 1.1367 35.5654
#
#
#
# Elastic Compliance Matrix: (Units=1/GPa)
#
#
# Indices 1 2 3 4 5 6 
#
# 1 0.011107 -0.001192 -0.001540 0.001314 0.000322 -0.004901
# 2 -0.001192 0.016379 -0.002578 -0.002862 0.001316 -0.010746
# 3 -0.001540 -0.002578 0.011216 -0.006762 0.006624 0.000070
# 4 0.001314 -0.002862 -0.006762 0.028395 -0.010210 0.007764
# 5 0.000322 0.001316 0.006624 -0.010210 0.029697 -0.004605
# 6 -0.004901 -0.010746 0.000070 0.007764 -0.004605 0.039711
#
#
# Mechanical properties :
#
#
# Convention : Reuss Voigt Hill
#
# Bulk Modulus (GPa) = 35.61034 50.72749 43.16892
# Shear Modulus (GPa) = 31.95224 41.10025 36.52625
#
# Velocity S-wave (km/s) = 3.64238 4.13101 3.89437
# Velocity P-wave (km/s) = 5.69869 6.61939 6.17622
#
# Compressibility (1/GPa) = 0.02808173
#
# Stress axis : x y z
#
# Youngs Moduli (GPa) = 90.03651 61.05419 89.16091
#
# Poissons Ratio (x) = 0.07275 0.13730
# Poissons Ratio (y) = 0.10728 0.22988
# Poissons Ratio (z) = 0.13865 0.15742
#
# Static dielectric constant tensor:
#      x y z
#    x 2.041160 -0.042800 0.033500 
#    y -0.042800 2.039940 -0.037870 
#    z 0.033500 -0.037870 1.905600 
# 
# From -- ./inp_files/356877.got.cif
#   From: 2010.05.17/outbox.cif.g08.bks.cpg/sg2_179_cif.got.tgz:356877.got - 2010.06.03 11:33:40.
