data_PCOD9090201
_publ_section_title
;
Structure prediction by ZEFSAII (Michael W. Deem and Ramdas Pophale) SiO2 
 PCOD9090201
Probable space group: P -1
;
_chemical_formula_sum "Si O2"
_cell_formula_units_Z 12
_cell_length_a 9.502332
_cell_length_b 18.080394
_cell_length_c 8.512419
_cell_angle_alpha 148.010299
_cell_angle_beta 136.429208
_cell_angle_gamma 40.356276
_cell_volume 488.484119
_symmetry_space_group_name_H-M "P -1"
_symmetry_group_IT_number 2
_symmetry_cell_setting 'triclinic'
loop_
_space_group_symop_operation_xyz
x,y,z
-x,-y,-z
loop_
_atom_site_type_symbol
_atom_site_label
_atom_site_fract_x
_atom_site_fract_y
_atom_site_fract_z
Si Si1 0.684167 0.449861 0.198716
Si Si2 0.855786 0.071609 0.162565
Si Si3 0.573896 0.635131 0.744813
Si Si4 0.169310 0.215605 0.189486
Si Si5 0.170339 0.049399 0.615078
Si Si6 0.446654 0.247065 0.742881
O O1 0.682006 0.572582 0.548756
O O2 0.938130 0.344485 0.173628
O O3 0.500000 0.500000 0.000000
O O4 0.611102 0.331466 0.017917
O O5 0.631964 0.207756 0.177745
O O6 0.990414 0.142550 0.509265
O O7 0.843112 0.923734 0.968898
O O8 0.000000 0.000000 0.000000
O O9 0.500000 0.500000 0.500000
O O10 0.678347 0.689966 0.078999
O O11 0.286654 0.287649 0.534599
O O12 0.280298 0.129300 0.964626
O O13 0.375247 0.925370 0.459997
O O14 0.000000 0.000000 0.500000
#
# Coordination Sequence:
#
# PCOD9090201 Si02
#       6
#     2   2   2   2   2   2
#     4  11  23  43  65  89 129 167 205 255 314 375
#     4  11  19  39  67  90 121 165 212 253 309 364
#     4  10  22  39  62  90 126 166 200 255 313 372
#     4  11  24  39  67  92 124 166 210 259 309 368
#     4  10  19  38  64  91 120 163 206 265 308 357
#     4  11  22  42  62  94 127 160 216 257 308 369
#
# _framework density 24.565794
#
# number of rings (size 3 to 8) (size 9 to 14) (size 15 to 20)
#    0.000    1.333    5.000    2.500    2.333    2.000 
#    0.000    0.000    0.000    0.000    0.000    0.000 
#    0.000    0.000    0.000    0.000    0.000    0.000 
#
# Total GULP energy -66837.452024 kJ/mol
# GULP energy per Si atom -5569.787669 kJ/mol
# Density = 2.450988 g / cm^3
# Si number density = 24.565794 Si / 1000 Ang^3
#
#
#
# Elastic Constant Matrix: (Units=GPa)
#
#
# Indices 1 2 3 4 5 6 
#
# 1 55.6614 11.6601 46.2268 10.8031 -7.6106 5.4320
# 2 11.6601 100.3565 39.6752 -0.7258 -7.3302 -7.6667
# 3 46.2268 39.6752 194.6635 -18.2333 -47.7872 4.4778
# 4 10.8031 -0.7258 -18.2333 56.5185 6.6998 -1.6974
# 5 -7.6106 -7.3302 -47.7872 6.6998 52.4813 2.6598
# 6 5.4320 -7.6667 4.4778 -1.6974 2.6598 21.4332
#
#
#
# Elastic Compliance Matrix: (Units=1/GPa)
#
#
# Indices 1 2 3 4 5 6 
#
# 1 0.025496 -0.000889 -0.006739 -0.007070 -0.001368 -0.005762
# 2 -0.000889 0.011350 -0.002489 -0.000217 -0.001031 0.004916
# 3 -0.006739 -0.002489 0.009261 0.003392 0.006760 -0.001687
# 4 -0.007070 -0.000217 0.003392 0.020300 -0.000696 0.002699
# 5 -0.001368 -0.001031 0.006760 -0.000696 0.025190 -0.004615
# 6 -0.005762 0.004916 -0.001687 0.002699 -0.004615 0.051015
#
#
# Mechanical properties :
#
#
# Convention : Reuss Voigt Hill
#
# Bulk Modulus (GPa) = 38.65039 60.64505 49.64772
# Shear Modulus (GPa) = 29.15973 42.96123 36.06048
#
# Velocity S-wave (km/s) = 3.44903 4.18643 3.83549
# Velocity P-wave (km/s) = 5.62394 6.93604 6.31416
#
# Compressibility (1/GPa) = 0.02587296
#
# Stress axis : x y z
#
# Youngs Moduli (GPa) = 39.22176 88.10263 107.98484
#
# Poissons Ratio (x) = 0.07836 0.72770
# Poissons Ratio (y) = 0.03488 0.26875
# Poissons Ratio (z) = 0.26431 0.21926
#
# Static dielectric constant tensor:
#      x y z
#    x 2.111740 0.060360 -0.008040 
#    y 0.060360 1.950780 -0.016400 
#    z -0.008040 -0.016400 2.154610 
# 
# From -- ./inp_files/154885.got.cif
#   From: 2010.05.17/outbox.cif.g08.bks.cpg/sg2_78_cif.got.tgz:154885.got - 2010.06.03 11:33:40.
