data_PCOD9090179
_publ_section_title
;
Structure prediction by ZEFSAII (Michael W. Deem and Ramdas Pophale) SiO2 
 PCOD9090179
Probable space group: P -1
;
_chemical_formula_sum "Si O2"
_cell_formula_units_Z 14
_cell_length_a 13.809555
_cell_length_b 13.784662
_cell_length_c 6.822461
_cell_angle_alpha 106.250652
_cell_angle_beta 89.343531
_cell_angle_gamma 151.509649
_cell_volume 510.868330
_symmetry_space_group_name_H-M "P -1"
_symmetry_group_IT_number 2
_symmetry_cell_setting 'triclinic'
loop_
_space_group_symop_operation_xyz
x,y,z
-x,-y,-z
loop_
_atom_site_type_symbol
_atom_site_label
_atom_site_fract_x
_atom_site_fract_y
_atom_site_fract_z
Si Si1 0.606330 0.295610 0.397343
Si Si2 0.893036 0.756472 0.744807
Si Si3 0.083126 0.785233 0.044825
Si Si4 0.636755 0.271773 0.837609
Si Si5 0.248582 0.768825 0.733995
Si Si6 0.429848 0.289329 0.908829
Si Si7 0.724841 0.723951 0.412098
O O1 0.782972 0.557256 0.513208
O O2 0.654016 0.297719 0.614690
O O3 0.653867 0.249381 0.218331
O O4 0.330796 0.062069 0.273550
O O5 0.745179 0.710388 0.632812
O O6 0.931042 0.737284 0.943797
O O7 0.162411 0.041732 0.851634
O O8 0.171915 0.788151 0.884672
O O9 0.910846 0.552487 0.049515
O O10 0.498701 0.239490 0.891132
O O11 0.466675 0.016541 0.739055
O O12 0.000000 0.500000 0.500000
O O13 0.417275 0.315963 0.698254
O O14 0.604707 0.522184 0.168048
O O15 0.000000 0.000000 0.500000
#
# Coordination Sequence:
#
# PCOD9090179 Si02
#       7
#     2   2   2   2   2   2   2
#     4  11  24  41  63  92 133 170 216 261 318 374
#     4  10  19  38  64  89 126 169 210 260 312 378
#     4  11  24  41  60  93 130 172 217 263 311 375
#     4  11  24  41  64  96 131 165 212 272 312 380
#     4  12  22  45  66  90 132 174 216 262 316 374
#     4  10  19  39  63  98 129 162 216 262 326 380
#     4   9  20  35  66  97 125 167 211 264 322 389
#
# _framework density 27.404323000000002
#
# number of rings (size 3 to 8) (size 9 to 14) (size 15 to 20)
#    0.000    1.429    4.286    1.714    0.000    2.857 
#    2.571    2.857    0.000   32.571    0.000    0.000 
#    0.000    0.000    0.000    0.000    0.000    0.000 
#
# Total GULP energy -78210.234171 kJ/mol
# GULP energy per Si atom -5586.445298 kJ/mol
# Density = 2.734195 g / cm^3
# Si number density = 27.404323 Si / 1000 Ang^3
#
#
#
# Elastic Constant Matrix: (Units=GPa)
#
#
# Indices 1 2 3 4 5 6 
#
# 1 116.6869 13.9415 45.9261 16.3475 9.4316 -8.7578
# 2 13.9415 159.7559 61.1276 33.7154 6.5690 -23.5432
# 3 45.9261 61.1276 146.6538 55.0326 1.8342 1.5211
# 4 16.3475 33.7154 55.0326 50.1915 9.5762 -2.2236
# 5 9.4316 6.5690 1.8342 9.5762 55.3651 11.8408
# 6 -8.7578 -23.5432 1.5211 -2.2236 11.8408 40.4395
#
#
#
# Elastic Compliance Matrix: (Units=1/GPa)
#
#
# Indices 1 2 3 4 5 6 
#
# 1 0.010447 0.001153 -0.004178 0.001118 -0.002822 0.003979
# 2 0.001153 0.008824 -0.003328 -0.001992 -0.002074 0.006010
# 3 -0.004178 -0.003328 0.014525 -0.013342 0.004069 -0.005314
# 4 0.001118 -0.001992 -0.013342 0.036956 -0.006667 0.003569
# 5 -0.002822 -0.002074 0.004069 -0.006667 0.021664 -0.008682
# 6 0.003979 0.006010 -0.005314 0.003569 -0.008682 0.032027
#
#
# Mechanical properties :
#
#
# Convention : Reuss Voigt Hill
#
# Bulk Modulus (GPa) = 47.41518 73.89856 60.65687
# Shear Modulus (GPa) = 34.67974 49.33930 42.00952
#
# Velocity S-wave (km/s) = 3.56122 4.24774 3.91954
# Velocity P-wave (km/s) = 5.85230 7.14719 6.53191
#
# Compressibility (1/GPa) = 0.02109029
#
# Stress axis : x y z
#
# Youngs Moduli (GPa) = 95.72549 113.33324 68.84740
#
# Poissons Ratio (x) = -0.13071 0.28763
# Poissons Ratio (y) = -0.11040 0.22911
# Poissons Ratio (z) = 0.39992 0.37716
#
# Static dielectric constant tensor:
#      x y z
#    x 2.126780 -0.025800 0.057560 
#    y -0.025800 2.232370 -0.074840 
#    z 0.057560 -0.074840 2.196250 
# 
# From -- ./inp_files/315623.got.cif
#   From: 2010.05.17/outbox.cif.g08.bks.cpg/sg2_158_cif.got.tgz:315623.got - 2010.06.03 11:33:40.
