data_PCOD9090020
_publ_section_title
;
Structure prediction by ZEFSAII (Michael W. Deem and Ramdas Pophale) SiO2 
 PCOD9090020
Probable space group: P -1
;
_chemical_formula_sum "Si O2"
_cell_formula_units_Z 10
_cell_length_a 5.910084
_cell_length_b 7.192025
_cell_length_c 10.350462
_cell_angle_alpha 73.885840
_cell_angle_beta 106.588022
_cell_angle_gamma 114.261154
_cell_volume 377.882716
_symmetry_space_group_name_H-M "P -1"
_symmetry_group_IT_number 2
_symmetry_cell_setting 'triclinic'
loop_
_space_group_symop_operation_xyz
x,y,z
-x,-y,-z
loop_
_atom_site_type_symbol
_atom_site_label
_atom_site_fract_x
_atom_site_fract_y
_atom_site_fract_z
Si Si1 0.199015 0.991414 0.732431
Si Si2 0.024831 0.491414 0.232432
Si Si3 0.238303 0.195490 0.958685
Si Si4 0.415869 0.695484 0.458690
Si Si5 0.350292 0.250006 0.249998
O O1 0.371897 0.123961 0.621029
O O2 0.329059 0.112253 0.860719
O O3 0.148864 0.750000 0.750006
O O4 0.897632 0.953017 0.708617
O O5 0.126896 0.376036 0.878966
O O6 0.143910 0.612246 0.360724
O O7 0.264012 0.453026 0.208620
O O8 0.395812 0.238320 0.107871
O O9 0.000000 0.000000 0.000000
O O10 0.500000 0.500000 0.500000
O O11 0.450368 0.738305 0.607878
#
# Coordination Sequence:
#
# PCOD9090020 Si02
#       5
#     2   2   2   2   2
#     4   9  20  36  65  82 120 155 197 237 300 344
#     4   9  20  36  65  82 120 155 197 237 300 344
#     4  10  19  38  63  88 115 159 196 243 292 354
#     4  10  19  38  63  88 115 159 196 243 292 354
#     4   8  18  34  64  80 120 154 188 240 300 340
#
# _framework density 26.463239000000002
#
# number of rings (size 3 to 8) (size 9 to 14) (size 15 to 20)
#    1.200    1.600    0.000    1.200    0.000    0.000 
#    0.000   18.000    0.000    2.400    0.000    0.000 
#    0.000    0.000    0.000    0.000    0.000    0.000 
#
# Total GULP energy -55746.516364 kJ/mol
# GULP energy per Si atom -5574.651636 kJ/mol
# Density = 2.640301 g / cm^3
# Si number density = 26.463239 Si / 1000 Ang^3
#
#
#
# Elastic Constant Matrix: (Units=GPa)
#
#
# Indices 1 2 3 4 5 6 
#
# 1 57.8514 66.4579 66.5484 11.1210 -2.7993 -7.2045
# 2 66.4579 202.7963 83.2510 1.4077 20.3638 -39.3594
# 3 66.5484 83.2510 242.5963 46.6023 3.0298 -6.1319
# 4 11.1210 1.4077 46.6023 47.1390 -2.0188 18.2502
# 5 -2.7993 20.3638 3.0298 -2.0188 39.5752 12.8894
# 6 -7.2045 -39.3594 -6.1319 18.2502 12.8894 36.6904
#
#
#
# Elastic Compliance Matrix: (Units=1/GPa)
#
#
# Indices 1 2 3 4 5 6 
#
# 1 0.043334 -0.017270 -0.008365 0.008210 0.020391 -0.022662
# 2 -0.017270 0.017078 0.001502 -0.008948 -0.019167 0.026364
# 3 -0.008365 0.001502 0.007865 -0.008928 -0.004840 0.007423
# 4 0.008210 -0.008948 -0.008928 0.044281 0.020764 -0.038799
# 5 0.020391 -0.019167 -0.004840 0.020764 0.053098 -0.046348
# 6 -0.022662 0.026364 0.007423 -0.038799 -0.046348 0.087909
#
#
# Mechanical properties :
#
#
# Convention : Reuss Voigt Hill
#
# Bulk Modulus (GPa) = 49.97718 103.97317 76.97518
# Shear Modulus (GPa) = 16.20744 43.81337 30.01040
#
# Velocity S-wave (km/s) = 2.47746 4.07336 3.37121
# Velocity P-wave (km/s) = 5.20675 7.84206 6.65613
#
# Compressibility (1/GPa) = 0.02000913
#
# Stress axis : x y z
#
# Youngs Moduli (GPa) = 23.07677 58.55627 127.15172
#
# Poissons Ratio (x) = 1.01124 1.06367
# Poissons Ratio (y) = 0.39853 -0.19092
# Poissons Ratio (z) = 0.19305 -0.08792
#
# Static dielectric constant tensor:
#      x y z
#    x 2.113630 0.010450 -0.008670 
#    y 0.010450 2.111820 0.043680 
#    z -0.008670 0.043680 2.154000 
# 
# From -- ./inp_files/264912.got.cif
#   From: 2010.05.17/outbox.cif.g08.bks.cpg/sg2_133_cif.got.tgz:264912.got - 2010.06.03 11:33:40.
