data_PCOD9090633
_publ_section_title
;
Structure prediction by ZEFSAII (Michael W. Deem and Ramdas Pophale) SiO2 
 PCOD9090633
Probable space group: P -1
;
_chemical_formula_sum "Si O2"
_cell_formula_units_Z 14
_cell_length_a 13.298477
_cell_length_b 9.734781
_cell_length_c 7.117211
_cell_angle_alpha 115.265917
_cell_angle_beta 88.056840
_cell_angle_gamma 44.908676
_cell_volume 500.080987
_symmetry_space_group_name_H-M "P -1"
_symmetry_group_IT_number 2
_symmetry_cell_setting 'triclinic'
loop_
_space_group_symop_operation_xyz
x,y,z
-x,-y,-z
loop_
_atom_site_type_symbol
_atom_site_label
_atom_site_fract_x
_atom_site_fract_y
_atom_site_fract_z
Si Si1 0.823378 0.200068 0.521910
Si Si2 0.744698 0.760046 0.020668
Si Si3 0.341929 0.793995 0.751413
Si Si4 0.895347 0.278011 0.207799
Si Si5 0.450695 0.943453 0.302280
Si Si6 0.354086 0.556921 0.943706
Si Si7 0.087479 0.414367 0.679308
O O1 0.691696 0.362146 0.791893
O O2 0.810468 0.348894 0.455011
O O3 0.000000 0.000000 0.500000
O O4 0.236483 0.571374 0.864124
O O5 0.826793 0.686888 0.180027
O O6 0.653926 0.030498 0.137518
O O7 0.596234 0.814587 0.069185
O O8 0.919372 0.516780 0.755331
O O9 0.500000 0.500000 0.500000
O O10 0.320240 0.744354 0.928660
O O11 0.203261 0.915188 0.674145
O O12 0.981523 0.334924 0.222026
O O13 0.000000 0.000000 0.000000
O O14 0.254626 0.193809 0.413178
O O15 0.500000 0.000000 0.500000
O O16 0.473280 0.742287 0.249022
#
# Coordination Sequence:
#
# PCOD9090633 Si02
#       7
#     2   2   2   2   2   2   2
#     4  11  25  39  68 105 138 178 243 290 351 424
#     4  10  21  36  66 103 133 178 236 284 350 424
#     4  11  25  43  71 101 142 189 231 294 363 418
#     4  11  20  38  69  97 131 182 231 283 347 422
#     4  10  19  38  68  94 134 186 229 287 348 418
#     4  11  22  42  68  98 138 183 238 287 349 423
#     4  10  20  36  64  97 131 177 236 276 346 423
#
# _framework density 27.995467000000001
#
# number of rings (size 3 to 8) (size 9 to 14) (size 15 to 20)
#    0.000    1.429    4.286    3.429    2.000    0.571 
#    0.000    0.714    3.143    1.714    0.000    0.000 
#    0.000    0.000    0.000    0.000    0.000    0.000 
#
# Total GULP energy -78315.067286 kJ/mol
# GULP energy per Si atom -5593.933378 kJ/mol
# Density = 2.793175 g / cm^3
# Si number density = 27.995467 Si / 1000 Ang^3
#
#
#
# Elastic Constant Matrix: (Units=GPa)
#
#
# Indices 1 2 3 4 5 6 
#
# 1 126.0888 42.6257 55.4859 -6.3617 -13.8622 -11.3992
# 2 42.6257 157.3629 61.3807 5.9159 15.3768 19.8806
# 3 55.4859 61.3807 142.6079 3.6696 -22.4508 -1.7278
# 4 -6.3617 5.9159 3.6696 54.9889 -11.3244 2.4644
# 5 -13.8622 15.3768 -22.4508 -11.3244 53.4275 -4.1136
# 6 -11.3992 19.8806 -1.7278 2.4644 -4.1136 58.1973
#
#
#
# Elastic Compliance Matrix: (Units=1/GPa)
#
#
# Indices 1 2 3 4 5 6 
#
# 1 0.010692 -0.002700 -0.002513 0.002217 0.003202 0.003074
# 2 -0.002700 0.009960 -0.004199 -0.002169 -0.006130 -0.004397
# 3 -0.002513 -0.004199 0.010631 0.000460 0.005245 0.001609
# 4 0.002217 -0.002169 0.000460 0.019773 0.005641 0.000750
# 5 0.003202 -0.006130 0.005245 0.005641 0.025051 0.004409
# 6 0.003074 -0.004397 0.001609 0.000750 0.004409 0.019615
#
#
# Mechanical properties :
#
#
# Convention : Reuss Voigt Hill
#
# Bulk Modulus (GPa) = 80.27404 82.78269 81.52836
# Shear Modulus (GPa) = 42.12352 51.09388 46.60870
#
# Velocity S-wave (km/s) = 3.88320 4.27673 4.08470
# Velocity P-wave (km/s) = 6.98869 7.34993 7.17158
#
# Compressibility (1/GPa) = 0.01245733
#
# Stress axis : x y z
#
# Youngs Moduli (GPa) = 93.53145 100.40096 94.06682
#
# Poissons Ratio (x) = 0.27111 0.23643
# Poissons Ratio (y) = 0.25256 0.39497
# Poissons Ratio (z) = 0.23508 0.42157
#
# Static dielectric constant tensor:
#      x y z
#    x 2.182240 0.060320 -0.144870 
#    y 0.060320 2.421220 -0.128220 
#    z -0.144870 -0.128220 2.340940 
# 
# From -- ./inp_files/468659.got.cif
#   From: 2010.05.17/outbox.cif.g08.bks.cpg/sg2_235_cif.got.tgz:468659.got - 2010.06.03 11:33:40.
