data_PCOD9090932
_publ_section_title
;
Structure prediction by ZEFSAII (Michael W. Deem and Ramdas Pophale) SiO2 
 PCOD9090932
Probable space group: P -1
;
_chemical_formula_sum "Si O2"
_cell_formula_units_Z 16
_cell_length_a 23.656569
_cell_length_b 17.829976
_cell_length_c 15.505713
_cell_angle_alpha 150.580771
_cell_angle_beta 19.664334
_cell_angle_gamma 160.501599
_cell_volume 726.509031
_symmetry_space_group_name_H-M "P -1"
_symmetry_group_IT_number 2
_symmetry_cell_setting 'triclinic'
loop_
_space_group_symop_operation_xyz
x,y,z
-x,-y,-z
loop_
_atom_site_type_symbol
_atom_site_label
_atom_site_fract_x
_atom_site_fract_y
_atom_site_fract_z
Si Si1 0.261521 0.769677 0.056234
Si Si2 0.284171 0.719371 0.288251
Si Si3 0.884079 0.879332 0.181141
Si Si4 0.548868 0.709996 0.242357
Si Si5 0.323915 0.572527 0.904713
Si Si6 0.486565 0.802398 0.589320
Si Si7 0.423884 0.268061 0.975321
Si Si8 0.118325 0.998813 0.517846
O O1 0.103395 0.817554 0.321329
O O2 0.185813 0.581251 0.039504
O O3 0.322415 0.739574 0.845096
O O4 0.500000 0.000000 0.000000
O O5 0.000000 0.500000 0.500000
O O6 0.342134 0.935131 0.409275
O O7 0.337968 0.674064 0.075228
O O8 0.445579 0.753911 0.166883
O O9 0.816283 0.678242 0.125765
O O10 0.653643 0.769180 0.342431
O O11 0.893578 0.019431 0.379527
O O12 0.158702 0.056086 0.924632
O O13 0.384096 0.688546 0.528186
O O14 0.508814 0.501410 0.097877
O O15 0.515839 0.731355 0.210528
O O16 0.614197 0.747986 0.635596
O O17 0.126198 0.069633 0.221842
#
# Coordination Sequence:
#
# PCOD9090932 Si02
#       8
#     2   2   2   2   2   2   2   2
#     4  10  19  39  61  95 128 169 207 265 316 373
#     4  12  24  40  66  97 124 169 219 271 321 385
#     4  11  20  36  67  99 129 165 217 268 312 378
#     4  10  23  42  63  93 126 173 214 267 320 379
#     4  11  21  38  65 101 128 164 219 261 322 372
#     4  12  21  38  64  92 131 162 219 265 313 374
#     4  10  24  45  64  89 130 175 216 260 331 382
#     4  10  20  40  64  90 130 176 206 259 322 382
#
# _framework density 22.023126000000001
#
# number of rings (size 3 to 8) (size 9 to 14) (size 15 to 20)
#    0.000    1.250    5.000    3.000    0.000    3.000 
#    0.000    3.125    0.000    0.000    0.000    0.000 
#    0.000    0.000    0.000    0.000    0.000    0.000 
#
# Total GULP energy -89374.299306 kJ/mol
# GULP energy per Si atom -5585.893707 kJ/mol
# Density = 2.197300 g / cm^3
# Si number density = 22.023126 Si / 1000 Ang^3
#
#
#
# Elastic Constant Matrix: (Units=GPa)
#
#
# Indices 1 2 3 4 5 6 
#
# 1 78.6790 -9.2370 44.8182 10.2647 17.6100 0.0048
# 2 -9.2370 53.5758 0.2044 9.5514 -0.5786 -8.1199
# 3 44.8182 0.2044 71.6909 9.2973 27.8743 15.4664
# 4 10.2647 9.5514 9.2973 30.9825 15.3958 0.3886
# 5 17.6100 -0.5786 27.8743 15.3958 45.5418 6.5255
# 6 0.0048 -8.1199 15.4664 0.3886 6.5255 32.2328
#
#
#
# Elastic Compliance Matrix: (Units=1/GPa)
#
#
# Indices 1 2 3 4 5 6 
#
# 1 0.023208 0.006515 -0.016483 -0.005774 0.001824 0.009247
# 2 0.006515 0.022691 -0.005996 -0.009134 0.003378 0.008019
# 3 -0.016483 -0.005996 0.031632 0.004176 -0.012438 -0.014219
# 4 -0.005774 -0.009134 0.004176 0.043103 -0.014748 -0.001838
# 5 0.001824 0.003378 -0.012438 -0.014748 0.033874 0.000139
# 6 0.009247 0.008019 -0.014219 -0.001838 0.000139 0.039859
#
#
# Mechanical properties :
#
#
# Convention : Reuss Voigt Hill
#
# Bulk Modulus (GPa) = 21.92839 30.61299 26.27069
# Shear Modulus (GPa) = 20.70412 32.96211 26.83311
#
# Velocity S-wave (km/s) = 3.06944 3.87292 3.49435
# Velocity P-wave (km/s) = 4.74769 5.82494 5.31369
#
# Compressibility (1/GPa) = 0.04560298
#
# Stress axis : x y z
#
# Youngs Moduli (GPa) = 43.08807 44.06974 31.61344
#
# Poissons Ratio (x) = -0.28710 0.52108
# Poissons Ratio (y) = -0.28070 0.18956
# Poissons Ratio (z) = 0.71021 0.26425
#
# Static dielectric constant tensor:
#      x y z
#    x 1.832010 0.030010 0.044860 
#    y 0.030010 1.852110 -0.058890 
#    z 0.044860 -0.058890 1.956010 
# 
# From -- ./inp_files/464850.got.cif
#   From: 2010.05.17/outbox.cif.g08.bks.cpg/sg2_233_cif.got.tgz:464850.got - 2010.06.03 11:33:40.
