data_PCOD9090536
_publ_section_title
;
Structure prediction by ZEFSAII (Michael W. Deem and Ramdas Pophale) SiO2 
 PCOD9090536
Probable space group: P -1
;
_chemical_formula_sum "Si O2"
_cell_formula_units_Z 15
_cell_length_a 11.096575
_cell_length_b 8.809948
_cell_length_c 8.062336
_cell_angle_alpha 115.074483
_cell_angle_beta 68.264789
_cell_angle_gamma 72.931155
_cell_volume 560.091855
_symmetry_space_group_name_H-M "P -1"
_symmetry_group_IT_number 2
_symmetry_cell_setting 'triclinic'
loop_
_space_group_symop_operation_xyz
x,y,z
-x,-y,-z
loop_
_atom_site_type_symbol
_atom_site_label
_atom_site_fract_x
_atom_site_fract_y
_atom_site_fract_z
Si Si1 0.091727 0.086829 0.200170
Si Si2 0.691551 0.240743 0.316369
Si Si3 0.000000 0.000000 0.500000
Si Si4 0.886217 0.440607 0.273197
Si Si5 0.833158 0.415273 0.932174
Si Si6 0.303772 0.118841 0.323096
Si Si7 0.614777 0.760865 0.009525
Si Si8 0.511602 0.467714 0.216499
O O1 0.979163 0.030359 0.315167
O O2 0.202462 0.026447 0.279931
O O3 0.011697 0.312749 0.289513
O O4 0.182616 0.960948 0.933593
O O5 0.767163 0.372524 0.339789
O O6 0.551579 0.330137 0.296377
O O7 0.603588 0.302620 0.566051
O O8 0.918726 0.240787 0.677007
O O9 0.801866 0.675338 0.437414
O O10 0.928341 0.384250 0.034752
O O11 0.760547 0.632875 0.991555
O O12 0.678305 0.422803 0.067026
O O13 0.339918 0.172607 0.149132
O O14 0.464776 0.958366 0.247741
O O15 0.557815 0.615235 0.914956
#
# Coordination Sequence:
#
# PCOD9090536 Si02
#       8
#     2   2   1   2   2   2   2   2
#     4  12  24  44  69 100 131 178 220 272 336 399
#     4  10  20  38  68 100 125 171 223 270 326 383
#     4  12  24  42  66  98 138 160 224 272 336 384
#     4  11  23  43  66  95 137 176 220 265 332 399
#     4  11  25  40  67 103 133 176 217 278 329 393
#     4  11  24  43  67  93 133 182 221 268 333 398
#     4  11  22  41  66  97 136 174 222 273 334 388
#     4  10  19  38  67 100 133 164 222 277 326 386
#
# _framework density 26.781320999999998
#
# number of rings (size 3 to 8) (size 9 to 14) (size 15 to 20)
#    0.000    1.067    5.333    2.000    0.000    0.533 
#    0.000    2.667    0.000    0.000    0.000    0.000 
#    0.000    0.000    0.000    0.000    0.000    0.000 
#
# Total GULP energy -83657.422164 kJ/mol
# GULP energy per Si atom -5577.161478 kJ/mol
# Density = 2.672037 g / cm^3
# Si number density = 26.781321 Si / 1000 Ang^3
#
#
#
# Elastic Constant Matrix: (Units=GPa)
#
#
# Indices 1 2 3 4 5 6 
#
# 1 54.1602 2.0254 9.0160 -1.4970 1.6181 -8.0623
# 2 2.0254 91.7785 35.1530 20.2320 -1.1549 -36.1450
# 3 9.0160 35.1530 195.6263 36.0312 2.7885 -4.7538
# 4 -1.4970 20.2320 36.0312 34.8552 5.0542 -6.0217
# 5 1.6181 -1.1549 2.7885 5.0542 32.6272 1.0639
# 6 -8.0623 -36.1450 -4.7538 -6.0217 1.0639 31.7250
#
#
#
# Elastic Compliance Matrix: (Units=1/GPa)
#
#
# Indices 1 2 3 4 5 6 
#
# 1 0.020087 0.003183 -0.001732 0.002568 -0.001427 0.009007
# 2 0.003183 0.023431 -0.002543 -0.006523 0.001056 0.025850
# 3 -0.001732 -0.002543 0.006698 -0.006205 0.000500 -0.003528
# 4 0.002568 -0.006523 -0.006205 0.039883 -0.006008 0.000063
# 5 -0.001427 0.001056 0.000500 -0.006008 0.031687 -0.001287
# 6 0.009007 0.025850 -0.003528 0.000063 -0.001287 0.062788
#
#
# Mechanical properties :
#
#
# Convention : Reuss Voigt Hill
#
# Bulk Modulus (GPa) = 20.81815 48.21711 34.51763
# Shear Modulus (GPa) = 24.65860 39.53286 32.09573
#
# Velocity S-wave (km/s) = 3.03766 3.84622 3.46560
# Velocity P-wave (km/s) = 4.48257 6.14554 5.37871
#
# Compressibility (1/GPa) = 0.04803501
#
# Stress axis : x y z
#
# Youngs Moduli (GPa) = 49.78248 42.67825 149.28751
#
# Poissons Ratio (x) = -0.13585 0.25850
# Poissons Ratio (y) = -0.15847 0.37959
# Poissons Ratio (z) = 0.08620 0.10852
#
# Static dielectric constant tensor:
#      x y z
#    x 1.694240 -0.233520 0.237110 
#    y -0.233520 2.037780 0.146060 
#    z 0.237110 0.146060 1.898220 
# 
# From -- ./inp_files/245418.got.cif
#   From: 2010.05.17/outbox.cif.g08.bks.cpg/sg2_123_cif.got.tgz:245418.got - 2010.06.03 11:33:40.
