data_PCOD9090443
_publ_section_title
;
Structure prediction by ZEFSAII (Michael W. Deem and Ramdas Pophale) SiO2 
 PCOD9090443
Probable space group: P -1
;
_chemical_formula_sum "Si O2"
_cell_formula_units_Z 16
_cell_length_a 12.663127
_cell_length_b 17.547632
_cell_length_c 7.025743
_cell_angle_alpha 70.494937
_cell_angle_beta 103.762198
_cell_angle_gamma 153.089038
_cell_volume 659.461801
_symmetry_space_group_name_H-M "P -1"
_symmetry_group_IT_number 2
_symmetry_cell_setting 'triclinic'
loop_
_space_group_symop_operation_xyz
x,y,z
-x,-y,-z
loop_
_atom_site_type_symbol
_atom_site_label
_atom_site_fract_x
_atom_site_fract_y
_atom_site_fract_z
Si Si1 0.413245 0.643103 0.191174
Si Si2 0.874847 0.232193 0.897743
Si Si3 0.515429 0.880682 0.515279
Si Si4 0.284417 0.407497 0.895805
Si Si5 0.413165 0.824179 0.067608
Si Si6 0.887966 0.268401 0.432512
Si Si7 0.603622 0.754012 0.590618
Si Si8 0.800536 0.816805 0.974235
O O1 0.403470 0.730155 0.054333
O O2 0.590599 0.756469 0.356217
O O3 0.545194 0.677303 0.060509
O O4 0.146435 0.445434 0.302459
O O5 0.811085 0.265806 0.972913
O O6 0.937697 0.299261 0.655454
O O7 0.080835 0.315049 0.005939
O O8 0.642364 0.025298 0.941055
O O9 0.439740 0.833555 0.300234
O O10 0.298882 0.779396 0.623434
O O11 0.568092 0.819799 0.613441
O O12 0.738063 0.088507 0.464586
O O13 0.396558 0.551596 0.700619
O O14 0.153417 0.244256 0.885772
O O15 0.500000 0.500000 0.000000
O O16 0.802887 0.839312 0.729968
O O17 0.000000 0.000000 0.000000
#
# Coordination Sequence:
#
# PCOD9090443 Si02
#       8
#     2   2   2   2   2   2   2   2
#     4  11  23  42  67 101 125 170 220 269 328 392
#     4  10  19  38  66  89 127 172 204 267 333 383
#     4   9  21  38  62  96 132 165 208 263 338 391
#     4  10  22  40  62  90 127 173 219 266 315 382
#     4   9  21  36  64  98 125 163 216 260 336 400
#     4  10  21  38  65  95 132 165 211 269 325 399
#     4  10  23  42  65  96 127 173 213 273 323 384
#     4  11  26  44  66  94 132 175 222 274 321 384
#
# _framework density 24.262208000000001
#
# number of rings (size 3 to 8) (size 9 to 14) (size 15 to 20)
#    0.000    2.000    1.250    0.750    5.250    4.500 
#    0.000    3.125    0.000    0.000    0.000    0.000 
#    0.000    0.000    0.000    0.000    0.000    0.000 
#
# Total GULP energy -89280.571899 kJ/mol
# GULP energy per Si atom -5580.035744 kJ/mol
# Density = 2.420699 g / cm^3
# Si number density = 24.262208 Si / 1000 Ang^3
#
#
#
# Elastic Constant Matrix: (Units=GPa)
#
#
# Indices 1 2 3 4 5 6 
#
# 1 79.1222 -26.9157 32.2965 16.9384 24.1125 9.4308
# 2 -26.9157 44.2215 6.7019 24.9741 13.0180 19.3884
# 3 32.2965 6.7019 67.1773 -2.4362 2.9666 -1.4189
# 4 16.9384 24.9741 -2.4362 14.9010 -11.7817 -3.2555
# 5 24.1125 13.0180 2.9666 -11.7817 41.9344 -9.4248
# 6 9.4308 19.3884 -1.4189 -3.2555 -9.4248 43.4731
#
#
#
# Elastic Compliance Matrix: (Units=1/GPa)
#
#
# Indices 1 2 3 4 5 6 
#
# 1 0.004792 -0.008801 -0.001028 0.014372 0.005225 0.005061
# 2 -0.008801 0.001446 0.004372 0.017568 0.010355 0.004968
# 3 -0.001028 0.004372 0.014798 -0.008115 -0.004740 -0.002879
# 4 0.014372 0.017568 -0.008115 0.005199 -0.014840 -0.014046
# 5 0.005225 0.010355 -0.004740 -0.014840 0.012842 -0.004233
# 6 0.005061 0.004968 -0.002879 -0.014046 -0.004233 0.017626
#
#
# Mechanical properties :
#
#
# Convention : Reuss Voigt Hill
#
# Bulk Modulus (GPa) = 98.80469 23.85405 61.32937
# Shear Modulus (GPa) = 70.42880 31.95759 51.19319
#
# Velocity S-wave (km/s) = 5.39363 3.63323 4.59845
# Velocity P-wave (km/s) = 8.92190 5.23962 7.31621
#
# Compressibility (1/GPa) = 0.01012098
#
# Stress axis : x y z
#
# Youngs Moduli (GPa) = 208.67622 691.49674 67.57454
#
# Poissons Ratio (x) = 6.08603 0.06950
# Poissons Ratio (y) = 1.83661 -0.29542
# Poissons Ratio (z) = 0.21461 -3.02310
#
# Static dielectric constant tensor:
#      x y z
#    x 1.996020 -0.003840 0.046640 
#    y -0.003840 2.002680 0.013660 
#    z 0.046640 0.013660 1.974140 
# 
# From -- ./inp_files/277621.got.cif
#   From: 2010.05.17/outbox.cif.g08.bks.cpg/sg2_139_cif.got.tgz:277621.got - 2010.06.03 11:33:40.
