data_PCOD9090453
_publ_section_title
;
Structure prediction by ZEFSAII (Michael W. Deem and Ramdas Pophale) SiO2 
 PCOD9090453
Probable space group: P -1
;
_chemical_formula_sum "Si O2"
_cell_formula_units_Z 16
_cell_length_a 15.663861
_cell_length_b 24.346742
_cell_length_c 14.046270
_cell_angle_alpha 158.480039
_cell_angle_beta 150.837177
_cell_angle_gamma 20.346297
_cell_volume 683.192899
_symmetry_space_group_name_H-M "P -1"
_symmetry_group_IT_number 2
_symmetry_cell_setting 'triclinic'
loop_
_space_group_symop_operation_xyz
x,y,z
-x,-y,-z
loop_
_atom_site_type_symbol
_atom_site_label
_atom_site_fract_x
_atom_site_fract_y
_atom_site_fract_z
Si Si1 0.195532 0.772656 0.278829
Si Si2 0.930117 0.276426 0.133438
Si Si3 0.646927 0.170452 0.741511
Si Si4 0.621353 0.726626 0.546578
Si Si5 0.455051 0.916737 0.026148
Si Si6 0.029931 0.287911 0.723123
Si Si7 0.624862 0.571915 0.949505
Si Si8 0.633577 0.494127 0.528826
O O1 0.421680 0.749429 0.444562
O O2 0.248840 0.607196 0.136468
O O3 0.113613 0.751021 0.062994
O O4 0.000000 0.000000 0.500000
O O5 0.869011 0.488474 0.427133
O O6 0.741037 0.284530 0.017908
O O7 0.210459 0.074694 0.105358
O O8 0.450837 0.262987 0.616497
O O9 0.508088 0.216823 0.779643
O O10 0.888366 0.934894 0.562683
O O11 0.587695 0.926185 0.840870
O O12 0.703545 0.802685 0.142273
O O13 0.490338 0.724197 0.719732
O O14 0.835285 0.455972 0.885579
O O15 0.896719 0.388306 0.653963
O O16 0.396531 0.619370 0.757747
O O17 0.500000 0.500000 0.500000
#
# Coordination Sequence:
#
# PCOD9090453 Si02
#       8
#     2   2   2   2   2   2   2   2
#     4  11  19  34  61  90 123 164 203 241 287 361
#     4  11  19  36  58  91 128 160 200 234 295 373
#     4  10  19  38  66  91 118 159 207 245 293 363
#     4  10  20  37  57  92 126 162 194 243 301 358
#     4  11  22  38  63  86 125 164 194 244 315 369
#     4  10  23  41  63  90 121 157 203 261 311 343
#     4  11  20  39  66  89 119 158 209 248 294 358
#     4  10  22  42  64  88 110 156 214 260 303 351
#
# _framework density 23.419445
#
# number of rings (size 3 to 8) (size 9 to 14) (size 15 to 20)
#    0.000    1.500    2.500    6.000    0.000    0.500 
#    0.000    8.125    0.000   13.500    0.000    0.000 
#    0.000    0.000    0.000    0.000    0.000    0.000 
#
# Total GULP energy -89195.619694 kJ/mol
# GULP energy per Si atom -5574.726231 kJ/mol
# Density = 2.336614 g / cm^3
# Si number density = 23.419445 Si / 1000 Ang^3
#
#
#
# Elastic Constant Matrix: (Units=GPa)
#
#
# Indices 1 2 3 4 5 6 
#
# 1 42.2515 25.5828 30.7377 -7.2864 -19.7028 -6.6046
# 2 25.5828 78.8706 -11.6340 0.6622 -7.5143 -18.0704
# 3 30.7377 -11.6340 21.5740 12.1424 12.3902 -2.3215
# 4 -7.2864 0.6622 12.1424 26.7631 3.0791 -0.4645
# 5 -19.7028 -7.5143 12.3902 3.0791 43.6587 1.7337
# 6 -6.6046 -18.0704 -2.3215 -0.4645 1.7337 31.0252
#
#
#
# Elastic Compliance Matrix: (Units=1/GPa)
#
#
# Indices 1 2 3 4 5 6 
#
# 1 -0.007681 0.007074 0.028761 -0.014123 -0.009612 0.004963
# 2 0.007074 0.010950 -0.011141 0.005957 0.007552 0.006717
# 3 0.028761 -0.011141 -0.017650 0.014330 0.015153 -0.002319
# 4 -0.014123 0.005957 0.014330 0.028240 -0.011510 0.002602
# 5 -0.009612 0.007552 0.015153 -0.011510 0.016283 0.002404
# 6 0.004963 0.006717 -0.002319 0.002602 0.002404 0.036932
#
#
# Mechanical properties :
#
#
# Convention : Reuss Voigt Hill
#
# Bulk Modulus (GPa) = 28.56619 25.78545 27.17582
# Shear Modulus (GPa) = 170.33558 26.82337 98.57948
#
# Velocity S-wave (km/s) = 8.53759 3.38797 6.49495
# Velocity P-wave (km/s) = 10.45999 5.13212 8.23863
#
# Compressibility (1/GPa) = 0.03500642
#
# Stress axis : x y z
#
# Youngs Moduli (GPa) = -130.19535 91.32700 -56.65564
#
# Poissons Ratio (x) = -0.64601 1.62947
# Poissons Ratio (y) = 0.92095 -0.63118
# Poissons Ratio (z) = 3.74454 1.01744
#
# Static dielectric constant tensor:
#      x y z
#    x 1.894430 -0.025370 0.022850 
#    y -0.025370 1.924650 0.036340 
#    z 0.022850 0.036340 1.977680 
# 
# From -- ./inp_files/539411.got.cif
#   From: 2010.05.17/outbox.cif.g08.bks.cpg/sg2_270_cif.got.tgz:539411.got - 2010.06.03 11:33:40.
