data_PCOD9090478
_publ_section_title
;
Structure prediction by ZEFSAII (Michael W. Deem and Ramdas Pophale) SiO2 
 PCOD9090478
Probable space group: P -1
;
_chemical_formula_sum "Si O2"
_cell_formula_units_Z 16
_cell_length_a 14.207565
_cell_length_b 8.984535
_cell_length_c 12.171982
_cell_angle_alpha 33.334769
_cell_angle_beta 42.777668
_cell_angle_gamma 52.051349
_cell_volume 579.872282
_symmetry_space_group_name_H-M "P -1"
_symmetry_group_IT_number 2
_symmetry_cell_setting 'triclinic'
loop_
_space_group_symop_operation_xyz
x,y,z
-x,-y,-z
loop_
_atom_site_type_symbol
_atom_site_label
_atom_site_fract_x
_atom_site_fract_y
_atom_site_fract_z
Si Si1 0.875213 0.867411 0.481308
Si Si2 0.150628 0.778342 0.154376
Si Si3 0.052110 0.287764 0.179100
Si Si4 0.635851 0.040932 0.522690
Si Si5 0.564534 0.444142 0.618239
Si Si6 0.504662 0.433989 0.167127
Si Si7 0.321691 0.190178 0.871619
Si Si8 0.818728 0.284965 0.060124
O O1 0.844752 0.544560 0.669125
O O2 0.705475 0.903069 0.650979
O O3 0.024282 0.867538 0.282190
O O4 0.945144 0.043449 0.414092
O O5 0.136949 0.887506 0.974694
O O6 0.286632 0.924840 0.995135
O O7 0.207287 0.215402 0.048898
O O8 0.077286 0.476042 0.148237
O O9 0.000000 0.500000 0.000000
O O10 0.578714 0.846123 0.600557
O O11 0.537536 0.290099 0.468275
O O12 0.796112 0.107892 0.301057
O O13 0.575560 0.413758 0.758216
O O14 0.470288 0.213608 0.788138
O O15 0.686211 0.554514 0.366711
O O16 0.660945 0.375893 0.111883
O O17 0.500000 0.500000 0.000000
#
# Coordination Sequence:
#
# PCOD9090478 Si02
#       8
#     2   2   2   2   2   2   2   2
#     4  10  22  39  61  90 129 169 208 262 324 385
#     4  10  22  38  59  93 127 171 203 265 328 382
#     4  11  20  40  66  96 125 165 218 272 316 383
#     4  11  20  37  63  92 125 160 223 259 316 387
#     4  10  20  37  65  99 119 176 215 266 325 375
#     4  11  22  37  61  95 131 167 210 264 325 387
#     4  10  19  38  66  92 135 162 214 273 320 377
#     4  11  21  39  64  92 123 167 222 262 323 374
#
# _framework density 27.592285
#
# number of rings (size 3 to 8) (size 9 to 14) (size 15 to 20)
#    0.000    1.500    3.750    3.750    0.000    1.000 
#    2.250    0.000    0.000    9.000    3.250    0.000 
#    0.000    0.000    0.000    0.000    0.000    0.000 
#
# Total GULP energy -89149.525330 kJ/mol
# GULP energy per Si atom -5571.845333 kJ/mol
# Density = 2.752948 g / cm^3
# Si number density = 27.592285 Si / 1000 Ang^3
#
#
#
# Elastic Constant Matrix: (Units=GPa)
#
#
# Indices 1 2 3 4 5 6 
#
# 1 148.1585 40.0946 41.9431 -21.6711 -21.1490 42.5264
# 2 40.0946 85.9164 1.4049 -12.2776 -8.7886 37.1101
# 3 41.9431 1.4049 104.7102 -29.5228 -14.1420 28.8185
# 4 -21.6711 -12.2776 -29.5228 39.7659 12.9717 -10.7505
# 5 -21.1490 -8.7886 -14.1420 12.9717 42.6993 -9.8342
# 6 42.5264 37.1101 28.8185 -10.7505 -9.8342 65.5471
#
#
#
# Elastic Compliance Matrix: (Units=1/GPa)
#
#
# Indices 1 2 3 4 5 6 
#
# 1 0.009507 -0.002658 -0.002301 0.001035 0.002365 -0.003127
# 2 -0.002658 0.017675 0.004901 0.004983 0.000223 -0.009586
# 3 -0.002301 0.004901 0.014836 0.009443 0.000490 -0.006183
# 4 0.001035 0.004983 0.009443 0.035730 -0.006836 -0.002810
# 5 0.002365 0.000223 0.000490 -0.006836 0.027123 0.001072
# 6 -0.003127 -0.009586 -0.006183 -0.002810 0.001072 0.025130
#
#
# Mechanical properties :
#
#
# Convention : Reuss Voigt Hill
#
# Bulk Modulus (GPa) = 23.86516 56.18558 40.02537
# Shear Modulus (GPa) = 34.70171 46.62529 40.66350
#
# Velocity S-wave (km/s) = 3.55020 4.11517 3.84308
# Velocity P-wave (km/s) = 5.04710 6.55641 5.85063
#
# Compressibility (1/GPa) = 0.04190209
#
# Stress axis : x y z
#
# Youngs Moduli (GPa) = 105.18872 56.57651 67.40310
#
# Poissons Ratio (x) = 0.15041 0.15506
# Poissons Ratio (y) = 0.27964 -0.33035
# Poissons Ratio (z) = 0.24199 -0.27728
#
# Static dielectric constant tensor:
#      x y z
#    x 2.218740 -0.039820 0.155250 
#    y -0.039820 2.106930 0.027100 
#    z 0.155250 0.027100 2.495500 
# 
# From -- ./inp_files/446603.got.cif
#   From: 2010.05.17/outbox.cif.g08.bks.cpg/sg2_224_cif.got.tgz:446603.got - 2010.06.03 11:33:40.
