data_PCOD9090654
_publ_section_title
;
Structure prediction by ZEFSAII (Michael W. Deem and Ramdas Pophale) SiO2 
 PCOD9090654
Probable space group: P -1
;
_chemical_formula_sum "Si O2"
_cell_formula_units_Z 14
_cell_length_a 13.113661
_cell_length_b 8.555105
_cell_length_c 7.329863
_cell_angle_alpha 102.777429
_cell_angle_beta 63.902009
_cell_angle_gamma 122.476036
_cell_volume 622.875887
_symmetry_space_group_name_H-M "P -1"
_symmetry_group_IT_number 2
_symmetry_cell_setting 'triclinic'
loop_
_space_group_symop_operation_xyz
x,y,z
-x,-y,-z
loop_
_atom_site_type_symbol
_atom_site_label
_atom_site_fract_x
_atom_site_fract_y
_atom_site_fract_z
Si Si1 0.854024 0.207809 0.445513
Si Si2 0.302817 0.222599 0.460503
Si Si3 0.690844 0.502099 0.247069
Si Si4 0.921808 0.783118 0.562083
Si Si5 0.512092 0.328454 0.017320
Si Si6 0.593491 0.202272 0.567084
Si Si7 0.947719 0.783910 0.947497
O O1 0.735174 0.244954 0.545284
O O2 0.968540 0.281386 0.531218
O O3 0.934103 0.253106 0.204569
O O4 0.784333 0.985410 0.457946
O O5 0.362151 0.356581 0.622235
O O6 0.210882 0.296971 0.466038
O O7 0.394978 0.222603 0.228496
O O8 0.637815 0.404393 0.069224
O O9 0.633167 0.345323 0.405693
O O10 0.846682 0.639295 0.131401
O O11 0.878459 0.758876 0.799898
O O12 0.000000 0.000000 0.500000
O O13 0.500000 0.500000 0.000000
O O14 0.519927 0.224978 0.805614
O O15 0.500000 0.000000 0.500000
O O16 0.000000 0.000000 0.000000
#
# Coordination Sequence:
#
# PCOD9090654 Si02
#       7
#     2   2   2   2   2   2   2
#     4   9  22  40  69 102 146 181 235 299 353 426
#     4  11  20  42  74 104 139 187 243 297 349 421
#     4  12  25  44  73 107 144 187 245 294 360 431
#     4   8  17  36  64 102 137 182 229 289 347 418
#     4  12  27  45  75 105 138 192 249 297 352 436
#     4  12  29  49  70 106 150 193 236 302 370 420
#     4  10  19  38  69 105 142 179 240 290 352 425
#
# _framework density 22.476386999999999
#
# number of rings (size 3 to 8) (size 9 to 14) (size 15 to 20)
#    0.857    0.571    2.857    2.143    2.000    4.000 
#    0.000    5.714    0.000    0.000    0.000    0.000 
#    0.000    0.000    0.000    0.000    0.000    0.000 
#
# Total GULP energy -77998.184147 kJ/mol
# GULP energy per Si atom -5571.298868 kJ/mol
# Density = 2.242523 g / cm^3
# Si number density = 22.476387 Si / 1000 Ang^3
#
#
#
# Elastic Constant Matrix: (Units=GPa)
#
#
# Indices 1 2 3 4 5 6 
#
# 1 65.8388 2.4831 23.1280 3.4867 -11.9575 -1.2017
# 2 2.4831 83.1456 56.3868 -14.9877 2.8743 10.1504
# 3 23.1280 56.3868 183.6649 -9.2823 -2.8780 12.7231
# 4 3.4867 -14.9877 -9.2823 42.4498 7.0156 -1.0282
# 5 -11.9575 2.8743 -2.8780 7.0156 39.3994 -4.6807
# 6 -1.2017 10.1504 12.7231 -1.0282 -4.6807 25.1351
#
#
#
# Elastic Compliance Matrix: (Units=1/GPa)
#
#
# Indices 1 2 3 4 5 6 
#
# 1 0.017338 0.000063 -0.002464 -0.002850 0.005946 0.003042
# 2 0.000063 0.016802 -0.004614 0.005308 -0.003059 -0.004800
# 3 -0.002464 -0.004614 0.007314 0.000148 -0.000138 -0.001976
# 4 -0.002850 0.005308 0.000148 0.026677 -0.006281 -0.002433
# 5 0.005946 -0.003059 -0.000138 -0.006281 0.029324 0.006793
# 6 0.003042 -0.004800 -0.001976 -0.002433 0.006793 0.044035
#
#
# Mechanical properties :
#
#
# Convention : Reuss Voigt Hill
#
# Bulk Modulus (GPa) = 36.46400 55.18278 45.82339
# Shear Modulus (GPa) = 30.36533 38.10694 34.23614
#
# Velocity S-wave (km/s) = 3.67957 4.12202 3.90706
# Velocity P-wave (km/s) = 5.85754 6.87455 6.38632
#
# Compressibility (1/GPa) = 0.02742431
#
# Stress axis : x y z
#
# Youngs Moduli (GPa) = 57.67592 59.51498 136.73097
#
# Poissons Ratio (x) = -0.00373 0.33692
# Poissons Ratio (y) = -0.00362 0.63082
# Poissons Ratio (z) = 0.14212 0.27458
#
# Static dielectric constant tensor:
#      x y z
#    x 1.946400 0.044450 -0.035320 
#    y 0.044450 1.848800 0.020100 
#    z -0.035320 0.020100 1.837100 
# 
# From -- ./inp_files/292906.got.cif
#   From: 2010.05.17/outbox.cif.g08.bks.cpg/sg2_147_cif.got.tgz:292906.got - 2010.06.03 11:33:40.
