data_PCOD9090650
_publ_section_title
;
Structure prediction by ZEFSAII (Michael W. Deem and Ramdas Pophale) SiO2 
 PCOD9090650
Probable space group: P -1
;
_chemical_formula_sum "Si O2"
_cell_formula_units_Z 12
_cell_length_a 8.429704
_cell_length_b 13.748364
_cell_length_c 8.363625
_cell_angle_alpha 46.226601
_cell_angle_beta 63.730600
_cell_angle_gamma 51.017221
_cell_volume 544.019900
_symmetry_space_group_name_H-M "P -1"
_symmetry_group_IT_number 2
_symmetry_cell_setting 'triclinic'
loop_
_space_group_symop_operation_xyz
x,y,z
-x,-y,-z
loop_
_atom_site_type_symbol
_atom_site_label
_atom_site_fract_x
_atom_site_fract_y
_atom_site_fract_z
Si Si1 0.357651 0.607740 0.295207
Si Si2 0.104298 0.270211 0.746344
Si Si3 0.601014 0.641173 0.675048
Si Si4 0.080136 0.580419 0.993732
Si Si5 0.176800 0.838410 0.544994
Si Si6 0.779980 0.072627 0.932208
O O1 0.500000 0.500000 0.500000
O O2 0.429294 0.489080 0.252636
O O3 0.369313 0.765725 0.094892
O O4 0.109126 0.671174 0.325451
O O5 0.244231 0.328641 0.534428
O O6 0.042048 0.338265 0.877782
O O7 0.237247 0.081596 0.902260
O O8 0.711531 0.565177 0.873456
O O9 0.379621 0.789137 0.612826
O O10 0.110059 0.710317 0.744247
O O11 0.000000 0.500000 0.000000
O O12 0.219530 0.860417 0.318707
O O13 0.000000 0.000000 0.500000
O O14 0.000000 0.000000 0.000000
#
# Coordination Sequence:
#
# PCOD9090650 Si02
#       6
#     2   2   2   2   2   2
#     4  10  19  38  69 100 122 171 226 273 320 388
#     4  10  23  44  66 101 137 171 230 273 330 403
#     4  11  25  44  69 101 134 177 228 279 324 409
#     4  11  25  44  69  99 138 179 219 283 338 395
#     4  12  25  47  66  95 141 179 220 278 346 392
#     4  10  22  41  69  96 132 176 219 272 331 404
#
# _framework density 22.058017
#
# number of rings (size 3 to 8) (size 9 to 14) (size 15 to 20)
#    0.000    1.333    3.333    2.500    7.000    0.667 
#    0.000    0.833    0.000    0.000    0.000    0.000 
#    0.000    0.000    0.000    0.000    0.000    0.000 
#
# Total GULP energy -66985.602463 kJ/mol
# GULP energy per Si atom -5582.133539 kJ/mol
# Density = 2.200781 g / cm^3
# Si number density = 22.058017 Si / 1000 Ang^3
#
#
#
# Elastic Constant Matrix: (Units=GPa)
#
#
# Indices 1 2 3 4 5 6 
#
# 1 132.7471 61.6174 67.9908 -13.1049 20.5313 13.7360
# 2 61.6174 110.1901 47.2242 -36.2682 -4.1327 -9.3445
# 3 67.9908 47.2242 156.8428 -31.1581 -11.2606 5.6327
# 4 -13.1049 -36.2682 -31.1581 36.2380 -7.7515 5.1804
# 5 20.5313 -4.1327 -11.2606 -7.7515 49.6189 -0.9499
# 6 13.7360 -9.3445 5.6327 5.1804 -0.9499 32.8405
#
#
#
# Elastic Compliance Matrix: (Units=1/GPa)
#
#
# Indices 1 2 3 4 5 6 
#
# 1 0.019509 -0.013741 -0.008013 -0.015252 -0.013585 -0.008683
# 2 -0.013741 0.024165 0.004089 0.024210 0.012570 0.008467
# 3 -0.008013 0.004089 0.011782 0.013019 0.008377 0.000683
# 4 -0.015252 0.024210 0.013019 0.061714 0.020959 0.001906
# 5 -0.013585 0.012570 0.008377 0.020959 0.032101 0.005444
# 6 -0.008683 0.008467 0.000683 0.001906 0.005444 0.036230
#
#
# Mechanical properties :
#
#
# Convention : Reuss Voigt Hill
#
# Bulk Modulus (GPa) = 49.69059 83.71609 66.70334
# Shear Modulus (GPa) = 21.97411 38.60268 30.28839
#
# Velocity S-wave (km/s) = 3.15968 4.18790 3.70959
# Velocity P-wave (km/s) = 5.99062 7.83708 6.97522
#
# Compressibility (1/GPa) = 0.02012453
#
# Stress axis : x y z
#
# Youngs Moduli (GPa) = 51.25729 41.38280 84.87816
#
# Poissons Ratio (x) = 0.56864 0.68016
# Poissons Ratio (y) = 0.70433 -0.34705
# Poissons Ratio (z) = 0.41074 -0.16921
#
# Static dielectric constant tensor:
#      x y z
#    x 2.034080 0.112750 0.116960 
#    y 0.112750 1.983210 0.066480 
#    z 0.116960 0.066480 1.881420 
# 
# From -- ./inp_files/198898.got.cif
#   From: 2010.05.17/outbox.cif.g08.bks.cpg/sg2_100_cif.got.tgz:198898.got - 2010.06.03 11:33:40.
