data_PCOD9090667
_publ_section_title
;
Structure prediction by ZEFSAII (Michael W. Deem and Ramdas Pophale) SiO2 
 PCOD9090667
Probable space group: P -1
;
_chemical_formula_sum "Si O2"
_cell_formula_units_Z 16
_cell_length_a 22.545288
_cell_length_b 14.073024
_cell_length_c 14.407866
_cell_angle_alpha 149.425180
_cell_angle_beta 156.740175
_cell_angle_gamma 20.168692
_cell_volume 622.381401
_symmetry_space_group_name_H-M "P -1"
_symmetry_group_IT_number 2
_symmetry_cell_setting 'triclinic'
loop_
_space_group_symop_operation_xyz
x,y,z
-x,-y,-z
loop_
_atom_site_type_symbol
_atom_site_label
_atom_site_fract_x
_atom_site_fract_y
_atom_site_fract_z
Si Si1 0.355637 0.367410 0.446308
Si Si2 0.921619 0.876092 0.323638
Si Si3 0.547653 0.141273 0.877488
Si Si4 0.115986 0.516733 0.475425
Si Si5 0.705203 0.676923 0.024731
Si Si6 0.118086 0.860813 0.147570
Si Si7 0.470796 0.364061 0.420105
Si Si8 0.731884 0.019490 0.839503
O O1 0.098969 0.576754 0.276996
O O2 0.454265 0.081841 0.313163
O O3 0.380185 0.483425 0.492313
O O4 0.509394 0.283205 0.684298
O O5 0.990784 0.776603 0.445802
O O6 0.000000 0.000000 0.500000
O O7 0.673837 0.077678 0.099528
O O8 0.298890 0.429692 0.734825
O O9 0.689926 0.074209 0.934833
O O10 0.914020 0.592461 0.293961
O O11 0.229647 0.237176 0.346341
O O12 0.716823 0.465427 0.910445
O O13 0.697963 0.626449 0.861945
O O14 0.500000 0.000000 0.000000
O O15 0.265564 0.909304 0.420224
O O16 0.000000 0.000000 0.000000
O O17 0.940372 0.946941 0.039348
O O18 0.500000 0.500000 0.500000
#
# Coordination Sequence:
#
# PCOD9090667 Si02
#       8
#     2   2   2   2   2   2   2   2
#     4  11  20  40  66  91 126 168 225 267 311 389
#     4  12  26  38  59  97 136 169 208 270 334 383
#     4  11  22  40  70  91 122 174 220 264 318 384
#     4  10  21  43  63  94 126 167 219 263 319 395
#     4  10  23  42  64  91 130 169 216 271 328 386
#     4  10  20  38  64  93 128 167 217 270 316 389
#     4  10  22  37  63  94 124 170 224 261 325 385
#     4  10  19  38  69  93 122 168 222 269 309 378
#
# _framework density 25.707711
#
# number of rings (size 3 to 8) (size 9 to 14) (size 15 to 20)
#    0.000    1.500    3.750    1.875    5.250    2.500 
#    0.000    0.625    0.000    0.000    0.000    0.000 
#    0.000    0.000    0.000    0.000    0.000    0.000 
#
# Total GULP energy -89236.171029 kJ/mol
# GULP energy per Si atom -5577.260689 kJ/mol
# Density = 2.564920 g / cm^3
# Si number density = 25.707711 Si / 1000 Ang^3
#
#
#
# Elastic Constant Matrix: (Units=GPa)
#
#
# Indices 1 2 3 4 5 6 
#
# 1 68.3452 23.2310 14.8839 -6.8845 5.7190 20.1659
# 2 23.2310 102.0124 33.1815 -23.5884 -25.3763 18.7133
# 3 14.8839 33.1815 127.2592 -42.7834 -5.4022 2.1988
# 4 -6.8845 -23.5884 -42.7834 43.6460 10.5292 -2.6598
# 5 5.7190 -25.3763 -5.4022 10.5292 37.6663 -11.6514
# 6 20.1659 18.7133 2.1988 -2.6598 -11.6514 32.6294
#
#
#
# Elastic Compliance Matrix: (Units=1/GPa)
#
#
# Indices 1 2 3 4 5 6 
#
# 1 0.021907 -0.004338 -0.000981 0.002032 -0.011584 -0.014956
# 2 -0.004338 0.014715 -0.001834 0.003233 0.008706 -0.002263
# 3 -0.000981 -0.001834 0.012163 0.011371 -0.002220 0.000973
# 4 0.002032 0.003233 0.011371 0.037888 -0.008245 -0.003732
# 5 -0.011584 0.008706 -0.002220 -0.008245 0.041221 0.016363
# 6 -0.014956 -0.002263 0.000973 -0.003732 0.016363 0.046661
#
#
# Mechanical properties :
#
#
# Convention : Reuss Voigt Hill
#
# Bulk Modulus (GPa) = 29.00321 48.91216 38.95768
# Shear Modulus (GPa) = 24.95597 37.87639 31.41618
#
# Velocity S-wave (km/s) = 3.11908 3.84258 3.49958
# Velocity P-wave (km/s) = 4.92726 6.22534 5.61395
#
# Compressibility (1/GPa) = 0.03447895
#
# Stress axis : x y z
#
# Youngs Moduli (GPa) = 45.64852 67.95639 82.21774
#
# Poissons Ratio (x) = 0.29477 0.08067
# Poissons Ratio (y) = 0.19801 0.15079
# Poissons Ratio (z) = 0.04479 0.12464
#
# Static dielectric constant tensor:
#      x y z
#    x 1.911260 0.064570 0.267000 
#    y 0.064570 2.059250 -0.168870 
#    z 0.267000 -0.168870 1.636300 
# 
# From -- ./inp_files/579897.got.cif
#   From: 2010.05.17/outbox.cif.g08.bks.cpg/sg2_290_cif.got.tgz:579897.got - 2010.06.03 11:33:40.
