data_PCOD9090900
_publ_section_title
;
Structure prediction by ZEFSAII (Michael W. Deem and Ramdas Pophale) SiO2 
 PCOD9090900
Probable space group: P -1
;
_chemical_formula_sum "Si O2"
_cell_formula_units_Z 16
_cell_length_a 8.049153
_cell_length_b 21.208704
_cell_length_c 6.642988
_cell_angle_alpha 86.252263
_cell_angle_beta 59.522018
_cell_angle_gamma 125.551438
_cell_volume 682.170004
_symmetry_space_group_name_H-M "P -1"
_symmetry_group_IT_number 2
_symmetry_cell_setting 'triclinic'
loop_
_space_group_symop_operation_xyz
x,y,z
-x,-y,-z
loop_
_atom_site_type_symbol
_atom_site_label
_atom_site_fract_x
_atom_site_fract_y
_atom_site_fract_z
Si Si1 0.654684 0.763586 0.964279
Si Si2 0.457435 0.925587 0.422086
Si Si3 0.070497 0.853427 0.319420
Si Si4 0.240377 0.128154 0.764554
Si Si5 0.880699 0.413612 0.836125
Si Si6 0.237248 0.473156 0.262712
Si Si7 0.823515 0.327100 0.249641
Si Si8 0.024445 0.250906 0.976759
O O1 0.754602 0.847722 0.011962
O O2 0.347485 0.688695 0.089164
O O3 0.705658 0.718089 0.100289
O O4 0.841866 0.799867 0.645331
O O5 0.706308 0.933731 0.274031
O O6 0.349518 0.913591 0.264846
O O7 0.500000 0.000000 0.500000
O O8 0.214293 0.834248 0.715903
O O9 0.008034 0.899240 0.204746
O O10 0.029563 0.785422 0.207105
O O11 0.518101 0.228404 0.488337
O O12 0.785837 0.460770 0.817898
O O13 0.172318 0.465279 0.541841
O O14 0.845388 0.396658 0.098458
O O15 0.980376 0.373888 0.350291
O O16 0.500000 0.500000 0.000000
O O17 0.000384 0.318878 0.011925
#
# Coordination Sequence:
#
# PCOD9090900 Si02
#       8
#     2   2   2   2   2   2   2   2
#     4  10  19  39  61  88 116 158 207 256 304 364
#     4  10  23  40  61  91 128 161 198 251 311 376
#     4  10  21  39  62  91 121 158 209 255 308 365
#     4  10  21  38  64  90 118 157 210 253 298 368
#     4  11  23  38  64  87 122 165 203 256 322 364
#     4  11  25  42  56  88 129 163 203 257 315 382
#     4  11  21  39  61  87 116 157 208 255 304 364
#     4   9  22  37  62  91 117 157 212 253 302 370
#
# _framework density 23.454564999999999
#
# number of rings (size 3 to 8) (size 9 to 14) (size 15 to 20)
#    0.000    1.750    2.500    1.125    1.750    3.500 
#    0.000    5.625    0.000    0.000    0.000    0.000 
#    0.000    0.000    0.000    0.000    0.000    0.000 
#
# Total GULP energy -89394.131291 kJ/mol
# GULP energy per Si atom -5587.133206 kJ/mol
# Density = 2.340118 g / cm^3
# Si number density = 23.454565 Si / 1000 Ang^3
#
#
#
# Elastic Constant Matrix: (Units=GPa)
#
#
# Indices 1 2 3 4 5 6 
#
# 1 52.1415 21.9620 13.2948 10.2472 -4.3918 -2.0696
# 2 21.9620 66.1525 8.8419 15.4028 8.9684 -7.0997
# 3 13.2948 8.8419 104.3821 17.1982 -3.0587 -3.9949
# 4 10.2472 15.4028 17.1982 41.1545 4.7843 1.4257
# 5 -4.3918 8.9684 -3.0587 4.7843 32.4382 5.5700
# 6 -2.0696 -7.0997 -3.9949 1.4257 5.5700 37.9528
#
#
#
# Elastic Compliance Matrix: (Units=1/GPa)
#
#
# Indices 1 2 3 4 5 6 
#
# 1 0.024017 -0.007984 -0.001775 -0.002898 0.005913 -0.001130
# 2 -0.007984 0.020328 0.000102 -0.005038 -0.006731 0.004555
# 3 -0.001775 0.000102 0.010560 -0.004180 0.001169 0.001019
# 4 -0.002898 -0.005038 -0.004180 0.029113 -0.003319 -0.002147
# 5 0.005913 -0.006731 0.001169 -0.003319 0.035092 -0.005839
# 6 -0.001130 0.004555 0.001019 -0.002147 -0.005839 0.028184
#
#
# Mechanical properties :
#
#
# Convention : Reuss Voigt Hill
#
# Bulk Modulus (GPa) = 28.09742 34.54150 31.31946
# Shear Modulus (GPa) = 28.01577 34.21426 31.11502
#
# Velocity S-wave (km/s) = 3.45986 3.82350 3.64621
# Velocity P-wave (km/s) = 5.28832 5.85245 5.57752
#
# Compressibility (1/GPa) = 0.03559045
#
# Stress axis : x y z
#
# Youngs Moduli (GPa) = 41.63723 49.19309 94.70046
#
# Poissons Ratio (x) = 0.39277 0.16810
# Poissons Ratio (y) = 0.33244 -0.00968
# Poissons Ratio (z) = 0.07391 -0.00503
#
# Static dielectric constant tensor:
#      x y z
#    x 1.941410 -0.008790 -0.014510 
#    y -0.008790 1.888460 -0.006850 
#    z -0.014510 -0.006850 1.942420 
# 
# From -- ./inp_files/53239.got.cif
#   From: 2010.05.17/outbox.cif.g08.bks.cpg/sg2_27_cif.got.tgz:53239.got - 2010.06.03 11:33:40.
