data_PCOD9090484
_publ_section_title
;
Structure prediction by ZEFSAII (Michael W. Deem and Ramdas Pophale) SiO2 
 PCOD9090484
Probable space group: P -1
;
_chemical_formula_sum "Si O2"
_cell_formula_units_Z 15
_cell_length_a 12.075898
_cell_length_b 12.200476
_cell_length_c 8.711155
_cell_angle_alpha 37.383859
_cell_angle_beta 100.431350
_cell_angle_gamma 85.577058
_cell_volume 711.945073
_symmetry_space_group_name_H-M "P -1"
_symmetry_group_IT_number 2
_symmetry_cell_setting 'triclinic'
loop_
_space_group_symop_operation_xyz
x,y,z
-x,-y,-z
loop_
_atom_site_type_symbol
_atom_site_label
_atom_site_fract_x
_atom_site_fract_y
_atom_site_fract_z
Si Si1 0.983527 0.971226 0.349291
Si Si2 0.670497 0.989216 0.902165
Si Si3 0.169947 0.394980 0.789804
Si Si4 0.500000 0.500000 0.000000
Si Si5 0.248768 0.722574 0.564982
Si Si6 0.219944 0.209206 0.531595
Si Si7 0.082144 0.592595 0.217470
Si Si8 0.443790 0.131490 0.487301
O O1 0.895145 0.854278 0.435071
O O2 0.923803 0.188837 0.025746
O O3 0.000000 0.000000 0.500000
O O4 0.115375 0.856765 0.437522
O O5 0.712472 0.170426 0.685408
O O6 0.532705 0.047394 0.748958
O O7 0.747936 0.824404 0.984547
O O8 0.705405 0.896791 0.180629
O O9 0.241795 0.517951 0.742595
O O10 0.121691 0.498638 0.499065
O O11 0.054052 0.400117 0.851503
O O12 0.639361 0.326272 0.236375
O O13 0.444121 0.344116 0.222184
O O14 0.171124 0.441400 0.288980
O O15 0.309697 0.145094 0.482057
O O16 0.500000 0.000000 0.500000
#
# Coordination Sequence:
#
# PCOD9090484 Si02
#       8
#     2   2   2   1   2   2   2   2
#     4  12  27  39  62  95 136 173 214 267 323 391
#     4  10  22  42  68  97 130 171 218 269 316 387
#     4  10  19  38  66  93 125 163 212 262 322 379
#     4  10  26  42  62  92 126 170 214 262 312 390
#     4  11  22  41  65  93 130 174 216 261 326 377
#     4  11  25  43  67  97 132 169 217 274 327 379
#     4  10  22  39  62  97 129 162 207 266 322 388
#     4  11  25  44  70  94 129 174 220 266 325 388
#
# _framework density 21.069042
#
# number of rings (size 3 to 8) (size 9 to 14) (size 15 to 20)
#    0.000    1.333    2.667    2.000    5.600    2.667 
#    0.000    0.000    0.000    8.800    0.000    0.000 
#    0.000    0.000    0.000    0.000    0.000    0.000 
#
# Total GULP energy -83559.945884 kJ/mol
# GULP energy per Si atom -5570.663059 kJ/mol
# Density = 2.102109 g / cm^3
# Si number density = 21.069042 Si / 1000 Ang^3
#
#
#
# Elastic Constant Matrix: (Units=GPa)
#
#
# Indices 1 2 3 4 5 6 
#
# 1 128.4963 23.5942 23.1201 -9.3381 14.8243 -11.6412
# 2 23.5942 52.5250 4.0826 -3.9871 6.3434 -9.1636
# 3 23.1201 4.0826 83.1724 -18.2042 13.5790 -2.5110
# 4 -9.3381 -3.9871 -18.2042 15.5068 5.6169 0.8582
# 5 14.8243 6.3434 13.5790 5.6169 27.1269 -2.3902
# 6 -11.6412 -9.1636 -2.5110 0.8582 -2.3902 34.7237
#
#
#
# Elastic Compliance Matrix: (Units=1/GPa)
#
#
# Indices 1 2 3 4 5 6 
#
# 1 0.009669 -0.002731 0.000087 0.007300 -0.006030 0.001932
# 2 -0.002731 0.022422 0.003159 0.010129 -0.007034 0.004496
# 3 0.000087 0.003159 0.022413 0.034050 -0.019027 0.000332
# 4 0.007300 0.010129 0.034050 0.129576 -0.050151 0.000928
# 5 -0.006030 -0.007034 -0.019027 -0.050151 0.061733 0.000235
# 6 0.001932 0.004496 0.000332 0.000928 0.000235 0.030650
#
#
# Mechanical properties :
#
#
# Convention : Reuss Voigt Hill
#
# Bulk Modulus (GPa) = 18.00647 40.64306 29.32477
# Shear Modulus (GPa) = 17.01001 29.69793 23.35397
#
# Velocity S-wave (km/s) = 2.84447 3.75847 3.33295
# Velocity P-wave (km/s) = 4.39920 6.17796 5.36284
#
# Compressibility (1/GPa) = 0.05553559
#
# Stress axis : x y z
#
# Youngs Moduli (GPa) = 103.41956 44.59847 44.61689
#
# Poissons Ratio (x) = 0.12179 -0.00387
# Poissons Ratio (y) = 0.28242 -0.14096
# Poissons Ratio (z) = -0.00898 -0.14091
#
# Static dielectric constant tensor:
#      x y z
#    x 1.745400 0.010540 0.018660 
#    y 0.010540 1.747130 0.018090 
#    z 0.018660 0.018090 1.790010 
# 
# From -- ./inp_files/253732.got.cif
#   From: 2010.05.17/outbox.cif.g08.bks.cpg/sg2_127_cif.got.tgz:253732.got - 2010.06.03 11:33:40.
