data_PCOD9090070
_publ_section_title
;
Structure prediction by ZEFSAII (Michael W. Deem and Ramdas Pophale) SiO2 
 PCOD9090070
Probable space group: P -1
;
_chemical_formula_sum "Si O2"
_cell_formula_units_Z 16
_cell_length_a 9.046778
_cell_length_b 8.246875
_cell_length_c 23.844524
_cell_angle_alpha 115.148216
_cell_angle_beta 29.195445
_cell_angle_gamma 113.084079
_cell_volume 784.618324
_symmetry_space_group_name_H-M "P -1"
_symmetry_group_IT_number 2
_symmetry_cell_setting 'triclinic'
loop_
_space_group_symop_operation_xyz
x,y,z
-x,-y,-z
loop_
_atom_site_type_symbol
_atom_site_label
_atom_site_fract_x
_atom_site_fract_y
_atom_site_fract_z
Si Si1 0.716320 0.525675 0.059506
Si Si2 0.086575 0.917768 0.232776
Si Si3 0.661520 0.378678 0.474581
Si Si4 0.678233 0.828385 0.895569
Si Si5 0.331667 0.312369 0.011315
Si Si6 0.810758 0.918325 0.446482
Si Si7 0.218387 0.629064 0.324125
Si Si8 0.523990 0.281059 0.627499
O O1 0.556682 0.333825 0.067089
O O2 0.831267 0.640290 0.984650
O O3 0.461998 0.625218 0.193129
O O4 0.000000 0.500000 0.000000
O O5 0.997365 0.941524 0.330299
O O6 0.825926 0.790120 0.271196
O O7 0.404467 0.821611 0.110108
O O8 0.121952 0.098554 0.211211
O O9 0.500000 0.500000 0.500000
O O10 0.506988 0.184873 0.481861
O O11 0.579831 0.402806 0.571208
O O12 0.009935 0.445457 0.364276
O O13 0.846346 0.760183 0.885646
O O14 0.500000 0.000000 0.000000
O O15 0.500000 0.500000 0.000000
O O16 0.997404 0.792061 0.407600
O O17 0.728414 0.108494 0.525961
O O18 0.382000 0.641722 0.331966
#
# Coordination Sequence:
#
# PCOD9090070 Si02
#       8
#     2   2   2   2   2   2   2   2
#     4  11  24  40  63  90 121 157 198 250 307 354
#     4  10  19  38  63  92 113 160 201 242 300 353
#     4   9  20  39  61  87 116 157 206 244 288 355
#     4   9  21  39  66  85 118 152 203 247 289 364
#     4   9  19  39  61  85 118 152 201 249 291 355
#     4  10  21  40  62  89 121 161 204 243 293 362
#     4  11  23  39  60  88 127 160 192 252 307 348
#     4  11  23  36  64  88 127 155 201 247 299 360
#
# _framework density 20.392081000000001
#
# number of rings (size 3 to 8) (size 9 to 14) (size 15 to 20)
#    0.000    2.000    1.250    2.250    8.750    0.000 
#    0.000    3.750    2.750    0.000    0.000    0.000 
#    0.000    0.000    0.000    0.000    0.000    0.000 
#
# Total GULP energy -89243.939575 kJ/mol
# GULP energy per Si atom -5577.746223 kJ/mol
# Density = 2.034567 g / cm^3
# Si number density = 20.392081 Si / 1000 Ang^3
#
#
#
# Elastic Constant Matrix: (Units=GPa)
#
#
# Indices 1 2 3 4 5 6 
#
# 1 155.8491 34.8114 16.2511 -13.8170 12.5445 -18.4671
# 2 34.8114 56.4352 21.0625 -6.1488 17.9958 -16.7497
# 3 16.2511 21.0625 25.2634 -7.3564 4.9583 -6.0440
# 4 -13.8170 -6.1488 -7.3564 35.3262 -3.9488 11.2356
# 5 12.5445 17.9958 4.9583 -3.9488 30.1899 -6.0070
# 6 -18.4671 -16.7497 -6.0440 11.2356 -6.0070 36.7340
#
#
#
# Elastic Compliance Matrix: (Units=1/GPa)
#
#
# Indices 1 2 3 4 5 6 
#
# 1 0.007683 -0.003631 -0.001011 0.001653 -0.000352 0.001477
# 2 -0.003631 0.035859 -0.023775 -0.004854 -0.014667 0.009700
# 3 -0.001011 -0.023775 0.061085 0.009868 0.005159 -0.003473
# 4 0.001653 -0.004854 0.009868 0.033534 0.003079 -0.009512
# 5 -0.000352 -0.014667 0.005159 0.003079 0.041535 -0.000165
# 6 0.001477 0.009700 -0.003473 -0.009512 -0.000165 0.034699
#
#
# Mechanical properties :
#
#
# Convention : Reuss Voigt Hill
#
# Bulk Modulus (GPa) = 20.92361 42.42197 31.67279
# Shear Modulus (GPa) = 17.41189 31.47821 24.44505
#
# Velocity S-wave (km/s) = 2.92525 3.93319 3.46606
# Velocity P-wave (km/s) = 4.65751 6.44011 5.61994
#
# Compressibility (1/GPa) = 0.04779289
#
# Stress axis : x y z
#
# Youngs Moduli (GPa) = 130.15990 27.88679 16.37064
#
# Poissons Ratio (x) = 0.10126 0.01655
# Poissons Ratio (y) = 0.47262 0.38921
# Poissons Ratio (z) = 0.13159 0.66301
#
# Static dielectric constant tensor:
#      x y z
#    x 1.734920 -0.033560 0.028480 
#    y -0.033560 1.736780 0.009760 
#    z 0.028480 0.009760 1.741040 
# 
# From -- ./inp_files/218947.got.cif
#   From: 2010.05.17/outbox.cif.g08.bks.cpg/sg2_110_cif.got.tgz:218947.got - 2010.06.03 11:33:40.
