data_PCOD9090267
_publ_section_title
;
Structure prediction by ZEFSAII (Michael W. Deem and Ramdas Pophale) SiO2 
 PCOD9090267
Probable space group: P -1
;
_chemical_formula_sum "Si O2"
_cell_formula_units_Z 12
_cell_length_a 28.764396
_cell_length_b 16.186557
_cell_length_c 9.400331
_cell_angle_alpha 143.899598
_cell_angle_beta 154.416077
_cell_angle_gamma 18.940938
_cell_volume 580.822262
_symmetry_space_group_name_H-M "P -1"
_symmetry_group_IT_number 2
_symmetry_cell_setting 'triclinic'
loop_
_space_group_symop_operation_xyz
x,y,z
-x,-y,-z
loop_
_atom_site_type_symbol
_atom_site_label
_atom_site_fract_x
_atom_site_fract_y
_atom_site_fract_z
Si Si1 0.389388 0.480781 0.326273
Si Si2 0.840844 0.528481 0.246719
Si Si3 0.740976 0.935859 0.411373
Si Si4 0.364483 0.737741 0.848057
Si Si5 0.095412 0.675890 0.572066
Si Si6 0.454469 0.201480 0.716113
O O1 0.352209 0.661456 0.562504
O O2 0.623993 0.190551 0.524111
O O3 0.321826 0.417579 0.142151
O O4 0.236832 0.637516 0.987146
O O5 0.758013 0.774501 0.325842
O O6 0.910258 0.436109 0.474611
O O7 0.034584 0.283244 0.337897
O O8 0.591830 0.067011 0.049954
O O9 0.500000 0.500000 0.000000
O O10 0.473965 0.761075 0.144764
O O11 0.134872 0.017873 0.661642
O O12 0.219774 0.484984 0.513682
O O13 0.500000 0.000000 0.500000
#
# Coordination Sequence:
#
# PCOD9090267 Si02
#       6
#     2   2   2   2   2   2
#     4   9  21  38  66  86 124 155 205 253 302 357
#     4   9  19  36  65  94 119 152 209 253 303 356
#     4  10  19  38  64  96 120 154 208 252 304 363
#     4  12  26  43  59  93 127 165 206 251 310 360
#     4   9  22  42  64  90 120 162 209 250 304 361
#     4  11  25  41  63  90 128 161 203 251 310 369
#
# _framework density 20.660366
#
# number of rings (size 3 to 8) (size 9 to 14) (size 15 to 20)
#    1.000    1.000    1.667    1.000    2.333    5.333 
#    6.000    0.000    0.000    0.000    0.000    0.000 
#    0.000    0.000    0.000    0.000    0.000    0.000 
#
# Total GULP energy -66997.131836 kJ/mol
# GULP energy per Si atom -5583.094320 kJ/mol
# Density = 2.061334 g / cm^3
# Si number density = 20.660366 Si / 1000 Ang^3
#
#
#
# Elastic Constant Matrix: (Units=GPa)
#
#
# Indices 1 2 3 4 5 6 
#
# 1 35.3282 71.4253 51.1199 -8.3454 18.1755 -13.1360
# 2 71.4253 162.0569 56.8678 -13.7490 18.0410 -21.5724
# 3 51.1199 56.8678 28.4072 3.1254 12.1886 -1.9242
# 4 -8.3454 -13.7490 3.1254 36.8669 1.5321 -6.7314
# 5 18.1755 18.0410 12.1886 1.5321 25.2461 -9.5467
# 6 -13.1360 -21.5724 -1.9242 -6.7314 -9.5467 42.0009
#
#
#
# Elastic Compliance Matrix: (Units=1/GPa)
#
#
# Indices 1 2 3 4 5 6 
#
# 1 -0.005319 -0.013138 0.040516 -0.011058 -0.009651 -0.010521
# 2 -0.013138 0.018310 -0.015943 0.006221 0.006342 0.007003
# 3 0.040516 -0.015943 0.001766 0.004029 -0.018493 0.001006
# 4 -0.011058 0.006221 0.004029 0.027387 0.001683 0.004693
# 5 -0.009651 0.006342 -0.018493 0.001683 0.055494 0.012275
# 6 -0.010521 0.007003 0.001006 0.004693 0.012275 0.027704
#
#
# Mechanical properties :
#
#
# Convention : Reuss Voigt Hill
#
# Bulk Modulus (GPa) = 26.57516 64.95761 45.76638
# Shear Modulus (GPa) = 43.47318 23.91474 33.69396
#
# Velocity S-wave (km/s) = 4.59211 3.40592 4.04276
# Velocity P-wave (km/s) = 6.40371 6.85390 6.63263
#
# Compressibility (1/GPa) = 0.03762913
#
# Stress axis : x y z
#
# Youngs Moduli (GPa) = -188.02243 54.61608 566.15647
#
# Poissons Ratio (x) = 0.71754 -22.93864
# Poissons Ratio (y) = -2.47023 9.02601
# Poissons Ratio (z) = 7.61800 0.87072
#
# Static dielectric constant tensor:
#      x y z
#    x 1.776650 0.001970 0.013420 
#    y 0.001970 1.733440 -0.000240 
#    z 0.013420 -0.000240 1.746090 
# 
# From -- ./inp_files/240199.got.cif
#   From: 2010.05.17/outbox.cif.g08.bks.cpg/sg2_121_cif.got.tgz:240199.got - 2010.06.03 11:33:40.
