data_PCOD9090787
_publ_section_title
;
Structure prediction by ZEFSAII (Michael W. Deem and Ramdas Pophale) SiO2 
 PCOD9090787
Probable space group: P -1
;
_chemical_formula_sum "Si O2"
_cell_formula_units_Z 16
_cell_length_a 17.824278
_cell_length_b 15.576586
_cell_length_c 8.641647
_cell_angle_alpha 57.070742
_cell_angle_beta 139.671437
_cell_angle_gamma 151.962858
_cell_volume 660.670323
_symmetry_space_group_name_H-M "P -1"
_symmetry_group_IT_number 2
_symmetry_cell_setting 'triclinic'
loop_
_space_group_symop_operation_xyz
x,y,z
-x,-y,-z
loop_
_atom_site_type_symbol
_atom_site_label
_atom_site_fract_x
_atom_site_fract_y
_atom_site_fract_z
Si Si1 0.330028 0.503243 0.774496
Si Si2 0.626294 0.909760 0.899683
Si Si3 0.131642 0.732923 0.651456
Si Si4 0.142948 0.850540 0.247933
Si Si5 0.440034 0.796137 0.039014
Si Si6 0.305038 0.379626 0.189041
Si Si7 0.731273 0.875331 0.591743
Si Si8 0.030384 0.129477 0.510824
O O1 0.543354 0.740674 0.855537
O O2 0.101255 0.400683 0.513160
O O3 0.270304 0.368591 0.688835
O O4 0.352762 0.475918 0.011078
O O5 0.688898 0.037411 0.740370
O O6 0.443455 0.792251 0.862205
O O7 0.860426 0.071350 0.203193
O O8 0.216219 0.682235 0.862323
O O9 0.113665 0.737080 0.434117
O O10 0.343048 0.965141 0.813283
O O11 0.244094 0.019181 0.345927
O O12 0.899181 0.714737 0.955433
O O13 0.502344 0.734937 0.274059
O O14 0.500000 0.500000 0.500000
O O15 0.243523 0.216513 0.207469
O O16 0.922857 0.032440 0.606482
O O17 0.000000 0.000000 0.500000
#
# Coordination Sequence:
#
# PCOD9090787 Si02
#       8
#     2   2   2   2   2   2   2   2
#     4  11  23  41  62  93 125 165 213 253 307 377
#     4  11  23  38  60  93 128 159 207 257 315 369
#     4   9  18  40  69  86 118 167 208 253 313 369
#     4  10  21  38  59  87 126 163 197 258 318 358
#     4   9  18  37  66  92 115 164 209 255 309 376
#     4  11  21  37  62  88 120 163 213 253 296 377
#     4  10  19  39  59  86 120 161 203 252 309 363
#     4  11  22  40  61  86 124 168 208 253 306 366
#
# _framework density 24.217825999999999
#
# number of rings (size 3 to 8) (size 9 to 14) (size 15 to 20)
#    0.000    1.750    5.000    2.625    1.750    1.500 
#    4.500    0.000    0.000    6.750    0.000    0.000 
#    0.000    0.000    0.000    0.000    0.000    0.000 
#
# Total GULP energy -89366.784406 kJ/mol
# GULP energy per Si atom -5585.424025 kJ/mol
# Density = 2.416271 g / cm^3
# Si number density = 24.217826 Si / 1000 Ang^3
#
#
#
# Elastic Constant Matrix: (Units=GPa)
#
#
# Indices 1 2 3 4 5 6 
#
# 1 77.7490 8.8151 36.7937 5.5070 1.3648 4.1136
# 2 8.8151 51.7899 25.2004 5.0082 -5.2934 -0.6869
# 3 36.7937 25.2004 90.4935 20.5562 2.3668 -8.5756
# 4 5.5070 5.0082 20.5562 29.0213 -15.1581 -12.7016
# 5 1.3648 -5.2934 2.3668 -15.1581 34.8106 -1.2007
# 6 4.1136 -0.6869 -8.5756 -12.7016 -1.2007 25.4273
#
#
#
# Elastic Compliance Matrix: (Units=1/GPa)
#
#
# Indices 1 2 3 4 5 6 
#
# 1 0.016580 0.000639 -0.007219 -0.000943 -0.000666 -0.005602
# 2 0.000639 0.023251 -0.008000 0.005131 0.006312 0.000688
# 3 -0.007219 -0.008000 0.020303 -0.017432 -0.009952 -0.001379
# 4 -0.000943 0.005131 -0.017432 0.083405 0.039629 0.037946
# 5 -0.000666 0.006312 -0.009952 0.039629 0.048301 0.018999
# 6 -0.005602 0.000688 -0.001379 0.037946 0.018999 0.059640
#
#
# Mechanical properties :
#
#
# Convention : Reuss Voigt Hill
#
# Bulk Modulus (GPa) = 32.28415 40.18341 36.23378
# Shear Modulus (GPa) = 17.18422 27.80006 22.49214
#
# Velocity S-wave (km/s) = 2.66666 3.39177 3.05084
# Velocity P-wave (km/s) = 4.77924 5.65396 5.23490
#
# Compressibility (1/GPa) = 0.03097495
#
# Stress axis : x y z
#
# Youngs Moduli (GPa) = 60.31183 43.00901 49.25418
#
# Poissons Ratio (x) = -0.02749 0.35555
# Poissons Ratio (y) = -0.03855 0.39405
# Poissons Ratio (z) = 0.43537 0.34408
#
# Static dielectric constant tensor:
#      x y z
#    x 1.961400 -0.049900 0.001170 
#    y -0.049900 2.030130 0.093700 
#    z 0.001170 0.093700 1.983350 
# 
# From -- ./inp_files/348051.got.cif
#   From: 2010.05.17/outbox.cif.g08.bks.cpg/sg2_175_cif.got.tgz:348051.got - 2010.06.03 11:33:40.
