data_PCOD9090104
_publ_section_title
;
Structure prediction by ZEFSAII (Michael W. Deem and Ramdas Pophale) SiO2 
 PCOD9090104
Probable space group: P -1
;
_chemical_formula_sum "Si O2"
_cell_formula_units_Z 16
_cell_length_a 8.202958
_cell_length_b 9.082445
_cell_length_c 12.196761
_cell_angle_alpha 98.961535
_cell_angle_beta 84.469908
_cell_angle_gamma 55.172483
_cell_volume 717.314900
_symmetry_space_group_name_H-M "P -1"
_symmetry_group_IT_number 2
_symmetry_cell_setting 'triclinic'
loop_
_space_group_symop_operation_xyz
x,y,z
-x,-y,-z
loop_
_atom_site_type_symbol
_atom_site_label
_atom_site_fract_x
_atom_site_fract_y
_atom_site_fract_z
Si Si1 0.728728 0.445086 0.345120
Si Si2 0.279135 0.115641 0.080570
Si Si3 0.181845 0.490023 0.428286
Si Si4 0.928656 0.974069 0.748016
Si Si5 0.965018 0.484099 0.778841
Si Si6 0.638947 0.141571 0.588830
Si Si7 0.893430 0.851679 0.129981
Si Si8 0.441431 0.934954 0.646216
O O1 0.748573 0.434678 0.474673
O O2 0.501375 0.633598 0.360499
O O3 0.850341 0.228918 0.279909
O O4 0.870121 0.494078 0.283417
O O5 0.238165 0.036787 0.179597
O O6 0.214420 0.315723 0.142282
O O7 0.132718 0.132874 0.995932
O O8 0.500000 0.000000 0.000000
O O9 0.106919 0.580893 0.325071
O O10 0.358649 0.273173 0.376556
O O11 0.000000 0.500000 0.500000
O O12 0.840022 0.037338 0.638518
O O13 0.946940 0.117863 0.828367
O O14 0.049428 0.343232 0.855777
O O15 0.674153 0.079074 0.451614
O O16 0.503495 0.070470 0.627274
O O17 0.686665 0.996920 0.227078
#
# Coordination Sequence:
#
# PCOD9090104 Si02
#       8
#     2   2   2   2   2   2   2   2
#     4   9  19  37  63  88 128 165 206 248 299 384
#     4  11  24  45  69  86 115 167 219 262 308 375
#     4   9  17  33  59  96 123 158 206 258 303 350
#     4  11  25  42  63  91 134 165 199 263 329 371
#     4  10  20  37  65  91 118 159 211 263 304 369
#     4  10  19  38  63  95 121 169 213 249 301 373
#     4  12  24  41  60  95 129 159 204 266 324 367
#     4  10  20  35  65  93 126 163 215 256 295 376
#
# _framework density 22.305406000000001
#
# number of rings (size 3 to 8) (size 9 to 14) (size 15 to 20)
#    0.000    1.750    1.250    4.500    3.500    0.500 
#    4.500    1.875    0.000    0.000    0.000    0.000 
#    0.000    0.000    0.000    0.000    0.000    0.000 
#
# Total GULP energy -89375.058413 kJ/mol
# GULP energy per Si atom -5585.941151 kJ/mol
# Density = 2.225464 g / cm^3
# Si number density = 22.305406 Si / 1000 Ang^3
#
#
#
# Elastic Constant Matrix: (Units=GPa)
#
#
# Indices 1 2 3 4 5 6 
#
# 1 44.2816 20.8926 3.2091 1.5336 3.3754 4.2257
# 2 20.8926 61.1041 26.2453 1.6970 -4.2713 -10.7550
# 3 3.2091 26.2453 90.6476 -3.8729 10.0806 -7.6143
# 4 1.5336 1.6970 -3.8729 33.6572 -15.6803 0.7727
# 5 3.3754 -4.2713 10.0806 -15.6803 39.5541 0.6619
# 6 4.2257 -10.7550 -7.6143 0.7727 0.6619 21.7394
#
#
#
# Elastic Compliance Matrix: (Units=1/GPa)
#
#
# Indices 1 2 3 4 5 6 
#
# 1 0.030603 -0.013899 0.002468 -0.002771 -0.005644 -0.011690
# 2 -0.013899 0.026760 -0.006755 0.000977 0.005961 0.013358
# 3 0.002468 -0.006755 0.013477 -0.000358 -0.004534 0.001050
# 4 -0.002771 0.000977 -0.000358 0.036766 0.015023 -0.000867
# 5 -0.005644 0.005961 -0.004534 0.015023 0.033503 0.000904
# 6 -0.011690 0.013358 0.001050 -0.000867 0.000904 0.055251
#
#
# Mechanical properties :
#
#
# Convention : Reuss Voigt Hill
#
# Bulk Modulus (GPa) = 29.01166 32.96970 30.99068
# Shear Modulus (GPa) = 20.47314 28.70255 24.58784
#
# Velocity S-wave (km/s) = 3.03290 3.59109 3.32373
# Velocity P-wave (km/s) = 5.02985 5.65753 5.35290
#
# Compressibility (1/GPa) = 0.03446889
#
# Stress axis : x y z
#
# Youngs Moduli (GPa) = 32.67605 37.36921 74.19925
#
# Poissons Ratio (x) = 0.51940 -0.18314
# Poissons Ratio (y) = 0.45417 0.50121
# Poissons Ratio (z) = -0.08065 0.25242
#
# Static dielectric constant tensor:
#      x y z
#    x 1.682200 -0.346540 0.005790 
#    y -0.346540 1.249740 -0.018770 
#    z 0.005790 -0.018770 1.785960 
# 
# From -- ./inp_files/188170.got.cif
#   From: 2010.05.17/outbox.cif.g08.bks.cpg/sg2_95_cif.got.tgz:188170.got - 2010.06.03 11:33:40.
