data_PCOD9091251
_publ_section_title
;
Structure prediction by ZEFSAII (Michael W. Deem and Ramdas Pophale) SiO2 
 PCOD9091251
Probable space group: P -1
;
_chemical_formula_sum "Si O2"
_cell_formula_units_Z 16
_cell_length_a 9.292685
_cell_length_b 9.760128
_cell_length_c 12.534390
_cell_angle_alpha 135.882222
_cell_angle_beta 78.585292
_cell_angle_gamma 100.013303
_cell_volume 774.899739
_symmetry_space_group_name_H-M "P -1"
_symmetry_group_IT_number 2
_symmetry_cell_setting 'triclinic'
loop_
_space_group_symop_operation_xyz
x,y,z
-x,-y,-z
loop_
_atom_site_type_symbol
_atom_site_label
_atom_site_fract_x
_atom_site_fract_y
_atom_site_fract_z
Si Si1 0.992975 0.642652 0.913610
Si Si2 0.662263 0.596986 0.555620
Si Si3 0.505621 0.033827 0.228270
Si Si4 0.274156 0.701428 0.790078
Si Si5 0.431530 0.594940 0.921443
Si Si6 0.831742 0.679456 0.165342
Si Si7 0.270768 0.525893 0.282249
Si Si8 0.346260 0.963694 0.562947
O O1 0.869412 0.573669 0.809838
O O2 0.123649 0.762370 0.900342
O O3 0.066266 0.451071 0.848572
O O4 0.920174 0.745097 0.083033
O O5 0.500000 0.500000 0.500000
O O6 0.757858 0.468085 0.389550
O O7 0.704014 0.563447 0.653334
O O8 0.633253 0.825557 0.666066
O O9 0.619083 0.123677 0.173187
O O10 0.601065 0.046242 0.328172
O O11 0.452536 0.812368 0.086948
O O12 0.364864 0.606710 0.818908
O O13 0.309909 0.460892 0.926055
O O14 0.587716 0.505746 0.830191
O O15 0.761370 0.859273 0.335818
O O16 0.265926 0.759440 0.427950
O O17 0.500000 0.000000 0.500000
#
# Coordination Sequence:
#
# PCOD9091251 Si02
#       8
#     2   2   2   2   2   2   2   2
#     4  10  25  43  66  88 136 174 205 261 321 389
#     4  10  19  39  64  93 129 157 209 275 315 363
#     4  11  22  37  67 102 121 163 219 270 316 369
#     4  10  20  42  64  89 130 170 203 264 321 368
#     4  11  21  38  70  93 124 166 221 265 308 374
#     4  10  24  47  62  92 134 172 211 262 318 377
#     4  12  22  40  66  98 122 168 215 265 321 377
#     4  12  24  39  67  98 125 164 213 272 317 368
#
# _framework density 20.647832000000001
#
# number of rings (size 3 to 8) (size 9 to 14) (size 15 to 20)
#    0.000    1.250    6.250    1.125    3.500    2.000 
#    0.000    6.250    0.000    0.000    0.000    0.000 
#    0.000    0.000    0.000    0.000    0.000    0.000 
#
# Total GULP energy -89380.936088 kJ/mol
# GULP energy per Si atom -5586.308505 kJ/mol
# Density = 2.060084 g / cm^3
# Si number density = 20.647832 Si / 1000 Ang^3
#
#
#
# Elastic Constant Matrix: (Units=GPa)
#
#
# Indices 1 2 3 4 5 6 
#
# 1 71.7530 2.0993 13.0338 -6.1031 -4.2290 1.3785
# 2 2.0993 20.9743 -8.7576 -8.5954 -3.9024 4.6423
# 3 13.0338 -8.7576 58.8663 10.2955 -8.8872 -3.8872
# 4 -6.1031 -8.5954 10.2955 43.6150 -3.8361 -1.8932
# 5 -4.2290 -3.9024 -8.8872 -3.8361 34.7235 -11.3777
# 6 1.3785 4.6423 -3.8872 -1.8932 -11.3777 28.4180
#
#
#
# Elastic Compliance Matrix: (Units=1/GPa)
#
#
# Indices 1 2 3 4 5 6 
#
# 1 0.014999 -0.001799 -0.003987 0.002729 0.000742 -0.000500
# 2 -0.001799 0.057717 0.008209 0.009700 0.008010 -0.004365
# 3 -0.003987 0.008209 0.020949 -0.003098 0.006850 0.004254
# 4 0.002729 0.009700 -0.003098 0.026350 0.003930 0.001188
# 5 0.000742 0.008010 0.006850 0.003930 0.036750 0.014568
# 6 -0.000500 -0.004365 0.004254 0.001188 0.014568 0.042420
#
#
# Mechanical properties :
#
#
# Convention : Reuss Voigt Hill
#
# Bulk Modulus (GPa) = 10.15111 18.26051 14.20581
# Shear Modulus (GPa) = 22.00952 31.03253 26.52102
#
# Velocity S-wave (km/s) = 3.26843 3.88099 3.58780
# Velocity P-wave (km/s) = 4.37841 5.38012 4.90491
#
# Compressibility (1/GPa) = 0.09851139
#
# Stress axis : x y z
#
# Youngs Moduli (GPa) = 66.67108 17.32603 47.73572
#
# Poissons Ratio (x) = 0.03117 0.19032
# Poissons Ratio (y) = 0.11993 -0.39188
# Poissons Ratio (z) = 0.26581 -0.14224
#
# Static dielectric constant tensor:
#      x y z
#    x 1.721640 0.004180 -0.047440 
#    y 0.004180 1.798930 -0.015120 
#    z -0.047440 -0.015120 1.776350 
# 
# From -- ./inp_files/244226.got.cif
#   From: 2010.05.17/outbox.cif.g08.bks.cpg/sg2_123_cif.got.tgz:244226.got - 2010.06.03 11:33:40.
