data_PCOD9091240
_publ_section_title
;
Structure prediction by ZEFSAII (Michael W. Deem and Ramdas Pophale) SiO2 
 PCOD9091240
Probable space group: P -1
;
_chemical_formula_sum "Si O2"
_cell_formula_units_Z 16
_cell_length_a 9.995880
_cell_length_b 11.338637
_cell_length_c 14.319757
_cell_angle_alpha 43.542761
_cell_angle_beta 138.714986
_cell_angle_gamma 136.961316
_cell_volume 672.968442
_symmetry_space_group_name_H-M "P -1"
_symmetry_group_IT_number 2
_symmetry_cell_setting 'triclinic'
loop_
_space_group_symop_operation_xyz
x,y,z
-x,-y,-z
loop_
_atom_site_type_symbol
_atom_site_label
_atom_site_fract_x
_atom_site_fract_y
_atom_site_fract_z
Si Si1 0.270717 0.457899 0.454432
Si Si2 0.321481 0.266758 0.855163
Si Si3 0.725289 0.223964 0.032269
Si Si4 0.199033 0.966449 0.341749
Si Si5 0.213013 0.176382 0.050471
Si Si6 0.263019 0.610396 0.555760
Si Si7 0.014878 0.428723 0.901118
Si Si8 0.950710 0.972946 0.379660
O O1 0.500000 0.500000 0.500000
O O2 0.300842 0.604241 0.468828
O O3 0.101858 0.472122 0.281801
O O4 0.174377 0.251858 0.567448
O O5 0.060612 0.150221 0.761282
O O6 0.374362 0.483043 0.734370
O O7 0.466667 0.179839 0.924613
O O8 0.365288 0.247420 0.998729
O O9 0.827260 0.420773 0.029801
O O10 0.805242 0.084636 0.208854
O O11 0.831252 0.267502 0.960108
O O12 0.162732 0.041401 0.380855
O O13 0.310960 0.819433 0.491969
O O14 0.296450 0.109046 0.225282
O O15 0.135815 0.335067 0.953053
O O16 0.000000 0.000000 0.000000
O O17 0.000000 0.500000 0.500000
O O18 0.000000 0.000000 0.500000
#
# Coordination Sequence:
#
# PCOD9091240 Si02
#       8
#     2   2   2   2   2   2   2   2
#     4  12  24  39  67 100 126 169 223 275 316 386
#     4  10  21  38  64  97 121 164 219 267 317 385
#     4  11  25  41  63  92 132 174 213 269 327 390
#     4  10  21  40  66  93 127 170 214 270 321 389
#     4  10  21  38  63  93 125 165 214 265 325 381
#     4  10  19  39  64  92 125 165 215 261 327 375
#     4  11  23  42  62  89 133 174 214 266 329 387
#     4  12  24  43  65  93 132 174 215 261 338 391
#
# _framework density 23.775259999999999
#
# number of rings (size 3 to 8) (size 9 to 14) (size 15 to 20)
#    0.000    1.250    5.000    3.000    0.000    4.000 
#    0.000    0.000    0.000    2.250    0.000    0.000 
#    0.000    0.000    0.000    0.000    0.000    0.000 
#
# Total GULP energy -89574.523074 kJ/mol
# GULP energy per Si atom -5598.407692 kJ/mol
# Density = 2.372115 g / cm^3
# Si number density = 23.775260 Si / 1000 Ang^3
#
#
#
# Elastic Constant Matrix: (Units=GPa)
#
#
# Indices 1 2 3 4 5 6 
#
# 1 115.5770 1.7415 28.7788 19.2264 -17.0328 -18.8413
# 2 1.7415 56.6040 0.7482 3.0604 2.0623 -14.5237
# 3 28.7788 0.7482 140.4718 -4.3704 -5.4909 2.0682
# 4 19.2264 3.0604 -4.3704 20.6926 -5.9048 -1.0349
# 5 -17.0328 2.0623 -5.4909 -5.9048 49.0934 -5.2193
# 6 -18.8413 -14.5237 2.0682 -1.0349 -5.2193 26.2815
#
#
#
# Elastic Compliance Matrix: (Units=1/GPa)
#
#
# Indices 1 2 3 4 5 6 
#
# 1 0.014217 0.003384 -0.003342 -0.012569 0.004252 0.012675
# 2 0.003384 0.021536 -0.001154 -0.005567 0.001001 0.014398
# 3 -0.003342 -0.001154 0.008010 0.004791 -0.000009 -0.003477
# 4 -0.012569 -0.005567 0.004791 0.062191 0.002885 -0.009442
# 5 0.004252 0.001001 -0.000009 0.002885 0.023030 0.008290
# 6 0.012675 0.014398 -0.003477 -0.009442 0.008290 0.056641
#
#
# Mechanical properties :
#
#
# Convention : Reuss Voigt Hill
#
# Bulk Modulus (GPa) = 24.07423 41.68776 32.88099
# Shear Modulus (GPa) = 24.78973 37.97245 31.38109
#
# Velocity S-wave (km/s) = 3.23254 4.00076 3.63699
# Velocity P-wave (km/s) = 4.90715 6.23808 5.61221
#
# Compressibility (1/GPa) = 0.04153820
#
# Stress axis : x y z
#
# Youngs Moduli (GPa) = 70.33726 46.43286 124.84932
#
# Poissons Ratio (x) = -0.15711 0.41727
# Poissons Ratio (y) = -0.23799 0.14407
# Poissons Ratio (z) = 0.23508 0.05358
#
# Static dielectric constant tensor:
#      x y z
#    x 1.886320 0.038760 -0.000390 
#    y 0.038760 2.020500 0.027830 
#    z -0.000390 0.027830 1.905050 
# 
# From -- ./inp_files/499947.got.cif
#   From: 2010.05.17/outbox.cif.g08.bks.cpg/sg2_250_cif.got.tgz:499947.got - 2010.06.03 11:33:40.
