data_PCOD9091037
_publ_section_title
;
Structure prediction by ZEFSAII (Michael W. Deem and Ramdas Pophale) SiO2 
 PCOD9091037
Probable space group: P -1
;
_chemical_formula_sum "Si O2"
_cell_formula_units_Z 12
_cell_length_a 9.494918
_cell_length_b 14.215769
_cell_length_c 9.145998
_cell_angle_alpha 38.463610
_cell_angle_beta 63.787698
_cell_angle_gamma 83.830054
_cell_volume 622.904366
_symmetry_space_group_name_H-M "P -1"
_symmetry_group_IT_number 2
_symmetry_cell_setting 'triclinic'
loop_
_space_group_symop_operation_xyz
x,y,z
-x,-y,-z
loop_
_atom_site_type_symbol
_atom_site_label
_atom_site_fract_x
_atom_site_fract_y
_atom_site_fract_z
Si Si1 0.027433 0.833544 0.195736
Si Si2 0.605976 0.367088 0.835972
Si Si3 0.061035 0.377045 0.787987
Si Si4 0.323342 0.496482 0.755953
Si Si5 0.217227 0.497695 0.135578
Si Si6 0.620639 0.157794 0.847991
O O1 0.201113 0.853577 0.176791
O O2 0.028366 0.771796 0.103771
O O3 0.866039 0.686457 0.530383
O O4 0.000000 0.000000 0.000000
O O5 0.803587 0.471687 0.559101
O O6 0.494040 0.463738 0.718144
O O7 0.621161 0.381272 0.986054
O O8 0.543405 0.190715 0.997002
O O9 0.181204 0.359888 0.881791
O O10 0.926999 0.432271 0.861136
O O11 0.350230 0.675762 0.460540
O O12 0.260770 0.487932 0.960496
O O13 0.500000 0.000000 0.000000
#
# Coordination Sequence:
#
# PCOD9091037 Si02
#       6
#     2   2   2   2   2   2
#     4  11  23  38  61  87 115 157 196 238 288 346
#     4  10  20  39  60  88 116 158 195 232 286 356
#     4  10  19  39  63  82 113 158 203 232 277 352
#     4  11  23  36  65  91 115 150 197 246 288 337
#     4  11  20  41  63  87 116 152 199 245 284 337
#     4  11  23  39  59  87 120 153 194 238 291 350
#
# _framework density 19.264593999999999
#
# number of rings (size 3 to 8) (size 9 to 14) (size 15 to 20)
#    0.000    1.333    5.000    4.000    7.000    0.000 
#    0.000    3.333    0.000    0.000    0.000    0.000 
#    0.000    0.000    0.000    0.000    0.000    0.000 
#
# Total GULP energy -66940.607498 kJ/mol
# GULP energy per Si atom -5578.383958 kJ/mol
# Density = 1.922075 g / cm^3
# Si number density = 19.264594 Si / 1000 Ang^3
#
#
#
# Elastic Constant Matrix: (Units=GPa)
#
#
# Indices 1 2 3 4 5 6 
#
# 1 131.0028 51.0889 22.0359 -16.7027 10.1914 10.1353
# 2 51.0889 127.9911 40.7295 -9.5194 -3.5800 21.3962
# 3 22.0359 40.7295 39.5777 -11.4313 6.2622 2.0265
# 4 -16.7027 -9.5194 -11.4313 36.8478 3.6610 6.4084
# 5 10.1914 -3.5800 6.2622 3.6610 17.6023 -6.3940
# 6 10.1353 21.3962 2.0265 6.4084 -6.3940 50.4202
#
#
#
# Elastic Compliance Matrix: (Units=1/GPa)
#
#
# Indices 1 2 3 4 5 6 
#
# 1 0.010659 -0.004266 0.001736 0.005638 -0.009681 -0.002346
# 2 -0.004266 0.015057 -0.015634 -0.003413 0.010672 -0.003116
# 3 0.001736 -0.015634 0.048457 0.014333 -0.024625 -0.000607
# 4 0.005638 -0.003413 0.014333 0.036454 -0.019307 -0.007343
# 5 -0.009681 0.010672 -0.024625 -0.019307 0.081426 0.011187
# 6 -0.002346 -0.003116 -0.000607 -0.007343 0.011187 0.024004
#
#
# Mechanical properties :
#
#
# Convention : Reuss Voigt Hill
#
# Bulk Modulus (GPa) = 26.42463 58.47556 42.45009
# Shear Modulus (GPa) = 18.86796 33.28856 26.07826
#
# Velocity S-wave (km/s) = 3.13295 4.16139 3.68324
# Velocity P-wave (km/s) = 5.18012 7.31501 6.33810
#
# Compressibility (1/GPa) = 0.03784349
#
# Stress axis : x y z
#
# Youngs Moduli (GPa) = 93.82047 66.41510 20.63704
#
# Poissons Ratio (x) = 0.28335 -0.03583
# Poissons Ratio (y) = 0.40027 0.32265
# Poissons Ratio (z) = -0.16291 1.03836
#
# Static dielectric constant tensor:
#      x y z
#    x 1.716800 0.041780 -0.005620 
#    y 0.041780 1.707260 0.004910 
#    z -0.005620 0.004910 1.664550 
# 
# From -- ./inp_files/145008.got.cif
#   From: 2010.05.17/outbox.cif.g08.bks.cpg/sg2_73_cif.got.tgz:145008.got - 2010.06.03 11:33:40.
