data_PCOD9091038
_publ_section_title
;
Structure prediction by ZEFSAII (Michael W. Deem and Ramdas Pophale) SiO2 
 PCOD9091038
Probable space group: P -1
;
_chemical_formula_sum "Si O2"
_cell_formula_units_Z 14
_cell_length_a 9.641806
_cell_length_b 10.794089
_cell_length_c 8.870778
_cell_angle_alpha 125.475823
_cell_angle_beta 109.974691
_cell_angle_gamma 71.117450
_cell_volume 697.062786
_symmetry_space_group_name_H-M "P -1"
_symmetry_group_IT_number 2
_symmetry_cell_setting 'triclinic'
loop_
_space_group_symop_operation_xyz
x,y,z
-x,-y,-z
loop_
_atom_site_type_symbol
_atom_site_label
_atom_site_fract_x
_atom_site_fract_y
_atom_site_fract_z
Si Si1 0.791013 0.669707 0.999984
Si Si2 0.505731 0.830715 0.453547
Si Si3 0.404389 0.119373 0.159193
Si Si4 0.832107 0.751265 0.400204
Si Si5 0.048762 0.599636 0.815812
Si Si6 0.103157 0.104404 0.194872
Si Si7 0.655925 0.405523 0.930627
O O1 0.676911 0.747662 0.886366
O O2 0.729524 0.519722 0.930658
O O3 0.951800 0.633596 0.955862
O O4 0.803492 0.773631 0.226826
O O5 0.497273 0.834193 0.633621
O O6 0.670473 0.741435 0.406585
O O7 0.383257 0.743394 0.272231
O O8 0.500000 0.000000 0.500000
O O9 0.268601 0.058696 0.154244
O O10 0.500000 0.000000 0.000000
O O11 0.933463 0.583006 0.335165
O O12 0.890243 0.884343 0.613285
O O13 0.959426 0.718428 0.749679
O O14 0.216220 0.635973 0.925310
O O15 0.000000 0.000000 0.000000
O O16 0.500000 0.500000 0.000000
#
# Coordination Sequence:
#
# PCOD9091038 Si02
#       7
#     2   2   2   2   2   2   2
#     4  10  21  41  63  89 124 157 203 254 305 353
#     4  11  23  38  63  92 122 161 201 249 306 361
#     4  10  23  42  59  86 129 160 193 258 307 348
#     4  10  19  39  63  82 118 160 201 245 300 355
#     4  10  21  39  62  88 126 153 201 257 301 351
#     4  10  23  39  60  91 118 162 206 246 299 364
#     4  11  21  37  66  92 115 162 208 247 295 367
#
# _framework density 20.084275999999999
#
# number of rings (size 3 to 8) (size 9 to 14) (size 15 to 20)
#    0.000    1.714    2.857    3.000    4.000    0.571 
#    5.143    1.429    0.000    0.000    0.000    0.000 
#    0.000    0.000    0.000    0.000    0.000    0.000 
#
# Total GULP energy -78087.507976 kJ/mol
# GULP energy per Si atom -5577.679141 kJ/mol
# Density = 2.003856 g / cm^3
# Si number density = 20.084276 Si / 1000 Ang^3
#
#
#
# Elastic Constant Matrix: (Units=GPa)
#
#
# Indices 1 2 3 4 5 6 
#
# 1 72.5562 3.7713 35.4388 1.8189 -6.5835 -17.6266
# 2 3.7713 65.1544 19.6513 -9.2520 -9.7507 -8.2505
# 3 35.4388 19.6513 169.2193 -8.5646 -2.4226 6.5974
# 4 1.8189 -9.2520 -8.5646 22.2081 3.0975 -4.5012
# 5 -6.5835 -9.7507 -2.4226 3.0975 39.5833 5.3996
# 6 -17.6266 -8.2505 6.5974 -4.5012 5.3996 28.0217
#
#
#
# Elastic Compliance Matrix: (Units=1/GPa)
#
#
# Indices 1 2 3 4 5 6 
#
# 1 0.019551 0.002347 -0.004879 0.000070 0.001639 0.013834
# 2 0.002347 0.018584 -0.002530 0.007807 0.003083 0.008204
# 3 -0.004879 -0.002530 0.007489 0.001204 -0.000345 -0.005317
# 4 0.000070 0.007807 0.001204 0.051461 -0.003520 0.011004
# 5 0.001639 0.003083 -0.000345 -0.003520 0.027062 -0.003760
# 6 0.013834 0.008204 -0.005317 0.011004 -0.003760 0.050548
#
#
# Mechanical properties :
#
#
# Convention : Reuss Voigt Hill
#
# Bulk Modulus (GPa) = 28.16993 47.18362 37.67677
# Shear Modulus (GPa) = 25.42535 34.50053 29.96294
#
# Velocity S-wave (km/s) = 3.56186 4.14912 3.86665
# Velocity P-wave (km/s) = 5.56526 6.81890 6.22372
#
# Compressibility (1/GPa) = 0.03549884
#
# Stress axis : x y z
#
# Youngs Moduli (GPa) = 51.14722 53.80862 133.53793
#
# Poissons Ratio (x) = -0.12629 0.65159
# Poissons Ratio (y) = -0.12004 0.33789
# Poissons Ratio (z) = 0.24957 0.13615
#
# Static dielectric constant tensor:
#      x y z
#    x 1.692630 -0.029720 0.008570 
#    y -0.029720 1.764000 -0.026150 
#    z 0.008570 -0.026150 1.759830 
# 
# From -- ./inp_files/150354.got.cif
#   From: 2010.05.17/outbox.cif.g08.bks.cpg/sg2_76_cif.got.tgz:150354.got - 2010.06.03 11:33:40.
