data_PCOD9091518
_publ_section_title
;
Structure prediction by ZEFSAII (Michael W. Deem and Ramdas Pophale) SiO2 
 PCOD9091518
Probable space group: P -1
;
_chemical_formula_sum "Si O2"
_cell_formula_units_Z 16
_cell_length_a 13.923239
_cell_length_b 11.106851
_cell_length_c 9.776283
_cell_angle_alpha 135.644778
_cell_angle_beta 114.146463
_cell_angle_gamma 97.874333
_cell_volume 713.125461
_symmetry_space_group_name_H-M "P -1"
_symmetry_group_IT_number 2
_symmetry_cell_setting 'triclinic'
loop_
_space_group_symop_operation_xyz
x,y,z
-x,-y,-z
loop_
_atom_site_type_symbol
_atom_site_label
_atom_site_fract_x
_atom_site_fract_y
_atom_site_fract_z
Si Si1 0.310204 0.192610 0.389753
Si Si2 0.322320 0.039560 0.730806
Si Si3 0.164605 0.001392 0.863720
Si Si4 0.380784 0.508510 0.081762
Si Si5 0.371274 0.633312 0.870577
Si Si6 0.871362 0.216066 0.831100
Si Si7 0.910418 0.503555 0.338002
Si Si8 0.897203 0.759330 0.154954
O O1 0.470627 0.301412 0.598233
O O2 0.318593 0.408872 0.574360
O O3 0.209381 0.013213 0.306568
O O4 0.244248 0.065587 0.104406
O O5 0.234374 0.957570 0.752584
O O6 0.236474 0.854150 0.409724
O O7 0.344694 0.264976 0.879049
O O8 0.479976 0.138823 0.917986
O O9 0.997796 0.775899 0.595325
O O10 0.171136 0.201773 0.974311
O O11 0.401628 0.590779 0.005576
O O12 0.239106 0.445047 0.002165
O O13 0.248188 0.636372 0.817450
O O14 0.005456 0.279596 0.884734
O O15 0.911434 0.407257 0.116457
O O16 0.000000 0.500000 0.500000
O O17 0.000000 0.000000 0.500000
#
# Coordination Sequence:
#
# PCOD9091518 Si02
#       8
#     2   2   2   2   2   2   2   2
#     4  11  21  40  70  93 126 162 209 262 321 362
#     4  10  21  41  68  97 124 154 216 263 308 375
#     4  11  24  42  63  96 128 164 208 267 313 367
#     4  10  19  39  67 102 124 151 211 269 306 376
#     4  11  22  41  68  93 122 170 208 254 317 378
#     4  12  22  42  65  88 130 170 204 261 308 368
#     4  12  28  43  58  91 134 169 215 253 306 379
#     4  11  21  39  67  97 128 158 209 264 313 369
#
# _framework density 22.436444999999999
#
# number of rings (size 3 to 8) (size 9 to 14) (size 15 to 20)
#    0.000    1.000    6.250    2.250    1.750    6.500 
#    0.000    0.625    0.000    0.000    0.000    0.000 
#    0.000    0.000    0.000    0.000    0.000    0.000 
#
# Total GULP energy -89541.746716 kJ/mol
# GULP energy per Si atom -5596.359170 kJ/mol
# Density = 2.238538 g / cm^3
# Si number density = 22.436445 Si / 1000 Ang^3
#
#
#
# Elastic Constant Matrix: (Units=GPa)
#
#
# Indices 1 2 3 4 5 6 
#
# 1 137.4570 14.3655 57.1138 -9.8641 24.3909 20.5237
# 2 14.3655 34.9238 14.3082 -10.4199 0.6402 13.6747
# 3 57.1138 14.3082 128.5093 -25.0989 -1.1422 10.9485
# 4 -9.8641 -10.4199 -25.0989 32.8206 10.1198 2.4014
# 5 24.3909 0.6402 -1.1422 10.1198 31.5717 5.8299
# 6 20.5237 13.6747 10.9485 2.4014 5.8299 28.5291
#
#
#
# Elastic Compliance Matrix: (Units=1/GPa)
#
#
# Indices 1 2 3 4 5 6 
#
# 1 0.011697 0.000259 -0.004126 0.003732 -0.009399 -0.005349
# 2 0.000259 0.041319 0.000056 0.015421 -0.002124 -0.020877
# 3 -0.004126 0.000056 0.011176 0.006941 0.001791 -0.002298
# 4 0.003732 0.015421 0.006941 0.047628 -0.015711 -0.013538
# 5 -0.009399 -0.002124 0.001791 -0.015711 0.044193 -0.000616
# 6 -0.005349 -0.020877 -0.002298 -0.013538 -0.000616 0.051054
#
#
# Mechanical properties :
#
#
# Convention : Reuss Voigt Hill
#
# Bulk Modulus (GPa) = 17.67738 52.49612 35.08675
# Shear Modulus (GPa) = 21.40913 32.92446 27.16680
#
# Velocity S-wave (km/s) = 3.09238 3.83489 3.48348
# Velocity P-wave (km/s) = 4.54383 6.56179 5.64373
#
# Compressibility (1/GPa) = 0.05656947
#
# Stress axis : x y z
#
# Youngs Moduli (GPa) = 85.49476 24.20216 89.47451
#
# Poissons Ratio (x) = -0.00627 0.36920
# Poissons Ratio (y) = -0.02216 -0.00501
# Poissons Ratio (z) = 0.35277 -0.00136
#
# Static dielectric constant tensor:
#      x y z
#    x 1.847140 -0.017150 -0.006810 
#    y -0.017150 1.862180 0.037590 
#    z -0.006810 0.037590 1.819240 
# 
# From -- ./inp_files/215527.got.cif
#   From: 2010.05.17/outbox.cif.g08.bks.cpg/sg2_108_cif.got.tgz:215527.got - 2010.06.03 11:33:40.
