data_PCOD9091193
_publ_section_title
;
Structure prediction by ZEFSAII (Michael W. Deem and Ramdas Pophale) SiO2 
 PCOD9091193
Probable space group: P -1
;
_chemical_formula_sum "Si O2"
_cell_formula_units_Z 16
_cell_length_a 17.716446
_cell_length_b 10.637472
_cell_length_c 8.743369
_cell_angle_alpha 70.029438
_cell_angle_beta 66.234155
_cell_angle_gamma 126.239706
_cell_volume 752.816032
_symmetry_space_group_name_H-M "P -1"
_symmetry_group_IT_number 2
_symmetry_cell_setting 'triclinic'
loop_
_space_group_symop_operation_xyz
x,y,z
-x,-y,-z
loop_
_atom_site_type_symbol
_atom_site_label
_atom_site_fract_x
_atom_site_fract_y
_atom_site_fract_z
Si Si1 0.641873 0.091395 0.240099
Si Si2 0.851126 0.209175 0.785979
Si Si3 0.561812 0.731891 0.032803
Si Si4 0.546314 0.985913 0.810461
Si Si5 0.866287 0.048361 0.113944
Si Si6 0.186168 0.543149 0.773822
Si Si7 0.689365 0.574043 0.369763
Si Si8 0.515483 0.650858 0.643762
O O1 0.756066 0.320126 0.169906
O O2 0.542684 0.058545 0.233791
O O3 0.536027 0.840426 0.527631
O O4 0.742580 0.148620 0.011041
O O5 0.000000 0.500000 0.500000
O O6 0.901715 0.154977 0.873178
O O7 0.738140 0.004123 0.828493
O O8 0.446818 0.616596 0.314239
O O9 0.537289 0.538110 0.115604
O O10 0.518779 0.787925 0.921594
O O11 0.728507 0.254487 0.512483
O O12 0.500000 0.000000 0.000000
O O13 0.836438 0.850592 0.206480
O O14 0.695621 0.861453 0.381646
O O15 0.002015 0.284238 0.014098
O O16 0.252507 0.486872 0.712442
O O17 0.609378 0.545885 0.308616
#
# Coordination Sequence:
#
# PCOD9091193 Si02
#       8
#     2   2   2   2   2   2   2   2
#     4  11  24  41  63  90 128 167 205 255 318 373
#     4  11  20  35  61  92 124 159 205 262 308 358
#     4  11  19  36  62  94 118 156 216 262 292 355
#     4  12  21  37  62  96 122 160 212 257 305 368
#     4  10  21  35  61  94 120 163 215 253 302 369
#     4  12  24  38  62  95 132 160 202 261 317 368
#     4  11  18  38  66  90 122 164 215 249 299 375
#     4  10  19  39  64  87 121 165 211 254 301 366
#
# _framework density 21.253533000000001
#
# number of rings (size 3 to 8) (size 9 to 14) (size 15 to 20)
#    0.000    1.000    7.500    2.250    0.000    2.000 
#    0.000    0.625    0.000    8.250    0.000    0.000 
#    0.000    0.000    0.000    0.000    0.000    0.000 
#
# Total GULP energy -89183.345074 kJ/mol
# GULP energy per Si atom -5573.959067 kJ/mol
# Density = 2.120516 g / cm^3
# Si number density = 21.253533 Si / 1000 Ang^3
#
#
#
# Elastic Constant Matrix: (Units=GPa)
#
#
# Indices 1 2 3 4 5 6 
#
# 1 98.1553 38.0195 33.3217 -13.5673 35.2955 2.1007
# 2 38.0195 100.5221 39.5163 -30.6466 15.8202 10.1702
# 3 33.3217 39.5163 103.5498 -34.7065 19.3614 10.2481
# 4 -13.5673 -30.6466 -34.7065 36.7689 -3.3049 -2.5391
# 5 35.2955 15.8202 19.3614 -3.3049 41.7780 -4.1300
# 6 2.1007 10.1702 10.2481 -2.5391 -4.1300 36.4023
#
#
#
# Elastic Compliance Matrix: (Units=1/GPa)
#
#
# Indices 1 2 3 4 5 6 
#
# 1 0.016419 -0.003476 -0.001401 0.000705 -0.011938 -0.000887
# 2 -0.003476 0.015390 -0.000403 0.010726 -0.002201 -0.003487
# 3 -0.001401 -0.000403 0.016314 0.013768 -0.005537 -0.004067
# 4 0.000705 0.010726 0.013768 0.048401 -0.007644 -0.004404
# 5 -0.011938 -0.002201 -0.005537 -0.007644 0.037467 0.006580
# 6 -0.000887 -0.003487 -0.004067 -0.004404 0.006580 0.030081
#
#
# Mechanical properties :
#
#
# Convention : Reuss Voigt Hill
#
# Bulk Modulus (GPa) = 26.62138 58.21580 42.41859
# Shear Modulus (GPa) = 26.71602 35.74783 31.23193
#
# Velocity S-wave (km/s) = 3.54929 4.10563 3.83756
# Velocity P-wave (km/s) = 5.41751 7.06580 6.29583
#
# Compressibility (1/GPa) = 0.03756379
#
# Stress axis : x y z
#
# Youngs Moduli (GPa) = 60.90506 64.97516 61.29646
#
# Poissons Ratio (x) = 0.22585 0.08588
# Poissons Ratio (y) = 0.21170 0.02470
# Poissons Ratio (z) = 0.08533 0.02619
#
# Static dielectric constant tensor:
#      x y z
#    x 1.848540 -0.040540 0.043810 
#    y -0.040540 1.826740 -0.006350 
#    z 0.043810 -0.006350 1.767870 
# 
# From -- ./inp_files/333038.got.cif
#   From: 2010.05.17/outbox.cif.g08.bks.cpg/sg2_167_cif.got.tgz:333038.got - 2010.06.03 11:33:40.
