data_PCOD9091854
_publ_section_title
;
Structure prediction by ZEFSAII (Michael W. Deem and Ramdas Pophale) SiO2 
 PCOD9091854
Probable space group: P -1
;
_chemical_formula_sum "Si O2"
_cell_formula_units_Z 16
_cell_length_a 10.030808
_cell_length_b 8.242489
_cell_length_c 19.764190
_cell_angle_alpha 29.888198
_cell_angle_beta 82.113554
_cell_angle_gamma 82.200492
_cell_volume 806.111247
_symmetry_space_group_name_H-M "P -1"
_symmetry_group_IT_number 2
_symmetry_cell_setting 'triclinic'
loop_
_space_group_symop_operation_xyz
x,y,z
-x,-y,-z
loop_
_atom_site_type_symbol
_atom_site_label
_atom_site_fract_x
_atom_site_fract_y
_atom_site_fract_z
Si Si1 0.121412 0.631879 0.628393
Si Si2 0.173071 0.369410 0.356758
Si Si3 0.668572 0.265255 0.210587
Si Si4 0.087684 0.469794 0.843552
Si Si5 0.475197 0.724976 0.986736
Si Si6 0.397502 0.270195 0.702551
Si Si7 0.200638 0.731562 0.084870
Si Si8 0.414541 0.171278 0.503716
O O1 0.100924 0.637138 0.708850
O O2 0.251190 0.409328 0.683835
O O3 0.978325 0.515307 0.652686
O O4 0.152301 0.994672 0.471111
O O5 0.218326 0.573693 0.215080
O O6 0.282324 0.345648 0.416982
O O7 0.826005 0.336084 0.178977
O O8 0.628892 0.998897 0.254712
O O9 0.624572 0.109569 0.340509
O O10 0.588293 0.601059 0.076301
O O11 0.930280 0.426721 0.882720
O O12 0.157914 0.111025 0.959841
O O13 0.470434 0.090798 0.826115
O O14 0.500000 0.500000 0.000000
O O15 0.331657 0.678892 0.048969
O O16 0.490828 0.559654 0.568179
O O17 0.500000 0.000000 0.500000
#
# Coordination Sequence:
#
# PCOD9091854 Si02
#       8
#     2   2   2   2   2   2   2   2
#     4  10  19  40  62  86 120 157 196 253 298 352
#     4  10  21  35  64  92 117 148 206 252 294 351
#     4  11  24  41  59  89 123 160 199 249 305 361
#     4  10  20  39  65  90 117 158 206 249 300 352
#     4  10  23  41  59  86 124 163 197 248 304 357
#     4  11  23  41  59  84 125 161 197 247 306 355
#     4  10  21  37  65  92 118 154 206 254 294 355
#     4  12  22  39  62  91 115 159 202 246 297 359
#
# _framework density 19.848376999999999
#
# number of rings (size 3 to 8) (size 9 to 14) (size 15 to 20)
#    0.000    1.500    3.750    1.125    1.750    0.500 
#    0.000    5.625    0.000    0.000    0.000    0.000 
#    0.000    0.000    0.000    0.000    0.000    0.000 
#
# Total GULP energy -89309.478613 kJ/mol
# GULP energy per Si atom -5581.842413 kJ/mol
# Density = 1.980320 g / cm^3
# Si number density = 19.848377 Si / 1000 Ang^3
#
#
#
# Elastic Constant Matrix: (Units=GPa)
#
#
# Indices 1 2 3 4 5 6 
#
# 1 93.8087 13.3770 -3.6150 3.6022 11.3322 15.7792
# 2 13.3770 22.1423 0.7058 0.6339 -0.1237 6.0293
# 3 -3.6150 0.7058 90.6081 10.5418 17.2728 3.6272
# 4 3.6022 0.6339 10.5418 22.2562 1.7244 -0.8168
# 5 11.3322 -0.1237 17.2728 1.7244 35.1882 -3.9330
# 6 15.7792 6.0293 3.6272 -0.8168 -3.9330 30.7740
#
#
#
# Elastic Compliance Matrix: (Units=1/GPa)
#
#
# Indices 1 2 3 4 5 6 
#
# 1 0.013701 -0.006418 0.002407 -0.002945 -0.006247 -0.006928
# 2 -0.006418 0.050815 -0.000708 -0.000454 0.001906 -0.006350
# 3 0.002407 -0.000708 0.013453 -0.006300 -0.007498 -0.003807
# 4 -0.002945 -0.000454 -0.006300 0.048385 0.002104 0.003895
# 5 -0.006247 0.001906 -0.007498 0.002104 0.034935 0.008234
# 6 -0.006928 -0.006350 -0.003807 0.003895 0.008234 0.038896
#
#
# Mechanical properties :
#
#
# Convention : Reuss Voigt Hill
#
# Bulk Modulus (GPa) = 14.59189 25.27720 19.93455
# Shear Modulus (GPa) = 21.50850 30.71644 26.11247
#
# Velocity S-wave (km/s) = 3.29544 3.93816 3.63105
# Velocity P-wave (km/s) = 4.67414 5.78288 5.25781
#
# Compressibility (1/GPa) = 0.06853120
#
# Stress axis : x y z
#
# Youngs Moduli (GPa) = 72.98735 19.67914 74.33357
#
# Poissons Ratio (x) = 0.12630 -0.17895
# Poissons Ratio (y) = 0.46845 0.05264
# Poissons Ratio (z) = -0.17571 0.01394
#
# Static dielectric constant tensor:
#      x y z
#    x 1.735020 0.022700 0.017220 
#    y 0.022700 1.674000 -0.000630 
#    z 0.017220 -0.000630 1.716320 
# 
# From -- ./inp_files/179260.got.cif
#   From: 2010.05.17/outbox.cif.g08.bks.cpg/sg2_90_cif.got.tgz:179260.got - 2010.06.03 11:33:40.
