data_PCOD9091064
_publ_section_title
;
Structure prediction by ZEFSAII (Michael W. Deem and Ramdas Pophale) SiO2 
 PCOD9091064
Probable space group: P -1
;
_chemical_formula_sum "Si O2"
_cell_formula_units_Z 16
_cell_length_a 12.278452
_cell_length_b 7.061895
_cell_length_c 11.876523
_cell_angle_alpha 71.810220
_cell_angle_beta 112.058538
_cell_angle_gamma 140.162725
_cell_volume 610.920755
_symmetry_space_group_name_H-M "P -1"
_symmetry_group_IT_number 2
_symmetry_cell_setting 'triclinic'
loop_
_space_group_symop_operation_xyz
x,y,z
-x,-y,-z
loop_
_atom_site_type_symbol
_atom_site_label
_atom_site_fract_x
_atom_site_fract_y
_atom_site_fract_z
Si Si1 0.508755 0.985994 0.179537
Si Si2 0.741089 0.100855 0.420197
Si Si3 0.984889 0.006426 0.741398
Si Si4 0.922859 0.659300 0.517458
Si Si5 0.614151 0.625689 0.782228
Si Si6 0.124207 0.498293 0.104917
Si Si7 0.551959 0.300433 0.468215
Si Si8 0.734200 0.578268 0.031831
O O1 0.480361 0.710869 0.200595
O O2 0.312302 0.808411 0.162395
O O3 0.654517 0.161703 0.299316
O O4 0.588348 0.234620 0.073140
O O5 0.843215 0.342721 0.514271
O O6 0.883007 0.149056 0.400685
O O7 0.578512 0.784292 0.470266
O O8 0.037667 0.169762 0.614104
O O9 0.137025 0.229723 0.850519
O O10 0.798312 0.857303 0.742197
O O11 0.958426 0.734433 0.784621
O O12 0.757153 0.560687 0.527315
O O13 0.494772 0.642788 0.675377
O O14 0.657895 0.680345 0.922754
O O15 0.160386 0.392690 0.034731
O O16 0.000000 0.500000 0.000000
O O17 0.500000 0.000000 0.500000
#
# Coordination Sequence:
#
# PCOD9091064 Si02
#       8
#     2   2   2   2   2   2   2   2
#     4  10  21  39  64  86 120 169 198 247 325 372
#     4  10  20  40  60  86 125 156 205 253 309 362
#     4  10  19  39  63  87 120 169 208 248 314 378
#     4  10  20  37  62  88 117 161 207 254 307 358
#     4  10  20  38  60  87 125 159 199 261 312 367
#     4  10  22  40  57  92 130 157 199 263 311 365
#     4  10  22  38  59  89 121 159 205 260 302 363
#     4  10  20  39  65  89 117 170 210 241 319 380
#
# _framework density 26.189976999999999
#
# number of rings (size 3 to 8) (size 9 to 14) (size 15 to 20)
#    0.000    2.250    2.500    3.000    0.000    2.500 
#   11.250    1.875    0.000    0.000    0.000    0.000 
#    0.000    0.000    0.000    0.000    0.000    0.000 
#
# Total GULP energy -89424.004132 kJ/mol
# GULP energy per Si atom -5589.000258 kJ/mol
# Density = 2.613037 g / cm^3
# Si number density = 26.189977 Si / 1000 Ang^3
#
#
#
# Elastic Constant Matrix: (Units=GPa)
#
#
# Indices 1 2 3 4 5 6 
#
# 1 88.7022 58.2286 49.1694 0.4894 21.5505 34.6003
# 2 58.2286 154.6958 50.0277 -18.9682 13.5921 30.0652
# 3 49.1694 50.0277 178.6085 -9.8471 39.1288 25.7070
# 4 0.4894 -18.9682 -9.8471 58.5330 7.9163 6.1957
# 5 21.5505 13.5921 39.1288 7.9163 45.6838 -2.5527
# 6 34.6003 30.0652 25.7070 6.1957 -2.5527 49.7533
#
#
#
# Elastic Compliance Matrix: (Units=1/GPa)
#
#
# Indices 1 2 3 4 5 6 
#
# 1 0.021870 -0.004636 -0.000925 0.000692 -0.008962 -0.012476
# 2 -0.004636 0.009397 -0.000621 0.003363 -0.000805 -0.002594
# 3 -0.000925 -0.000621 0.008312 0.002595 -0.007170 -0.003967
# 4 0.000692 0.003363 0.002595 0.020329 -0.007450 -0.006768
# 5 -0.008962 -0.000805 -0.007170 -0.007450 0.034522 0.013123
# 6 -0.012476 -0.002594 -0.003967 -0.006768 0.013123 0.033909
#
#
# Mechanical properties :
#
#
# Convention : Reuss Voigt Hill
#
# Bulk Modulus (GPa) = 36.74314 81.87307 59.30811
# Shear Modulus (GPa) = 33.38371 48.43274 40.90823
#
# Velocity S-wave (km/s) = 3.57413 4.30500 3.95648
# Velocity P-wave (km/s) = 5.57606 7.48597 6.60046
#
# Compressibility (1/GPa) = 0.02721597
#
# Stress axis : x y z
#
# Youngs Moduli (GPa) = 45.72574 106.41386 120.30624
#
# Poissons Ratio (x) = 0.49331 0.11127
# Poissons Ratio (y) = 0.21198 0.07469
# Poissons Ratio (z) = 0.04229 0.06606
#
# Static dielectric constant tensor:
#      x y z
#    x 2.194020 -0.059880 -0.044250 
#    y -0.059880 2.096340 0.074530 
#    z -0.044250 0.074530 2.124440 
# 
# From -- ./inp_files/452135.got.cif
#   From: 2010.05.17/outbox.cif.g08.bks.cpg/sg2_227_cif.got.tgz:452135.got - 2010.06.03 11:33:40.
