data_PCOD9091786
_publ_section_title
;
Structure prediction by ZEFSAII (Michael W. Deem and Ramdas Pophale) SiO2 
 PCOD9091786
Probable space group: P -1
;
_chemical_formula_sum "Si O2"
_cell_formula_units_Z 14
_cell_length_a 10.097087
_cell_length_b 13.095374
_cell_length_c 7.309448
_cell_angle_alpha 127.521369
_cell_angle_beta 100.152750
_cell_angle_gamma 109.952118
_cell_volume 617.547048
_symmetry_space_group_name_H-M "P -1"
_symmetry_group_IT_number 2
_symmetry_cell_setting 'triclinic'
loop_
_space_group_symop_operation_xyz
x,y,z
-x,-y,-z
loop_
_atom_site_type_symbol
_atom_site_label
_atom_site_fract_x
_atom_site_fract_y
_atom_site_fract_z
Si Si1 0.215414 0.810627 0.978751
Si Si2 0.483080 0.179514 0.812523
Si Si3 0.875962 0.956662 0.754125
Si Si4 0.659673 0.651222 0.114330
Si Si5 0.042704 0.647945 0.400793
Si Si6 0.875986 0.130026 0.641877
Si Si7 0.258063 0.578503 0.131960
O O1 0.385464 0.827115 0.045450
O O2 0.123201 0.751440 0.086872
O O3 0.230272 0.974741 0.135296
O O4 0.097557 0.693487 0.668213
O O5 0.407988 0.276045 0.958809
O O6 0.576689 0.266061 0.738609
O O7 0.318388 0.006660 0.564918
O O8 0.765137 0.782960 0.444270
O O9 0.962834 0.066397 0.712893
O O10 0.000000 0.000000 0.000000
O O11 0.500000 0.500000 0.000000
O O12 0.735332 0.564940 0.947753
O O13 0.065085 0.795899 0.459396
O O14 0.165700 0.618502 0.295120
O O15 0.855943 0.507117 0.167904
#
# Coordination Sequence:
#
# PCOD9091786 Si02
#       7
#     2   2   2   2   2   2   2
#     4  10  21  35  64  86 116 150 204 244 288 346
#     4  10  19  40  60  86 113 164 194 239 292 352
#     4   9  18  35  59  88 111 152 199 240 288 350
#     4   9  19  34  61  81 119 162 190 235 300 354
#     4  11  22  38  59  94 116 152 194 252 292 348
#     4   9  21  38  62  84 120 149 198 243 293 340
#     4  10  21  38  58  85 126 153 194 238 303 352
#
# _framework density 22.670337
#
# number of rings (size 3 to 8) (size 9 to 14) (size 15 to 20)
#    0.857    1.429    1.429    1.286    0.000    1.143 
#    0.000    7.143    0.000    0.000    0.000    0.000 
#    0.000    0.000    0.000    0.000    0.000    0.000 
#
# Total GULP energy -77934.432636 kJ/mol
# GULP energy per Si atom -5566.745188 kJ/mol
# Density = 2.261874 g / cm^3
# Si number density = 22.670337 Si / 1000 Ang^3
#
#
#
# Elastic Constant Matrix: (Units=GPa)
#
#
# Indices 1 2 3 4 5 6 
#
# 1 93.3716 27.6688 23.0525 5.4332 4.7967 -30.1625
# 2 27.6688 85.5998 37.5208 11.9087 7.7844 -27.4429
# 3 23.0525 37.5208 80.1403 5.7471 -1.7263 -8.1752
# 4 5.4332 11.9087 5.7471 34.3134 -3.7917 5.0974
# 5 4.7967 7.7844 -1.7263 -3.7917 29.7309 3.6225
# 6 -30.1625 -27.4429 -8.1752 5.0974 3.6225 44.4533
#
#
#
# Elastic Compliance Matrix: (Units=1/GPa)
#
#
# Indices 1 2 3 4 5 6 
#
# 1 0.015508 0.001497 -0.003744 -0.004654 -0.005132 0.011710
# 2 0.001497 0.022016 -0.008731 -0.009684 -0.009562 0.014891
# 3 -0.003744 -0.008731 0.017041 0.002107 0.004810 -0.005430
# 4 -0.004654 -0.009684 0.002107 0.035986 0.009663 -0.013663
# 5 -0.005132 -0.009562 0.004810 0.009663 0.040047 -0.012872
# 6 0.011710 0.014891 -0.005430 -0.013663 -0.012872 0.041251
#
#
# Mechanical properties :
#
#
# Convention : Reuss Voigt Hill
#
# Bulk Modulus (GPa) = 30.66572 48.39956 39.53264
# Shear Modulus (GPa) = 24.42899 33.09083 28.75991
#
# Velocity S-wave (km/s) = 3.28621 3.82469 3.56563
# Velocity P-wave (km/s) = 5.28725 6.39531 5.86749
#
# Compressibility (1/GPa) = 0.03260970
#
# Stress axis : x y z
#
# Youngs Moduli (GPa) = 64.48351 45.42059 58.68085
#
# Poissons Ratio (x) = -0.06798 0.21969
# Poissons Ratio (y) = -0.09651 0.51233
# Poissons Ratio (z) = 0.24141 0.39656
#
# Static dielectric constant tensor:
#      x y z
#    x 1.989370 -0.095580 -0.027590 
#    y -0.095580 1.916920 0.054500 
#    z -0.027590 0.054500 1.840660 
# 
# From -- ./inp_files/269006.got.cif
#   From: 2010.05.17/outbox.cif.g08.bks.cpg/sg2_135_cif.got.tgz:269006.got - 2010.06.03 11:33:40.
