data_PCOD9091009
_publ_section_title
;
Structure prediction by ZEFSAII (Michael W. Deem and Ramdas Pophale) SiO2 
 PCOD9091009
Probable space group: P -1
;
_chemical_formula_sum "Si O2"
_cell_formula_units_Z 12
_cell_length_a 12.039845
_cell_length_b 10.455143
_cell_length_c 15.816205
_cell_angle_alpha 37.087689
_cell_angle_beta 154.907672
_cell_angle_gamma 128.956735
_cell_volume 473.742862
_symmetry_space_group_name_H-M "P -1"
_symmetry_group_IT_number 2
_symmetry_cell_setting 'triclinic'
loop_
_space_group_symop_operation_xyz
x,y,z
-x,-y,-z
loop_
_atom_site_type_symbol
_atom_site_label
_atom_site_fract_x
_atom_site_fract_y
_atom_site_fract_z
Si Si1 0.850399 0.305439 0.260362
Si Si2 0.752915 0.446132 0.313792
Si Si3 0.549545 0.890724 0.185011
Si Si4 0.647174 0.723968 0.785712
Si Si5 0.137569 0.831547 0.058121
Si Si6 0.513345 0.571977 0.597433
O O1 0.822332 0.364631 0.309031
O O2 0.162579 0.116980 0.567868
O O3 0.534071 0.327417 0.003122
O O4 0.852010 0.520081 0.093225
O O5 0.648578 0.259142 0.384903
O O6 0.000000 0.500000 0.500000
O O7 0.280743 0.962341 0.025663
O O8 0.608147 0.618939 0.354784
O O9 0.500000 0.000000 0.000000
O O10 0.638385 0.647205 0.724714
O O11 0.803231 0.903715 0.799052
O O12 0.297790 0.776879 0.286751
O O13 0.245667 0.582648 0.218108
#
# Coordination Sequence:
#
# PCOD9091009 Si02
#       6
#     2   2   2   2   2   2
#     4   9  18  31  47  76 103 122 166 207 241 292
#     4   9  18  29  50  75 100 126 163 213 250 274
#     4  10  19  33  50  72 106 137 158 196 253 304
#     4  10  16  28  54  74  97 123 167 206 251 287
#     4   9  18  30  49  71 105 123 166 207 245 287
#     4   9  16  29  49  71 100 126 160 203 246 286
#
# _framework density 25.330196000000001
#
# number of rings (size 3 to 8) (size 9 to 14) (size 15 to 20)
#    2.000    0.667    1.667    1.500    0.000    0.000 
#    0.000    0.833    0.000    1.000    0.000    2.333 
#    0.000    0.000    0.000    0.000    0.000    0.000 
#
# Total GULP energy -66884.085978 kJ/mol
# GULP energy per Si atom -5573.673832 kJ/mol
# Density = 2.527254 g / cm^3
# Si number density = 25.330196 Si / 1000 Ang^3
#
#
#
# Elastic Constant Matrix: (Units=GPa)
#
#
# Indices 1 2 3 4 5 6 
#
# 1 149.6242 64.4738 66.3104 16.0918 -21.4932 45.2698
# 2 64.4738 50.2379 84.5389 20.1042 6.0973 33.6081
# 3 66.3104 84.5389 149.8907 27.8857 -3.9415 40.3761
# 4 16.0918 20.1042 27.8857 52.9328 4.8557 12.6235
# 5 -21.4932 6.0973 -3.9415 4.8557 65.1457 2.8200
# 6 45.2698 33.6081 40.3761 12.6235 2.8200 49.3423
#
#
#
# Elastic Compliance Matrix: (Units=1/GPa)
#
#
# Indices 1 2 3 4 5 6 
#
# 1 0.002347 0.035916 -0.017994 -0.001918 -0.003047 -0.011228
# 2 0.035916 -0.153139 0.066362 0.006329 0.029130 0.013767
# 3 -0.017994 0.066362 -0.019096 -0.005954 -0.012390 -0.010834
# 4 -0.001918 0.006329 -0.005954 0.021184 -0.003038 -0.002925
# 5 -0.003047 0.029130 -0.012390 -0.003038 0.011389 -0.006780
# 6 -0.011228 0.013767 -0.010834 -0.002925 -0.006780 0.031191
#
#
# Mechanical properties :
#
#
# Convention : Reuss Voigt Hill
#
# Bulk Modulus (GPa) = -757.81197 86.71098 -335.55049
# Shear Modulus (GPa) = -18.17315 42.44616 12.13651
#
# Velocity S-wave (km/s) = -2.68143 4.09799 2.19128
# Velocity P-wave (km/s) = 17.59004 7.52980 11.24081
#
# Compressibility (1/GPa) = -0.00131959
#
# Stress axis : x y z
#
# Youngs Moduli (GPa) = 426.05389 -6.53003 -52.36670
#
# Poissons Ratio (x) = 0.23454 -0.94230
# Poissons Ratio (y) = -15.30234 3.47515
# Poissons Ratio (z) = 7.66653 0.43334
#
# Static dielectric constant tensor:
#      x y z
#    x 1.442400 -0.232380 1.923370 
#    y -0.232380 2.037180 0.852200 
#    z 1.923370 0.852200 -4.541160 
# 
# From -- ./inp_files/573838.got.cif
#   From: 2010.05.17/outbox.cif.g08.bks.cpg/sg2_287_cif.got.tgz:573838.got - 2010.06.03 11:33:40.
