data_PCOD9091321
_publ_section_title
;
Structure prediction by ZEFSAII (Michael W. Deem and Ramdas Pophale) SiO2 
 PCOD9091321
Probable space group: P -1
;
_chemical_formula_sum "Si O2"
_cell_formula_units_Z 16
_cell_length_a 22.174680
_cell_length_b 9.247676
_cell_length_c 19.606556
_cell_angle_alpha 42.287067
_cell_angle_beta 18.486534
_cell_angle_gamma 40.161752
_cell_volume 820.005742
_symmetry_space_group_name_H-M "P -1"
_symmetry_group_IT_number 2
_symmetry_cell_setting 'triclinic'
loop_
_space_group_symop_operation_xyz
x,y,z
-x,-y,-z
loop_
_atom_site_type_symbol
_atom_site_label
_atom_site_fract_x
_atom_site_fract_y
_atom_site_fract_z
Si Si1 0.088653 0.547965 0.650591
Si Si2 0.061695 0.769707 0.470356
Si Si3 0.537499 0.805472 0.582660
Si Si4 0.379068 0.383824 0.884805
Si Si5 0.344810 0.343976 0.085427
Si Si6 0.392758 0.071629 0.262038
Si Si7 0.376416 0.841153 0.891113
Si Si8 0.016063 0.005749 0.304963
O O1 0.172805 0.592115 0.470241
O O2 0.080395 0.758044 0.635726
O O3 0.230647 0.321177 0.607908
O O4 0.859718 0.554816 0.884099
O O5 0.868675 0.697097 0.681519
O O6 0.000000 0.000000 0.500000
O O7 0.134970 0.835268 0.296500
O O8 0.447046 0.605524 0.726486
O O9 0.439070 0.891341 0.731222
O O10 0.500000 0.000000 0.500000
O O11 0.478052 0.187257 0.794971
O O12 0.447181 0.283524 0.922760
O O13 0.436231 0.202566 0.102970
O O14 0.330342 0.602380 0.021663
O O15 0.454867 0.165595 0.231827
O O16 0.161780 0.080090 0.503560
O O17 0.174433 0.015621 0.074820
#
# Coordination Sequence:
#
# PCOD9091321 Si02
#       8
#     2   2   2   2   2   2   2   2
#     4  10  19  39  65  88 122 163 204 244 292 366
#     4   8  17  31  56  93 124 166 201 226 281 368
#     4  11  26  46  65  87 113 153 213 270 315 354
#     4  10  20  38  65  89 121 164 208 239 294 371
#     4   9  20  33  54  93 134 165 197 235 287 359
#     4  11  20  35  61  93 130 167 195 234 297 369
#     4  11  24  39  58  92 127 155 203 260 306 344
#     4  10  20  36  61  91 133 162 195 237 293 367
#
# _framework density 19.512058
#
# number of rings (size 3 to 8) (size 9 to 14) (size 15 to 20)
#    0.000    2.000    2.500    0.750    0.000    8.500 
#    0.000    1.250    0.000    0.000    0.000    0.000 
#    0.000    0.000    0.000    0.000    0.000    0.000 
#
# Total GULP energy -89347.182525 kJ/mol
# GULP energy per Si atom -5584.198908 kJ/mol
# Density = 1.946765 g / cm^3
# Si number density = 19.512058 Si / 1000 Ang^3
#
#
#
# Elastic Constant Matrix: (Units=GPa)
#
#
# Indices 1 2 3 4 5 6 
#
# 1 127.2209 61.7282 58.1837 -10.4779 2.0454 -1.1223
# 2 61.7282 66.4288 29.3560 -4.6467 17.3733 -12.6689
# 3 58.1837 29.3560 79.8720 0.4711 -4.1321 -7.1368
# 4 -10.4779 -4.6467 0.4711 28.6570 -4.7888 2.6633
# 5 2.0454 17.3733 -4.1321 -4.7888 30.7791 1.7548
# 6 -1.1223 -12.6689 -7.1368 2.6633 1.7548 39.0472
#
#
#
# Elastic Compliance Matrix: (Units=1/GPa)
#
#
# Indices 1 2 3 4 5 6 
#
# 1 0.022455 -0.020859 -0.008962 0.007587 0.010759 -0.008761
# 2 -0.020859 0.043873 -0.000860 -0.006124 -0.025303 0.015033
# 3 -0.008962 -0.000860 0.019826 -0.003536 0.003010 0.003193
# 4 0.007587 -0.006124 -0.003536 0.038714 0.008812 -0.005452
# 5 0.010759 -0.025303 0.003010 0.008812 0.048410 -0.010127
# 6 -0.008761 0.015033 0.003193 -0.005452 -0.010127 0.031646
#
#
# Mechanical properties :
#
#
# Convention : Reuss Voigt Hill
#
# Bulk Modulus (GPa) = 40.33454 63.56193 51.94824
# Shear Modulus (GPa) = 18.21171 27.98025 23.09598
#
# Velocity S-wave (km/s) = 3.05840 3.79092 3.44419
# Velocity P-wave (km/s) = 5.76092 7.19777 6.51906
#
# Compressibility (1/GPa) = 0.02479264
#
# Stress axis : x y z
#
# Youngs Moduli (GPa) = 44.53433 22.79308 50.43845
#
# Poissons Ratio (x) = 0.47545 0.45202
# Poissons Ratio (y) = 0.92895 0.04335
# Poissons Ratio (z) = 0.39911 0.01959
#
# Static dielectric constant tensor:
#      x y z
#    x 1.716940 0.015820 -0.043200 
#    y 0.015820 1.680650 0.022540 
#    z -0.043200 0.022540 1.743510 
# 
# From -- ./inp_files/217986.got.cif
#   From: 2010.05.17/outbox.cif.g08.bks.cpg/sg2_109_cif.got.tgz:217986.got - 2010.06.03 11:33:40.
