data_PCOD9091391
_publ_section_title
;
Structure prediction by ZEFSAII (Michael W. Deem and Ramdas Pophale) SiO2 
 PCOD9091391
Probable space group: P -1
;
_chemical_formula_sum "Si O2"
_cell_formula_units_Z 13
_cell_length_a 14.490540
_cell_length_b 8.911125
_cell_length_c 13.553950
_cell_angle_alpha 136.527723
_cell_angle_beta 32.708235
_cell_angle_gamma 148.236255
_cell_volume 497.522817
_symmetry_space_group_name_H-M "P -1"
_symmetry_group_IT_number 2
_symmetry_cell_setting 'triclinic'
loop_
_space_group_symop_operation_xyz
x,y,z
-x,-y,-z
loop_
_atom_site_type_symbol
_atom_site_label
_atom_site_fract_x
_atom_site_fract_y
_atom_site_fract_z
Si Si1 0.002852 0.665295 0.315013
Si Si2 0.580488 0.497005 0.706400
Si Si3 0.500000 0.500000 0.000000
Si Si4 0.083148 0.810857 0.101505
Si Si5 0.387532 0.934957 0.720796
Si Si6 0.095113 0.451132 0.297768
Si Si7 0.281003 0.169284 0.644778
O O1 0.835468 0.693014 0.534268
O O2 0.825020 0.349677 0.275020
O O3 0.135818 0.854662 0.190355
O O4 0.148328 0.664065 0.265438
O O5 0.428772 0.421820 0.711106
O O6 0.513398 0.192979 0.654093
O O7 0.503472 0.557540 0.900974
O O8 0.276575 0.457158 0.190607
O O9 0.873362 0.799262 0.266648
O O10 0.293630 0.015810 0.933417
O O11 0.000000 0.500000 0.000000
O O12 0.550032 0.868956 0.575160
O O13 0.000000 0.500000 0.500000
O O14 0.904900 0.130365 0.276517
#
# Coordination Sequence:
#
# PCOD9091391 Si02
#       7
#     2   2   1   2   2   2   2
#     4  10  20  41  63  93 133 162 206 276 320 366
#     4  11  21  40  68  99 122 168 225 264 314 389
#     4  12  26  34  62 100 126 158 220 262 324 368
#     4  10  24  37  60 103 135 162 215 265 319 388
#     4  10  19  39  65  97 123 163 217 265 312 391
#     4  12  23  43  67  96 127 170 215 277 312 379
#     4  11  22  41  72  91 130 175 211 265 328 371
#
# _framework density 26.129453999999999
#
# number of rings (size 3 to 8) (size 9 to 14) (size 15 to 20)
#    0.000    1.231    4.615    1.846    4.308    6.769 
#    0.000    0.769    0.000    4.615    0.000    0.000 
#    0.000    0.000    0.000    0.000    0.000    0.000 
#
# Total GULP energy -72569.514923 kJ/mol
# GULP energy per Si atom -5582.270379 kJ/mol
# Density = 2.606998 g / cm^3
# Si number density = 26.129454 Si / 1000 Ang^3
#
#
#
# Elastic Constant Matrix: (Units=GPa)
#
#
# Indices 1 2 3 4 5 6 
#
# 1 145.8816 -11.7616 39.2340 3.5620 -22.1268 -15.6741
# 2 -11.7616 66.2603 -7.3464 -12.1850 5.9936 -4.9846
# 3 39.2340 -7.3464 117.0629 9.9380 -8.3962 -11.1206
# 4 3.5620 -12.1850 9.9380 45.9910 0.4066 11.9232
# 5 -22.1268 5.9936 -8.3962 0.4066 64.6790 -7.4707
# 6 -15.6741 -4.9846 -11.1206 11.9232 -7.4707 35.8599
#
#
#
# Elastic Compliance Matrix: (Units=1/GPa)
#
#
# Indices 1 2 3 4 5 6 
#
# 1 0.008425 0.001123 -0.002056 -0.001017 0.002999 0.004164
# 2 0.001123 0.016218 0.000390 0.003765 -0.000928 0.001421
# 3 -0.002056 0.000390 0.009872 -0.002741 0.000943 0.003325
# 4 -0.001017 0.003765 -0.002741 0.026002 -0.002360 -0.009908
# 5 0.002999 -0.000928 0.000943 -0.002360 0.017389 0.005882
# 6 0.004164 0.001421 0.003325 -0.009908 0.005882 0.035455
#
#
# Mechanical properties :
#
#
# Convention : Reuss Voigt Hill
#
# Bulk Modulus (GPa) = 29.91462 41.05075 35.48269
# Shear Modulus (GPa) = 39.81175 49.91122 44.86148
#
# Velocity S-wave (km/s) = 3.90761 4.37527 4.14804
# Velocity P-wave (km/s) = 5.64205 6.42407 6.04571
#
# Compressibility (1/GPa) = 0.03342847
#
# Stress axis : x y z
#
# Youngs Moduli (GPa) = 118.68743 61.66071 101.29360
#
# Poissons Ratio (x) = -0.06922 0.20830
# Poissons Ratio (y) = -0.13324 -0.03953
# Poissons Ratio (z) = 0.24407 -0.02407
#
# Static dielectric constant tensor:
#      x y z
#    x 1.974590 0.044890 0.047450 
#    y 0.044890 2.024080 -0.030410 
#    z 0.047450 -0.030410 2.020470 
# 
# From -- ./inp_files/165623.got.cif
#   From: 2010.05.17/outbox.cif.g08.bks.cpg/sg2_83_cif.got.tgz:165623.got - 2010.06.03 11:33:40.
