data_PCOD9091529
_publ_section_title
;
Structure prediction by ZEFSAII (Michael W. Deem and Ramdas Pophale) SiO2 
 PCOD9091529
Probable space group: P -1
;
_chemical_formula_sum "Si O2"
_cell_formula_units_Z 12
_cell_length_a 6.694401
_cell_length_b 7.240057
_cell_length_c 20.243214
_cell_angle_alpha 145.298088
_cell_angle_beta 106.027729
_cell_angle_gamma 87.495176
_cell_volume 505.845067
_symmetry_space_group_name_H-M "P -1"
_symmetry_group_IT_number 2
_symmetry_cell_setting 'triclinic'
loop_
_space_group_symop_operation_xyz
x,y,z
-x,-y,-z
loop_
_atom_site_type_symbol
_atom_site_label
_atom_site_fract_x
_atom_site_fract_y
_atom_site_fract_z
Si Si1 0.875606 0.412942 0.711480
Si Si2 0.998693 0.885017 0.250740
Si Si3 0.739618 0.204676 0.233070
Si Si4 0.736237 0.932883 0.447449
Si Si5 0.572038 0.293700 0.035938
Si Si6 0.416073 0.770782 0.254235
O O1 0.966335 0.131926 0.672860
O O2 0.745129 0.498105 0.786144
O O3 0.081741 0.696176 0.781653
O O4 0.714531 0.210348 0.579864
O O5 0.247180 0.958577 0.268804
O O6 0.830770 0.497340 0.106709
O O7 0.878475 0.134372 0.285456
O O8 0.655356 0.522010 0.331454
O O9 0.547363 0.878693 0.092112
O O10 0.620501 0.975255 0.380250
O O11 0.000000 0.000000 0.500000
O O12 0.489946 0.584940 0.147253
O O13 0.500000 0.000000 0.000000
#
# Coordination Sequence:
#
# PCOD9091529 Si02
#       6
#     2   2   2   2   2   2
#     4   9  21  40  62  87 126 157 206 246 301 357
#     4  10  24  40  62  95 122 160 205 252 305 359
#     4  11  22  40  64  93 122 164 205 248 307 359
#     4  10  19  39  67  87 121 166 202 248 305 360
#     4  12  20  41  65  90 124 162 202 252 305 363
#     4  10  22  41  64  89 125 160 202 254 305 361
#
# _framework density 23.722677999999998
#
# number of rings (size 3 to 8) (size 9 to 14) (size 15 to 20)
#    1.000    0.667    3.333    2.000    0.000    4.000 
#    3.000    3.333    0.000    0.000    0.000    0.000 
#    0.000    0.000    0.000    0.000    0.000    0.000 
#
# Total GULP energy -66808.815930 kJ/mol
# GULP energy per Si atom -5567.401328 kJ/mol
# Density = 2.366868 g / cm^3
# Si number density = 23.722678 Si / 1000 Ang^3
#
#
#
# Elastic Constant Matrix: (Units=GPa)
#
#
# Indices 1 2 3 4 5 6 
#
# 1 87.7294 23.3816 36.9357 -13.4202 16.5353 -16.9619
# 2 23.3816 74.2648 10.7897 -14.3981 -2.9378 -19.4814
# 3 36.9357 10.7897 129.0314 -31.1559 0.5298 -18.0360
# 4 -13.4202 -14.3981 -31.1559 24.7960 -3.0118 8.1149
# 5 16.5353 -2.9378 0.5298 -3.0118 26.8912 -10.1239
# 6 -16.9619 -19.4814 -18.0360 8.1149 -10.1239 42.5966
#
#
#
# Elastic Compliance Matrix: (Units=1/GPa)
#
#
# Indices 1 2 3 4 5 6 
#
# 1 0.016550 -0.005199 -0.004515 -0.001023 -0.010797 -0.000070
# 2 -0.005199 0.019437 0.003838 0.011687 0.009768 0.008540
# 3 -0.004515 0.003838 0.013015 0.015591 0.006179 0.003967
# 4 -0.001023 0.011687 0.015591 0.066964 0.009489 0.001037
# 5 -0.010797 0.009768 0.006179 0.009489 0.050742 0.013036
# 6 -0.000070 0.008540 0.003967 0.001037 0.013036 0.031934
#
#
# Mechanical properties :
#
#
# Convention : Reuss Voigt Hill
#
# Bulk Modulus (GPa) = 26.84490 48.13771 37.49131
# Shear Modulus (GPa) = 22.44061 33.51802 27.97931
#
# Velocity S-wave (km/s) = 3.07898 3.76295 3.43801
# Velocity P-wave (km/s) = 4.89702 6.26224 5.62123
#
# Compressibility (1/GPa) = 0.03725102
#
# Stress axis : x y z
#
# Youngs Moduli (GPa) = 60.42258 51.44886 76.83289
#
# Poissons Ratio (x) = 0.26746 0.34693
# Poissons Ratio (y) = 0.31411 -0.29491
# Poissons Ratio (z) = 0.27283 -0.19748
#
# Static dielectric constant tensor:
#      x y z
#    x 2.080130 0.018020 0.029250 
#    y 0.018020 1.959120 -0.006350 
#    z 0.029250 -0.006350 1.899970 
# 
# From -- ./inp_files/520451.got.cif
#   From: 2010.05.17/outbox.cif.g08.bks.cpg/sg2_261_cif.got.tgz:520451.got - 2010.06.03 11:33:40.
