data_PCOD9091598
_publ_section_title
;
Structure prediction by ZEFSAII (Michael W. Deem and Ramdas Pophale) SiO2 
 PCOD9091598
Probable space group: P -1
;
_chemical_formula_sum "Si O2"
_cell_formula_units_Z 16
_cell_length_a 9.110808
_cell_length_b 19.550198
_cell_length_c 12.324067
_cell_angle_alpha 30.098749
_cell_angle_beta 134.397487
_cell_angle_gamma 141.192269
_cell_volume 687.643252
_symmetry_space_group_name_H-M "P -1"
_symmetry_group_IT_number 2
_symmetry_cell_setting 'triclinic'
loop_
_space_group_symop_operation_xyz
x,y,z
-x,-y,-z
loop_
_atom_site_type_symbol
_atom_site_label
_atom_site_fract_x
_atom_site_fract_y
_atom_site_fract_z
Si Si1 0.194454 0.729516 0.580902
Si Si2 0.044537 0.089112 0.718940
Si Si3 0.366245 0.550664 0.779828
Si Si4 0.514046 0.854675 0.766312
Si Si5 0.066146 0.654290 0.254161
Si Si6 0.659615 0.056078 0.842562
Si Si7 0.850588 0.838998 0.576284
Si Si8 0.236569 0.780823 0.947819
O O1 0.983403 0.758825 0.472520
O O2 0.185762 0.594778 0.686006
O O3 0.354865 0.730548 0.763015
O O4 0.303338 0.873802 0.354677
O O5 0.105334 0.113756 0.590554
O O6 0.793449 0.929346 0.817828
O O7 0.228478 0.057830 0.924188
O O8 0.202984 0.391632 0.847898
O O9 0.573107 0.714706 0.614522
O O10 0.500000 0.500000 0.000000
O O11 0.389955 0.793612 0.902721
O O12 0.500000 0.000000 0.500000
O O13 0.000000 0.500000 0.500000
O O14 0.213173 0.805478 0.196006
O O15 0.202831 0.678469 0.177831
O O16 0.380087 0.951332 0.845529
O O17 0.990791 0.749256 0.813217
O O18 0.000000 0.000000 0.500000
#
# Coordination Sequence:
#
# PCOD9091598 Si02
#       8
#     2   2   2   2   2   2   2   2
#     4  11  22  44  71 102 146 184 231 304 357 422
#     4  11  23  40  70 111 141 181 237 301 364 417
#     4  12  27  48  71 101 145 196 246 288 361 427
#     4  10  19  39  68 103 139 175 230 304 355 407
#     4  12  28  47  66 101 156 198 230 295 370 436
#     4  12  24  42  74 106 145 186 240 296 366 429
#     4  12  24  42  73 109 137 184 250 304 340 428
#     4  12  23  44  70 109 139 184 248 300 360 416
#
# _framework density 23.267879000000001
#
# number of rings (size 3 to 8) (size 9 to 14) (size 15 to 20)
#    0.000    0.500    7.500    3.000    3.500    0.000 
#    0.000    2.500    0.000    2.250    0.000    0.000 
#    0.000    0.000    0.000    0.000    0.000    0.000 
#
# Total GULP energy -89077.212808 kJ/mol
# GULP energy per Si atom -5567.325800 kJ/mol
# Density = 2.321492 g / cm^3
# Si number density = 23.267879 Si / 1000 Ang^3
#
#
#
# Elastic Constant Matrix: (Units=GPa)
#
#
# Indices 1 2 3 4 5 6 
#
# 1 114.9241 46.9353 49.7326 -3.1642 -28.7143 -6.9240
# 2 46.9353 148.5701 21.8825 4.8736 -17.1659 7.7682
# 3 49.7326 21.8825 101.6620 17.6649 -29.6489 -9.2970
# 4 -3.1642 4.8736 17.6649 45.7331 5.1368 2.4927
# 5 -28.7143 -17.1659 -29.6489 5.1368 55.2890 9.6564
# 6 -6.9240 7.7682 -9.2970 2.4927 9.6564 26.6468
#
#
#
# Elastic Compliance Matrix: (Units=1/GPa)
#
#
# Indices 1 2 3 4 5 6 
#
# 1 0.013136 -0.003241 -0.005434 0.003013 0.002393 0.001313
# 2 -0.003241 0.008152 0.000193 -0.001159 0.001698 -0.003658
# 3 -0.005434 0.000193 0.015653 -0.007240 0.005859 0.002547
# 4 0.003013 -0.001159 -0.007240 0.025636 -0.004692 -0.002103
# 5 0.002393 0.001698 0.005859 -0.004692 0.024531 -0.006280
# 6 0.001313 -0.003658 0.002547 -0.002103 -0.006280 0.042297
#
#
# Mechanical properties :
#
#
# Convention : Reuss Voigt Hill
#
# Bulk Modulus (GPa) = 50.05862 66.91743 58.48803
# Shear Modulus (GPa) = 32.67351 41.97416 37.32384
#
# Velocity S-wave (km/s) = 3.75137 4.25190 4.00946
# Velocity P-wave (km/s) = 6.35016 7.27509 6.82830
#
# Compressibility (1/GPa) = 0.01997658
#
# Stress axis : x y z
#
# Youngs Moduli (GPa) = 76.12390 122.67467 63.88428
#
# Poissons Ratio (x) = 0.39754 0.34717
# Poissons Ratio (y) = 0.24669 -0.01230
# Poissons Ratio (z) = 0.41369 -0.02362
#
# Static dielectric constant tensor:
#      x y z
#    x 1.950750 -0.043960 0.011050 
#    y -0.043960 1.798860 -0.169760 
#    z 0.011050 -0.169760 1.897000 
# 
# From -- ./inp_files/405321.got.cif
#   From: 2010.05.17/outbox.cif.g08.bks.cpg/sg2_203_cif.got.tgz:405321.got - 2010.06.03 11:33:40.
