data_PCOD9091086
_publ_section_title
;
Structure prediction by ZEFSAII (Michael W. Deem and Ramdas Pophale) SiO2 
 PCOD9091086
Probable space group: P -1
;
_chemical_formula_sum "Si O2"
_cell_formula_units_Z 14
_cell_length_a 10.657347
_cell_length_b 11.103165
_cell_length_c 16.597891
_cell_angle_alpha 28.828258
_cell_angle_beta 35.451435
_cell_angle_gamma 39.872564
_cell_volume 539.022079
_symmetry_space_group_name_H-M "P -1"
_symmetry_group_IT_number 2
_symmetry_cell_setting 'triclinic'
loop_
_space_group_symop_operation_xyz
x,y,z
-x,-y,-z
loop_
_atom_site_type_symbol
_atom_site_label
_atom_site_fract_x
_atom_site_fract_y
_atom_site_fract_z
Si Si1 0.695093 0.529153 0.764814
Si Si2 0.064912 0.044602 0.623373
Si Si3 0.653400 0.432687 0.192419
Si Si4 0.884174 0.724632 0.768355
Si Si5 0.288862 0.135238 0.983021
Si Si6 0.289461 0.366310 0.683432
Si Si7 0.425710 0.884881 0.820305
O O1 0.594396 0.476046 0.762659
O O2 0.496628 0.738787 0.785781
O O3 0.898241 0.670580 0.568745
O O4 0.715423 0.291594 0.953654
O O5 0.290568 0.858679 0.640501
O O6 0.971845 0.932248 0.656765
O O7 0.905469 0.990535 0.809366
O O8 0.725322 0.576434 0.148010
O O9 0.800208 0.528971 0.988845
O O10 0.666343 0.852161 0.757823
O O11 0.071869 0.565769 0.706045
O O12 0.314863 0.150357 0.866408
O O13 0.500000 0.000000 0.000000
O O14 0.500000 0.500000 0.500000
O O15 0.310844 0.180486 0.703811
#
# Coordination Sequence:
#
# PCOD9091086 Si02
#       7
#     2   2   2   2   2   2   2
#     4  10  22  40  63  89 129 169 201 251 321 387
#     4  11  19  37  67  92 118 162 215 258 314 368
#     4  10  19  39  63  89 121 162 208 259 310 371
#     4  10  20  40  67  92 122 163 213 267 314 359
#     4  11  22  39  65  95 126 159 215 275 313 362
#     4  12  23  39  66  97 125 162 215 267 315 374
#     4  10  24  43  62  91 134 167 204 260 318 384
#
# _framework density 25.972961999999999
#
# number of rings (size 3 to 8) (size 9 to 14) (size 15 to 20)
#    0.000    1.429    2.857    4.714    0.000    3.429 
#    0.000    9.286    0.000    0.000    0.000    0.000 
#    0.000    0.000    0.000    0.000    0.000    0.000 
#
# Total GULP energy -78380.816977 kJ/mol
# GULP energy per Si atom -5598.629784 kJ/mol
# Density = 2.591385 g / cm^3
# Si number density = 25.972962 Si / 1000 Ang^3
#
#
#
# Elastic Constant Matrix: (Units=GPa)
#
#
# Indices 1 2 3 4 5 6 
#
# 1 73.9942 -6.3595 9.8565 -4.3853 -12.5928 2.7271
# 2 -6.3595 110.6174 28.9304 -4.7821 -8.0885 7.2727
# 3 9.8565 28.9304 153.0966 -24.4910 -24.4921 8.9189
# 4 -4.3853 -4.7821 -24.4910 27.3092 3.5624 -0.6906
# 5 -12.5928 -8.0885 -24.4921 3.5624 34.5997 -7.5785
# 6 2.7271 7.2727 8.9189 -0.6906 -7.5785 36.0354
#
#
#
# Elastic Compliance Matrix: (Units=1/GPa)
#
#
# Indices 1 2 3 4 5 6 
#
# 1 0.014669 0.001338 -0.000024 0.001859 0.005399 -0.000203
# 2 0.001338 0.009732 -0.001590 0.000288 0.001302 -0.001393
# 3 -0.000024 -0.001590 0.008776 0.006922 0.004972 -0.000671
# 4 0.001859 0.000288 0.006922 0.043019 0.001024 -0.000872
# 5 0.005399 0.001302 0.004972 0.001024 0.035823 0.005652
# 6 -0.000203 -0.001393 -0.000671 -0.000872 0.005652 0.029385
#
#
# Mechanical properties :
#
#
# Convention : Reuss Voigt Hill
#
# Bulk Modulus (GPa) = 30.65119 44.72922 37.69021
# Shear Modulus (GPa) = 32.71597 39.94093 36.32845
#
# Velocity S-wave (km/s) = 3.55296 3.92572 3.74398
# Velocity P-wave (km/s) = 5.35333 6.14876 5.76478
#
# Compressibility (1/GPa) = 0.03262516
#
# Stress axis : x y z
#
# Youngs Moduli (GPa) = 68.16982 102.75282 113.95230
#
# Poissons Ratio (x) = -0.13751 0.00279
# Poissons Ratio (y) = -0.09123 0.18114
# Poissons Ratio (z) = 0.00167 0.16334
#
# Static dielectric constant tensor:
#      x y z
#    x 1.017910 1.266320 0.068670 
#    y 1.266320 0.562380 -0.108540 
#    z 0.068670 -0.108540 1.991350 
# 
# From -- ./inp_files/198970.got.cif
#   From: 2010.05.17/outbox.cif.g08.bks.cpg/sg2_100_cif.got.tgz:198970.got - 2010.06.03 11:33:40.
