data_PCOD9091408
_publ_section_title
;
Structure prediction by ZEFSAII (Michael W. Deem and Ramdas Pophale) SiO2 
 PCOD9091408
Probable space group: P -1
;
_chemical_formula_sum "Si O2"
_cell_formula_units_Z 16
_cell_length_a 18.339035
_cell_length_b 9.770934
_cell_length_c 18.900268
_cell_angle_alpha 151.414945
_cell_angle_beta 155.759015
_cell_angle_gamma 37.742403
_cell_volume 664.458974
_symmetry_space_group_name_H-M "P -1"
_symmetry_group_IT_number 2
_symmetry_cell_setting 'triclinic'
loop_
_space_group_symop_operation_xyz
x,y,z
-x,-y,-z
loop_
_atom_site_type_symbol
_atom_site_label
_atom_site_fract_x
_atom_site_fract_y
_atom_site_fract_z
Si Si1 0.835051 0.490800 0.296534
Si Si2 0.720129 0.874618 0.859486
Si Si3 0.406310 0.812878 0.892062
Si Si4 0.408366 0.218167 0.675870
Si Si5 0.303768 0.890377 0.303039
Si Si6 0.176913 0.303525 0.270375
Si Si7 0.970891 0.287229 0.563034
Si Si8 0.431472 0.369976 0.251072
O O1 0.685985 0.659472 0.282895
O O2 0.000000 0.500000 0.500000
O O3 0.877635 0.635223 0.324511
O O4 0.796137 0.158034 0.094285
O O5 0.553939 0.995995 0.724070
O O6 0.857568 0.762155 0.872228
O O7 0.648835 0.636125 0.743782
O O8 0.487481 0.509384 0.841443
O O9 0.207546 0.739353 0.654950
O O10 0.500000 0.000000 0.000000
O O11 0.421371 0.035690 0.070484
O O12 0.278851 0.062623 0.432766
O O13 0.192196 0.009985 0.194742
O O14 0.500000 0.000000 0.500000
O O15 0.311433 0.558660 0.179270
O O16 0.055503 0.486119 0.295452
O O17 0.368345 0.492607 0.520117
O O18 0.000000 0.000000 0.500000
#
# Coordination Sequence:
#
# PCOD9091408 Si02
#       8
#     2   2   2   2   2   2   2   2
#     4  12  26  48  65  94 149 190 227 280 355 424
#     4  12  26  40  74 106 134 180 240 296 340 410
#     4  12  23  42  74 102 137 180 237 289 341 408
#     4  12  23  42  73 104 136 187 237 285 349 401
#     4  10  19  39  66 100 139 175 215 293 353 392
#     4  11  23  44  68 101 140 179 230 292 353 402
#     4  12  28  45  68 103 140 187 231 285 346 423
#     4  11  22  39  68 107 135 167 230 299 343 394
#
# _framework density 24.079740000000001
#
# number of rings (size 3 to 8) (size 9 to 14) (size 15 to 20)
#    0.000    0.500    7.500    1.500    3.500    0.500 
#    0.000    1.250    0.000    5.250    0.000    0.000 
#    0.000    0.000    0.000    0.000    0.000    0.000 
#
# Total GULP energy -89527.163235 kJ/mol
# GULP energy per Si atom -5595.447702 kJ/mol
# Density = 2.402493 g / cm^3
# Si number density = 24.079740 Si / 1000 Ang^3
#
#
#
# Elastic Constant Matrix: (Units=GPa)
#
#
# Indices 1 2 3 4 5 6 
#
# 1 176.0296 12.3375 15.1511 13.2308 -7.7800 17.0313
# 2 12.3375 88.9913 5.0257 17.8440 8.7480 25.2699
# 3 15.1511 5.0257 98.3337 7.3411 -20.2310 1.5706
# 4 13.2308 17.8440 7.3411 35.1173 1.8758 0.9898
# 5 -7.7800 8.7480 -20.2310 1.8758 34.1825 18.0570
# 6 17.0313 25.2699 1.5706 0.9898 18.0570 44.7119
#
#
#
# Elastic Compliance Matrix: (Units=1/GPa)
#
#
# Indices 1 2 3 4 5 6 
#
# 1 0.006416 0.000472 0.000016 -0.002741 0.003686 -0.004139
# 2 0.000472 0.015186 0.000225 -0.007770 0.001682 -0.009278
# 3 0.000016 0.000225 0.012496 -0.003134 0.009889 -0.004497
# 4 -0.002741 -0.007770 -0.003134 0.034239 -0.006227 0.007302
# 5 0.003686 0.001682 0.009889 -0.006227 0.047304 -0.021668
# 6 -0.004139 -0.009278 -0.004497 0.007302 -0.021668 0.037933
#
#
# Mechanical properties :
#
#
# Convention : Reuss Voigt Hill
#
# Bulk Modulus (GPa) = 28.14874 47.59812 37.87343
# Shear Modulus (GPa) = 30.49025 44.85837 37.67431
#
# Velocity S-wave (km/s) = 3.56226 4.32083 3.95975
# Velocity P-wave (km/s) = 5.35115 6.68599 6.05546
#
# Compressibility (1/GPa) = 0.03552557
#
# Stress axis : x y z
#
# Youngs Moduli (GPa) = 155.86617 65.85029 80.02662
#
# Poissons Ratio (x) = -0.03110 -0.00132
# Poissons Ratio (y) = -0.07360 -0.01803
# Poissons Ratio (z) = -0.00256 -0.01484
#
# Static dielectric constant tensor:
#      x y z
#    x 2.016400 -0.040340 -0.002960 
#    y -0.040340 1.894080 -0.063250 
#    z -0.002960 -0.063250 1.992510 
# 
# From -- ./inp_files/575629.got.cif
#   From: 2010.05.17/outbox.cif.g08.bks.cpg/sg2_288_cif.got.tgz:575629.got - 2010.06.03 11:33:40.
