data_PCOD9091851
_publ_section_title
;
Structure prediction by ZEFSAII (Michael W. Deem and Ramdas Pophale) SiO2 
 PCOD9091851
Probable space group: P -1
;
_chemical_formula_sum "Si O2"
_cell_formula_units_Z 14
_cell_length_a 13.946921
_cell_length_b 7.949809
_cell_length_c 9.214076
_cell_angle_alpha 130.087314
_cell_angle_beta 54.731314
_cell_angle_gamma 109.413373
_cell_volume 636.866293
_symmetry_space_group_name_H-M "P -1"
_symmetry_group_IT_number 2
_symmetry_cell_setting 'triclinic'
loop_
_space_group_symop_operation_xyz
x,y,z
-x,-y,-z
loop_
_atom_site_type_symbol
_atom_site_label
_atom_site_fract_x
_atom_site_fract_y
_atom_site_fract_z
Si Si1 0.878197 0.947043 0.507899
Si Si2 0.350727 0.775056 0.194136
Si Si3 0.852029 0.454335 0.245356
Si Si4 0.293523 0.892165 0.641265
Si Si5 0.488807 0.863309 0.688622
Si Si6 0.925681 0.848791 0.083562
Si Si7 0.658009 0.485010 0.202160
O O1 0.843832 0.703930 0.444927
O O2 0.908079 0.949309 0.313217
O O3 0.764795 0.110006 0.719333
O O4 0.000000 0.000000 0.500000
O O5 0.326416 0.794817 0.399104
O O6 0.461001 0.925153 0.162880
O O7 0.361524 0.546389 0.970243
O O8 0.778886 0.293136 0.317617
O O9 0.788426 0.457350 0.144391
O O10 0.988703 0.368267 0.088769
O O11 0.405327 0.926581 0.661404
O O12 0.207905 0.116974 0.837942
O O13 0.598862 0.711412 0.444445
O O14 0.416246 0.708546 0.769921
O O15 0.000000 0.000000 0.000000
#
# Coordination Sequence:
#
# PCOD9091851 Si02
#       7
#     2   2   2   2   2   2   2
#     4  11  22  37  60  88 118 152 200 250 288 352
#     4  11  21  38  60  92 120 151 202 244 294 348
#     4  10  19  40  62  85 119 158 196 242 299 349
#     4   9  21  37  60  86 124 157 192 244 295 351
#     4  10  20  39  61  86 124 155 197 240 294 350
#     4   9  19  37  60  84 116 155 193 236 298 350
#     4  10  21  36  64  90 114 159 197 243 293 353
#
# _framework density 21.982635999999999
#
# number of rings (size 3 to 8) (size 9 to 14) (size 15 to 20)
#    0.000    2.000    1.429    2.143    0.000    0.571 
#    0.000    7.857    6.286    0.000    0.000    0.000 
#    0.000    0.000    0.000    0.000    0.000    0.000 
#
# Total GULP energy -78133.375094 kJ/mol
# GULP energy per Si atom -5580.955364 kJ/mol
# Density = 2.193260 g / cm^3
# Si number density = 21.982636 Si / 1000 Ang^3
#
#
#
# Elastic Constant Matrix: (Units=GPa)
#
#
# Indices 1 2 3 4 5 6 
#
# 1 139.1370 31.4674 13.1602 5.2330 -2.2799 0.4813
# 2 31.4674 60.1965 6.9305 -3.2083 1.5714 15.3025
# 3 13.1602 6.9305 45.7514 1.6485 1.7623 -2.9661
# 4 5.2330 -3.2083 1.6485 25.5056 11.9762 1.2290
# 5 -2.2799 1.5714 1.7623 11.9762 27.1560 3.2634
# 6 0.4813 15.3025 -2.9661 1.2290 3.2634 34.1364
#
#
#
# Elastic Compliance Matrix: (Units=1/GPa)
#
#
# Indices 1 2 3 4 5 6 
#
# 1 0.008652 -0.005084 -0.001561 -0.003563 0.002463 0.001914
# 2 -0.005084 0.022573 -0.002720 0.005934 -0.002946 -0.010216
# 3 -0.001561 -0.002720 0.023031 -0.001000 -0.001438 0.003416
# 4 -0.003563 0.005934 -0.001000 0.051709 -0.023100 -0.002350
# 5 0.002463 -0.002946 -0.001438 -0.023100 0.047792 -0.002576
# 6 0.001914 -0.010216 0.003416 -0.002350 -0.002576 0.034474
#
#
# Mechanical properties :
#
#
# Convention : Reuss Voigt Hill
#
# Bulk Modulus (GPa) = 28.14754 38.68899 33.41827
# Shear Modulus (GPa) = 22.85158 30.26138 26.55648
#
# Velocity S-wave (km/s) = 3.22767 3.71429 3.47950
# Velocity P-wave (km/s) = 5.16940 6.00271 5.60157
#
# Compressibility (1/GPa) = 0.03552708
#
# Stress axis : x y z
#
# Youngs Moduli (GPa) = 115.57547 44.30051 43.41954
#
# Poissons Ratio (x) = 0.22523 0.06778
# Poissons Ratio (y) = 0.58759 0.11809
# Poissons Ratio (z) = 0.18042 0.12048
#
# Static dielectric constant tensor:
#      x y z
#    x 1.853290 -0.047850 -0.064850 
#    y -0.047850 1.845750 -0.019930 
#    z -0.064850 -0.019930 1.818400 
# 
# From -- ./inp_files/53780.got.cif
#   From: 2010.05.17/outbox.cif.g08.bks.cpg/sg2_27_cif.got.tgz:53780.got - 2010.06.03 11:33:40.
