data_PCOD9091493
_publ_section_title
;
Structure prediction by ZEFSAII (Michael W. Deem and Ramdas Pophale) SiO2 
 PCOD9091493
Probable space group: P -1
;
_chemical_formula_sum "Si O2"
_cell_formula_units_Z 16
_cell_length_a 9.153090
_cell_length_b 20.075715
_cell_length_c 12.285704
_cell_angle_alpha 35.721593
_cell_angle_beta 38.244794
_cell_angle_gamma 29.966008
_cell_volume 631.769599
_symmetry_space_group_name_H-M "P -1"
_symmetry_group_IT_number 2
_symmetry_cell_setting 'triclinic'
loop_
_space_group_symop_operation_xyz
x,y,z
-x,-y,-z
loop_
_atom_site_type_symbol
_atom_site_label
_atom_site_fract_x
_atom_site_fract_y
_atom_site_fract_z
Si Si1 0.410473 0.978454 0.361093
Si Si2 0.683402 0.185882 0.129140
Si Si3 0.847851 0.605698 0.275223
Si Si4 0.504035 0.368442 0.211240
Si Si5 0.199111 0.762642 0.561641
Si Si6 0.725563 0.862120 0.127635
Si Si7 0.548051 0.756714 0.037125
Si Si8 0.077291 0.137171 0.624555
O O1 0.063968 0.062939 0.487777
O O2 0.509766 0.882124 0.322693
O O3 0.688296 0.872605 0.421244
O O4 0.420801 0.113981 0.150462
O O5 0.601430 0.259425 0.197822
O O6 0.745329 0.032528 0.286927
O O7 0.458674 0.282452 0.031903
O O8 0.011944 0.141542 0.970043
O O9 0.528952 0.672977 0.430430
O O10 0.887268 0.719927 0.148233
O O11 0.792377 0.629367 0.146717
O O12 0.150001 0.445691 0.341822
O O13 0.713380 0.306028 0.278652
O O14 0.500000 0.500000 0.000000
O O15 0.017992 0.765553 0.557871
O O16 0.500000 0.000000 0.000000
O O17 0.224145 0.815151 0.200175
#
# Coordination Sequence:
#
# PCOD9091493 Si02
#       8
#     2   2   2   2   2   2   2   2
#     4  11  19  35  64  96 130 159 202 255 323 376
#     4  11  21  38  67  95 126 157 214 257 309 370
#     4  11  24  41  62  90 131 168 209 253 311 364
#     4  12  25  43  65  87 121 175 217 257 301 369
#     4  11  25  41  60  93 131 164 207 257 319 375
#     4  12  19  34  64  99 126 159 201 262 310 366
#     4  10  19  39  66  95 122 163 206 261 313 369
#     4  10  20  39  65  97 128 161 198 268 326 361
#
# _framework density 25.325686999999999
#
# number of rings (size 3 to 8) (size 9 to 14) (size 15 to 20)
#    0.000    1.000    5.000    3.750    0.000    2.500 
#    0.000    0.000    0.000    9.750    0.000    0.000 
#    0.000    0.000    0.000    0.000    0.000    0.000 
#
# Total GULP energy -89374.172057 kJ/mol
# GULP energy per Si atom -5585.885754 kJ/mol
# Density = 2.526804 g / cm^3
# Si number density = 25.325687 Si / 1000 Ang^3
#
#
#
# Elastic Constant Matrix: (Units=GPa)
#
#
# Indices 1 2 3 4 5 6 
#
# 1 148.7051 45.5726 60.8329 -7.3975 51.1864 -27.1213
# 2 45.5726 116.1423 27.1631 19.5065 16.1494 -22.1851
# 3 60.8329 27.1631 75.4273 8.5228 25.7645 -6.6264
# 4 -7.3975 19.5065 8.5228 46.1373 -12.9302 2.1084
# 5 51.1864 16.1494 25.7645 -12.9302 65.5775 -4.4520
# 6 -27.1213 -22.1851 -6.6264 2.1084 -4.4520 37.9809
#
#
#
# Elastic Compliance Matrix: (Units=1/GPa)
#
#
# Indices 1 2 3 4 5 6 
#
# 1 0.014293 -0.001894 -0.008328 0.002511 -0.006465 0.006750
# 2 -0.001894 0.011891 -0.000961 -0.005929 -0.001866 0.005536
# 3 -0.008328 -0.000961 0.021796 -0.005709 -0.003139 -0.002757
# 4 0.002511 -0.005929 -0.005709 0.027751 0.006985 -0.003388
# 5 -0.006465 -0.001866 -0.003139 0.006985 0.023098 -0.003934
# 6 0.006750 0.005536 -0.002757 -0.003388 -0.003934 0.033629
#
#
# Mechanical properties :
#
#
# Convention : Reuss Voigt Hill
#
# Bulk Modulus (GPa) = 39.04194 67.49024 53.26609
# Shear Modulus (GPa) = 30.60694 43.71956 37.16325
#
# Velocity S-wave (km/s) = 3.48017 4.15938 3.83484
# Velocity P-wave (km/s) = 5.62123 7.05507 6.37856
#
# Compressibility (1/GPa) = 0.02561348
#
# Stress axis : x y z
#
# Youngs Moduli (GPa) = 69.96237 84.09867 45.88084
#
# Poissons Ratio (x) = 0.15930 0.38210
# Poissons Ratio (y) = 0.13252 0.04409
# Poissons Ratio (z) = 0.58265 0.08082
#
# Static dielectric constant tensor:
#      x y z
#    x 1.994860 -0.019440 -0.024940 
#    y -0.019440 1.948490 0.066860 
#    z -0.024940 0.066860 2.167060 
# 
# From -- ./inp_files/262951.got.cif
#   From: 2010.05.17/outbox.cif.g08.bks.cpg/sg2_132_cif.got.tgz:262951.got - 2010.06.03 11:33:40.
