data_PCOD9091233
_publ_section_title
;
Structure prediction by ZEFSAII (Michael W. Deem and Ramdas Pophale) SiO2 
 PCOD9091233
Probable space group: P -1
;
_chemical_formula_sum "Si O2"
_cell_formula_units_Z 16
_cell_length_a 17.029567
_cell_length_b 9.737656
_cell_length_c 10.581947
_cell_angle_alpha 105.579843
_cell_angle_beta 99.216129
_cell_angle_gamma 27.107024
_cell_volume 757.642711
_symmetry_space_group_name_H-M "P -1"
_symmetry_group_IT_number 2
_symmetry_cell_setting 'triclinic'
loop_
_space_group_symop_operation_xyz
x,y,z
-x,-y,-z
loop_
_atom_site_type_symbol
_atom_site_label
_atom_site_fract_x
_atom_site_fract_y
_atom_site_fract_z
Si Si1 0.199274 0.997288 0.044762
Si Si2 0.564936 0.735869 0.971344
Si Si3 0.493085 0.371318 0.553295
Si Si4 0.320255 0.197760 0.492954
Si Si5 0.871853 0.214606 0.398554
Si Si6 0.071442 0.742235 0.107408
Si Si7 0.258364 0.201934 0.191224
Si Si8 0.504398 0.426984 0.169754
O O1 0.156025 0.216787 0.152780
O O2 0.349220 0.686974 0.091728
O O3 0.039157 0.155300 0.005411
O O4 0.301942 0.866148 0.908464
O O5 0.451103 0.868610 0.095994
O O6 0.772570 0.415962 0.952628
O O7 0.515090 0.709471 0.835694
O O8 0.500000 0.000000 0.000000
O O9 0.500000 0.500000 0.500000
O O10 0.304920 0.592280 0.564484
O O11 0.525584 0.394810 0.701586
O O12 0.638714 0.016798 0.479032
O O13 0.175550 0.544113 0.580532
O O14 0.280787 0.219091 0.343119
O O15 0.500000 0.000000 0.500000
O O16 0.000000 0.000000 0.500000
O O17 0.956837 0.013900 0.244788
O O18 0.161281 0.475252 0.149989
#
# Coordination Sequence:
#
# PCOD9091233 Si02
#       8
#     2   2   2   2   2   2   2   2
#     4  10  20  36  62  89 121 162 210 264 316 389
#     4   9  22  36  60  93 126 162 206 267 326 381
#     4  11  24  42  67  92 126 178 230 263 324 390
#     4  10  22  40  68  95 126 177 223 262 323 395
#     4  11  23  41  67  98 133 173 219 270 324 392
#     4  11  21  38  64  95 129 167 213 263 335 385
#     4  10  19  39  64  91 130 163 217 261 325 394
#     4  10  20  37  60  87 121 162 210 265 320 384
#
# _framework density 21.118134000000001
#
# number of rings (size 3 to 8) (size 9 to 14) (size 15 to 20)
#    0.000    1.750    3.750    0.375    1.750    1.500 
#    0.000    0.625    2.750    0.000    0.000    0.000 
#    0.000    0.000    0.000    0.000    0.000    0.000 
#
# Total GULP energy -89240.639723 kJ/mol
# GULP energy per Si atom -5577.539983 kJ/mol
# Density = 2.107007 g / cm^3
# Si number density = 21.118134 Si / 1000 Ang^3
#
#
#
# Elastic Constant Matrix: (Units=GPa)
#
#
# Indices 1 2 3 4 5 6 
#
# 1 115.4754 47.6880 32.3114 7.5460 29.5512 2.5741
# 2 47.6880 96.8118 35.5102 7.0180 15.4005 5.9939
# 3 32.3114 35.5102 71.5662 8.7274 30.6402 -4.4113
# 4 7.5460 7.0180 8.7274 33.2354 2.5033 11.2163
# 5 29.5512 15.4005 30.6402 2.5033 35.4833 4.2090
# 6 2.5741 5.9939 -4.4113 11.2163 4.2090 48.1736
#
#
#
# Elastic Compliance Matrix: (Units=1/GPa)
#
#
# Indices 1 2 3 4 5 6 
#
# 1 0.013071 -0.005276 0.001142 -0.001882 -0.009608 0.001340
# 2 -0.005276 0.014991 -0.007149 0.000505 0.004349 -0.002736
# 3 0.001142 -0.007149 0.027710 -0.006673 -0.022119 0.006852
# 4 -0.001882 0.000505 -0.006673 0.034828 0.005743 -0.009184
# 5 -0.009608 0.004349 -0.022119 0.005743 0.053953 -0.008104
# 6 0.001340 -0.002736 0.006852 -0.009184 -0.008104 0.024501
#
#
# Mechanical properties :
#
#
# Convention : Reuss Voigt Hill
#
# Bulk Modulus (GPa) = 30.11284 57.20806 43.66045
# Shear Modulus (GPa) = 24.66848 34.60137 29.63493
#
# Velocity S-wave (km/s) = 3.42148 4.05219 3.75012
# Velocity P-wave (km/s) = 5.46799 7.00300 6.28255
#
# Compressibility (1/GPa) = 0.03320842
#
# Stress axis : x y z
#
# Youngs Moduli (GPa) = 76.50576 66.70675 36.08747
#
# Poissons Ratio (x) = 0.35191 -0.04122
# Poissons Ratio (y) = 0.40361 0.25798
# Poissons Ratio (z) = -0.08738 0.47686
#
# Static dielectric constant tensor:
#      x y z
#    x 1.817380 0.054020 0.009530 
#    y 0.054020 1.802660 -0.002260 
#    z 0.009530 -0.002260 1.800270 
# 
# From -- ./inp_files/277612.got.cif
#   From: 2010.05.17/outbox.cif.g08.bks.cpg/sg2_139_cif.got.tgz:277612.got - 2010.06.03 11:33:40.
