data_PCOD9091616
_publ_section_title
;
Structure prediction by ZEFSAII (Michael W. Deem and Ramdas Pophale) SiO2 
 PCOD9091616
Probable space group: P -1
;
_chemical_formula_sum "Si O2"
_cell_formula_units_Z 16
_cell_length_a 21.471921
_cell_length_b 8.799974
_cell_length_c 11.516656
_cell_angle_alpha 42.160095
_cell_angle_beta 144.301227
_cell_angle_gamma 111.968946
_cell_volume 693.186236
_symmetry_space_group_name_H-M "P -1"
_symmetry_group_IT_number 2
_symmetry_cell_setting 'triclinic'
loop_
_space_group_symop_operation_xyz
x,y,z
-x,-y,-z
loop_
_atom_site_type_symbol
_atom_site_label
_atom_site_fract_x
_atom_site_fract_y
_atom_site_fract_z
Si Si1 0.674680 0.847858 0.585672
Si Si2 0.103004 0.780704 0.473598
Si Si3 0.428895 0.826061 0.198554
Si Si4 0.747572 0.664962 0.237855
Si Si5 0.489646 0.693121 0.771601
Si Si6 0.348710 0.772676 0.870581
Si Si7 0.046049 0.714391 0.668478
Si Si8 0.952364 0.429237 0.849054
O O1 0.542477 0.873593 0.345608
O O2 0.641735 0.003057 0.573413
O O3 0.691322 0.025141 0.414937
O O4 0.799659 0.533957 0.946548
O O5 0.143656 0.551865 0.566635
O O6 0.239256 0.720504 0.760491
O O7 0.023817 0.770452 0.465825
O O8 0.029771 0.098423 0.141142
O O9 0.500000 0.500000 0.500000
O O10 0.363198 0.908787 0.926336
O O11 0.318064 0.009247 0.024098
O O12 0.804718 0.538692 0.525061
O O13 0.619799 0.682362 0.993429
O O14 0.500000 0.500000 0.000000
O O15 0.516846 0.523128 0.791796
O O16 0.979156 0.586358 0.703338
O O17 0.000000 0.000000 0.500000
O O18 0.000000 0.500000 0.000000
#
# Coordination Sequence:
#
# PCOD9091616 Si02
#       8
#     2   2   2   2   2   2   2   2
#     4  10  21  39  61  95 129 167 221 268 331 393
#     4  11  23  45  67  96 133 174 220 276 325 394
#     4  11  23  37  61  97 132 168 220 276 326 395
#     4  10  24  41  68  96 134 174 221 270 336 391
#     4   8  18  39  65  96 125 163 217 270 324 395
#     4  10  19  39  68  91 127 174 213 271 335 385
#     4  12  26  41  68  98 131 174 226 268 327 394
#     4  12  24  45  71  96 133 179 220 273 330 387
#
# _framework density 23.081817999999998
#
# number of rings (size 3 to 8) (size 9 to 14) (size 15 to 20)
#    0.000    1.500    2.500    2.250    1.750    1.500 
#    0.000    3.750    2.750    0.000    0.000    0.000 
#    0.000    0.000    0.000    0.000    0.000    0.000 
#
# Total GULP energy -89228.906578 kJ/mol
# GULP energy per Si atom -5576.806661 kJ/mol
# Density = 2.302928 g / cm^3
# Si number density = 23.081818 Si / 1000 Ang^3
#
#
#
# Elastic Constant Matrix: (Units=GPa)
#
#
# Indices 1 2 3 4 5 6 
#
# 1 92.4029 42.0773 29.5035 -36.0569 -6.9429 -7.8252
# 2 42.0773 95.3016 37.6020 -37.9244 8.2202 -31.6624
# 3 29.5035 37.6020 105.8921 -45.5192 12.0877 -27.3796
# 4 -36.0569 -37.9244 -45.5192 39.1410 -6.2387 16.9219
# 5 -6.9429 8.2202 12.0877 -6.2387 26.5416 -15.0195
# 6 -7.8252 -31.6624 -27.3796 16.9219 -15.0195 33.4988
#
#
#
# Elastic Compliance Matrix: (Units=1/GPa)
#
#
# Indices 1 2 3 4 5 6 
#
# 1 0.020096 -0.003202 0.003133 0.021677 0.008192 -0.003049
# 2 -0.003202 0.022189 0.004077 0.016596 0.003914 0.016928
# 3 0.003133 0.004077 0.021211 0.028129 0.001170 0.008237
# 4 0.021677 0.016596 0.028129 0.096019 0.010176 -0.000201
# 5 0.008192 0.003914 0.001170 0.010176 0.055308 0.026226
# 6 -0.003049 0.016928 0.008237 -0.000201 0.026226 0.063733
#
#
# Mechanical properties :
#
#
# Convention : Reuss Voigt Hill
#
# Bulk Modulus (GPa) = 13.98381 56.88467 35.43424
# Shear Modulus (GPa) = 16.98503 32.13055 24.55779
#
# Velocity S-wave (km/s) = 2.71562 3.73504 3.26536
# Velocity P-wave (km/s) = 3.98802 6.58020 5.44074
#
# Compressibility (1/GPa) = 0.07151129
#
# Stress axis : x y z
#
# Youngs Moduli (GPa) = 49.76114 45.06721 47.14595
#
# Poissons Ratio (x) = 0.14432 -0.14769
# Poissons Ratio (y) = 0.15935 -0.19223
# Poissons Ratio (z) = -0.15588 -0.18376
#
# Static dielectric constant tensor:
#      x y z
#    x 1.904500 -0.006450 0.046210 
#    y -0.006450 1.917880 0.027770 
#    z 0.046210 0.027770 1.961320 
# 
# From -- ./inp_files/469781.got.cif
#   From: 2010.05.17/outbox.cif.g08.bks.cpg/sg2_235_cif.got.tgz:469781.got - 2010.06.03 11:33:40.
