data_PCOD9091686
_publ_section_title
;
Structure prediction by ZEFSAII (Michael W. Deem and Ramdas Pophale) SiO2 
 PCOD9091686
Probable space group: P -1
;
_chemical_formula_sum "Si O2"
_cell_formula_units_Z 12
_cell_length_a 10.003593
_cell_length_b 9.715549
_cell_length_c 7.713142
_cell_angle_alpha 74.327390
_cell_angle_beta 115.480700
_cell_angle_gamma 136.578806
_cell_volume 464.068096
_symmetry_space_group_name_H-M "P -1"
_symmetry_group_IT_number 2
_symmetry_cell_setting 'triclinic'
loop_
_space_group_symop_operation_xyz
x,y,z
-x,-y,-z
loop_
_atom_site_type_symbol
_atom_site_label
_atom_site_fract_x
_atom_site_fract_y
_atom_site_fract_z
Si Si1 0.695301 0.344387 0.236682
Si Si2 0.909838 0.448112 0.775689
Si Si3 0.433885 0.530863 0.133223
Si Si4 0.761838 0.026168 0.794111
Si Si5 0.206261 0.369621 0.518776
Si Si6 0.958204 0.899536 0.780196
O O1 0.796537 0.543365 0.333653
O O2 0.890504 0.376529 0.293885
O O3 0.488264 0.155560 0.284527
O O4 0.620310 0.348998 0.005003
O O5 0.823134 0.233478 0.755281
O O6 0.749792 0.466868 0.643296
O O7 0.000000 0.500000 0.000000
O O8 0.613730 0.622829 0.340228
O O9 0.229587 0.310810 0.156891
O O10 0.500000 0.500000 0.000000
O O11 0.884991 0.013823 0.724867
O O12 0.842540 0.007291 0.025811
O O13 0.038035 0.165644 0.385841
#
# Coordination Sequence:
#
# PCOD9091686 Si02
#       6
#     2   2   2   2   2   2
#     4  11  24  45  71 100 139 180 228 282 338 405
#     4  12  25  48  70  96 143 185 217 286 352 399
#     4  10  19  39  69  96 134 180 222 277 332 392
#     4  11  24  41  74 101 136 176 235 274 342 401
#     4  11  23  41  73 103 135 182 226 277 349 403
#     4  11  21  42  69 104 135 177 233 278 332 408
#
# _framework density 25.858273000000001
#
# number of rings (size 3 to 8) (size 9 to 14) (size 15 to 20)
#    0.000    1.000    6.667    1.000    0.000    1.333 
#    0.000    3.333    0.000    0.000    0.000    0.000 
#    0.000    0.000    0.000    0.000    0.000    0.000 
#
# Total GULP energy -67040.170337 kJ/mol
# GULP energy per Si atom -5586.680861 kJ/mol
# Density = 2.579942 g / cm^3
# Si number density = 25.858273 Si / 1000 Ang^3
#
#
#
# Elastic Constant Matrix: (Units=GPa)
#
#
# Indices 1 2 3 4 5 6 
#
# 1 113.7657 42.9044 39.9583 12.9001 -2.9609 -12.9252
# 2 42.9044 113.6356 21.4358 10.9324 -7.4810 -21.0536
# 3 39.9583 21.4358 161.4277 1.2148 2.6179 -8.0805
# 4 12.9001 10.9324 1.2148 38.9310 -9.9050 7.6089
# 5 -2.9609 -7.4810 2.6179 -9.9050 40.3559 -2.6748
# 6 -12.9252 -21.0536 -8.0805 7.6089 -2.6748 46.4641
#
#
#
# Elastic Compliance Matrix: (Units=1/GPa)
#
#
# Indices 1 2 3 4 5 6 
#
# 1 0.011370 -0.003240 -0.002265 -0.003214 -0.000288 0.001811
# 2 -0.003240 0.011332 -0.000475 -0.002608 0.001563 0.004668
# 3 -0.002265 -0.000475 0.006836 0.000482 -0.000564 0.000232
# 4 -0.003214 -0.002608 0.000482 0.030352 0.006262 -0.006602
# 5 -0.000288 0.001563 -0.000564 0.006262 0.026691 0.001041
# 6 0.001811 0.004668 0.000232 -0.006602 0.001041 0.025322
#
#
# Mechanical properties :
#
#
# Convention : Reuss Voigt Hill
#
# Bulk Modulus (GPa) = 56.88865 66.38067 61.63466
# Shear Modulus (GPa) = 38.54440 44.11889 41.33165
#
# Velocity S-wave (km/s) = 3.86502 4.13508 4.00233
# Velocity P-wave (km/s) = 6.47810 6.96600 6.72647
#
# Compressibility (1/GPa) = 0.01757820
#
# Stress axis : x y z
#
# Youngs Moduli (GPa) = 87.95065 88.24930 146.29506
#
# Poissons Ratio (x) = 0.28592 0.33131
# Poissons Ratio (y) = 0.28496 0.06946
# Poissons Ratio (z) = 0.19918 0.04190
#
# Static dielectric constant tensor:
#      x y z
#    x 2.086910 0.030690 -0.006190 
#    y 0.030690 2.022750 -0.030150 
#    z -0.006190 -0.030150 2.088030 
# 
# From -- ./inp_files/253234.got.cif
#   From: 2010.05.17/outbox.cif.g08.bks.cpg/sg2_127_cif.got.tgz:253234.got - 2010.06.03 11:33:40.
