data_PCOD9091573
_publ_section_title
;
Structure prediction by ZEFSAII (Michael W. Deem and Ramdas Pophale) SiO2 
 PCOD9091573
Probable space group: P -1
;
_chemical_formula_sum "Si O2"
_cell_formula_units_Z 16
_cell_length_a 6.926040
_cell_length_b 10.660795
_cell_length_c 19.282866
_cell_angle_alpha 145.796476
_cell_angle_beta 126.363979
_cell_angle_gamma 65.696254
_cell_volume 634.665986
_symmetry_space_group_name_H-M "P -1"
_symmetry_group_IT_number 2
_symmetry_cell_setting 'triclinic'
loop_
_space_group_symop_operation_xyz
x,y,z
-x,-y,-z
loop_
_atom_site_type_symbol
_atom_site_label
_atom_site_fract_x
_atom_site_fract_y
_atom_site_fract_z
Si Si1 0.068671 0.257881 0.228175
Si Si2 0.225621 0.364512 0.884366
Si Si3 0.433234 0.161468 0.497329
Si Si4 0.939367 0.239271 0.041452
Si Si5 0.621238 0.864251 0.065522
Si Si6 0.399395 0.516508 0.760085
Si Si7 0.032853 0.261734 0.366937
Si Si8 0.253808 0.090055 0.632016
O O1 0.865107 0.415685 0.267857
O O2 0.198849 0.298977 0.349259
O O3 0.108008 0.291533 0.169310
O O4 0.013193 0.983138 0.089311
O O5 0.211660 0.279505 0.920562
O O6 0.216026 0.160037 0.734270
O O7 0.500000 0.500000 0.000000
O O8 0.054747 0.536047 0.900233
O O9 0.465747 0.402402 0.651949
O O10 0.165749 0.132132 0.393798
O O11 0.500000 0.000000 0.500000
O O12 0.595620 0.106754 0.442884
O O13 0.654461 0.169143 0.976225
O O14 0.569908 0.743596 0.925562
O O15 0.771671 0.115082 0.221782
O O16 0.382028 0.322585 0.727520
O O17 0.000000 0.500000 0.500000
O O18 0.000000 0.000000 0.500000
#
# Coordination Sequence:
#
# PCOD9091573 Si02
#       8
#     2   2   2   2   2   2   2   2
#     4  10  20  40  66  95 138 171 225 277 332 400
#     4  10  19  39  67  95 134 164 226 281 329 389
#     4  10  25  45  65  93 139 178 219 276 342 402
#     4   9  20  40  67  97 129 176 222 282 333 388
#     4  10  23  41  70  97 134 179 224 283 328 401
#     4  10  20  46  62  95 138 174 220 275 332 404
#     4  12  26  45  68 100 140 180 224 280 339 405
#     4  11  23  41  67  96 128 177 219 277 338 392
#
# _framework density 25.210111000000001
#
# number of rings (size 3 to 8) (size 9 to 14) (size 15 to 20)
#    0.000    1.750    5.000    0.000    7.000    2.000 
#    4.500    3.750    0.000    0.000    0.000    0.000 
#    0.000    0.000    0.000    0.000    0.000    0.000 
#
# Total GULP energy -89285.783585 kJ/mol
# GULP energy per Si atom -5580.361474 kJ/mol
# Density = 2.515273 g / cm^3
# Si number density = 25.210111 Si / 1000 Ang^3
#
#
#
# Elastic Constant Matrix: (Units=GPa)
#
#
# Indices 1 2 3 4 5 6 
#
# 1 57.6063 6.3930 53.1538 11.1502 -10.1667 -15.5636
# 2 6.3930 87.1206 18.1241 -16.2432 -23.0978 -7.0181
# 3 53.1538 18.1241 176.1721 -9.8944 -27.6726 -12.7264
# 4 11.1502 -16.2432 -9.8944 41.5334 -10.2820 -11.4198
# 5 -10.1667 -23.0978 -27.6726 -10.2820 52.5800 8.0871
# 6 -15.5636 -7.0181 -12.7264 -11.4198 8.0871 25.1131
#
#
#
# Elastic Compliance Matrix: (Units=1/GPa)
#
#
# Indices 1 2 3 4 5 6 
#
# 1 0.029914 -0.001982 -0.009076 -0.008910 -0.003200 0.010364
# 2 -0.001982 0.016193 0.001360 0.011041 0.008648 0.006222
# 3 -0.009076 0.001360 0.009517 0.006762 0.005014 0.001039
# 4 -0.008910 0.011041 0.006762 0.039538 0.012099 0.015073
# 5 -0.003200 0.008648 0.005014 0.012099 0.027250 -0.000298
# 6 0.010364 0.006222 0.001039 0.015073 -0.000298 0.055459
#
#
# Mechanical properties :
#
#
# Convention : Reuss Voigt Hill
#
# Bulk Modulus (GPa) = 27.60220 52.91564 40.25892
# Shear Modulus (GPa) = 23.88443 40.06052 31.97248
#
# Velocity S-wave (km/s) = 3.08135 3.99063 3.56510
# Velocity P-wave (km/s) = 4.86130 6.50146 5.74026
#
# Compressibility (1/GPa) = 0.03622899
#
# Stress axis : x y z
#
# Youngs Moduli (GPa) = 33.42965 61.75363 105.07413
#
# Poissons Ratio (x) = 0.12237 0.95363
# Poissons Ratio (y) = 0.06625 -0.14289
# Poissons Ratio (z) = 0.30340 -0.08398
#
# Static dielectric constant tensor:
#      x y z
#    x 2.115450 0.056830 0.037710 
#    y 0.056830 2.025190 0.015890 
#    z 0.037710 0.015890 1.916760 
# 
# From -- ./inp_files/589748.got.cif
#   From: 2010.05.17/outbox.cif.g08.bks.cpg/sg2_295_cif.got.tgz:589748.got - 2010.06.03 11:33:40.
