data_PCOD9091341
_publ_section_title
;
Structure prediction by ZEFSAII (Michael W. Deem and Ramdas Pophale) SiO2 
 PCOD9091341
Probable space group: P -1
;
_chemical_formula_sum "Si O2"
_cell_formula_units_Z 14
_cell_length_a 7.896865
_cell_length_b 9.162001
_cell_length_c 9.049571
_cell_angle_alpha 106.711839
_cell_angle_beta 64.912180
_cell_angle_gamma 99.049160
_cell_volume 567.459369
_symmetry_space_group_name_H-M "P -1"
_symmetry_group_IT_number 2
_symmetry_cell_setting 'triclinic'
loop_
_space_group_symop_operation_xyz
x,y,z
-x,-y,-z
loop_
_atom_site_type_symbol
_atom_site_label
_atom_site_fract_x
_atom_site_fract_y
_atom_site_fract_z
Si Si1 0.982814 0.611478 0.899498
Si Si2 0.722456 0.627773 0.595174
Si Si3 0.938381 0.101284 0.913524
Si Si4 0.117910 0.633751 0.378574
Si Si5 0.301467 0.179056 0.600620
Si Si6 0.392454 0.895977 0.292151
Si Si7 0.317604 0.171888 0.077673
O O1 0.976062 0.492574 0.732741
O O2 0.804148 0.713589 0.947838
O O3 0.000000 0.500000 0.000000
O O4 0.129804 0.747680 0.933643
O O5 0.744000 0.455775 0.591886
O O6 0.672126 0.665215 0.457347
O O7 0.610138 0.719920 0.784719
O O8 0.939939 0.694862 0.547677
O O9 0.108104 0.154003 0.756632
O O10 0.798997 0.974895 0.856651
O O11 0.000000 0.000000 0.000000
O O12 0.230785 0.766313 0.292405
O O13 0.470970 0.160002 0.643679
O O14 0.312209 0.047909 0.434439
O O15 0.528324 0.898190 0.103375
#
# Coordination Sequence:
#
# PCOD9091341 Si02
#       7
#     2   2   2   2   2   2   2
#     4  10  20  36  63  94 120 163 216 256 304 374
#     4  10  23  43  65  94 127 172 219 254 312 393
#     4  10  19  39  65  91 120 169 213 259 300 382
#     4  10  23  42  66  93 133 167 209 267 323 373
#     4  11  23  42  67  94 126 172 218 257 318 382
#     4  11  24  42  66  96 132 167 205 272 328 367
#     4  10  22  42  66  94 129 168 210 267 317 370
#
# _framework density 24.671368000000001
#
# number of rings (size 3 to 8) (size 9 to 14) (size 15 to 20)
#    0.000    1.714    2.857    1.714    0.000    8.000 
#    0.000    1.429    0.000    0.000    0.000    0.000 
#    0.000    0.000    0.000    0.000    0.000    0.000 
#
# Total GULP energy -78101.413824 kJ/mol
# GULP energy per Si atom -5578.672416 kJ/mol
# Density = 2.461521 g / cm^3
# Si number density = 24.671368 Si / 1000 Ang^3
#
#
#
# Elastic Constant Matrix: (Units=GPa)
#
#
# Indices 1 2 3 4 5 6 
#
# 1 69.0749 17.5026 20.7649 6.8679 10.1460 -19.8592
# 2 17.5026 114.6462 24.3182 2.8744 -1.6157 -11.9206
# 3 20.7649 24.3182 122.7562 7.7947 6.4362 -0.6673
# 4 6.8679 2.8744 7.7947 44.1501 -10.1293 12.1051
# 5 10.1460 -1.6157 6.4362 -10.1293 26.1031 -15.0642
# 6 -19.8592 -11.9206 -0.6673 12.1051 -15.0642 37.5105
#
#
#
# Elastic Compliance Matrix: (Units=1/GPa)
#
#
# Indices 1 2 3 4 5 6 
#
# 1 0.019719 -0.001277 -0.002448 -0.006254 -0.003432 0.010630
# 2 -0.001277 0.009796 -0.001877 -0.000350 0.003751 0.004023
# 3 -0.002448 -0.001877 0.009172 -0.001158 -0.003460 -0.002745
# 4 -0.006254 -0.000350 -0.001158 0.028294 0.008354 -0.009219
# 5 -0.003432 0.003751 -0.003460 0.008354 0.054695 0.018583
# 6 0.010630 0.004023 -0.002745 -0.009219 0.018583 0.043955
#
#
# Mechanical properties :
#
#
# Convention : Reuss Voigt Hill
#
# Bulk Modulus (GPa) = 36.38732 47.96096 42.17414
# Shear Modulus (GPa) = 26.88242 37.81219 32.34730
#
# Velocity S-wave (km/s) = 3.30452 3.91913 3.62488
# Velocity P-wave (km/s) = 5.41670 6.32152 5.88652
#
# Compressibility (1/GPa) = 0.02748210
#
# Stress axis : x y z
#
# Youngs Moduli (GPa) = 50.71335 102.08702 109.02677
#
# Poissons Ratio (x) = 0.13042 0.26685
# Poissons Ratio (y) = 0.06479 0.20465
# Poissons Ratio (z) = 0.12413 0.19162
#
# Static dielectric constant tensor:
#      x y z
#    x 2.093370 -0.035890 0.098320 
#    y -0.035890 1.953280 0.019740 
#    z 0.098320 0.019740 2.001650 
# 
# From -- ./inp_files/159092.got.cif
#   From: 2010.05.17/outbox.cif.g08.bks.cpg/sg2_80_cif.got.tgz:159092.got - 2010.06.03 11:33:40.
