data_PCOD9091494
_publ_section_title
;
Structure prediction by ZEFSAII (Michael W. Deem and Ramdas Pophale) SiO2 
 PCOD9091494
Probable space group: P -1
;
_chemical_formula_sum "Si O2"
_cell_formula_units_Z 16
_cell_length_a 19.607678
_cell_length_b 9.487978
_cell_length_c 9.056718
_cell_angle_alpha 72.434204
_cell_angle_beta 53.512798
_cell_angle_gamma 116.722570
_cell_volume 737.727412
_symmetry_space_group_name_H-M "P -1"
_symmetry_group_IT_number 2
_symmetry_cell_setting 'triclinic'
loop_
_space_group_symop_operation_xyz
x,y,z
-x,-y,-z
loop_
_atom_site_type_symbol
_atom_site_label
_atom_site_fract_x
_atom_site_fract_y
_atom_site_fract_z
Si Si1 0.574040 0.444279 0.920999
Si Si2 0.134408 0.873173 0.332555
Si Si3 0.886726 0.033628 0.377061
Si Si4 0.463154 0.890570 0.747813
Si Si5 0.165969 0.626625 0.265906
Si Si6 0.640798 0.367411 0.574943
Si Si7 0.050628 0.310095 0.791611
Si Si8 0.131817 0.151499 0.052858
O O1 0.553450 0.327300 0.829510
O O2 0.750691 0.729285 0.616248
O O3 0.500000 0.500000 0.000000
O O4 0.521349 0.259435 0.179070
O O5 0.169245 0.931820 0.440351
O O6 0.222302 0.875231 0.125458
O O7 0.962759 0.583441 0.619405
O O8 0.151122 0.059716 0.184405
O O9 0.027229 0.141896 0.226923
O O10 0.947477 0.196938 0.099599
O O11 0.500000 0.000000 0.500000
O O12 0.552840 0.114902 0.682228
O O13 0.292465 0.689677 0.057593
O O14 0.089236 0.488533 0.566527
O O15 0.791054 0.517821 0.407038
O O16 0.708426 0.573346 0.300010
O O17 0.960365 0.058291 0.894588
#
# Coordination Sequence:
#
# PCOD9091494 Si02
#       8
#     2   2   2   2   2   2   2   2
#     4  12  26  45  69 100 135 173 227 275 324 406
#     4  10  23  37  65  96 129 168 212 283 325 388
#     4  11  21  38  68  96 125 163 226 269 332 377
#     4  12  29  46  66  95 138 184 220 266 339 406
#     4  10  23  45  61  90 138 171 216 266 339 384
#     4  11  22  43  70  91 127 180 223 266 335 391
#     4  10  19  40  69  92 121 165 218 273 317 390
#     4  10  19  39  66  95 124 165 220 270 326 384
#
# _framework density 21.688227000000001
#
# number of rings (size 3 to 8) (size 9 to 14) (size 15 to 20)
#    0.000    1.250    3.750    2.250    7.000    1.500 
#    2.250    1.250    0.000    0.000    0.000    0.000 
#    0.000    0.000    0.000    0.000    0.000    0.000 
#
# Total GULP energy -89356.892108 kJ/mol
# GULP energy per Si atom -5584.805757 kJ/mol
# Density = 2.163886 g / cm^3
# Si number density = 21.688227 Si / 1000 Ang^3
#
#
#
# Elastic Constant Matrix: (Units=GPa)
#
#
# Indices 1 2 3 4 5 6 
#
# 1 75.3842 34.7746 49.6705 5.4651 17.8756 -16.1209
# 2 34.7746 85.1027 21.6850 6.0999 10.4336 7.8949
# 3 49.6705 21.6850 77.9494 2.0491 29.6968 -6.9675
# 4 5.4651 6.0999 2.0491 20.9418 2.3015 5.1143
# 5 17.8756 10.4336 29.6968 2.3015 25.7937 2.2429
# 6 -16.1209 7.8949 -6.9675 5.1143 2.2429 25.3611
#
#
#
# Elastic Compliance Matrix: (Units=1/GPa)
#
#
# Indices 1 2 3 4 5 6 
#
# 1 0.035874 -0.011755 -0.016082 -0.009992 -0.002813 0.024308
# 2 -0.011755 0.017263 0.001225 0.000953 0.000779 -0.012770
# 3 -0.016082 0.001225 0.033396 0.003584 -0.028148 0.000338
# 4 -0.009992 0.000953 0.003584 0.053851 -0.000962 -0.016438
# 5 -0.002813 0.000779 -0.028148 -0.000962 0.074301 -0.016141
# 6 0.024308 -0.012770 0.000338 -0.016438 -0.016141 0.063693
#
#
# Mechanical properties :
#
#
# Convention : Reuss Voigt Hill
#
# Bulk Modulus (GPa) = 30.02304 50.07740 40.05022
# Shear Modulus (GPa) = 14.58984 23.23975 18.91479
#
# Velocity S-wave (km/s) = 2.59647 3.27699 2.95638
# Velocity P-wave (km/s) = 4.78142 6.12029 5.49181
#
# Compressibility (1/GPa) = 0.03330775
#
# Stress axis : x y z
#
# Youngs Moduli (GPa) = 27.87515 57.92856 29.94392
#
# Poissons Ratio (x) = 0.68095 0.48156
# Poissons Ratio (y) = 0.32767 -0.03667
# Poissons Ratio (z) = 0.44829 -0.07095
#
# Static dielectric constant tensor:
#      x y z
#    x 1.828270 -0.043000 0.027410 
#    y -0.043000 1.857080 0.004610 
#    z 0.027410 0.004610 1.805280 
# 
# From -- ./inp_files/271490.got.cif
#   From: 2010.05.17/outbox.cif.g08.bks.cpg/sg2_136_cif.got.tgz:271490.got - 2010.06.03 11:33:40.
