data_PCOD9091207
_publ_section_title
;
Structure prediction by ZEFSAII (Michael W. Deem and Ramdas Pophale) SiO2 
 PCOD9091207
Probable space group: P -1
;
_chemical_formula_sum "Si O2"
_cell_formula_units_Z 16
_cell_length_a 15.825432
_cell_length_b 12.946063
_cell_length_c 11.299378
_cell_angle_alpha 43.549233
_cell_angle_beta 132.350453
_cell_angle_gamma 155.628540
_cell_volume 657.427452
_symmetry_space_group_name_H-M "P -1"
_symmetry_group_IT_number 2
_symmetry_cell_setting 'triclinic'
loop_
_space_group_symop_operation_xyz
x,y,z
-x,-y,-z
loop_
_atom_site_type_symbol
_atom_site_label
_atom_site_fract_x
_atom_site_fract_y
_atom_site_fract_z
Si Si1 0.782112 0.835013 0.430813
Si Si2 0.278833 0.582217 0.080511
Si Si3 0.379955 0.016393 0.326397
Si Si4 0.925510 0.120792 0.968035
Si Si5 0.357560 0.012514 0.751692
Si Si6 0.794950 0.642579 0.198612
Si Si7 0.576289 0.548691 0.732527
Si Si8 0.166475 0.916188 0.412616
O O1 0.766558 0.998699 0.280231
O O2 0.684576 0.683298 0.592379
O O3 0.647576 0.637355 0.356078
O O4 0.000000 0.000000 0.500000
O O5 0.402204 0.709415 0.216757
O O6 0.416817 0.620171 0.098322
O O7 0.055301 0.281855 0.078058
O O8 0.293507 0.772449 0.907501
O O9 0.563813 0.336669 0.232301
O O10 0.500000 0.000000 0.500000
O O11 0.231503 0.909367 0.167290
O O12 0.210939 0.851740 0.405057
O O13 0.087166 0.279221 0.877315
O O14 0.812422 0.837581 0.083610
O O15 0.291325 0.986819 0.580590
O O16 0.930231 0.701456 0.377036
O O17 0.714976 0.797973 0.741246
#
# Coordination Sequence:
#
# PCOD9091207 Si02
#       8
#     2   2   2   2   2   2   2   2
#     4   9  18  35  58  84 118 162 205 249 296 364
#     4  10  19  39  64  89 126 168 209 252 317 375
#     4  11  26  41  63  98 126 162 215 267 322 376
#     4  10  22  42  68  88 128 169 206 268 315 376
#     4   9  21  36  64  95 127 167 207 256 317 378
#     4  10  22  42  66  95 120 165 219 258 321 374
#     4   9  18  36  58  84 116 158 208 247 301 365
#     4  10  21  40  65  90 124 168 203 264 312 375
#
# _framework density 24.337287
#
# number of rings (size 3 to 8) (size 9 to 14) (size 15 to 20)
#    0.000    2.250    1.250    1.125    3.500    3.000 
#    0.000    1.875    0.000    0.000    0.000    0.000 
#    0.000    0.000    0.000    0.000    0.000    0.000 
#
# Total GULP energy -89119.198527 kJ/mol
# GULP energy per Si atom -5569.949908 kJ/mol
# Density = 2.428189 g / cm^3
# Si number density = 24.337287 Si / 1000 Ang^3
#
#
#
# Elastic Constant Matrix: (Units=GPa)
#
#
# Indices 1 2 3 4 5 6 
#
# 1 38.2414 10.2554 27.5343 4.5465 7.2591 10.2779
# 2 10.2554 129.4940 41.6944 43.9619 0.5753 1.9959
# 3 27.5343 41.6944 124.8219 37.1135 25.1418 0.3736
# 4 4.5465 43.9619 37.1135 58.2187 -1.9458 3.0455
# 5 7.2591 0.5753 25.1418 -1.9458 40.1305 6.5549
# 6 10.2779 1.9959 0.3736 3.0455 6.5549 23.4039
#
#
#
# Elastic Compliance Matrix: (Units=1/GPa)
#
#
# Indices 1 2 3 4 5 6 
#
# 1 0.037132 -0.001349 -0.009796 0.005362 0.002549 -0.017447
# 2 -0.001349 0.010645 -0.001210 -0.007174 0.000417 0.000521
# 3 -0.009796 -0.001210 0.014983 -0.008596 -0.009303 0.007890
# 4 0.005362 -0.007174 -0.008596 0.028272 0.007076 -0.007266
# 5 0.002549 0.000417 -0.009303 0.007076 0.032421 -0.011008
# 6 -0.017447 0.000521 0.007890 -0.007266 -0.011008 0.054248
#
#
# Mechanical properties :
#
#
# Convention : Reuss Voigt Hill
#
# Bulk Modulus (GPa) = 26.28213 50.16950 38.22582
# Shear Modulus (GPa) = 23.24566 38.55549 30.90057
#
# Velocity S-wave (km/s) = 3.09390 3.98454 3.56712
# Velocity P-wave (km/s) = 4.85649 6.46744 5.71897
#
# Compressibility (1/GPa) = 0.03804867
#
# Stress axis : x y z
#
# Youngs Moduli (GPa) = 26.93071 93.94373 66.74436
#
# Poissons Ratio (x) = 0.12676 0.65381
# Poissons Ratio (y) = 0.03634 0.08078
# Poissons Ratio (z) = 0.26381 0.11371
#
# Static dielectric constant tensor:
#      x y z
#    x 1.973800 -0.036650 -0.032640 
#    y -0.036650 1.967820 0.002280 
#    z -0.032640 0.002280 2.089950 
# 
# From -- ./inp_files/538878.got.cif
#   From: 2010.05.17/outbox.cif.g08.bks.cpg/sg2_270_cif.got.tgz:538878.got - 2010.06.03 11:33:40.
