data_PCOD9091151
_publ_section_title
;
Structure prediction by ZEFSAII (Michael W. Deem and Ramdas Pophale) SiO2 
 PCOD9091151
Probable space group: P -1
;
_chemical_formula_sum "Si O2"
_cell_formula_units_Z 16
_cell_length_a 10.897354
_cell_length_b 27.322282
_cell_length_c 5.310986
_cell_angle_alpha 86.309590
_cell_angle_beta 94.639675
_cell_angle_gamma 157.753482
_cell_volume 596.473682
_symmetry_space_group_name_H-M "P -1"
_symmetry_group_IT_number 2
_symmetry_cell_setting 'triclinic'
loop_
_space_group_symop_operation_xyz
x,y,z
-x,-y,-z
loop_
_atom_site_type_symbol
_atom_site_label
_atom_site_fract_x
_atom_site_fract_y
_atom_site_fract_z
Si Si1 0.634471 0.023205 0.768401
Si Si2 0.394873 0.720337 0.172808
Si Si3 0.302141 0.535755 0.575828
Si Si4 0.370830 0.242311 0.286961
Si Si5 0.794844 0.956656 0.277661
Si Si6 0.221296 0.295221 0.785033
Si Si7 0.291118 0.394009 0.190849
Si Si8 0.250938 0.802544 0.561418
O O1 0.017778 0.170432 0.787371
O O2 0.500000 0.000000 0.500000
O O3 0.503582 0.920881 0.751612
O O4 0.500000 0.000000 0.000000
O O5 0.563627 0.755322 0.425368
O O6 0.629743 0.854416 0.104712
O O7 0.035764 0.591838 0.287078
O O8 0.397126 0.692477 0.918367
O O9 0.523346 0.661407 0.692707
O O10 0.413191 0.582140 0.283372
O O11 0.441812 0.532332 0.617870
O O12 0.016523 0.086844 0.215013
O O13 0.463243 0.854454 0.378844
O O14 0.000000 0.000000 0.500000
O O15 0.002933 0.250943 0.579656
O O16 0.165035 0.301717 0.035872
O O17 0.000251 0.319266 0.270568
O O18 0.500000 0.500000 0.000000
#
# Coordination Sequence:
#
# PCOD9091151 Si02
#       8
#     2   2   2   2   2   2   2   2
#     4  10  19  39  63  96 131 175 222 275 334 407
#     4  11  26  46  76 106 146 187 241 297 362 418
#     4  11  26  43  73 103 143 188 237 296 353 431
#     4  11  25  50  72 109 140 189 242 299 356 421
#     4  10  24  47  71 103 140 188 240 299 357 424
#     4  10  23  41  65 101 140 178 232 283 355 421
#     4  11  26  41  67 103 143 188 235 289 355 433
#     4  10  22  43  64  99 137 185 228 289 354 423
#
# _framework density 26.82432
#
# number of rings (size 3 to 8) (size 9 to 14) (size 15 to 20)
#    0.000    1.500    1.250    1.875    7.000    3.000 
#    4.500    0.000    0.000    0.000    0.000    0.000 
#    0.000    0.000    0.000    0.000    0.000    0.000 
#
# Total GULP energy -89180.239498 kJ/mol
# GULP energy per Si atom -5573.764969 kJ/mol
# Density = 2.676327 g / cm^3
# Si number density = 26.824320 Si / 1000 Ang^3
#
#
#
# Elastic Constant Matrix: (Units=GPa)
#
#
# Indices 1 2 3 4 5 6 
#
# 1 59.4672 24.8658 -6.7074 -3.0032 -6.3208 3.8887
# 2 24.8658 140.3387 -8.3517 -15.5753 7.0603 1.1238
# 3 -6.7074 -8.3517 68.9828 0.8390 -16.7579 17.6433
# 4 -3.0032 -15.5753 0.8390 44.2948 -6.3235 -18.4935
# 5 -6.3208 7.0603 -16.7579 -6.3235 38.8898 -15.0939
# 6 3.8887 1.1238 17.6433 -18.4935 -15.0939 40.8748
#
#
#
# Elastic Compliance Matrix: (Units=1/GPa)
#
#
# Indices 1 2 3 4 5 6 
#
# 1 0.019136 -0.003418 0.002851 0.000184 0.004522 -0.001204
# 2 -0.003418 0.008103 0.000098 0.002826 -0.001174 0.000906
# 3 0.002851 0.000098 0.017873 -0.002446 0.004925 -0.007276
# 4 0.000184 0.002826 -0.002446 0.034049 0.012083 0.020828
# 5 0.004522 -0.001174 0.004925 0.012083 0.037226 0.016690
# 6 -0.001204 0.000906 -0.007276 0.020828 0.016690 0.043282
#
#
# Mechanical properties :
#
#
# Convention : Reuss Voigt Hill
#
# Bulk Modulus (GPa) = 22.63924 32.04467 27.34196
# Shear Modulus (GPa) = 28.51747 42.07736 35.29742
#
# Velocity S-wave (km/s) = 3.26409 3.96489 3.63143
# Velocity P-wave (km/s) = 4.76066 5.73868 5.27240
#
# Compressibility (1/GPa) = 0.04417110
#
# Stress axis : x y z
#
# Youngs Moduli (GPa) = 52.25878 123.41850 55.95148
#
# Poissons Ratio (x) = 0.42188 -0.15951
# Poissons Ratio (y) = 0.17863 -0.00546
# Poissons Ratio (z) = -0.14899 -0.01204
#
# Static dielectric constant tensor:
#      x y z
#    x 2.227480 -0.279010 0.315800 
#    y -0.279010 2.721730 -0.503300 
#    z 0.315800 -0.503300 2.414240 
# 
# From -- ./inp_files/85408.got.cif
#   From: 2010.05.17/outbox.cif.g08.bks.cpg/sg2_43_cif.got.tgz:85408.got - 2010.06.03 11:33:40.
