data_PCOD9091872
_publ_section_title
;
Structure prediction by ZEFSAII (Michael W. Deem and Ramdas Pophale) SiO2 
 PCOD9091872
Probable space group: P -1
;
_chemical_formula_sum "Si O2"
_cell_formula_units_Z 16
_cell_length_a 19.915741
_cell_length_b 9.006594
_cell_length_c 8.108879
_cell_angle_alpha 49.694310
_cell_angle_beta 116.591707
_cell_angle_gamma 136.385523
_cell_volume 764.548942
_symmetry_space_group_name_H-M "P -1"
_symmetry_group_IT_number 2
_symmetry_cell_setting 'triclinic'
loop_
_space_group_symop_operation_xyz
x,y,z
-x,-y,-z
loop_
_atom_site_type_symbol
_atom_site_label
_atom_site_fract_x
_atom_site_fract_y
_atom_site_fract_z
Si Si1 0.908442 0.714954 0.632901
Si Si2 0.912502 0.358446 0.642439
Si Si3 0.462908 0.533485 0.686379
Si Si4 0.441105 0.115212 0.157190
Si Si5 0.042347 0.254896 0.960292
Si Si6 0.448653 0.028128 0.770674
Si Si7 0.293767 0.556435 0.514305
Si Si8 0.762480 0.296633 0.336654
O O1 0.913665 0.546595 0.628740
O O2 0.807132 0.655870 0.532699
O O3 0.917557 0.680417 0.858059
O O4 0.000000 0.000000 0.500000
O O5 0.806188 0.181444 0.566823
O O6 0.000000 0.500000 0.500000
O O7 0.947149 0.235148 0.875677
O O8 0.541980 0.734571 0.765453
O O9 0.500048 0.690926 0.442794
O O10 0.363788 0.487280 0.645221
O O11 0.445208 0.277027 0.894525
O O12 0.527317 0.098026 0.250476
O O13 0.346773 0.822663 0.283610
O O14 0.139288 0.476013 0.808522
O O15 0.000000 0.000000 0.000000
O O16 0.333346 0.879495 0.754571
O O17 0.500000 0.000000 0.000000
O O18 0.266916 0.594943 0.635904
#
# Coordination Sequence:
#
# PCOD9091872 Si02
#       8
#     2   2   2   2   2   2   2   2
#     4  11  23  41  65  93 127 166 218 267 334 391
#     4   9  20  41  66  88 123 161 207 271 322 383
#     4  10  20  39  64  91 125 165 220 257 319 392
#     4  10  20  39  65  89 125 165 217 265 313 386
#     4  11  23  42  63  92 128 168 212 271 330 395
#     4  11  22  38  61  88 134 168 201 268 315 380
#     4  10  19  40  62  92 126 164 210 273 320 383
#     4  10  20  39  60  87 122 163 211 253 331 380
#
# _framework density 20.927371000000001
#
# number of rings (size 3 to 8) (size 9 to 14) (size 15 to 20)
#    0.000    1.750    2.500    3.375    3.500    0.500 
#   13.500    1.250    0.000    0.000    0.000    0.000 
#    0.000    0.000    0.000    0.000    0.000    0.000 
#
# Total GULP energy -89111.205918 kJ/mol
# GULP energy per Si atom -5569.450370 kJ/mol
# Density = 2.087974 g / cm^3
# Si number density = 20.927371 Si / 1000 Ang^3
#
#
#
# Elastic Constant Matrix: (Units=GPa)
#
#
# Indices 1 2 3 4 5 6 
#
# 1 98.0247 40.6088 41.3584 -0.3361 15.4800 24.2619
# 2 40.6088 93.5906 36.0361 13.0982 14.8844 27.7682
# 3 41.3584 36.0361 114.5173 4.5605 5.6526 12.3770
# 4 -0.3361 13.0982 4.5605 40.6032 -1.8884 5.4016
# 5 15.4800 14.8844 5.6526 -1.8884 36.6668 6.2229
# 6 24.2619 27.7682 12.3770 5.4016 6.2229 43.3582
#
#
#
# Elastic Compliance Matrix: (Units=1/GPa)
#
#
# Indices 1 2 3 4 5 6 
#
# 1 0.014919 -0.003329 -0.003723 0.002111 -0.003429 -0.004924
# 2 -0.003329 0.016471 -0.002885 -0.004299 -0.003909 -0.006766
# 3 -0.003723 -0.002885 0.010874 -0.000377 0.000921 0.000742
# 4 0.002111 -0.004299 -0.000377 0.026462 0.002613 -0.001992
# 5 -0.003429 -0.003909 0.000921 0.002613 0.030389 -0.000528
# 6 -0.004924 -0.006766 0.000742 -0.001992 -0.000528 0.030264
#
#
# Mechanical properties :
#
#
# Convention : Reuss Voigt Hill
#
# Bulk Modulus (GPa) = 44.66433 60.23768 52.45100
# Shear Modulus (GPa) = 31.90464 36.66761 34.28613
#
# Velocity S-wave (km/s) = 3.90877 4.19039 4.05203
# Velocity P-wave (km/s) = 6.46221 7.22905 6.85636
#
# Compressibility (1/GPa) = 0.02238923
#
# Stress axis : x y z
#
# Youngs Moduli (GPa) = 67.02893 60.71335 91.96018
#
# Poissons Ratio (x) = 0.20211 0.34238
# Poissons Ratio (y) = 0.22313 0.26534
# Poissons Ratio (z) = 0.24956 0.17518
#
# Static dielectric constant tensor:
#      x y z
#    x 1.728230 -0.007490 -0.014980 
#    y -0.007490 1.736050 0.027430 
#    z -0.014980 0.027430 1.830640 
# 
# From -- ./inp_files/342465.got.cif
#   From: 2010.05.17/outbox.cif.g08.bks.cpg/sg2_172_cif.got.tgz:342465.got - 2010.06.03 11:33:40.
