data_PCOD9091180
_publ_section_title
;
Structure prediction by ZEFSAII (Michael W. Deem and Ramdas Pophale) SiO2 
 PCOD9091180
Probable space group: P -1
;
_chemical_formula_sum "Si O2"
_cell_formula_units_Z 16
_cell_length_a 22.890612
_cell_length_b 19.573847
_cell_length_c 9.868516
_cell_angle_alpha 145.330077
_cell_angle_beta 152.727951
_cell_angle_gamma 25.079761
_cell_volume 855.357666
_symmetry_space_group_name_H-M "P -1"
_symmetry_group_IT_number 2
_symmetry_cell_setting 'triclinic'
loop_
_space_group_symop_operation_xyz
x,y,z
-x,-y,-z
loop_
_atom_site_type_symbol
_atom_site_label
_atom_site_fract_x
_atom_site_fract_y
_atom_site_fract_z
Si Si1 0.876187 0.362179 0.334581
Si Si2 0.096175 0.190839 0.758041
Si Si3 0.955381 0.040665 0.631251
Si Si4 0.124582 0.010481 0.184908
Si Si5 0.589567 0.042302 0.158519
Si Si6 0.929237 0.590053 0.715923
Si Si7 0.738756 0.645775 0.154949
Si Si8 0.691295 0.409127 0.786727
O O1 0.869802 0.507880 0.537242
O O2 0.926580 0.304791 0.499211
O O3 0.033539 0.198860 0.311579
O O4 0.718662 0.400766 0.992652
O O5 0.116632 0.041765 0.604628
O O6 0.262562 0.112429 0.880941
O O7 0.080729 0.290479 0.012641
O O8 0.817423 0.230754 0.691068
O O9 0.000000 0.000000 0.500000
O O10 0.114575 0.970408 0.945673
O O11 0.307908 0.919682 0.482604
O O12 0.000000 0.000000 0.000000
O O13 0.443363 0.194110 0.012113
O O14 0.500000 0.000000 0.000000
O O15 0.814342 0.676414 0.484781
O O16 0.121658 0.442967 0.821408
O O17 0.733806 0.513544 0.986193
O O18 0.500000 0.500000 0.500000
#
# Coordination Sequence:
#
# PCOD9091180 Si02
#       8
#     2   2   2   2   2   2   2   2
#     4   9  19  34  58  84 107 155 204 231 292 369
#     4  11  21  37  62  85 121 162 201 253 304 361
#     4  11  22  37  60  92 117 156 210 248 297 361
#     4  10  19  39  64  85 120 167 202 243 301 367
#     4  11  23  38  63  95 119 156 210 255 299 363
#     4  10  21  38  58  85 120 161 195 243 310 371
#     4  10  21  38  58  84 120 155 199 250 303 359
#     4  10  21  35  57  82 115 154 198 246 301 357
#
# _framework density 18.705625000000001
#
# number of rings (size 3 to 8) (size 9 to 14) (size 15 to 20)
#    0.000    1.750    2.500    3.375    1.750    3.500 
#    0.000    3.750    0.000    3.000    0.000    0.000 
#    0.000    0.000    0.000    0.000    0.000    0.000 
#
# Total GULP energy -89225.671723 kJ/mol
# GULP energy per Si atom -5576.604483 kJ/mol
# Density = 1.866305 g / cm^3
# Si number density = 18.705625 Si / 1000 Ang^3
#
#
#
# Elastic Constant Matrix: (Units=GPa)
#
#
# Indices 1 2 3 4 5 6 
#
# 1 79.4652 17.9449 50.7746 1.3233 -17.4932 -0.8743
# 2 17.9449 78.5803 57.0306 -6.1011 -19.8807 9.9206
# 3 50.7746 57.0306 148.4331 -6.6803 -30.9532 -11.9316
# 4 1.3233 -6.1011 -6.6803 42.2192 -2.0711 0.6424
# 5 -17.4932 -19.8807 -30.9532 -2.0711 35.6547 6.7219
# 6 -0.8743 9.9206 -11.9316 0.6424 6.7219 19.1544
#
#
#
# Elastic Compliance Matrix: (Units=1/GPa)
#
#
# Indices 1 2 3 4 5 6 
#
# 1 0.017211 0.002967 -0.006399 -0.000738 0.005771 -0.006737
# 2 0.002967 0.025561 -0.010211 0.002906 0.011458 -0.023583
# 3 -0.006399 -0.010211 0.014172 0.000811 0.000981 0.013453
# 4 -0.000738 0.002906 0.000811 0.024503 0.004000 -0.003259
# 5 0.005771 0.011458 0.000981 0.004000 0.042116 -0.019974
# 6 -0.006737 -0.023583 0.013453 -0.003259 -0.019974 0.079613
#
#
# Mechanical properties :
#
#
# Convention : Reuss Voigt Hill
#
# Bulk Modulus (GPa) = 33.71828 61.99764 47.85796
# Shear Modulus (GPa) = 20.80310 31.45423 26.12866
#
# Velocity S-wave (km/s) = 3.33848 4.10511 3.74148
# Velocity P-wave (km/s) = 5.73807 7.46224 6.65622
#
# Compressibility (1/GPa) = 0.02965751
#
# Stress axis : x y z
#
# Youngs Moduli (GPa) = 58.10182 39.12182 70.56343
#
# Poissons Ratio (x) = -0.11607 0.45151
# Poissons Ratio (y) = -0.17238 0.72055
# Poissons Ratio (z) = 0.37178 0.39949
#
# Static dielectric constant tensor:
#      x y z
#    x 1.669610 0.036380 -0.000550 
#    y 0.036380 1.646070 -0.014410 
#    z -0.000550 -0.014410 1.690160 
# 
# From -- ./inp_files/347373.got.cif
#   From: 2010.05.17/outbox.cif.g08.bks.cpg/sg2_174_cif.got.tgz:347373.got - 2010.06.03 11:33:40.
