data_PCOD9091847
_publ_section_title
;
Structure prediction by ZEFSAII (Michael W. Deem and Ramdas Pophale) SiO2 
 PCOD9091847
Probable space group: P -1
;
_chemical_formula_sum "Si O2"
_cell_formula_units_Z 16
_cell_length_a 12.730286
_cell_length_b 14.145860
_cell_length_c 7.259679
_cell_angle_alpha 80.937023
_cell_angle_beta 126.909853
_cell_angle_gamma 129.420650
_cell_volume 752.623105
_symmetry_space_group_name_H-M "P -1"
_symmetry_group_IT_number 2
_symmetry_cell_setting 'triclinic'
loop_
_space_group_symop_operation_xyz
x,y,z
-x,-y,-z
loop_
_atom_site_type_symbol
_atom_site_label
_atom_site_fract_x
_atom_site_fract_y
_atom_site_fract_z
Si Si1 0.422599 0.981897 0.722852
Si Si2 0.652072 0.199952 0.599675
Si Si3 0.008632 0.743846 0.911475
Si Si4 0.812745 0.462435 0.800281
Si Si5 0.883346 0.084320 0.373096
Si Si6 0.700916 0.695494 0.792163
Si Si7 0.549983 0.414913 0.797662
Si Si8 0.730852 0.810524 0.151513
O O1 0.429520 0.888760 0.639176
O O2 0.222489 0.920819 0.568655
O O3 0.530321 0.113029 0.674748
O O4 0.500000 0.000000 0.000000
O O5 0.689320 0.330923 0.591130
O O6 0.840307 0.237485 0.821507
O O7 0.858406 0.590914 0.737278
O O8 0.899796 0.767679 0.906202
O O9 0.101182 0.835471 0.804721
O O10 0.718795 0.433727 0.907351
O O11 0.000000 0.500000 0.000000
O O12 0.085184 0.154586 0.616131
O O13 0.771374 0.936803 0.229007
O O14 0.621105 0.559240 0.845863
O O15 0.580175 0.653327 0.497935
O O16 0.704515 0.782752 0.914807
O O17 0.437032 0.318831 0.877426
#
# Coordination Sequence:
#
# PCOD9091847 Si02
#       8
#     2   2   2   2   2   2   2   2
#     4  11  22  38  61  86 120 154 193 243 282 344
#     4  10  21  39  63  85 112 160 195 231 296 341
#     4  10  19  40  62  83 120 153 189 243 291 340
#     4   9  20  38  65  86 114 153 192 236 287 343
#     4  11  23  39  57  87 120 153 195 240 287 342
#     4  10  21  37  63  86 114 154 190 238 296 336
#     4  10  20  39  61  87 117 147 193 243 284 343
#     4  11  23  39  59  87 117 153 197 237 285 350
#
# _framework density 21.258980000000001
#
# number of rings (size 3 to 8) (size 9 to 14) (size 15 to 20)
#    0.000    1.750    2.500    1.875    0.000    1.500 
#    2.250    0.625    2.750    0.000    0.000    0.000 
#    0.000    0.000    0.000    0.000    0.000    0.000 
#
# Total GULP energy -89402.240546 kJ/mol
# GULP energy per Si atom -5587.640034 kJ/mol
# Density = 2.121059 g / cm^3
# Si number density = 21.258980 Si / 1000 Ang^3
#
#
#
# Elastic Constant Matrix: (Units=GPa)
#
#
# Indices 1 2 3 4 5 6 
#
# 1 108.7901 24.1303 6.5790 -8.7405 -4.6370 29.6872
# 2 24.1303 66.9091 6.3289 1.4375 -20.5560 17.4406
# 3 6.5790 6.3289 58.9753 -0.2540 -12.5900 0.4643
# 4 -8.7405 1.4375 -0.2540 13.8267 0.5272 -1.7838
# 5 -4.6370 -20.5560 -12.5900 0.5272 32.6657 3.7352
# 6 29.6872 17.4406 0.4643 -1.7838 3.7352 33.3280
#
#
#
# Elastic Compliance Matrix: (Units=1/GPa)
#
#
# Indices 1 2 3 4 5 6 
#
# 1 0.013134 -0.001480 -0.000822 0.006991 0.001731 -0.010734
# 2 -0.001480 0.024366 0.001325 -0.005871 0.017295 -0.013704
# 3 -0.000822 0.001325 0.018628 -0.000772 0.008042 -0.001163
# 4 0.006991 -0.005871 -0.000772 0.077703 -0.004427 0.001511
# 5 0.001731 0.017295 0.008042 -0.004427 0.046764 -0.016182
# 6 -0.010734 -0.013704 -0.001163 0.001511 -0.016182 0.048648
#
#
# Mechanical properties :
#
#
# Convention : Reuss Voigt Hill
#
# Bulk Modulus (GPa) = 18.45879 34.30566 26.38222
# Shear Modulus (GPa) = 20.05978 29.13984 24.59981
#
# Velocity S-wave (km/s) = 3.07512 3.70632 3.40538
# Velocity P-wave (km/s) = 4.61630 5.87263 5.28195
#
# Compressibility (1/GPa) = 0.05417474
#
# Stress axis : x y z
#
# Youngs Moduli (GPa) = 76.13577 41.04158 53.68124
#
# Poissons Ratio (x) = 0.06072 0.04414
# Poissons Ratio (y) = 0.11265 -0.07113
# Poissons Ratio (z) = 0.06261 -0.05438
#
# Static dielectric constant tensor:
#      x y z
#    x 1.785380 -0.002190 0.042070 
#    y -0.002190 1.764630 0.043000 
#    z 0.042070 0.043000 1.767960 
# 
# From -- ./inp_files/77951.got.cif
#   From: 2010.05.17/outbox.cif.g08.bks.cpg/sg2_39_cif.got.tgz:77951.got - 2010.06.03 11:33:40.
