data_PCOD9091406
_publ_section_title
;
Structure prediction by ZEFSAII (Michael W. Deem and Ramdas Pophale) SiO2 
 PCOD9091406
Probable space group: P -1
;
_chemical_formula_sum "Si O2"
_cell_formula_units_Z 16
_cell_length_a 8.024016
_cell_length_b 14.371032
_cell_length_c 15.112635
_cell_angle_alpha 138.719056
_cell_angle_beta 130.085062
_cell_angle_gamma 37.139833
_cell_volume 689.753287
_symmetry_space_group_name_H-M "P -1"
_symmetry_group_IT_number 2
_symmetry_cell_setting 'triclinic'
loop_
_space_group_symop_operation_xyz
x,y,z
-x,-y,-z
loop_
_atom_site_type_symbol
_atom_site_label
_atom_site_fract_x
_atom_site_fract_y
_atom_site_fract_z
Si Si1 0.690518 0.222771 0.973311
Si Si2 0.119335 0.761894 0.105743
Si Si3 0.279419 0.812230 0.495892
Si Si4 0.717398 0.955833 0.888169
Si Si5 0.804230 0.183788 0.318949
Si Si6 0.708693 0.456299 0.815691
Si Si7 0.700444 0.727245 0.906147
Si Si8 0.860811 0.710344 0.607201
O O1 0.573221 0.368410 0.113601
O O2 0.613222 0.308241 0.911840
O O3 0.598761 0.101151 0.871776
O O4 0.021221 0.079068 0.998288
O O5 0.145820 0.677208 0.147779
O O6 0.985417 0.968600 0.221333
O O7 0.956336 0.716506 0.953994
O O8 0.262060 0.781463 0.573293
O O9 0.323676 0.646823 0.343333
O O10 0.534316 0.809670 0.549787
O O11 0.000000 0.000000 0.500000
O O12 0.833441 0.776206 0.746791
O O13 0.467618 0.082341 0.961357
O O14 0.516088 0.261665 0.225042
O O15 0.971111 0.244655 0.367304
O O16 0.829630 0.550153 0.882671
O O17 0.000000 0.500000 0.500000
#
# Coordination Sequence:
#
# PCOD9091406 Si02
#       8
#     2   2   2   2   2   2   2   2
#     4  10  20  38  68  99 139 175 233 300 357 423
#     4  12  22  42  71 107 140 185 235 306 375 432
#     4  12  28  50  73 104 155 202 242 303 367 442
#     4  10  19  39  66 100 136 179 229 300 357 417
#     4  12  25  49  75 109 144 192 256 297 363 452
#     4  11  25  46  64 103 149 187 241 297 365 441
#     4  11  24  42  73 108 141 183 242 307 371 429
#     4  12  26  46  77 108 145 201 252 301 362 437
#
# _framework density 23.196701000000001
#
# number of rings (size 3 to 8) (size 9 to 14) (size 15 to 20)
#    0.000    0.750    3.750    4.875    1.750    2.500 
#    2.250    0.000    0.000    0.000    0.000    0.000 
#    0.000    0.000    0.000    0.000    0.000    0.000 
#
# Total GULP energy -89129.354037 kJ/mol
# GULP energy per Si atom -5570.584627 kJ/mol
# Density = 2.314390 g / cm^3
# Si number density = 23.196701 Si / 1000 Ang^3
#
#
#
# Elastic Constant Matrix: (Units=GPa)
#
#
# Indices 1 2 3 4 5 6 
#
# 1 147.0905 45.8702 54.3198 -9.0914 13.0134 41.8868
# 2 45.8702 84.3867 21.8208 9.9795 13.8197 23.5051
# 3 54.3198 21.8208 140.7516 12.2468 -16.2937 15.0829
# 4 -9.0914 9.9795 12.2468 32.7056 3.1391 0.8975
# 5 13.0134 13.8197 -16.2937 3.1391 36.3495 -1.6182
# 6 41.8868 23.5051 15.0829 0.8975 -1.6182 48.9901
#
#
#
# Elastic Compliance Matrix: (Units=1/GPa)
#
#
# Indices 1 2 3 4 5 6 
#
# 1 0.013178 -0.003243 -0.005107 0.007451 -0.006796 -0.008500
# 2 -0.003243 0.016761 -0.001004 -0.004978 -0.005456 -0.005049
# 3 -0.005107 -0.001004 0.010381 -0.005771 0.007451 0.002004
# 4 0.007451 -0.004978 -0.005771 0.037055 -0.006700 -0.003106
# 5 -0.006796 -0.005456 0.007451 -0.006700 0.036269 0.007455
# 6 -0.008500 -0.005049 0.002004 -0.003106 0.007455 0.029788
#
#
# Mechanical properties :
#
#
# Convention : Reuss Voigt Hill
#
# Bulk Modulus (GPa) = 46.27214 68.47229 57.37221
# Shear Modulus (GPa) = 29.52520 40.29025 34.90773
#
# Velocity S-wave (km/s) = 3.57153 4.17213 3.88346
# Velocity P-wave (km/s) = 6.08266 7.26575 6.70037
#
# Compressibility (1/GPa) = 0.02161128
#
# Stress axis : x y z
#
# Youngs Moduli (GPa) = 75.88183 59.66081 96.32640
#
# Poissons Ratio (x) = 0.19350 0.49196
# Poissons Ratio (y) = 0.24611 0.09675
# Poissons Ratio (z) = 0.38755 0.05992
#
# Static dielectric constant tensor:
#      x y z
#    x 2.024570 0.060170 -0.023070 
#    y 0.060170 1.961600 -0.040640 
#    z -0.023070 -0.040640 1.890600 
# 
# From -- ./inp_files/504531.got.cif
#   From: 2010.05.17/outbox.cif.g08.bks.cpg/sg2_253_cif.got.tgz:504531.got - 2010.06.03 11:33:40.
