data_PCOD9091721
_publ_section_title
;
Structure prediction by ZEFSAII (Michael W. Deem and Ramdas Pophale) SiO2 
 PCOD9091721
Probable space group: P -1
;
_chemical_formula_sum "Si O2"
_cell_formula_units_Z 16
_cell_length_a 15.915884
_cell_length_b 7.707287
_cell_length_c 5.831070
_cell_angle_alpha 119.865750
_cell_angle_beta 93.645225
_cell_angle_gamma 81.401483
_cell_volume 613.272067
_symmetry_space_group_name_H-M "P -1"
_symmetry_group_IT_number 2
_symmetry_cell_setting 'triclinic'
loop_
_space_group_symop_operation_xyz
x,y,z
-x,-y,-z
loop_
_atom_site_type_symbol
_atom_site_label
_atom_site_fract_x
_atom_site_fract_y
_atom_site_fract_z
Si Si1 0.776889 0.845592 0.680845
Si Si2 0.190278 0.568040 0.485463
Si Si3 0.104413 0.867240 0.016138
Si Si4 0.269194 0.755527 0.247578
Si Si5 0.591791 0.548330 0.125054
Si Si6 0.636972 0.925176 0.078079
Si Si7 0.491766 0.152814 0.384936
Si Si8 0.968184 0.598762 0.813558
O O1 0.776892 0.615710 0.458856
O O2 0.870833 0.912407 0.775081
O O3 0.731974 0.003134 0.589694
O O4 0.726717 0.901525 0.947592
O O5 0.138231 0.768829 0.715643
O O6 0.128853 0.444614 0.243309
O O7 0.265934 0.636921 0.402312
O O8 0.174935 0.745246 0.117531
O O9 0.011146 0.806156 0.985703
O O10 0.340837 0.648620 0.024344
O O11 0.624743 0.728872 0.100737
O O12 0.563603 0.636893 0.424372
O O13 0.500000 0.500000 0.000000
O O14 0.591260 0.133048 0.323053
O O15 0.570229 0.924961 0.859006
O O16 0.500000 0.000000 0.500000
O O17 0.000000 0.500000 0.500000
O O18 0.000000 0.500000 0.000000
#
# Coordination Sequence:
#
# PCOD9091721 Si02
#       8
#     2   2   2   2   2   2   2   2
#     4  10  23  41  63  94 127 170 218 270 326 405
#     4  11  21  44  66  92 137 174 209 280 335 390
#     4   9  23  40  62  99 127 170 223 264 332 404
#     4  10  23  41  59  93 128 161 224 265 322 409
#     4  11  24  39  61  91 122 167 214 273 332 394
#     4  10  21  41  59  85 125 160 214 267 330 390
#     4   9  22  38  59  84 114 161 209 261 329 389
#     4  10  19  39  71 100 141 183 227 286 346 413
#
# _framework density 26.089562000000001
#
# number of rings (size 3 to 8) (size 9 to 14) (size 15 to 20)
#    0.750    1.250    2.500    0.000    7.000    2.000 
#    4.500    0.000    0.000    5.250    0.000    0.000 
#    0.000    0.000    0.000    0.000    0.000    0.000 
#
# Total GULP energy -89131.375399 kJ/mol
# GULP energy per Si atom -5570.710962 kJ/mol
# Density = 2.603018 g / cm^3
# Si number density = 26.089562 Si / 1000 Ang^3
#
#
#
# Elastic Constant Matrix: (Units=GPa)
#
#
# Indices 1 2 3 4 5 6 
#
# 1 95.8817 10.4074 -7.2303 -0.4828 16.5930 10.4038
# 2 10.4074 107.1409 18.9747 8.5728 7.9317 17.4219
# 3 -7.2303 18.9747 39.8458 7.8793 7.9555 6.5047
# 4 -0.4828 8.5728 7.8793 24.6919 0.0826 3.7429
# 5 16.5930 7.9317 7.9555 0.0826 41.3110 4.2935
# 6 10.4038 17.4219 6.5047 3.7429 4.2935 41.6047
#
#
#
# Elastic Compliance Matrix: (Units=1/GPa)
#
#
# Indices 1 2 3 4 5 6 
#
# 1 0.012047 -0.001078 0.004229 -0.000319 -0.005169 -0.002660
# 2 -0.001078 0.010957 -0.004386 -0.001907 -0.000467 -0.003413
# 3 0.004229 -0.004386 0.031281 -0.007942 -0.006582 -0.002718
# 4 -0.000319 -0.001907 -0.007942 0.043994 0.002150 -0.002060
# 5 -0.005169 -0.000467 -0.006582 0.002150 0.027691 -0.000534
# 6 -0.002660 -0.003413 -0.002718 -0.002060 -0.000534 0.026795
#
#
# Mechanical properties :
#
#
# Convention : Reuss Voigt Hill
#
# Bulk Modulus (GPa) = 19.29967 31.90801 25.60384
# Shear Modulus (GPa) = 28.98401 36.23596 32.60998
#
# Velocity S-wave (km/s) = 3.33670 3.73085 3.53926
# Velocity P-wave (km/s) = 4.71787 5.55119 5.15140
#
# Compressibility (1/GPa) = 0.05181437
#
# Stress axis : x y z
#
# Youngs Moduli (GPa) = 83.00807 91.26433 31.96817
#
# Poissons Ratio (x) = 0.09842 -0.13519
# Poissons Ratio (y) = 0.08952 0.14021
# Poissons Ratio (z) = -0.35103 0.40028
#
# Static dielectric constant tensor:
#      x y z
#    x 2.082760 -0.150760 -0.296770 
#    y -0.150760 2.587030 1.621030 
#    z -0.296770 1.621030 8.772790 
# 
# From -- ./inp_files/105795.got.cif
#   From: 2010.05.17/outbox.cif.g08.bks.cpg/sg2_53_cif.got.tgz:105795.got - 2010.06.03 11:33:40.
