data_PCOD9092992
_publ_section_title
;
Structure prediction by ZEFSAII (Michael W. Deem and Ramdas Pophale) SiO2 
 PCOD9092992
Probable space group: P -1
;
_chemical_formula_sum "Si O2"
_cell_formula_units_Z 15
_cell_length_a 10.206782
_cell_length_b 8.124269
_cell_length_c 13.711665
_cell_angle_alpha 102.024478
_cell_angle_beta 152.004883
_cell_angle_gamma 78.417959
_cell_volume 521.646505
_symmetry_space_group_name_H-M "P -1"
_symmetry_group_IT_number 2
_symmetry_cell_setting 'triclinic'
loop_
_space_group_symop_operation_xyz
x,y,z
-x,-y,-z
loop_
_atom_site_type_symbol
_atom_site_label
_atom_site_fract_x
_atom_site_fract_y
_atom_site_fract_z
Si Si1 0.832384 0.233047 0.334993
Si Si2 0.522745 0.310393 0.580545
Si Si3 0.809096 0.634836 0.821975
Si Si4 0.180769 0.050866 0.397152
Si Si5 0.973873 0.459163 0.627619
Si Si6 0.734248 0.218011 0.983345
Si Si7 0.500000 0.500000 0.000000
Si Si8 0.736969 0.853668 0.986229
O O1 0.071229 0.102723 0.438424
O O2 0.825468 0.406929 0.285142
O O3 0.532278 0.155485 0.123061
O O4 0.893056 0.306015 0.489581
O O5 0.777493 0.435431 0.765473
O O6 0.415697 0.293259 0.396964
O O7 0.481566 0.127549 0.581299
O O8 0.298366 0.437065 0.505699
O O9 0.730989 0.710327 0.883949
O O10 0.110467 0.696723 0.993168
O O11 0.982423 0.181637 0.220006
O O12 0.036001 0.883838 0.240524
O O13 0.213111 0.426824 0.859015
O O14 0.509679 0.333148 0.906357
O O15 0.668161 0.024792 0.898778
#
# Coordination Sequence:
#
# PCOD9092992 Si02
#       8
#     2   2   2   2   2   2   1   2
#     4  10  17  32  51  78 103 131 178 212 256 295
#     4   9  16  29  46  77 100 129 169 214 257 287
#     4  10  16  29  50  74 107 128 173 219 258 289
#     4   8  17  30  45  80  97 128 167 205 264 286
#     4  10  19  31  54  78 101 138 169 213 257 301
#     4   9  20  30  50  77 104 140 164 211 263 298
#     4  12  18  38  48  74 114 136 168 206 256 328
#     4  10  18  29  52  80 105 128 171 226 255 293
#
# _framework density 28.755108
#
# number of rings (size 3 to 8) (size 9 to 14) (size 15 to 20)
#    0.800    1.600    5.333    0.800    0.000    0.000 
#    0.000    0.667    0.000    0.800    0.000    0.933 
#    0.000    0.267    0.000    0.000    0.000    0.000 
#
# Total GULP energy -83624.009375 kJ/mol
# GULP energy per Si atom -5574.933958 kJ/mol
# Density = 2.868966 g / cm^3
# Si number density = 28.755108 Si / 1000 Ang^3
#
#
#
# Elastic Constant Matrix: (Units=GPa)
#
#
# Indices 1 2 3 4 5 6 
#
# 1 66.7229 6.6570 34.5191 8.9321 18.4000 -6.8600
# 2 6.6570 78.3089 62.2993 24.1988 4.0011 -3.1368
# 3 34.5191 62.2993 140.4196 37.0934 23.8364 -5.5550
# 4 8.9321 24.1988 37.0934 57.1314 -2.0980 -10.1875
# 5 18.4000 4.0011 23.8364 -2.0980 61.8723 15.6166
# 6 -6.8600 -3.1368 -5.5550 -10.1875 15.6166 36.6947
#
#
#
# Elastic Compliance Matrix: (Units=1/GPa)
#
#
# Indices 1 2 3 4 5 6 
#
# 1 0.019249 0.002707 -0.004705 -0.000349 -0.005446 0.005338
# 2 0.002707 0.020883 -0.009351 -0.003262 0.001506 -0.000671
# 3 -0.004705 -0.009351 0.014338 -0.004600 -0.003896 0.000873
# 4 -0.000349 -0.003262 -0.004600 0.022803 0.001708 0.004563
# 5 -0.005446 0.001506 -0.003896 0.001708 0.021843 -0.010301
# 6 0.005338 -0.000671 0.000873 0.004563 -0.010301 0.033975
#
#
# Mechanical properties :
#
#
# Convention : Reuss Voigt Hill
#
# Bulk Modulus (GPa) = 31.47487 54.71136 43.09311
# Shear Modulus (GPa) = 30.05156 43.27142 36.66149
#
# Velocity S-wave (km/s) = 3.23629 3.88342 3.57453
# Velocity P-wave (km/s) = 4.99343 6.25906 5.66172
#
# Compressibility (1/GPa) = 0.03177138
#
# Stress axis : x y z
#
# Youngs Moduli (GPa) = 51.95128 47.88520 69.74498
#
# Poissons Ratio (x) = -0.12961 0.32814
# Poissons Ratio (y) = -0.14061 0.65220
# Poissons Ratio (z) = 0.24442 0.44778
#
# Static dielectric constant tensor:
#      x y z
#    x 2.271960 -0.168860 0.361510 
#    y -0.168860 1.469790 0.930700 
#    z 0.361510 0.930700 1.217630 
# 
# From -- ./inp_files/566175.got.cif
#   From: 2010.05.17/outbox.cif.g08.bks.cpg/sg2_284_cif.got.tgz:566175.got - 2010.06.03 11:33:40.
