data_PCOD9092504
_publ_section_title
;
Structure prediction by ZEFSAII (Michael W. Deem and Ramdas Pophale) SiO2 
 PCOD9092504
Probable space group: P -1
;
_chemical_formula_sum "Si O2"
_cell_formula_units_Z 14
_cell_length_a 9.134277
_cell_length_b 11.986242
_cell_length_c 7.765636
_cell_angle_alpha 110.617526
_cell_angle_beta 129.358312
_cell_angle_gamma 55.521240
_cell_volume 541.879161
_symmetry_space_group_name_H-M "P -1"
_symmetry_group_IT_number 2
_symmetry_cell_setting 'triclinic'
loop_
_space_group_symop_operation_xyz
x,y,z
-x,-y,-z
loop_
_atom_site_type_symbol
_atom_site_label
_atom_site_fract_x
_atom_site_fract_y
_atom_site_fract_z
Si Si1 0.163710 0.753706 0.442939
Si Si2 0.579322 0.681788 0.374233
Si Si3 0.027539 0.274743 0.383680
Si Si4 0.278052 0.577546 0.079176
Si Si5 0.626620 0.685665 0.800940
Si Si6 0.288297 0.987226 0.290223
Si Si7 0.738600 0.918887 0.059158
O O1 0.224105 0.659795 0.266457
O O2 0.366708 0.773234 0.660553
O O3 0.111179 0.684104 0.526067
O O4 0.942939 0.887464 0.309526
O O5 0.764664 0.701397 0.428700
O O6 0.492084 0.584939 0.183668
O O7 0.664219 0.635370 0.605010
O O8 0.366546 0.831235 0.303241
O O9 0.104980 0.114700 0.321844
O O10 0.899184 0.351169 0.159881
O O11 0.308746 0.432200 0.077439
O O12 0.746869 0.773721 0.957703
O O13 0.244669 0.016607 0.072112
O O14 0.500000 0.000000 0.500000
O O15 0.500000 0.000000 0.000000
#
# Coordination Sequence:
#
# PCOD9092504 Si02
#       7
#     2   2   2   2   2   2   2
#     4  11  25  44  71 108 133 183 239 275 348 416
#     4  10  21  42  71  96 139 188 223 285 348 410
#     4  11  23  43  70 103 141 181 232 290 338 409
#     4  11  25  48  69 101 141 188 231 277 354 404
#     4  11  25  47  70  98 147 183 227 295 335 413
#     4  10  19  41  66  97 136 180 222 280 345 395
#     4  12  24  44  71 104 140 181 230 286 351 409
#
# _framework density 25.836016999999998
#
# number of rings (size 3 to 8) (size 9 to 14) (size 15 to 20)
#    0.000    1.143    4.286    3.429    0.000    7.429 
#    2.571    6.429    0.000    0.000    0.000    0.000 
#    0.000    0.000    0.000    0.000    0.000    0.000 
#
# Total GULP energy -78455.203646 kJ/mol
# GULP energy per Si atom -5603.943118 kJ/mol
# Density = 2.577721 g / cm^3
# Si number density = 25.836017 Si / 1000 Ang^3
#
#
#
# Elastic Constant Matrix: (Units=GPa)
#
#
# Indices 1 2 3 4 5 6 
#
# 1 119.1566 21.0490 42.2902 7.3240 -3.1362 13.1665
# 2 21.0490 100.5292 51.5202 -6.5309 -15.3143 20.6996
# 3 42.2902 51.5202 121.2331 -14.9837 -4.2756 14.3337
# 4 7.3240 -6.5309 -14.9837 37.0914 6.1580 -4.8140
# 5 -3.1362 -15.3143 -4.2756 6.1580 47.9746 -8.1152
# 6 13.1665 20.6996 14.3337 -4.8140 -8.1152 36.3978
#
#
#
# Elastic Compliance Matrix: (Units=1/GPa)
#
#
# Indices 1 2 3 4 5 6 
#
# 1 0.010271 0.000174 -0.003807 -0.003963 0.000432 -0.002743
# 2 0.000174 0.014279 -0.005495 -0.000989 0.003290 -0.005417
# 3 -0.003807 -0.005495 0.012495 0.005078 -0.001557 -0.000094
# 4 -0.003963 -0.000989 0.005078 0.030625 -0.003501 0.003266
# 5 0.000432 0.003290 -0.001557 -0.003501 0.022775 0.003200
# 6 -0.002743 -0.005417 -0.000094 0.003266 0.003200 0.032730
#
#
# Mechanical properties :
#
#
# Convention : Reuss Voigt Hill
#
# Bulk Modulus (GPa) = 53.22009 63.40418 58.31214
# Shear Modulus (GPa) = 33.85372 39.36341 36.60856
#
# Velocity S-wave (km/s) = 3.62378 3.90755 3.76833
# Velocity P-wave (km/s) = 6.17680 6.70469 6.44615
#
# Compressibility (1/GPa) = 0.01878990
#
# Stress axis : x y z
#
# Youngs Moduli (GPa) = 97.36354 70.03160 80.02938
#
# Poissons Ratio (x) = -0.01216 0.30466
# Poissons Ratio (y) = -0.01690 0.43972
# Poissons Ratio (z) = 0.37065 0.38479
#
# Static dielectric constant tensor:
#      x y z
#    x 2.056270 -0.053210 0.012310 
#    y -0.053210 2.132570 -0.033330 
#    z 0.012310 -0.033330 1.989200 
# 
# From -- ./inp_files/188830.got.cif
#   From: 2010.05.17/outbox.cif.g08.bks.cpg/sg2_95_cif.got.tgz:188830.got - 2010.06.03 11:33:40.
