data_PCOD9092148
_publ_section_title
;
Structure prediction by ZEFSAII (Michael W. Deem and Ramdas Pophale) SiO2 
 PCOD9092148
Probable space group: P -1
;
_chemical_formula_sum "Si O2"
_cell_formula_units_Z 16
_cell_length_a 19.955128
_cell_length_b 8.152281
_cell_length_c 5.957030
_cell_angle_alpha 116.608353
_cell_angle_beta 112.965097
_cell_angle_gamma 58.982835
_cell_volume 726.320176
_symmetry_space_group_name_H-M "P -1"
_symmetry_group_IT_number 2
_symmetry_cell_setting 'triclinic'
loop_
_space_group_symop_operation_xyz
x,y,z
-x,-y,-z
loop_
_atom_site_type_symbol
_atom_site_label
_atom_site_fract_x
_atom_site_fract_y
_atom_site_fract_z
Si Si1 0.089085 0.853604 0.097451
Si Si2 0.236725 0.736644 0.907615
Si Si3 0.663006 0.593232 0.871675
Si Si4 0.087120 0.439157 0.977427
Si Si5 0.817292 0.980704 0.380322
Si Si6 0.233570 0.395808 0.378614
Si Si7 0.499859 0.893840 0.685045
Si Si8 0.325364 0.056903 0.581785
O O1 0.089373 0.635344 0.987338
O O2 0.123187 0.918630 0.403895
O O3 0.155097 0.849161 0.004143
O O4 0.000000 0.000000 0.000000
O O5 0.226080 0.555049 0.654887
O O6 0.236691 0.895661 0.822785
O O7 0.315782 0.608556 0.077562
O O8 0.736439 0.532003 0.758529
O O9 0.579381 0.687816 0.687577
O O10 0.668333 0.775454 0.136074
O O11 0.150231 0.383933 0.228542
O O12 0.124250 0.246938 0.746991
O O13 0.000000 0.500000 0.000000
O O14 0.749867 0.986490 0.471419
O O15 0.300927 0.178224 0.392087
O O16 0.500000 0.000000 0.500000
O O17 0.413812 0.883964 0.573941
O O18 0.500000 0.000000 0.000000
#
# Coordination Sequence:
#
# PCOD9092148 Si02
#       8
#     2   2   2   2   2   2   2   2
#     4  12  28  47  66 100 137 183 235 296 361 423
#     4  11  23  43  67  93 138 185 231 287 360 426
#     4  10  19  40  67 100 136 187 233 287 362 422
#     4  12  26  44  69 103 134 180 240 294 357 430
#     4  12  26  45  70  99 142 189 232 293 361 431
#     4  11  20  42  68  94 138 176 234 288 347 426
#     4  10  20  37  67 109 149 187 242 309 361 438
#     4  10  22  37  66 105 135 184 240 287 356 437
#
# _framework density 22.028852000000001
#
# number of rings (size 3 to 8) (size 9 to 14) (size 15 to 20)
#    0.000    1.000    5.000    1.500    5.250    1.500 
#    0.000    0.625    0.000    3.000    0.000    0.000 
#    0.000    0.000    0.000    0.000    0.000    0.000 
#
# Total GULP energy -89242.354414 kJ/mol
# GULP energy per Si atom -5577.647151 kJ/mol
# Density = 2.197871 g / cm^3
# Si number density = 22.028852 Si / 1000 Ang^3
#
#
#
# Elastic Constant Matrix: (Units=GPa)
#
#
# Indices 1 2 3 4 5 6 
#
# 1 93.9531 41.2993 16.5168 -6.4013 3.9058 -25.2516
# 2 41.2993 135.4505 32.5127 -22.8347 9.0989 -21.1126
# 3 16.5168 32.5127 66.1872 -6.3036 2.9329 -7.6210
# 4 -6.4013 -22.8347 -6.3036 37.3382 -0.4507 4.2161
# 5 3.9058 9.0989 2.9329 -0.4507 26.2363 -12.5535
# 6 -25.2516 -21.1126 -7.6210 4.2161 -12.5535 46.4375
#
#
#
# Elastic Compliance Matrix: (Units=1/GPa)
#
#
# Indices 1 2 3 4 5 6 
#
# 1 0.013891 -0.003127 -0.001320 -0.000469 0.002305 0.006581
# 2 -0.003127 0.010406 -0.003598 0.005033 -0.001959 0.001454
# 3 -0.001320 -0.003598 0.017304 0.000450 -0.000309 0.000362
# 4 -0.000469 0.005033 0.000450 0.029957 -0.001728 -0.001080
# 5 0.002305 -0.001959 -0.000309 -0.001728 0.044427 0.012479
# 6 0.006581 0.001454 0.000362 -0.001080 0.012479 0.029305
#
#
# Mechanical properties :
#
#
# Convention : Reuss Voigt Hill
#
# Bulk Modulus (GPa) = 39.19661 52.91651 46.05656
# Shear Modulus (GPa) = 29.43205 35.68654 32.55929
#
# Velocity S-wave (km/s) = 3.65919 4.02928 3.84869
# Velocity P-wave (km/s) = 5.97368 6.76168 6.37986
#
# Compressibility (1/GPa) = 0.02551241
#
# Stress axis : x y z
#
# Youngs Moduli (GPa) = 71.98879 96.09385 57.79125
#
# Poissons Ratio (x) = 0.30046 0.07626
# Poissons Ratio (y) = 0.22509 0.20794
# Poissons Ratio (z) = 0.09499 0.34575
#
# Static dielectric constant tensor:
#      x y z
#    x 1.771760 0.012520 -0.012690 
#    y 0.012520 1.827830 -0.018120 
#    z -0.012690 -0.018120 1.964370 
# 
# From -- ./inp_files/117488.got.cif
#   From: 2010.05.17/outbox.cif.g08.bks.cpg/sg2_59_cif.got.tgz:117488.got - 2010.06.03 11:33:40.
