data_PCOD9092416
_publ_section_title
;
Structure prediction by ZEFSAII (Michael W. Deem and Ramdas Pophale) SiO2 
 PCOD9092416
Probable space group: P -1
;
_chemical_formula_sum "Si O2"
_cell_formula_units_Z 14
_cell_length_a 7.064566
_cell_length_b 19.334432
_cell_length_c 7.067153
_cell_angle_alpha 143.779609
_cell_angle_beta 82.089777
_cell_angle_gamma 88.367350
_cell_volume 548.673553
_symmetry_space_group_name_H-M "P -1"
_symmetry_group_IT_number 2
_symmetry_cell_setting 'triclinic'
loop_
_space_group_symop_operation_xyz
x,y,z
-x,-y,-z
loop_
_atom_site_type_symbol
_atom_site_label
_atom_site_fract_x
_atom_site_fract_y
_atom_site_fract_z
Si Si1 0.323616 0.007172 0.306470
Si Si2 0.393721 0.738233 0.848077
Si Si3 0.521109 0.350356 0.763308
Si Si4 0.318489 0.914933 0.696059
Si Si5 0.024706 0.794510 0.247994
Si Si6 0.912929 0.430872 0.023680
Si Si7 0.333319 0.427794 0.315412
O O1 0.844985 0.880418 0.353335
O O2 0.540470 0.029327 0.331553
O O3 0.332636 0.877245 0.104095
O O4 0.270618 0.999637 0.072924
O O5 0.484116 0.657206 0.477778
O O6 0.559531 0.704086 0.909845
O O7 0.189808 0.717206 0.913259
O O8 0.560917 0.211463 0.513423
O O9 0.714590 0.396477 0.894280
O O10 0.340043 0.421365 0.073084
O O11 0.141815 0.880180 0.532116
O O12 0.971978 0.699103 0.192133
O O13 0.849094 0.517915 0.406156
O O14 0.000000 0.500000 0.000000
O O15 0.500000 0.500000 0.500000
#
# Coordination Sequence:
#
# PCOD9092416 Si02
#       7
#     2   2   2   2   2   2   2
#     4  10  22  36  65  99 127 165 230 260 321 406
#     4  11  21  39  66  96 124 174 219 259 332 395
#     4   9  20  40  64  89 126 172 215 264 328 383
#     4   9  19  40  62  91 130 176 208 269 327 382
#     4  11  21  42  62  93 140 168 212 280 325 383
#     4  10  22  40  64  93 127 172 220 269 331 382
#     4  10  19  41  64  86 125 173 214 266 322 386
#
# _framework density 25.516082999999998
#
# number of rings (size 3 to 8) (size 9 to 14) (size 15 to 20)
#    0.000    2.000    4.286    0.857    0.000    6.286 
#    2.571    2.143    0.000    0.000    0.000    0.000 
#    0.000    0.000    0.000    0.000    0.000    0.000 
#
# Total GULP energy -78305.422243 kJ/mol
# GULP energy per Si atom -5593.244446 kJ/mol
# Density = 2.545801 g / cm^3
# Si number density = 25.516083 Si / 1000 Ang^3
#
#
#
# Elastic Constant Matrix: (Units=GPa)
#
#
# Indices 1 2 3 4 5 6 
#
# 1 65.4839 36.3660 32.4959 9.5989 -2.9791 2.1234
# 2 36.3660 161.9358 43.0195 10.4111 -1.8606 9.7151
# 3 32.4959 43.0195 105.1893 -28.8285 -10.2585 7.3164
# 4 9.5989 10.4111 -28.8285 62.1343 -11.9106 -0.1594
# 5 -2.9791 -1.8606 -10.2585 -11.9106 40.6932 10.4329
# 6 2.1234 9.7151 7.3164 -0.1594 10.4329 43.1335
#
#
#
# Elastic Compliance Matrix: (Units=1/GPa)
#
#
# Indices 1 2 3 4 5 6 
#
# 1 0.021443 -0.002335 -0.008068 -0.007254 -0.003094 0.001560
# 2 -0.002335 0.007772 -0.003257 -0.002688 -0.001219 -0.000798
# 3 -0.008068 -0.003257 0.017500 0.011430 0.007972 -0.003724
# 4 -0.007254 -0.002688 0.011430 0.024954 0.010403 -0.003400
# 5 -0.003094 -0.001219 0.007972 0.010403 0.031529 -0.008513
# 6 0.001560 -0.000798 -0.003724 -0.003400 -0.008513 0.025965
#
#
# Mechanical properties :
#
#
# Convention : Reuss Voigt Hill
#
# Bulk Modulus (GPa) = 51.55888 61.81908 56.68898
# Shear Modulus (GPa) = 30.68462 43.90740 37.29601
#
# Velocity S-wave (km/s) = 3.47156 4.15272 3.82732
# Velocity P-wave (km/s) = 6.02654 6.87558 6.46501
#
# Compressibility (1/GPa) = 0.01939530
#
# Stress axis : x y z
#
# Youngs Moduli (GPa) = 46.63504 128.67195 57.14206
#
# Poissons Ratio (x) = 0.30046 0.46100
# Poissons Ratio (y) = 0.10890 0.18612
# Poissons Ratio (z) = 0.37623 0.41911
#
# Static dielectric constant tensor:
#      x y z
#    x 2.010830 -0.004660 -0.000740 
#    y -0.004660 2.007740 -0.025880 
#    z -0.000740 -0.025880 2.034160 
# 
# From -- ./inp_files/225713.got.cif
#   From: 2010.05.17/outbox.cif.g08.bks.cpg/sg2_113_cif.got.tgz:225713.got - 2010.06.03 11:33:40.
