data_PCOD9092426
_publ_section_title
;
Structure prediction by ZEFSAII (Michael W. Deem and Ramdas Pophale) SiO2 
 PCOD9092426
Probable space group: P -1
;
_chemical_formula_sum "Si O2"
_cell_formula_units_Z 10
_cell_length_a 13.613287
_cell_length_b 9.181398
_cell_length_c 7.023963
_cell_angle_alpha 101.525808
_cell_angle_beta 129.327735
_cell_angle_gamma 118.633193
_cell_volume 399.847913
_symmetry_space_group_name_H-M "P -1"
_symmetry_group_IT_number 2
_symmetry_cell_setting 'triclinic'
loop_
_space_group_symop_operation_xyz
x,y,z
-x,-y,-z
loop_
_atom_site_type_symbol
_atom_site_label
_atom_site_fract_x
_atom_site_fract_y
_atom_site_fract_z
Si Si1 0.842701 0.572336 0.776956
Si Si2 0.681712 0.459311 0.150061
Si Si3 0.132573 0.831832 0.866975
Si Si4 0.465109 0.973229 0.721851
Si Si5 0.720338 0.705154 0.934777
O O1 0.686339 0.483321 0.390217
O O2 0.852434 0.699646 0.989088
O O3 0.060567 0.765259 0.981051
O O4 0.739556 0.319695 0.645599
O O5 0.499318 0.179976 0.778776
O O6 0.906500 0.582304 0.426417
O O7 0.688966 0.618557 0.087164
O O8 0.336839 0.926047 0.103037
O O9 0.179495 0.041221 0.904632
O O10 0.500000 0.000000 0.000000
O O11 0.500000 0.500000 0.500000
#
# Coordination Sequence:
#
# PCOD9092426 Si02
#       5
#     2   2   2   2   2
#     4   9  22  39  64  89 125 153 206 246 303 353
#     4   9  23  38  66  87 123 162 202 242 312 353
#     4  10  21  41  64  88 125 159 201 250 300 363
#     4  10  19  41  64  92 120 159 202 251 301 360
#     4  12  22  41  62  92 125 159 204 253 294 362
#
# _framework density 25.009509999999999
#
# number of rings (size 3 to 8) (size 9 to 14) (size 15 to 20)
#    1.200    0.800    2.000    1.800    0.000    1.600 
#    0.000    1.000    0.000    0.000    0.000    0.000 
#    0.000    0.000    0.000    0.000    0.000    0.000 
#
# Total GULP energy -55882.565611 kJ/mol
# GULP energy per Si atom -5588.256561 kJ/mol
# Density = 2.495259 g / cm^3
# Si number density = 25.009510 Si / 1000 Ang^3
#
#
#
# Elastic Constant Matrix: (Units=GPa)
#
#
# Indices 1 2 3 4 5 6 
#
# 1 73.3810 19.2532 -5.3230 10.5182 -5.2926 12.1484
# 2 19.2532 136.3538 26.4249 28.5977 -7.9726 -6.4717
# 3 -5.3230 26.4249 84.8962 18.3862 0.2563 -0.6210
# 4 10.5182 28.5977 18.3862 50.2483 -4.0090 -5.7560
# 5 -5.2926 -7.9726 0.2563 -4.0090 33.5079 8.9648
# 6 12.1484 -6.4717 -0.6210 -5.7560 8.9648 28.2070
#
#
#
# Elastic Compliance Matrix: (Units=1/GPa)
#
#
# Indices 1 2 3 4 5 6 
#
# 1 0.016933 -0.002270 0.002544 -0.003979 0.004297 -0.009935
# 2 -0.002270 0.008957 -0.002152 -0.003540 0.000831 0.001999
# 3 0.002544 -0.002152 0.013576 -0.004537 -0.000179 -0.002159
# 4 -0.003979 -0.003540 -0.004537 0.025086 -0.000020 0.005927
# 5 0.004297 0.000831 -0.000179 -0.000020 0.034062 -0.012494
# 6 -0.009935 0.001999 -0.002159 0.005927 -0.012494 0.045322
#
#
# Mechanical properties :
#
#
# Convention : Reuss Voigt Hill
#
# Bulk Modulus (GPa) = 28.00232 41.70457 34.85344
# Shear Modulus (GPa) = 31.32951 39.34436 35.33693
#
# Velocity S-wave (km/s) = 3.54320 3.97063 3.76299
# Velocity P-wave (km/s) = 5.28772 6.14271 5.73118
#
# Compressibility (1/GPa) = 0.03571133
#
# Stress axis : x y z
#
# Youngs Moduli (GPa) = 59.05773 111.64139 73.66120
#
# Poissons Ratio (x) = 0.25340 -0.18741
# Poissons Ratio (y) = 0.13405 0.15848
# Poissons Ratio (z) = -0.15026 0.24020
#
# Static dielectric constant tensor:
#      x y z
#    x 1.971600 0.048850 -0.003420 
#    y 0.048850 2.002160 -0.061210 
#    z -0.003420 -0.061210 2.038470 
# 
# From -- ./inp_files/89399.got.cif
#   From: 2010.05.17/outbox.cif.g08.bks.cpg/sg2_45_cif.got.tgz:89399.got - 2010.06.03 11:33:40.
