data_PCOD9092702
_publ_section_title
;
Structure prediction by ZEFSAII (Michael W. Deem and Ramdas Pophale) SiO2 
 PCOD9092702
Probable space group: P -1
;
_chemical_formula_sum "Si O2"
_cell_formula_units_Z 16
_cell_length_a 15.100837
_cell_length_b 10.926047
_cell_length_c 7.144715
_cell_angle_alpha 107.152772
_cell_angle_beta 58.330520
_cell_angle_gamma 65.677144
_cell_volume 687.553538
_symmetry_space_group_name_H-M "P -1"
_symmetry_group_IT_number 2
_symmetry_cell_setting 'triclinic'
loop_
_space_group_symop_operation_xyz
x,y,z
-x,-y,-z
loop_
_atom_site_type_symbol
_atom_site_label
_atom_site_fract_x
_atom_site_fract_y
_atom_site_fract_z
Si Si1 0.982315 0.869827 0.798745
Si Si2 0.295589 0.755445 0.719918
Si Si3 0.705632 0.734962 0.310224
Si Si4 0.550416 0.889336 0.080605
Si Si5 0.192407 0.744003 0.189660
Si Si6 0.438097 0.354538 0.838749
Si Si7 0.191661 0.587623 0.758676
Si Si8 0.864031 0.703128 0.797938
O O1 0.070684 0.867529 0.536699
O O2 0.082789 0.713857 0.770209
O O3 0.899041 0.820540 0.777890
O O4 0.858732 0.066494 0.111491
O O5 0.420971 0.724518 0.467286
O O6 0.320403 0.581932 0.586265
O O7 0.262140 0.791604 0.997183
O O8 0.643271 0.679422 0.216649
O O9 0.761120 0.599800 0.359706
O O10 0.576075 0.945416 0.573097
O O11 0.833591 0.699872 0.049158
O O12 0.538277 0.746297 0.045087
O O13 0.713057 0.794112 0.907210
O O14 0.500000 0.000000 0.000000
O O15 0.326779 0.566186 0.072045
O O16 0.135864 0.688806 0.069928
O O17 0.000000 0.500000 0.500000
#
# Coordination Sequence:
#
# PCOD9092702 Si02
#       8
#     2   2   2   2   2   2   2   2
#     4  12  21  41  65  89 133 165 209 269 319 372
#     4  10  21  40  63  95 119 170 215 257 318 386
#     4  10  21  41  62  90 127 170 214 260 325 377
#     4  11  24  41  64  97 128 165 217 269 311 389
#     4   9  22  38  63  91 127 163 211 258 319 377
#     4  10  19  42  65  85 125 166 206 261 324 372
#     4   9  23  37  63  92 129 164 214 259 321 371
#     4  11  24  42  66  96 126 171 218 259 327 389
#
# _framework density 23.270914000000001
#
# number of rings (size 3 to 8) (size 9 to 14) (size 15 to 20)
#    0.750    1.000    0.000    6.375    3.500    0.500 
#    6.750    1.875    0.000    0.000    0.000    0.000 
#    0.000    0.000    0.000    0.000    0.000    0.000 
#
# Total GULP energy -89226.067577 kJ/mol
# GULP energy per Si atom -5576.629224 kJ/mol
# Density = 2.321795 g / cm^3
# Si number density = 23.270914 Si / 1000 Ang^3
#
#
#
# Elastic Constant Matrix: (Units=GPa)
#
#
# Indices 1 2 3 4 5 6 
#
# 1 21.8939 19.7244 21.5791 -9.6172 -4.6640 0.0508
# 2 19.7244 164.2365 36.3104 -10.5245 -14.9694 -6.9712
# 3 21.5791 36.3104 123.6197 -8.2019 -13.6794 -1.7347
# 4 -9.6172 -10.5245 -8.2019 41.8333 6.3495 -0.9692
# 5 -4.6640 -14.9694 -13.6794 6.3495 21.3311 -1.6600
# 6 0.0508 -6.9712 -1.7347 -0.9692 -1.6600 29.1852
#
#
#
# Elastic Compliance Matrix: (Units=1/GPa)
#
#
# Indices 1 2 3 4 5 6 
#
# 1 0.064231 -0.004950 -0.008863 0.011548 0.001343 -0.001361
# 2 -0.004950 0.007283 -0.000846 0.000022 0.003628 0.001905
# 3 -0.008863 -0.000846 0.010322 -0.000879 0.004401 0.000648
# 4 0.011548 0.000022 -0.000879 0.027333 -0.006121 0.000492
# 5 0.001343 0.003628 0.004401 -0.006121 0.054678 0.004033
# 6 -0.001361 0.001905 0.000648 0.000492 0.004033 0.035006
#
#
# Mechanical properties :
#
#
# Convention : Reuss Voigt Hill
#
# Bulk Modulus (GPa) = 19.04003 51.66422 35.35213
# Shear Modulus (GPa) = 20.35200 33.94567 27.14883
#
# Velocity S-wave (km/s) = 2.96052 3.82346 3.41932
# Velocity P-wave (km/s) = 4.45936 6.46074 5.55099
#
# Compressibility (1/GPa) = 0.05252092
#
# Stress axis : x y z
#
# Youngs Moduli (GPa) = 15.56873 137.30298 96.87631
#
# Poissons Ratio (x) = 0.67964 0.85857
# Poissons Ratio (y) = 0.07706 0.08191
# Poissons Ratio (z) = 0.13798 0.11609
#
# Static dielectric constant tensor:
#      x y z
#    x 1.934370 -0.014200 0.047850 
#    y -0.014200 1.978180 0.011920 
#    z 0.047850 0.011920 1.894970 
# 
# From -- ./inp_files/345242.got.cif
#   From: 2010.05.17/outbox.cif.g08.bks.cpg/sg2_173_cif.got.tgz:345242.got - 2010.06.03 11:33:40.
