data_PCOD9092652
_publ_section_title
;
Structure prediction by ZEFSAII (Michael W. Deem and Ramdas Pophale) SiO2 
 PCOD9092652
Probable space group: P -1
;
_chemical_formula_sum "Si O2"
_cell_formula_units_Z 16
_cell_length_a 8.920804
_cell_length_b 17.530502
_cell_length_c 10.891007
_cell_angle_alpha 41.511979
_cell_angle_beta 78.727445
_cell_angle_gamma 49.058204
_cell_volume 688.676264
_symmetry_space_group_name_H-M "P -1"
_symmetry_group_IT_number 2
_symmetry_cell_setting 'triclinic'
loop_
_space_group_symop_operation_xyz
x,y,z
-x,-y,-z
loop_
_atom_site_type_symbol
_atom_site_label
_atom_site_fract_x
_atom_site_fract_y
_atom_site_fract_z
Si Si1 0.970470 0.600028 0.594411
Si Si2 0.924244 0.792806 0.598142
Si Si3 0.158437 0.790365 0.755655
Si Si4 0.311799 0.844450 0.865628
Si Si5 0.847008 0.066330 0.821704
Si Si6 0.562994 0.029288 0.832799
Si Si7 0.429375 0.407234 0.628130
Si Si8 0.859495 0.747667 0.919360
O O1 0.990364 0.685684 0.594359
O O2 0.685184 0.758955 0.416645
O O3 0.142912 0.543296 0.523116
O O4 0.048737 0.429465 0.836662
O O5 0.158098 0.723382 0.706172
O O6 0.703544 0.015455 0.346149
O O7 0.165898 0.238497 0.240765
O O8 0.363004 0.726929 0.886573
O O9 0.033838 0.759324 0.889794
O O10 0.000000 0.000000 0.500000
O O11 0.465245 0.716179 0.115062
O O12 0.027778 0.002789 0.764983
O O13 0.792274 0.969731 0.909550
O O14 0.578342 0.272615 0.649378
O O15 0.000000 0.000000 0.000000
O O16 0.635535 0.911328 0.846599
O O17 0.500000 0.000000 0.000000
O O18 0.500000 0.500000 0.500000
#
# Coordination Sequence:
#
# PCOD9092652 Si02
#       8
#     2   2   2   2   2   2   2   2
#     4  12  27  45  67 107 144 182 242 286 363 429
#     4   9  21  42  72  98 141 184 239 292 347 428
#     4   8  17  38  70 102 131 179 237 291 348 416
#     4  10  19  41  74 101 136 184 245 291 355 413
#     4  10  22  42  70  97 133 184 239 280 352 414
#     4  12  28  44  72 101 143 191 231 292 358 421
#     4  11  26  41  66 104 144 186 238 300 345 419
#     4  10  23  46  70 102 144 184 231 290 357 415
#
# _framework density 23.232977000000002
#
# number of rings (size 3 to 8) (size 9 to 14) (size 15 to 20)
#    0.750    1.000    1.250    1.875    8.750    3.500 
#    2.250    0.625    0.000    0.000    0.000    0.000 
#    0.000    0.000    0.000    0.000    0.000    0.000 
#
# Total GULP energy -89085.357470 kJ/mol
# GULP energy per Si atom -5567.834842 kJ/mol
# Density = 2.318010 g / cm^3
# Si number density = 23.232977 Si / 1000 Ang^3
#
#
#
# Elastic Constant Matrix: (Units=GPa)
#
#
# Indices 1 2 3 4 5 6 
#
# 1 86.6104 27.2555 32.2610 -3.8846 -9.6160 23.3186
# 2 27.2555 64.6252 18.5632 -10.6468 6.1478 3.8965
# 3 32.2610 18.5632 92.6911 -3.2741 -21.7101 -13.5956
# 4 -3.8846 -10.6468 -3.2741 24.8734 0.2264 -7.2802
# 5 -9.6160 6.1478 -21.7101 0.2264 33.0507 7.1881
# 6 23.3186 3.8965 -13.5956 -7.2802 7.1881 25.1574
#
#
#
# Elastic Compliance Matrix: (Units=1/GPa)
#
#
# Indices 1 2 3 4 5 6 
#
# 1 0.031590 -0.010537 -0.012695 -0.013616 0.012015 -0.041883
# 2 -0.010537 0.022425 -0.001161 0.011417 -0.010693 0.012026
# 3 -0.012695 -0.001161 0.020235 0.007049 0.004634 0.023598
# 4 -0.013616 0.011417 0.007049 0.053548 -0.008936 0.032711
# 5 0.012015 -0.010693 0.004634 -0.008936 0.043638 -0.022031
# 6 -0.041883 0.012026 0.023598 0.032711 -0.022031 0.105222
#
#
# Mechanical properties :
#
#
# Convention : Reuss Voigt Hill
#
# Bulk Modulus (GPa) = 39.27143 44.45401 41.86272
# Shear Modulus (GPa) = 14.97320 27.67276 21.32298
#
# Velocity S-wave (km/s) = 2.54142 3.45497 3.03279
# Velocity P-wave (km/s) = 5.05487 5.92379 5.50650
#
# Compressibility (1/GPa) = 0.02546380
#
# Stress axis : x y z
#
# Youngs Moduli (GPa) = 31.65556 44.59398 49.41981
#
# Poissons Ratio (x) = 0.46991 0.62736
# Poissons Ratio (y) = 0.33357 0.05736
# Poissons Ratio (z) = 0.40185 0.05176
#
# Static dielectric constant tensor:
#      x y z
#    x 1.494580 0.066810 0.051090 
#    y 0.066810 1.818930 -0.107310 
#    z 0.051090 -0.107310 1.725210 
# 
# From -- ./inp_files/402832.got.cif
#   From: 2010.05.17/outbox.cif.g08.bks.cpg/sg2_202_cif.got.tgz:402832.got - 2010.06.03 11:33:40.
