data_PCOD9092636
_publ_section_title
;
Structure prediction by ZEFSAII (Michael W. Deem and Ramdas Pophale) SiO2 
 PCOD9092636
Probable space group: P -1
;
_chemical_formula_sum "Si O2"
_cell_formula_units_Z 14
_cell_length_a 9.566103
_cell_length_b 8.000062
_cell_length_c 9.272159
_cell_angle_alpha 99.710724
_cell_angle_beta 56.689672
_cell_angle_gamma 101.509494
_cell_volume 579.573134
_symmetry_space_group_name_H-M "P -1"
_symmetry_group_IT_number 2
_symmetry_cell_setting 'triclinic'
loop_
_space_group_symop_operation_xyz
x,y,z
-x,-y,-z
loop_
_atom_site_type_symbol
_atom_site_label
_atom_site_fract_x
_atom_site_fract_y
_atom_site_fract_z
Si Si1 0.165160 0.438607 0.835239
Si Si2 0.647276 0.466810 0.519003
Si Si3 0.044443 0.042692 0.816030
Si Si4 0.309517 0.507643 0.060782
Si Si5 0.892147 0.658719 0.605511
Si Si6 0.179195 0.862174 0.287157
Si Si7 0.650111 0.090189 0.526708
O O1 0.204278 0.540366 0.681709
O O2 0.134713 0.238653 0.788102
O O3 0.300387 0.479484 0.890636
O O4 0.000000 0.500000 0.000000
O O5 0.500000 0.500000 0.500000
O O6 0.719089 0.615801 0.606983
O O7 0.619218 0.286621 0.586132
O O8 0.883760 0.039780 0.800250
O O9 0.179703 0.929345 0.660280
O O10 0.000000 0.000000 0.000000
O O11 0.178004 0.361712 0.194333
O O12 0.248478 0.690129 0.164006
O O13 0.500000 0.500000 0.000000
O O14 0.000000 0.500000 0.500000
O O15 0.014148 0.804532 0.473640
O O16 0.314477 0.961816 0.335719
O O17 0.500000 0.000000 0.500000
#
# Coordination Sequence:
#
# PCOD9092636 Si02
#       7
#     2   2   2   2   2   2   2
#     4  12  23  42  70 102 135 178 240 287 346 412
#     4  12  23  42  72 102 137 179 237 288 346 413
#     4  12  27  47  70 106 144 185 233 294 363 423
#     4  11  23  39  71 107 139 171 237 303 347 401
#     4  10  19  41  71  99 130 178 244 287 336 413
#     4  11  24  48  70  99 141 195 238 283 353 431
#     4  12  28  47  70 105 149 187 234 291 359 431
#
# _framework density 24.155709000000002
#
# number of rings (size 3 to 8) (size 9 to 14) (size 15 to 20)
#    0.000    0.571    5.714    3.857    4.000    0.000 
#    0.000    0.714    0.000    0.000    0.000    0.000 
#    0.000    0.000    0.000    0.000    0.000    0.000 
#
# Total GULP energy -78324.105377 kJ/mol
# GULP energy per Si atom -5594.578955 kJ/mol
# Density = 2.410073 g / cm^3
# Si number density = 24.155709 Si / 1000 Ang^3
#
#
#
# Elastic Constant Matrix: (Units=GPa)
#
#
# Indices 1 2 3 4 5 6 
#
# 1 184.9444 30.1306 25.5965 2.9859 33.1493 -5.3148
# 2 30.1306 83.0940 5.9881 8.0888 3.7603 -11.6884
# 3 25.5965 5.9881 92.4377 -1.2464 23.2019 -13.6238
# 4 2.9859 8.0888 -1.2464 33.3351 -4.2929 3.0673
# 5 33.1493 3.7603 23.2019 -4.2929 56.6591 9.1634
# 6 -5.3148 -11.6884 -13.6238 3.0673 9.1634 37.0812
#
#
#
# Elastic Compliance Matrix: (Units=1/GPa)
#
#
# Indices 1 2 3 4 5 6 
#
# 1 0.006502 -0.001931 -0.000613 -0.000704 -0.003650 0.001058
# 2 -0.001931 0.013791 0.000582 -0.003740 -0.001094 0.004864
# 3 -0.000613 0.000582 0.013531 -0.001022 -0.006387 0.006730
# 4 -0.000704 -0.003740 -0.001022 0.031989 0.004373 -0.005382
# 5 -0.003650 -0.001094 -0.006387 0.004373 0.024356 -0.009595
# 6 0.001058 0.004864 0.006730 -0.005382 -0.009595 0.033942
#
#
# Mechanical properties :
#
#
# Convention : Reuss Voigt Hill
#
# Bulk Modulus (GPa) = 33.44367 53.76741 43.60554
# Shear Modulus (GPa) = 36.23152 45.33246 40.78199
#
# Velocity S-wave (km/s) = 3.87708 4.33676 4.11335
# Velocity P-wave (km/s) = 5.82386 6.88358 6.37578
#
# Compressibility (1/GPa) = 0.02990102
#
# Stress axis : x y z
#
# Youngs Moduli (GPa) = 153.78897 72.51335 73.90240
#
# Poissons Ratio (x) = 0.14003 0.04530
# Poissons Ratio (y) = 0.29698 -0.04304
# Poissons Ratio (z) = 0.09426 -0.04223
#
# Static dielectric constant tensor:
#      x y z
#    x 1.987320 0.002050 -0.046940 
#    y 0.002050 1.968200 -0.015450 
#    z -0.046940 -0.015450 1.913030 
# 
# From -- ./inp_files/156586.got.cif
#   From: 2010.05.17/outbox.cif.g08.bks.cpg/sg2_79_cif.got.tgz:156586.got - 2010.06.03 11:33:40.
