data_PCOD9092406
_publ_section_title
;
Structure prediction by ZEFSAII (Michael W. Deem and Ramdas Pophale) SiO2 
 PCOD9092406
Probable space group: P -1
;
_chemical_formula_sum "Si O2"
_cell_formula_units_Z 14
_cell_length_a 8.058366
_cell_length_b 12.486318
_cell_length_c 15.554699
_cell_angle_alpha 27.891385
_cell_angle_beta 50.590099
_cell_angle_gamma 62.643811
_cell_volume 542.869546
_symmetry_space_group_name_H-M "P -1"
_symmetry_group_IT_number 2
_symmetry_cell_setting 'triclinic'
loop_
_space_group_symop_operation_xyz
x,y,z
-x,-y,-z
loop_
_atom_site_type_symbol
_atom_site_label
_atom_site_fract_x
_atom_site_fract_y
_atom_site_fract_z
Si Si1 0.507167 0.645581 0.128865
Si Si2 0.094060 0.185440 0.762081
Si Si3 0.418672 0.692322 0.447044
Si Si4 0.081104 0.442035 0.885805
Si Si5 0.217834 0.739194 0.317998
Si Si6 0.588906 0.289468 0.080328
Si Si7 0.397180 0.844300 0.562677
O O1 0.773667 0.444115 0.328247
O O2 0.468598 0.356081 0.346530
O O3 0.413437 0.695805 0.032513
O O4 0.389401 0.719365 0.199165
O O5 0.947326 0.130934 0.763497
O O6 0.092118 0.461877 0.581526
O O7 0.168030 0.674479 0.981141
O O8 0.000000 0.000000 0.000000
O O9 0.500000 0.500000 0.500000
O O10 0.339075 0.842136 0.293340
O O11 0.652209 0.818720 0.325366
O O12 0.140394 0.676049 0.763012
O O13 0.224768 0.284025 0.994733
O O14 0.421411 0.041238 0.341682
O O15 0.500000 0.500000 0.000000
O O16 0.500000 0.000000 0.500000
#
# Coordination Sequence:
#
# PCOD9092406 Si02
#       7
#     2   2   2   2   2   2   2
#     4  10  23  43  64  99 135 174 225 274 337 397
#     4  10  21  36  63  91 129 175 218 262 318 383
#     4  10  19  41  63  91 137 176 210 266 328 383
#     4  10  24  43  67  99 139 173 223 279 331 398
#     4  10  22  39  64  90 136 178 210 271 325 383
#     4  12  25  44  73  98 129 181 223 275 352 395
#     4  10  22  47  68  97 135 167 226 284 332 401
#
# _framework density 25.788883999999999
#
# number of rings (size 3 to 8) (size 9 to 14) (size 15 to 20)
#    0.857    0.857    4.286    0.000    6.000    5.714 
#    2.571    0.000    0.000    0.000    0.000    0.000 
#    0.000    0.000    0.000    0.000    0.000    0.000 
#
# Total GULP energy -78235.633460 kJ/mol
# GULP energy per Si atom -5588.259533 kJ/mol
# Density = 2.573019 g / cm^3
# Si number density = 25.788884 Si / 1000 Ang^3
#
#
#
# Elastic Constant Matrix: (Units=GPa)
#
#
# Indices 1 2 3 4 5 6 
#
# 1 232.0865 26.5444 42.7905 -0.4929 19.1322 4.0746
# 2 26.5444 67.6314 15.3469 -3.0234 1.3788 5.3196
# 3 42.7905 15.3469 135.8429 7.5610 17.4812 -1.3732
# 4 -0.4929 -3.0234 7.5610 44.0872 8.9330 -0.7834
# 5 19.1322 1.3788 17.4812 8.9330 58.1996 3.7281
# 6 4.0746 5.3196 -1.3732 -0.7834 3.7281 49.9418
#
#
#
# Elastic Compliance Matrix: (Units=1/GPa)
#
#
# Indices 1 2 3 4 5 6 
#
# 1 0.004815 -0.001560 -0.001205 0.000401 -0.001235 -0.000161
# 2 -0.001560 0.015899 -0.001451 0.001193 0.000493 -0.001624
# 3 -0.001205 -0.001451 0.008219 -0.001126 -0.001904 0.000603
# 4 0.000401 0.001193 -0.001126 0.023676 -0.003484 0.000441
# 5 -0.001235 0.000493 -0.001904 -0.003484 0.018777 -0.001460
# 6 -0.000161 -0.001624 0.000603 0.000441 -0.001460 0.020342
#
#
# Mechanical properties :
#
#
# Convention : Reuss Voigt Hill
#
# Bulk Modulus (GPa) = 48.78294 67.21382 57.99838
# Shear Modulus (GPa) = 46.73189 53.83765 50.28477
#
# Velocity S-wave (km/s) = 4.26149 4.57402 4.42051
# Velocity P-wave (km/s) = 6.57047 7.34950 6.97088
#
# Compressibility (1/GPa) = 0.02049897
#
# Stress axis : x y z
#
# Youngs Moduli (GPa) = 207.68627 62.89804 121.67167
#
# Poissons Ratio (x) = 0.09815 0.14667
# Poissons Ratio (y) = 0.32409 0.17653
# Poissons Ratio (z) = 0.25035 0.09126
#
# Static dielectric constant tensor:
#      x y z
#    x 2.140350 0.097410 -0.057700 
#    y 0.097410 2.113390 -0.034880 
#    z -0.057700 -0.034880 2.094140 
# 
# From -- ./inp_files/589998.got.cif
#   From: 2010.05.17/outbox.cif.g08.bks.cpg/sg2_295_cif.got.tgz:589998.got - 2010.06.03 11:33:40.
