data_PCOD9092176
_publ_section_title
;
Structure prediction by ZEFSAII (Michael W. Deem and Ramdas Pophale) SiO2 
 PCOD9092176
Probable space group: P -1
;
_chemical_formula_sum "Si O2"
_cell_formula_units_Z 16
_cell_length_a 10.600290
_cell_length_b 9.754164
_cell_length_c 7.226938
_cell_angle_alpha 76.635835
_cell_angle_beta 89.972758
_cell_angle_gamma 77.119652
_cell_volume 707.688048
_symmetry_space_group_name_H-M "P -1"
_symmetry_group_IT_number 2
_symmetry_cell_setting 'triclinic'
loop_
_space_group_symop_operation_xyz
x,y,z
-x,-y,-z
loop_
_atom_site_type_symbol
_atom_site_label
_atom_site_fract_x
_atom_site_fract_y
_atom_site_fract_z
Si Si1 0.770279 0.293813 0.679230
Si Si2 0.989202 0.670329 0.468256
Si Si3 0.047929 0.877918 0.696817
Si Si4 0.618848 0.568417 0.429653
Si Si5 0.220964 0.027991 0.181630
Si Si6 0.535004 0.350880 0.939784
Si Si7 0.321948 0.931085 0.813789
Si Si8 0.700178 0.818764 0.523912
O O1 0.733874 0.426320 0.492165
O O2 0.672079 0.339607 0.834667
O O3 0.922940 0.281024 0.707035
O O4 0.751587 0.134816 0.678823
O O5 0.839518 0.754503 0.443709
O O6 0.000000 0.500000 0.500000
O O7 0.040744 0.728959 0.640770
O O8 0.189377 0.887500 0.760768
O O9 0.934755 0.914662 0.838162
O O10 0.000000 0.000000 0.500000
O O11 0.500000 0.500000 0.500000
O O12 0.579722 0.644824 0.209796
O O13 0.630522 0.688836 0.540354
O O14 0.273709 0.132873 0.286412
O O15 0.286123 0.007606 0.988454
O O16 0.500000 0.500000 0.000000
O O17 0.565946 0.211112 0.111570
O O18 0.362728 0.039639 0.636241
#
# Coordination Sequence:
#
# PCOD9092176 Si02
#       8
#     2   2   2   2   2   2   2   2
#     4  10  19  40  67  90 131 168 221 264 328 400
#     4  11  20  34  65 105 128 168 213 263 337 405
#     4  11  19  35  64  94 134 174 208 258 341 401
#     4  10  23  44  65  88 127 180 224 269 323 389
#     4  10  21  38  66 102 128 171 217 265 341 401
#     4  10  25  41  62  94 125 181 229 267 325 380
#     4  11  22  40  66  96 133 168 224 280 323 395
#     4  11  22  41  69  98 135 169 215 279 336 390
#
# _framework density 22.608830999999999
#
# number of rings (size 3 to 8) (size 9 to 14) (size 15 to 20)
#    0.000    1.500    5.000    0.375    3.500    1.500 
#    4.500    5.625    0.000    5.250    0.000    0.000 
#    0.000    0.000    0.000    0.000    0.000    0.000 
#
# Total GULP energy -89374.311120 kJ/mol
# GULP energy per Si atom -5585.894445 kJ/mol
# Density = 2.255737 g / cm^3
# Si number density = 22.608831 Si / 1000 Ang^3
#
#
#
# Elastic Constant Matrix: (Units=GPa)
#
#
# Indices 1 2 3 4 5 6 
#
# 1 62.0622 41.3372 18.0861 12.3328 -4.7408 6.7019
# 2 41.3372 148.5275 34.8906 22.1064 18.2954 4.6552
# 3 18.0861 34.8906 59.6378 4.1241 19.5568 -6.1984
# 4 12.3328 22.1064 4.1241 40.3676 -9.3906 2.8430
# 5 -4.7408 18.2954 19.5568 -9.3906 29.8399 10.9592
# 6 6.7019 4.6552 -6.1984 2.8430 10.9592 43.4126
#
#
#
# Elastic Compliance Matrix: (Units=1/GPa)
#
#
# Indices 1 2 3 4 5 6 
#
# 1 0.026818 -0.007342 -0.012252 0.002872 0.021646 -0.010755
# 2 -0.007342 0.011003 0.000380 -0.006735 -0.011513 0.003355
# 3 -0.012252 0.000380 0.032869 -0.008309 -0.031897 0.015140
# 4 0.002872 -0.006735 -0.008309 0.034768 0.024405 -0.009345
# 5 0.021646 -0.011513 -0.031897 0.024405 0.083358 -0.029303
# 6 -0.010755 0.003355 0.015140 -0.009345 -0.029303 0.034506
#
#
# Mechanical properties :
#
#
# Convention : Reuss Voigt Hill
#
# Bulk Modulus (GPa) = 30.99761 50.98393 40.99077
# Shear Modulus (GPa) = 18.34834 34.45161 26.39998
#
# Velocity S-wave (km/s) = 2.85187 3.90784 3.42085
# Velocity P-wave (km/s) = 4.95827 6.55446 5.81143
#
# Compressibility (1/GPa) = 0.03226055
#
# Stress axis : x y z
#
# Youngs Moduli (GPa) = 37.28849 90.88809 30.42340
#
# Poissons Ratio (x) = 0.66734 0.37275
# Poissons Ratio (y) = 0.27379 -0.01155
# Poissons Ratio (z) = 0.45686 -0.03452
#
# Static dielectric constant tensor:
#      x y z
#    x 1.961470 -0.055950 0.026020 
#    y -0.055950 1.886650 -0.072840 
#    z 0.026020 -0.072840 1.916350 
# 
# From -- ./inp_files/234792.got.cif
#   From: 2010.05.17/outbox.cif.g08.bks.cpg/sg2_118_cif.got.tgz:234792.got - 2010.06.03 11:33:40.
