data_PCOD9092727
_publ_section_title
;
Structure prediction by ZEFSAII (Michael W. Deem and Ramdas Pophale) SiO2 
 PCOD9092727
Probable space group: P -1
;
_chemical_formula_sum "Si O2"
_cell_formula_units_Z 14
_cell_length_a 8.898916
_cell_length_b 8.744517
_cell_length_c 17.678676
_cell_angle_alpha 70.890849
_cell_angle_beta 30.332565
_cell_angle_gamma 62.343356
_cell_volume 607.063597
_symmetry_space_group_name_H-M "P -1"
_symmetry_group_IT_number 2
_symmetry_cell_setting 'triclinic'
loop_
_space_group_symop_operation_xyz
x,y,z
-x,-y,-z
loop_
_atom_site_type_symbol
_atom_site_label
_atom_site_fract_x
_atom_site_fract_y
_atom_site_fract_z
Si Si1 0.981273 0.591850 0.208317
Si Si2 0.355644 0.851831 0.657998
Si Si3 0.319541 0.846490 0.073178
Si Si4 0.721792 0.585085 0.045893
Si Si5 0.222164 0.233211 0.250715
Si Si6 0.676948 0.580334 0.675455
Si Si7 0.357260 0.868669 0.481907
O O1 0.613290 0.724624 0.341436
O O2 0.175289 0.695825 0.147750
O O3 0.020119 0.417062 0.265737
O O4 0.144280 0.537446 0.065358
O O5 0.406517 0.689192 0.715381
O O6 0.449795 0.801165 0.538991
O O7 0.577176 0.953175 0.576740
O O8 0.989795 0.987157 0.796570
O O9 0.585143 0.776870 0.035426
O O10 0.485588 0.858010 0.919601
O O11 0.414170 0.567405 0.221705
O O12 0.000000 0.500000 0.000000
O O13 0.315197 0.289973 0.281532
O O14 0.998834 0.123310 0.377423
O O15 0.000000 0.500000 0.500000
#
# Coordination Sequence:
#
# PCOD9092727 Si02
#       7
#     2   2   2   2   2   2   2
#     4  10  19  42  66  91 128 170 206 253 319 385
#     4  10  25  44  63  92 131 170 210 258 325 368
#     4  10  21  45  67  88 131 174 201 256 321 386
#     4  11  24  41  65  99 126 161 214 263 315 370
#     4  11  21  39  66  96 124 168 216 255 314 374
#     4  12  26  42  65  98 128 163 213 273 310 369
#     4  10  23  40  64  91 125 175 210 255 312 386
#
# _framework density 23.061834000000001
#
# number of rings (size 3 to 8) (size 9 to 14) (size 15 to 20)
#    0.000    1.429    2.857    2.143   10.000    1.714 
#    0.000    0.000    0.000    0.000    0.000    0.000 
#    0.000    0.000    0.000    0.000    0.000    0.000 
#
# Total GULP energy -78302.245424 kJ/mol
# GULP energy per Si atom -5593.017530 kJ/mol
# Density = 2.300934 g / cm^3
# Si number density = 23.061834 Si / 1000 Ang^3
#
#
#
# Elastic Constant Matrix: (Units=GPa)
#
#
# Indices 1 2 3 4 5 6 
#
# 1 61.2393 12.8186 17.2474 2.6052 6.9987 -24.3358
# 2 12.8186 39.2208 23.5578 0.7098 6.3965 1.2043
# 3 17.2474 23.5578 153.1520 3.2267 9.7959 -0.9716
# 4 2.6052 0.7098 3.2267 39.8474 2.9581 -7.8648
# 5 6.9987 6.3965 9.7959 2.9581 38.8371 -8.5858
# 6 -24.3358 1.2043 -0.9716 -7.8648 -8.5858 28.7365
#
#
#
# Elastic Compliance Matrix: (Units=1/GPa)
#
#
# Indices 1 2 3 4 5 6 
#
# 1 0.029010 -0.009652 -0.001843 0.003492 0.002440 0.026594
# 2 -0.009652 0.031995 -0.003551 -0.001560 -0.005076 -0.011578
# 3 -0.001843 -0.003551 0.007367 -0.000659 -0.001272 -0.001723
# 4 0.003492 -0.001560 -0.000659 0.026999 0.000037 0.010401
# 5 0.002440 -0.005076 -0.001272 0.000037 0.028866 0.010871
# 6 0.026594 -0.011578 -0.001723 0.010401 0.010871 0.063842
#
#
# Mechanical properties :
#
#
# Convention : Reuss Voigt Hill
#
# Bulk Modulus (GPa) = 26.12248 40.09554 33.10901
# Shear Modulus (GPa) = 21.65150 34.81675 28.23412
#
# Velocity S-wave (km/s) = 3.06738 3.88972 3.50277
# Velocity P-wave (km/s) = 4.88844 6.13164 5.54499
#
# Compressibility (1/GPa) = 0.03828120
#
# Stress axis : x y z
#
# Youngs Moduli (GPa) = 34.47129 31.25452 135.73137
#
# Poissons Ratio (x) = 0.30167 0.25019
# Poissons Ratio (y) = 0.33271 0.48192
# Poissons Ratio (z) = 0.06354 0.11097
#
# Static dielectric constant tensor:
#      x y z
#    x 1.882870 0.013070 -0.074170 
#    y 0.013070 1.840570 -0.017400 
#    z -0.074170 -0.017400 1.855200 
# 
# From -- ./inp_files/157387.got.cif
#   From: 2010.05.17/outbox.cif.g08.bks.cpg/sg2_79_cif.got.tgz:157387.got - 2010.06.03 11:33:40.
