data_PCOD9092659
_publ_section_title
;
Structure prediction by ZEFSAII (Michael W. Deem and Ramdas Pophale) SiO2 
 PCOD9092659
Probable space group: P -1
;
_chemical_formula_sum "Si O2"
_cell_formula_units_Z 16
_cell_length_a 9.089714
_cell_length_b 14.232652
_cell_length_c 11.031555
_cell_angle_alpha 80.727876
_cell_angle_beta 60.214417
_cell_angle_gamma 129.875607
_cell_volume 659.596110
_symmetry_space_group_name_H-M "P -1"
_symmetry_group_IT_number 2
_symmetry_cell_setting 'triclinic'
loop_
_space_group_symop_operation_xyz
x,y,z
-x,-y,-z
loop_
_atom_site_type_symbol
_atom_site_label
_atom_site_fract_x
_atom_site_fract_y
_atom_site_fract_z
Si Si1 0.540514 0.860436 0.284780
Si Si2 0.257976 0.380014 0.511802
Si Si3 0.366253 0.831885 0.107271
Si Si4 0.159872 0.404470 0.281778
Si Si5 0.331032 0.699985 0.791043
Si Si6 0.766945 0.846165 0.377580
Si Si7 0.802551 0.154224 0.260566
Si Si8 0.414306 0.236466 0.097002
O O1 0.545659 0.868483 0.137608
O O2 0.659781 0.814622 0.290999
O O3 0.183251 0.717440 0.506697
O O4 0.773378 0.051930 0.202612
O O5 0.500000 0.500000 0.500000
O O6 0.312554 0.428878 0.335757
O O7 0.144344 0.217038 0.604374
O O8 0.989348 0.325199 0.674521
O O9 0.410270 0.782032 0.989951
O O10 0.500000 0.000000 0.000000
O O11 0.078760 0.300011 0.217882
O O12 0.385973 0.592773 0.095340
O O13 0.463144 0.738217 0.597156
O O14 0.266223 0.782059 0.798897
O O15 0.570584 0.753970 0.766597
O O16 0.000000 0.500000 0.000000
O O17 0.057006 0.052149 0.245084
O O18 0.500000 0.000000 0.500000
#
# Coordination Sequence:
#
# PCOD9092659 Si02
#       8
#     2   2   2   2   2   2   2   2
#     4  10  23  43  77  98 141 190 238 289 346 430
#     4  11  28  45  72 103 145 184 239 298 346 415
#     4  11  24  47  72 102 141 194 233 279 362 427
#     4  10  23  46  69 105 137 190 233 288 358 419
#     4  12  24  45  72 105 138 186 238 292 352 420
#     4  12  26  46  68 108 140 184 237 298 353 407
#     4  10  19  41  74  98 137 181 241 277 351 418
#     4  12  26  43  72 105 148 181 240 290 354 424
#
# _framework density 24.257268
#
# number of rings (size 3 to 8) (size 9 to 14) (size 15 to 20)
#    0.000    1.000    5.000    1.125    8.750    3.500 
#    2.250    1.250    0.000    0.000    0.000    0.000 
#    0.000    0.000    0.000    0.000    0.000    0.000 
#
# Total GULP energy -89366.307753 kJ/mol
# GULP energy per Si atom -5585.394235 kJ/mol
# Density = 2.420206 g / cm^3
# Si number density = 24.257268 Si / 1000 Ang^3
#
#
#
# Elastic Constant Matrix: (Units=GPa)
#
#
# Indices 1 2 3 4 5 6 
#
# 1 138.4489 21.2475 32.3873 -4.0416 39.8172 32.5145
# 2 21.2475 60.7940 27.3836 -18.6405 9.3790 19.9081
# 3 32.3873 27.3836 82.5837 -23.9911 24.6551 7.9620
# 4 -4.0416 -18.6405 -23.9911 36.0335 -6.0165 3.5682
# 5 39.8172 9.3790 24.6551 -6.0165 49.6330 9.5024
# 6 32.5145 19.9081 7.9620 3.5682 9.5024 54.0835
#
#
#
# Elastic Compliance Matrix: (Units=1/GPa)
#
#
# Indices 1 2 3 4 5 6 
#
# 1 0.010797 -0.000674 -0.001805 -0.001019 -0.006860 -0.004704
# 2 -0.000674 0.024721 -0.004170 0.010991 0.000992 -0.008980
# 3 -0.001805 -0.004170 0.018548 0.008961 -0.005957 0.000345
# 4 -0.001019 0.010991 0.008961 0.040131 0.000591 -0.007504
# 5 -0.006860 0.000992 -0.005957 0.000591 0.028576 -0.000424
# 6 -0.004704 -0.008980 0.000345 -0.007504 -0.000424 0.025142
#
#
# Mechanical properties :
#
#
# Convention : Reuss Voigt Hill
#
# Bulk Modulus (GPa) = 24.52981 49.31817 36.92399
# Shear Modulus (GPa) = 28.60380 41.33721 34.97051
#
# Velocity S-wave (km/s) = 3.43765 4.13257 3.80103
# Velocity P-wave (km/s) = 5.08831 6.56859 5.87525
#
# Compressibility (1/GPa) = 0.04076672
#
# Stress axis : x y z
#
# Youngs Moduli (GPa) = 92.62151 40.45221 53.91408
#
# Poissons Ratio (x) = 0.02726 0.09732
# Poissons Ratio (y) = 0.06241 0.22484
# Poissons Ratio (z) = 0.16719 0.16870
#
# Static dielectric constant tensor:
#      x y z
#    x 2.047800 0.072750 -0.039960 
#    y 0.072750 1.974730 -0.013980 
#    z -0.039960 -0.013980 1.887270 
# 
# From -- ./inp_files/398431.got.cif
#   From: 2010.05.17/outbox.cif.g08.bks.cpg/sg2_200_cif.got.tgz:398431.got - 2010.06.03 11:33:40.
