data_PCOD9092456
_publ_section_title
;
Structure prediction by ZEFSAII (Michael W. Deem and Ramdas Pophale) SiO2 
 PCOD9092456
Probable space group: P -1
;
_chemical_formula_sum "Si O2"
_cell_formula_units_Z 14
_cell_length_a 11.034265
_cell_length_b 22.135667
_cell_length_c 10.914159
_cell_angle_alpha 36.006590
_cell_angle_beta 54.433911
_cell_angle_gamma 27.552437
_cell_volume 628.404141
_symmetry_space_group_name_H-M "P -1"
_symmetry_group_IT_number 2
_symmetry_cell_setting 'triclinic'
loop_
_space_group_symop_operation_xyz
x,y,z
-x,-y,-z
loop_
_atom_site_type_symbol
_atom_site_label
_atom_site_fract_x
_atom_site_fract_y
_atom_site_fract_z
Si Si1 0.623723 0.003476 0.023752
Si Si2 0.387422 0.743613 0.972309
Si Si3 0.418799 0.285856 0.328802
Si Si4 0.329483 0.550425 0.344822
Si Si5 0.593497 0.916059 0.445612
Si Si6 0.684466 0.183437 0.597358
Si Si7 0.179202 0.465835 0.759309
O O1 0.563063 0.009264 0.191632
O O2 0.538657 0.171958 0.771359
O O3 0.978058 0.781142 0.151557
O O4 0.500000 0.000000 0.000000
O O5 0.553814 0.646901 0.902996
O O6 0.432677 0.602603 0.233001
O O7 0.550118 0.727835 0.992113
O O8 0.034229 0.977107 0.771886
O O9 0.554505 0.100883 0.490265
O O10 0.613229 0.199823 0.471965
O O11 0.064404 0.468685 0.261025
O O12 0.522722 0.387158 0.389574
O O13 0.321431 0.459887 0.590808
O O14 0.946605 0.671917 0.641473
O O15 0.500000 0.000000 0.500000
#
# Coordination Sequence:
#
# PCOD9092456 Si02
#       7
#     2   2   2   2   2   2   2
#     4  10  19  41  65  95 130 170 217 274 320 379
#     4  11  23  41  66  89 137 172 213 270 331 380
#     4  10  22  41  65  92 133 167 220 276 321 378
#     4  10  23  40  65  97 131 170 218 264 329 394
#     4   9  20  38  64  95 129 162 215 272 324 377
#     4  11  23  41  67  95 130 177 215 265 327 401
#     4   9  21  42  64  92 128 168 219 277 312 387
#
# _framework density 22.278656000000002
#
# number of rings (size 3 to 8) (size 9 to 14) (size 15 to 20)
#    0.857    1.143    1.429    1.286    0.000    5.714 
#    2.571    0.000    0.000    0.000    0.000    0.000 
#    0.000    0.000    0.000    0.000    0.000    0.000 
#
# Total GULP energy -77961.538672 kJ/mol
# GULP energy per Si atom -5568.681334 kJ/mol
# Density = 2.222795 g / cm^3
# Si number density = 22.278656 Si / 1000 Ang^3
#
#
#
# Elastic Constant Matrix: (Units=GPa)
#
#
# Indices 1 2 3 4 5 6 
#
# 1 20.9200 22.9808 -53.2533 -102.5540 -16.7765 -14.8581
# 2 22.9808 53.7855 9.4807 3.1989 -3.8957 7.6245
# 3 -53.2533 9.4807 -26.7124 -87.3674 -27.2812 -29.4405
# 4 -102.5540 3.1989 -87.3674 -98.9895 -39.1410 -54.6698
# 5 -16.7765 -3.8957 -27.2812 -39.1410 19.6068 -11.9909
# 6 -14.8581 7.6245 -29.4405 -54.6698 -11.9909 16.1730
#
#
#
# Elastic Compliance Matrix: (Units=1/GPa)
#
#
# Indices 1 2 3 4 5 6 
#
# 1 0.014313 -0.004214 -0.005845 -0.002391 -0.006751 -0.008592
# 2 -0.004214 0.020716 -0.000541 0.003064 0.005971 0.000160
# 3 -0.005845 -0.000541 0.026221 -0.014148 -0.000099 -0.005282
# 4 -0.002391 0.003064 -0.014148 0.008900 -0.005368 -0.003290
# 5 -0.006751 0.005971 -0.000099 -0.005368 0.034467 -0.001786
# 6 -0.008592 0.000160 -0.005282 -0.003290 -0.001786 0.031803
#
#
# Mechanical properties :
#
#
# Convention : Reuss Voigt Hill
#
# Bulk Modulus (GPa) = 24.96963 0.71217 12.84090
# Shear Modulus (GPa) = 29.24461 -8.05626 10.59417
#
# Velocity S-wave (km/s) = 3.62701 -1.90368 2.18303
# Velocity P-wave (km/s) = 5.36400 2.12406 3.48288
#
# Compressibility (1/GPa) = 0.04004866
#
# Stress axis : x y z
#
# Youngs Moduli (GPa) = 69.86589 48.27220 38.13731
#
# Poissons Ratio (x) = 0.20342 0.22292
# Poissons Ratio (y) = 0.29441 0.02065
# Poissons Ratio (z) = 0.40839 0.02613
#
# Static dielectric constant tensor:
#      x y z
#    x 1.868960 0.000790 -0.027850 
#    y 0.000790 1.892130 0.017090 
#    z -0.027850 0.017090 1.887700 
# 
# From -- ./inp_files/438803.got.cif
#   From: 2010.05.17/outbox.cif.g08.bks.cpg/sg2_220_cif.got.tgz:438803.got - 2010.06.03 11:33:40.
