data_PCOD9092662
_publ_section_title
;
Structure prediction by ZEFSAII (Michael W. Deem and Ramdas Pophale) SiO2 
 PCOD9092662
Probable space group: P -1
;
_chemical_formula_sum "Si O2"
_cell_formula_units_Z 14
_cell_length_a 4.834811
_cell_length_b 20.225913
_cell_length_c 7.591036
_cell_angle_alpha 59.614382
_cell_angle_beta 71.927206
_cell_angle_gamma 106.961482
_cell_volume 509.581885
_symmetry_space_group_name_H-M "P -1"
_symmetry_group_IT_number 2
_symmetry_cell_setting 'triclinic'
loop_
_space_group_symop_operation_xyz
x,y,z
-x,-y,-z
loop_
_atom_site_type_symbol
_atom_site_label
_atom_site_fract_x
_atom_site_fract_y
_atom_site_fract_z
Si Si1 0.509386 0.805542 0.731957
Si Si2 0.758000 0.091356 0.140495
Si Si3 0.935451 0.016972 0.786934
Si Si4 0.854820 0.723221 0.356700
Si Si5 0.054253 0.477992 0.217698
Si Si6 0.229997 0.640915 0.219774
Si Si7 0.850150 0.310435 0.354929
O O1 0.395703 0.868467 0.752582
O O2 0.195706 0.731195 0.769191
O O3 0.843225 0.876202 0.454785
O O4 0.534927 0.742498 0.959008
O O5 0.908503 0.036367 0.268695
O O6 0.454707 0.030403 0.141250
O O7 0.066796 0.183990 0.868159
O O8 0.000000 0.000000 0.000000
O O9 0.929110 0.662398 0.291006
O O10 0.141964 0.752505 0.412914
O O11 0.482750 0.681864 0.574537
O O12 0.798545 0.411413 0.521886
O O13 0.175196 0.409414 0.222671
O O14 0.204753 0.573020 0.164499
O O15 0.000000 0.500000 0.000000
#
# Coordination Sequence:
#
# PCOD9092662 Si02
#       7
#     2   2   2   2   2   2   2
#     4  11  23  41  67  98 142 176 236 275 355 400
#     4  11  24  43  66  97 135 179 227 288 339 407
#     4  12  25  43  69  97 135 182 232 284 342 407
#     4  10  22  42  66  99 140 176 236 276 350 402
#     4  10  19  41  74  99 144 174 240 275 360 407
#     4   9  21  40  69 104 137 187 223 298 337 420
#     4  11  23  41  68 100 136 184 220 289 337 422
#
# _framework density 27.473500999999999
#
# number of rings (size 3 to 8) (size 9 to 14) (size 15 to 20)
#    0.000    1.429    1.429    3.857    0.000    2.857 
#    0.000    8.571    0.000    0.000    0.000    0.000 
#    0.000    0.000    0.000    0.000    0.000    0.000 
#
# Total GULP energy -78051.747369 kJ/mol
# GULP energy per Si atom -5575.124812 kJ/mol
# Density = 2.741097 g / cm^3
# Si number density = 27.473501 Si / 1000 Ang^3
#
#
#
# Elastic Constant Matrix: (Units=GPa)
#
#
# Indices 1 2 3 4 5 6 
#
# 1 139.1494 40.4505 38.4674 5.3680 -1.8050 -6.8682
# 2 40.4505 165.3059 33.4074 26.9106 4.2548 -6.7046
# 3 38.4674 33.4074 175.8197 -26.0101 29.4776 -7.9187
# 4 5.3680 26.9106 -26.0101 44.7186 -3.3472 14.1663
# 5 -1.8050 4.2548 29.4776 -3.3472 40.4430 4.2332
# 6 -6.8682 -6.7046 -7.9187 14.1663 4.2332 33.8055
#
#
#
# Elastic Compliance Matrix: (Units=1/GPa)
#
#
# Indices 1 2 3 4 5 6 
#
# 1 0.008294 -0.001323 -0.002037 -0.001717 0.001700 0.001452
# 2 -0.001323 0.008141 -0.002081 -0.007229 -0.000410 0.003939
# 3 -0.002037 -0.002081 0.008299 0.006180 -0.005325 -0.000805
# 4 -0.001717 -0.007229 0.006180 0.035399 0.000706 -0.015257
# 5 0.001700 -0.000410 -0.005325 0.000706 0.029303 -0.004949
# 6 0.001452 0.003939 -0.000805 -0.015257 -0.004949 0.037482
#
#
# Mechanical properties :
#
#
# Convention : Reuss Voigt Hill
#
# Bulk Modulus (GPa) = 72.18673 78.32508 75.25591
# Shear Modulus (GPa) = 35.10807 48.32341 41.71574
#
# Velocity S-wave (km/s) = 3.57863 4.19849 3.90089
# Velocity P-wave (km/s) = 6.58844 7.21625 6.90948
#
# Compressibility (1/GPa) = 0.01385296
#
# Stress axis : x y z
#
# Youngs Moduli (GPa) = 120.56564 122.83873 120.48938
#
# Poissons Ratio (x) = 0.16256 0.24541
# Poissons Ratio (y) = 0.15955 0.25069
# Poissons Ratio (z) = 0.24557 0.25558
#
# Static dielectric constant tensor:
#      x y z
#    x 2.114860 0.043520 -0.043690 
#    y 0.043520 2.265180 -0.041350 
#    z -0.043690 -0.041350 2.450530 
# 
# From -- ./inp_files/140537.got.cif
#   From: 2010.05.17/outbox.cif.g08.bks.cpg/sg2_71_cif.got.tgz:140537.got - 2010.06.03 11:33:40.
