data_PCOD9092809
_publ_section_title
;
Structure prediction by ZEFSAII (Michael W. Deem and Ramdas Pophale) SiO2 
 PCOD9092809
Probable space group: P -1
;
_chemical_formula_sum "Si O2"
_cell_formula_units_Z 14
_cell_length_a 15.991600
_cell_length_b 10.102109
_cell_length_c 9.799459
_cell_angle_alpha 40.576943
_cell_angle_beta 48.526624
_cell_angle_gamma 32.309771
_cell_volume 549.456126
_symmetry_space_group_name_H-M "P -1"
_symmetry_group_IT_number 2
_symmetry_cell_setting 'triclinic'
loop_
_space_group_symop_operation_xyz
x,y,z
-x,-y,-z
loop_
_atom_site_type_symbol
_atom_site_label
_atom_site_fract_x
_atom_site_fract_y
_atom_site_fract_z
Si Si1 0.904430 0.622085 0.867619
Si Si2 0.920165 0.317981 0.563509
Si Si3 0.366069 0.841569 0.864887
Si Si4 0.248887 0.813236 0.280355
Si Si5 0.801882 0.305322 0.151559
Si Si6 0.357511 0.265883 0.253552
Si Si7 0.597227 0.228482 0.428257
O O1 0.006000 0.574103 0.667009
O O2 0.784894 0.960256 0.758639
O O3 0.841256 0.474844 0.036633
O O4 0.000000 0.500000 0.000000
O O5 0.870902 0.221189 0.574187
O O6 0.764186 0.569331 0.619037
O O7 0.044600 0.034768 0.743860
O O8 0.466211 0.909528 0.750429
O O9 0.320912 0.902713 0.708266
O O10 0.500000 0.500000 0.000000
O O11 0.246637 0.921538 0.046689
O O12 0.417839 0.502928 0.373353
O O13 0.672416 0.325412 0.345003
O O14 0.716276 0.474543 0.971116
O O15 0.369178 0.036525 0.342001
#
# Coordination Sequence:
#
# PCOD9092809 Si02
#       7
#     2   2   2   2   2   2   2
#     4  12  29  48  73 103 144 203 242 282 359 431
#     4  12  26  47  76 107 145 188 240 297 358 433
#     4  10  19  42  71 107 141 181 231 297 358 412
#     4  11  23  47  75 102 142 187 244 295 344 432
#     4  12  26  49  69 109 149 186 240 298 359 423
#     4  12  24  44  78 113 143 183 234 301 373 419
#     4  11  24  44  74 110 142 182 242 302 358 412
#
# _framework density 25.479741000000001
#
# number of rings (size 3 to 8) (size 9 to 14) (size 15 to 20)
#    0.000    0.571    7.143    2.143    2.000    4.000 
#    0.000    1.429    0.000    0.000    0.000    0.000 
#    0.000    0.000    0.000    0.000    0.000    0.000 
#
# Total GULP energy -78319.292613 kJ/mol
# GULP energy per Si atom -5594.235187 kJ/mol
# Density = 2.542175 g / cm^3
# Si number density = 25.479741 Si / 1000 Ang^3
#
#
#
# Elastic Constant Matrix: (Units=GPa)
#
#
# Indices 1 2 3 4 5 6 
#
# 1 119.2059 11.4634 48.3528 -10.8720 -30.8493 -15.1468
# 2 11.4634 56.2892 30.0569 -21.2682 -2.2626 -6.8047
# 3 48.3528 30.0569 136.4399 -35.6174 -6.6032 -7.3641
# 4 -10.8720 -21.2682 -35.6174 37.2426 7.8072 2.2037
# 5 -30.8493 -2.2626 -6.6032 7.8072 53.8638 3.0583
# 6 -15.1468 -6.8047 -7.3641 2.2037 3.0583 33.4010
#
#
#
# Elastic Compliance Matrix: (Units=1/GPa)
#
#
# Indices 1 2 3 4 5 6 
#
# 1 0.012165 -0.000311 -0.004327 -0.002375 0.006537 0.004057
# 2 -0.000311 0.023633 -0.001932 0.011620 -0.001311 0.003601
# 3 -0.004327 -0.001932 0.011567 0.009224 -0.002468 -0.000188
# 4 -0.002375 0.011620 0.009224 0.042812 -0.006006 0.001049
# 5 0.006537 -0.001311 -0.002468 -0.006006 0.022796 0.000462
# 6 0.004057 0.003601 -0.000188 0.001049 0.000462 0.032360
#
#
# Mechanical properties :
#
#
# Convention : Reuss Voigt Hill
#
# Bulk Modulus (GPa) = 29.21883 54.63125 41.92504
# Shear Modulus (GPa) = 29.43241 39.70560 34.56901
#
# Velocity S-wave (km/s) = 3.40241 3.95184 3.68737
# Velocity P-wave (km/s) = 5.18918 6.50464 5.88378
#
# Compressibility (1/GPa) = 0.03422451
#
# Stress axis : x y z
#
# Youngs Moduli (GPa) = 82.20503 42.31311 86.45555
#
# Poissons Ratio (x) = 0.01316 0.37411
# Poissons Ratio (y) = 0.02557 0.16702
# Poissons Ratio (z) = 0.35572 0.08174
#
# Static dielectric constant tensor:
#      x y z
#    x 2.072920 -0.010540 -0.034680 
#    y -0.010540 2.020710 0.045780 
#    z -0.034680 0.045780 2.054620 
# 
# From -- ./inp_files/464995.got.cif
#   From: 2010.05.17/outbox.cif.g08.bks.cpg/sg2_233_cif.got.tgz:464995.got - 2010.06.03 11:33:40.
