data_PCOD9092180
_publ_section_title
;
Structure prediction by ZEFSAII (Michael W. Deem and Ramdas Pophale) SiO2 
 PCOD9092180
Probable space group: P -1
;
_chemical_formula_sum "Si O2"
_cell_formula_units_Z 16
_cell_length_a 12.079891
_cell_length_b 11.573674
_cell_length_c 11.770334
_cell_angle_alpha 50.899514
_cell_angle_beta 82.710831
_cell_angle_gamma 123.684720
_cell_volume 716.873371
_symmetry_space_group_name_H-M "P -1"
_symmetry_group_IT_number 2
_symmetry_cell_setting 'triclinic'
loop_
_space_group_symop_operation_xyz
x,y,z
-x,-y,-z
loop_
_atom_site_type_symbol
_atom_site_label
_atom_site_fract_x
_atom_site_fract_y
_atom_site_fract_z
Si Si1 0.676733 0.467544 0.494471
Si Si2 0.626278 0.229002 0.248237
Si Si3 0.095225 0.500131 0.141835
Si Si4 0.729871 0.865106 0.211560
Si Si5 0.870236 0.542668 0.223267
Si Si6 0.382900 0.226761 0.223461
Si Si7 0.190811 0.056312 0.581102
Si Si8 0.070075 0.260734 0.485931
O O1 0.700341 0.658521 0.316877
O O2 0.462681 0.247071 0.718930
O O3 0.713233 0.388308 0.440122
O O4 0.842389 0.626122 0.470173
O O5 0.772065 0.483234 0.154264
O O6 0.499345 0.202436 0.206671
O O7 0.500000 0.000000 0.500000
O O8 0.750714 0.271498 0.113589
O O9 0.172042 0.491398 0.244994
O O10 0.952755 0.470079 0.227911
O O11 0.970882 0.241273 0.249532
O O12 0.750019 0.894349 0.327451
O O13 0.935343 0.150288 0.960178
O O14 0.361164 0.215361 0.369666
O O15 0.500000 0.500000 0.000000
O O16 0.165336 0.979809 0.349820
O O17 0.117141 0.143192 0.518048
#
# Coordination Sequence:
#
# PCOD9092180 Si02
#       8
#     2   2   2   2   2   2   2   2
#     4  10  24  44  67  95 129 177 226 264 330 390
#     4  12  25  40  66 101 135 171 218 281 343 398
#     4  11  23  41  66  98 129 175 211 276 347 388
#     4  10  22  44  68  96 125 175 225 277 321 393
#     4  12  25  41  69  94 139 169 222 277 328 396
#     4  11  22  36  64 100 127 169 217 271 336 394
#     4  10  19  40  67  91 131 165 217 279 335 381
#     4  10  22  44  65  91 138 173 215 274 322 407
#
# _framework density 22.319144999999999
#
# number of rings (size 3 to 8) (size 9 to 14) (size 15 to 20)
#    0.000    1.250    1.250    6.000    5.250    0.500 
#    9.000    0.625    0.000    0.000    0.000    0.000 
#    0.000    0.000    0.000    0.000    0.000    0.000 
#
# Total GULP energy -89418.754916 kJ/mol
# GULP energy per Si atom -5588.672182 kJ/mol
# Density = 2.226835 g / cm^3
# Si number density = 22.319145 Si / 1000 Ang^3
#
#
#
# Elastic Constant Matrix: (Units=GPa)
#
#
# Indices 1 2 3 4 5 6 
#
# 1 113.7961 32.3199 12.3323 13.7924 -15.4320 5.3649
# 2 32.3199 67.8315 3.4382 14.5970 -9.9746 -0.4684
# 3 12.3323 3.4382 98.1192 10.4724 -5.4357 2.7182
# 4 13.7924 14.5970 10.4724 27.8271 0.9403 -11.8055
# 5 -15.4320 -9.9746 -5.4357 0.9403 27.6576 3.5747
# 6 5.3649 -0.4684 2.7182 -11.8055 3.5747 31.4427
#
#
#
# Elastic Compliance Matrix: (Units=1/GPa)
#
#
# Indices 1 2 3 4 5 6 
#
# 1 0.011571 -0.003287 -0.000189 -0.006294 0.006102 -0.005064
# 2 -0.003287 0.019548 0.001387 -0.011136 0.006407 -0.004177
# 3 -0.000189 0.001387 0.011149 -0.006526 0.003291 -0.003735
# 4 -0.006294 -0.011136 -0.006526 0.058437 -0.014030 0.025008
# 5 0.006102 0.006407 0.003291 -0.014030 0.044489 -0.011556
# 6 -0.005064 -0.004177 -0.003735 0.025008 -0.011556 0.043632
#
#
# Mechanical properties :
#
#
# Convention : Reuss Voigt Hill
#
# Bulk Modulus (GPa) = 26.25295 41.76972 34.01133
# Shear Modulus (GPa) = 24.30732 32.82924 28.56828
#
# Velocity S-wave (km/s) = 3.30370 3.83939 3.58158
# Velocity P-wave (km/s) = 5.13231 6.19758 5.68993
#
# Compressibility (1/GPa) = 0.03809096
#
# Stress axis : x y z
#
# Youngs Moduli (GPa) = 86.42481 51.15662 89.69326
#
# Poissons Ratio (x) = 0.16814 0.01695
# Poissons Ratio (y) = 0.28405 -0.12444
# Poissons Ratio (z) = 0.01633 -0.07097
#
# Static dielectric constant tensor:
#      x y z
#    x 1.877460 -0.021210 -0.021130 
#    y -0.021210 1.834420 -0.052500 
#    z -0.021130 -0.052500 1.888330 
# 
# From -- ./inp_files/427569.got.cif
#   From: 2010.05.17/outbox.cif.g08.bks.cpg/sg2_214_cif.got.tgz:427569.got - 2010.06.03 11:33:40.
