data_PCOD9092545
_publ_section_title
;
Structure prediction by ZEFSAII (Michael W. Deem and Ramdas Pophale) SiO2 
 PCOD9092545
Probable space group: P -1
;
_chemical_formula_sum "Si O2"
_cell_formula_units_Z 16
_cell_length_a 17.254576
_cell_length_b 7.120291
_cell_length_c 9.387580
_cell_angle_alpha 54.425367
_cell_angle_beta 63.557999
_cell_angle_gamma 105.660675
_cell_volume 577.292371
_symmetry_space_group_name_H-M "P -1"
_symmetry_group_IT_number 2
_symmetry_cell_setting 'triclinic'
loop_
_space_group_symop_operation_xyz
x,y,z
-x,-y,-z
loop_
_atom_site_type_symbol
_atom_site_label
_atom_site_fract_x
_atom_site_fract_y
_atom_site_fract_z
Si Si1 0.218879 0.741942 0.092771
Si Si2 0.132527 0.278632 0.956755
Si Si3 0.934990 0.465801 0.925217
Si Si4 0.546275 0.419307 0.152712
Si Si5 0.509107 0.200714 0.602210
Si Si6 0.162144 0.383012 0.557719
Si Si7 0.174340 0.140305 0.272504
Si Si8 0.406612 0.597659 0.259120
O O1 0.149744 0.792595 0.023275
O O2 0.185520 0.658964 0.324189
O O3 0.170503 0.394957 0.228114
O O4 0.367633 0.008523 0.836179
O O5 0.165366 0.565065 0.898449
O O6 0.166037 0.148595 0.103189
O O7 0.179531 0.419632 0.697385
O O8 0.980761 0.968319 0.199418
O O9 0.054453 0.788107 0.595642
O O10 0.000000 0.500000 0.000000
O O11 0.547349 0.362293 0.345791
O O12 0.489969 0.076636 0.282439
O O13 0.692698 0.716015 0.862013
O O14 0.533644 0.502356 0.827207
O O15 0.593647 0.453235 0.549814
O O16 0.268268 0.407015 0.410521
O O17 0.500000 0.000000 0.000000
#
# Coordination Sequence:
#
# PCOD9092545 Si02
#       8
#     2   2   2   2   2   2   2   2
#     4  10  19  41  68  90 135 178 225 286 347 413
#     4  10  21  39  68  91 127 179 226 279 348 413
#     4  11  22  38  64  97 129 172 231 290 343 412
#     4  10  24  43  71 100 134 189 233 284 351 420
#     4  10  22  45  67 101 141 184 235 284 349 415
#     4  11  21  39  66  97 132 178 228 280 349 414
#     4  10  19  42  67  93 130 178 233 281 345 416
#     4  12  25  41  67 102 143 180 230 288 344 415
#
# _framework density 27.715592999999998
#
# number of rings (size 3 to 8) (size 9 to 14) (size 15 to 20)
#    0.000    1.500    3.750    1.875    0.000    3.500 
#    0.000    1.875    0.000    0.000    0.000    0.000 
#    0.000    0.000    0.000    0.000    0.000    0.000 
#
# Total GULP energy -89548.731626 kJ/mol
# GULP energy per Si atom -5596.795727 kJ/mol
# Density = 2.765251 g / cm^3
# Si number density = 27.715593 Si / 1000 Ang^3
#
#
#
# Elastic Constant Matrix: (Units=GPa)
#
#
# Indices 1 2 3 4 5 6 
#
# 1 159.2129 53.1034 42.4937 4.5467 5.3405 23.4849
# 2 53.1034 116.7331 50.9887 37.7431 3.3435 13.4846
# 3 42.4937 50.9887 138.0812 26.0606 2.2760 21.5862
# 4 4.5467 37.7431 26.0606 58.6353 19.1462 8.4556
# 5 5.3405 3.3435 2.2760 19.1462 48.0280 1.0835
# 6 23.4849 13.4846 21.5862 8.4556 1.0835 60.0199
#
#
#
# Elastic Compliance Matrix: (Units=1/GPa)
#
#
# Indices 1 2 3 4 5 6 
#
# 1 0.008272 -0.003979 -0.001338 0.003473 -0.001912 -0.002316
# 2 -0.003979 0.014149 -0.002466 -0.008766 0.003059 0.000445
# 3 -0.001338 -0.002466 0.009319 -0.002466 0.000906 -0.001943
# 4 0.003473 -0.008766 -0.002466 0.027255 -0.010476 -0.002153
# 5 -0.001912 0.003059 0.000906 -0.010476 0.024937 0.000761
# 6 -0.002316 0.000445 -0.001943 -0.002153 0.000761 0.018456
#
#
# Mechanical properties :
#
#
# Convention : Reuss Voigt Hill
#
# Bulk Modulus (GPa) = 61.82814 78.57767 70.20291
# Shear Modulus (GPa) = 40.53696 51.16608 45.85152
#
# Velocity S-wave (km/s) = 3.82855 4.30130 4.07179
# Velocity P-wave (km/s) = 6.47304 7.28569 6.89135
#
# Compressibility (1/GPa) = 0.01617386
#
# Stress axis : x y z
#
# Youngs Moduli (GPa) = 120.89311 70.67633 107.31110
#
# Poissons Ratio (x) = 0.28122 0.14360
# Poissons Ratio (y) = 0.48103 0.26460
# Poissons Ratio (z) = 0.16177 0.17427
#
# Static dielectric constant tensor:
#      x y z
#    x 2.364000 -0.072470 0.157250 
#    y -0.072470 2.163330 0.061410 
#    z 0.157250 0.061410 2.155200 
# 
# From -- ./inp_files/278207.got.cif
#   From: 2010.05.17/outbox.cif.g08.bks.cpg/sg2_140_cif.got.tgz:278207.got - 2010.06.03 11:33:40.
