data_PCOD9092142
_publ_section_title
;
Structure prediction by ZEFSAII (Michael W. Deem and Ramdas Pophale) SiO2 
 PCOD9092142
Probable space group: P -1
;
_chemical_formula_sum "Si O2"
_cell_formula_units_Z 12
_cell_length_a 7.792515
_cell_length_b 9.099522
_cell_length_c 10.613753
_cell_angle_alpha 94.422501
_cell_angle_beta 129.406886
_cell_angle_gamma 111.891032
_cell_volume 485.144595
_symmetry_space_group_name_H-M "P -1"
_symmetry_group_IT_number 2
_symmetry_cell_setting 'triclinic'
loop_
_space_group_symop_operation_xyz
x,y,z
-x,-y,-z
loop_
_atom_site_type_symbol
_atom_site_label
_atom_site_fract_x
_atom_site_fract_y
_atom_site_fract_z
Si Si1 0.544343 0.343253 0.816326
Si Si2 0.329715 0.365457 0.299125
Si Si3 0.668535 0.156474 0.683307
Si Si4 0.343703 0.746537 0.718781
Si Si5 0.245259 0.874531 0.008117
Si Si6 0.073551 0.365375 0.679814
O O1 0.697121 0.526576 0.822316
O O2 0.476471 0.208990 0.659429
O O3 0.684450 0.273740 0.965232
O O4 0.312884 0.337432 0.784471
O O5 0.500000 0.500000 0.500000
O O6 0.486746 0.287106 0.305095
O O7 0.036628 0.210532 0.194682
O O8 0.786352 0.110777 0.853531
O O9 0.911411 0.311547 0.729014
O O10 0.500000 0.000000 0.500000
O O11 0.187151 0.566096 0.711222
O O12 0.127253 0.752496 0.534133
O O13 0.522053 0.922907 0.894365
#
# Coordination Sequence:
#
# PCOD9092142 Si02
#       6
#     2   2   2   2   2   2
#     4   9  22  38  67  94 129 167 224 268 320 396
#     4  11  22  39  67  94 131 182 218 269 338 386
#     4  10  20  36  67  98 129 171 217 265 330 385
#     4  10  21  37  64  96 135 171 217 266 328 398
#     4  10  22  40  65 101 130 168 230 273 314 397
#     4  10  19  40  66  97 132 178 207 266 338 392
#
# _framework density 24.734893
#
# number of rings (size 3 to 8) (size 9 to 14) (size 15 to 20)
#    1.000    1.000    1.667    2.000    0.000    2.667 
#    0.000    3.333   14.667   16.000    0.000    0.000 
#    0.000    0.000    0.000    0.000    0.000    0.000 
#
# Total GULP energy -67062.641976 kJ/mol
# GULP energy per Si atom -5588.553498 kJ/mol
# Density = 2.467859 g / cm^3
# Si number density = 24.734893 Si / 1000 Ang^3
#
#
#
# Elastic Constant Matrix: (Units=GPa)
#
#
# Indices 1 2 3 4 5 6 
#
# 1 54.9019 33.1869 24.8711 -14.2636 -4.1173 -4.5085
# 2 33.1869 85.0072 24.1994 17.6471 5.0939 21.9896
# 3 24.8711 24.1994 135.8647 29.9318 -7.3271 -2.4798
# 4 -14.2636 17.6471 29.9318 27.1342 3.4498 -3.4347
# 5 -4.1173 5.0939 -7.3271 3.4498 35.0548 10.7874
# 6 -4.5085 21.9896 -2.4798 -3.4347 10.7874 28.1608
#
#
#
# Elastic Compliance Matrix: (Units=1/GPa)
#
#
# Indices 1 2 3 4 5 6 
#
# 1 -0.062838 0.059020 0.025684 -0.112547 0.024139 -0.076858
# 2 0.059020 -0.035729 -0.024303 0.090111 -0.018184 0.053164
# 3 0.025684 -0.024303 -0.000320 0.034153 -0.005961 0.029510
# 4 -0.112547 0.090111 0.034153 -0.136615 0.029100 -0.113185
# 5 0.024139 -0.018184 -0.005961 0.029100 0.026533 0.010924
# 6 -0.076858 0.053164 0.029510 -0.113185 0.010924 -0.033699
#
#
# Mechanical properties :
#
#
# Convention : Reuss Voigt Hill
#
# Bulk Modulus (GPa) = 45.62775 48.92095 47.27435
# Shear Modulus (GPa) = -14.03843 30.97106 8.46632
#
# Velocity S-wave (km/s) = -2.38493 3.54237 1.85209
# Velocity P-wave (km/s) = 3.30196 6.04584 4.87110
#
# Compressibility (1/GPa) = 0.02191649
#
# Stress axis : x y z
#
# Youngs Moduli (GPa) = -15.91395 -27.98864 -3126.50702
#
# Poissons Ratio (x) = 1.65188 80.30277
# Poissons Ratio (y) = 0.93923 -75.98208
# Poissons Ratio (z) = 0.40874 -0.68020
#
# Static dielectric constant tensor:
#      x y z
#    x 1.967530 0.048010 0.000600 
#    y 0.048010 1.983460 -0.013530 
#    z 0.000600 -0.013530 1.990860 
# 
# From -- ./inp_files/379755.got.cif
#   From: 2010.05.17/outbox.cif.g08.bks.cpg/sg2_190_cif.got.tgz:379755.got - 2010.06.03 11:33:40.
