data_PCOD9092531
_publ_section_title
;
Structure prediction by ZEFSAII (Michael W. Deem and Ramdas Pophale) SiO2 
 PCOD9092531
Probable space group: P -1
;
_chemical_formula_sum "Si O2"
_cell_formula_units_Z 14
_cell_length_a 9.079495
_cell_length_b 12.091911
_cell_length_c 8.493597
_cell_angle_alpha 142.282273
_cell_angle_beta 72.914340
_cell_angle_gamma 108.462238
_cell_volume 539.607217
_symmetry_space_group_name_H-M "P -1"
_symmetry_group_IT_number 2
_symmetry_cell_setting 'triclinic'
loop_
_space_group_symop_operation_xyz
x,y,z
-x,-y,-z
loop_
_atom_site_type_symbol
_atom_site_label
_atom_site_fract_x
_atom_site_fract_y
_atom_site_fract_z
Si Si1 0.277875 0.084788 0.743120
Si Si2 0.831966 0.024843 0.017792
Si Si3 0.414461 0.129261 0.286831
Si Si4 0.292475 0.591481 0.497997
Si Si5 0.149555 0.398017 0.011644
Si Si6 0.197179 0.502376 0.758146
Si Si7 0.387114 0.838275 0.222975
O O1 0.450544 0.199190 0.800512
O O2 0.270306 0.063854 0.906678
O O3 0.271729 0.881930 0.445712
O O4 0.147195 0.188031 0.826893
O O5 0.803506 0.235507 0.253565
O O6 0.764689 0.908068 0.756471
O O7 0.000000 0.000000 0.000000
O O8 0.523949 0.323177 0.463114
O O9 0.415203 0.032707 0.344916
O O10 0.500000 0.000000 0.000000
O O11 0.248627 0.503866 0.242678
O O12 0.242250 0.458629 0.513630
O O13 0.981743 0.463222 0.147154
O O14 0.212512 0.414369 0.829843
O O15 0.311389 0.691511 0.961201
#
# Coordination Sequence:
#
# PCOD9092531 Si02
#       7
#     2   2   2   2   2   2   2
#     4  11  24  42  66 101 128 175 225 279 335 391
#     4  11  21  40  70 101 129 167 230 281 328 393
#     4  10  19  41  67  98 124 167 227 274 330 389
#     4  11  21  46  71  92 139 178 218 277 336 399
#     4  11  27  44  62 101 142 176 223 265 347 409
#     4  11  23  45  67  94 137 185 215 274 337 403
#     4  11  22  44  71  91 132 171 230 285 322 388
#
# _framework density 25.944799
#
# number of rings (size 3 to 8) (size 9 to 14) (size 15 to 20)
#    0.000    1.143    5.714    2.143    2.000    1.143 
#    7.714    1.429    0.000    0.000    0.000    0.000 
#    0.000    0.000    0.000    0.000    0.000    0.000 
#
# Total GULP energy -78223.855200 kJ/mol
# GULP energy per Si atom -5587.418229 kJ/mol
# Density = 2.588575 g / cm^3
# Si number density = 25.944799 Si / 1000 Ang^3
#
#
#
# Elastic Constant Matrix: (Units=GPa)
#
#
# Indices 1 2 3 4 5 6 
#
# 1 112.9028 6.6126 17.3889 -11.4812 15.8630 -22.9956
# 2 6.6126 126.1441 22.3974 -22.3140 -0.7230 -20.6464
# 3 17.3889 22.3974 83.9615 -23.3855 10.2688 -16.5767
# 4 -11.4812 -22.3140 -23.3855 34.4890 -16.2499 1.4782
# 5 15.8630 -0.7230 10.2688 -16.2499 21.4938 -2.1794
# 6 -22.9956 -20.6464 -16.5767 1.4782 -2.1794 34.6171
#
#
#
# Elastic Compliance Matrix: (Units=1/GPa)
#
#
# Indices 1 2 3 4 5 6 
#
# 1 0.011419 0.000674 -0.000050 0.000452 -0.007280 0.007485
# 2 0.000674 0.011181 0.000518 0.011918 0.009397 0.007447
# 3 -0.000050 0.000518 0.016434 0.012157 0.002181 0.007764
# 4 0.000452 0.011918 0.012157 0.065953 0.045467 0.013276
# 5 -0.007280 0.009397 0.002181 0.045467 0.086083 0.005291
# 6 0.007485 0.007447 0.007764 0.013276 0.005291 0.041786
#
#
# Mechanical properties :
#
#
# Convention : Reuss Voigt Hill
#
# Bulk Modulus (GPa) = 24.20265 46.20069 35.20167
# Shear Modulus (GPa) = 20.46292 36.56060 28.51176
#
# Velocity S-wave (km/s) = 2.81144 3.75796 3.31862
# Velocity P-wave (km/s) = 4.45957 6.05604 5.31805
#
# Compressibility (1/GPa) = 0.04131778
#
# Stress axis : x y z
#
# Youngs Moduli (GPa) = 87.57418 89.43707 60.84766
#
# Poissons Ratio (x) = -0.06026 0.00307
# Poissons Ratio (y) = -0.05901 -0.03154
# Poissons Ratio (z) = 0.00442 -0.04636
#
# Static dielectric constant tensor:
#      x y z
#    x 2.132940 0.032320 -0.066120 
#    y 0.032320 2.096630 0.000430 
#    z -0.066120 0.000430 2.083160 
# 
# From -- ./inp_files/191069.got.cif
#   From: 2010.05.17/outbox.cif.g08.bks.cpg/sg2_96_cif.got.tgz:191069.got - 2010.06.03 11:33:40.
