data_PCOD9092671
_publ_section_title
;
Structure prediction by ZEFSAII (Michael W. Deem and Ramdas Pophale) SiO2 
 PCOD9092671
Probable space group: P -1
;
_chemical_formula_sum "Si O2"
_cell_formula_units_Z 16
_cell_length_a 14.079965
_cell_length_b 15.283416
_cell_length_c 9.916359
_cell_angle_alpha 63.843733
_cell_angle_beta 91.572791
_cell_angle_gamma 38.362845
_cell_volume 882.783001
_symmetry_space_group_name_H-M "P -1"
_symmetry_group_IT_number 2
_symmetry_cell_setting 'triclinic'
loop_
_space_group_symop_operation_xyz
x,y,z
-x,-y,-z
loop_
_atom_site_type_symbol
_atom_site_label
_atom_site_fract_x
_atom_site_fract_y
_atom_site_fract_z
Si Si1 0.370196 0.838403 0.542161
Si Si2 0.724637 0.556909 0.354602
Si Si3 0.861487 0.886284 0.386458
Si Si4 0.981597 0.561830 0.605559
Si Si5 0.602769 0.433210 0.907047
Si Si6 0.966789 0.861713 0.908454
Si Si7 0.694877 0.154669 0.942220
Si Si8 0.794998 0.536409 0.688640
O O1 0.472408 0.638554 0.694076
O O2 0.564663 0.733569 0.602720
O O3 0.249005 0.972413 0.583058
O O4 0.209389 0.990364 0.310449
O O5 0.793504 0.593916 0.255022
O O6 0.496440 0.729515 0.207189
O O7 0.774019 0.527873 0.534467
O O8 0.890080 0.328636 0.458815
O O9 0.840691 0.787243 0.446005
O O10 0.777522 0.015511 0.163957
O O11 0.000000 0.500000 0.500000
O O12 0.890821 0.556938 0.692456
O O13 0.619389 0.325409 0.883480
O O14 0.500000 0.500000 0.000000
O O15 0.835233 0.260577 0.055361
O O16 0.055257 0.677998 0.089647
O O17 0.867419 0.006333 0.934902
#
# Coordination Sequence:
#
# PCOD9092671 Si02
#       8
#     2   2   2   2   2   2   2   2
#     4  11  24  41  61  92 122 160 199 247 311 351
#     4   9  20  36  63  90 119 161 201 245 289 355
#     4  10  22  38  63  89 124 158 199 248 295 356
#     4   8  17  38  61  89 123 155 198 253 285 351
#     4  11  26  41  62  90 123 155 202 258 295 357
#     4  11  24  41  64  89 120 163 202 245 302 359
#     4  12  21  42  64  88 119 167 201 244 301 354
#     4  10  19  42  60  88 130 152 198 257 291 350
#
# _framework density 18.124500000000001
#
# number of rings (size 3 to 8) (size 9 to 14) (size 15 to 20)
#    0.750    1.000    3.750    0.375    1.750    2.500 
#    2.250    2.500    0.000    0.000    0.000    0.000 
#    0.000    0.000    0.000    0.000    0.000    0.000 
#
# Total GULP energy -89141.124336 kJ/mol
# GULP energy per Si atom -5571.320271 kJ/mol
# Density = 1.808325 g / cm^3
# Si number density = 18.124500 Si / 1000 Ang^3
#
#
#
# Elastic Constant Matrix: (Units=GPa)
#
#
# Indices 1 2 3 4 5 6 
#
# 1 107.4724 8.9504 71.3530 -56.0872 -6.2645 -14.9023
# 2 8.9504 134.1077 -14.6004 53.7728 -5.0294 -9.4189
# 3 71.3530 -14.6004 190.0086 -137.2134 5.6035 -21.4150
# 4 -56.0872 53.7728 -137.2134 194.2767 -8.2020 11.7916
# 5 -6.2645 -5.0294 5.6035 -8.2020 17.0455 -2.0651
# 6 -14.9023 -9.4189 -21.4150 11.7916 -2.0651 37.8326
#
#
#
# Elastic Compliance Matrix: (Units=1/GPa)
#
#
# Indices 1 2 3 4 5 6 
#
# 1 0.013739 -0.001614 -0.003895 0.001800 0.007038 0.002628
# 2 -0.001614 0.009259 -0.001466 -0.004159 0.000884 0.002184
# 3 -0.003895 -0.001466 0.012818 0.008090 -0.001854 0.002734
# 4 0.001800 -0.004159 0.008090 0.012626 0.002908 0.000476
# 5 0.007038 0.000884 -0.001854 0.002908 0.064072 0.004534
# 6 0.002628 0.002184 0.002734 0.000476 0.004534 0.029658
#
#
# Mechanical properties :
#
#
# Convention : Reuss Voigt Hill
#
# Bulk Modulus (GPa) = 45.73290 62.55498 54.14394
# Shear Modulus (GPa) = 30.59783 74.22334 52.41058
#
# Velocity S-wave (km/s) = 4.11323 6.40631 5.38328
# Velocity P-wave (km/s) = 6.91705 9.45040 8.28118
#
# Compressibility (1/GPa) = 0.02186610
#
# Stress axis : x y z
#
# Youngs Moduli (GPa) = 72.78499 108.00104 78.01575
#
# Poissons Ratio (x) = 0.17433 0.30387
# Poissons Ratio (y) = 0.11749 0.11437
# Poissons Ratio (z) = 0.28349 0.15833
#
# Static dielectric constant tensor:
#      x y z
#    x 1.645180 -0.020540 -0.008330 
#    y -0.020540 1.626760 -0.001490 
#    z -0.008330 -0.001490 1.602820 
# 
# From -- ./inp_files/314971.got.cif
#   From: 2010.05.17/outbox.cif.g08.bks.cpg/sg2_158_cif.got.tgz:314971.got - 2010.06.03 11:33:40.
