data_PCOD9092433
_publ_section_title
;
Structure prediction by ZEFSAII (Michael W. Deem and Ramdas Pophale) SiO2 
 PCOD9092433
Probable space group: P -1
;
_chemical_formula_sum "Si O2"
_cell_formula_units_Z 16
_cell_length_a 8.135706
_cell_length_b 15.875175
_cell_length_c 8.901098
_cell_angle_alpha 130.313023
_cell_angle_beta 129.248288
_cell_angle_gamma 79.764477
_cell_volume 624.455878
_symmetry_space_group_name_H-M "P -1"
_symmetry_group_IT_number 2
_symmetry_cell_setting 'triclinic'
loop_
_space_group_symop_operation_xyz
x,y,z
-x,-y,-z
loop_
_atom_site_type_symbol
_atom_site_label
_atom_site_fract_x
_atom_site_fract_y
_atom_site_fract_z
Si Si1 0.632649 0.673926 0.901669
Si Si2 0.580858 0.733627 0.600336
Si Si3 0.951285 0.757984 0.642252
Si Si4 0.810757 0.151667 0.798633
Si Si5 0.096606 0.545766 0.444766
Si Si6 0.066519 0.649995 0.132016
Si Si7 0.388135 0.102064 0.677039
Si Si8 0.669666 0.010931 0.972383
O O1 0.663585 0.702156 0.772830
O O2 0.369519 0.581273 0.653531
O O3 0.117806 0.778123 0.232473
O O4 0.657973 0.794508 0.145168
O O5 0.681958 0.702043 0.467518
O O6 0.302293 0.670329 0.375309
O O7 0.665227 0.878321 0.803342
O O8 0.044549 0.663540 0.520548
O O9 0.048486 0.786544 0.901869
O O10 0.074501 0.881239 0.761759
O O11 0.188364 0.377218 0.984044
O O12 0.556539 0.148132 0.685704
O O13 0.815015 0.021050 0.630131
O O14 0.000000 0.500000 0.500000
O O15 0.976766 0.446830 0.136192
O O16 0.539429 0.052474 0.814499
O O17 0.500000 0.000000 0.000000
#
# Coordination Sequence:
#
# PCOD9092433 Si02
#       8
#     2   2   2   2   2   2   2   2
#     4  12  24  47  70 101 143 176 226 291 342 409
#     4  12  25  44  69 102 143 180 227 281 351 410
#     4  11  23  44  70  97 139 186 224 287 341 407
#     4  10  19  41  64  99 129 176 225 275 337 406
#     4  12  23  47  75  95 134 187 234 283 350 399
#     4  12  26  42  70 103 135 181 236 278 340 410
#     4  10  20  37  70  94 138 177 220 283 342 404
#     4  11  20  40  66 100 136 180 224 275 348 410
#
# _framework density 25.622305999999998
#
# number of rings (size 3 to 8) (size 9 to 14) (size 15 to 20)
#    0.000    0.750    7.500    0.750    0.000    1.500 
#    2.250    3.750    0.000    0.000    0.000    0.000 
#    0.000    0.000    0.000    0.000    0.000    0.000 
#
# Total GULP energy -89543.590224 kJ/mol
# GULP energy per Si atom -5596.474389 kJ/mol
# Density = 2.556399 g / cm^3
# Si number density = 25.622306 Si / 1000 Ang^3
#
#
#
# Elastic Constant Matrix: (Units=GPa)
#
#
# Indices 1 2 3 4 5 6 
#
# 1 143.6014 23.2171 30.6310 1.8175 11.6620 13.6874
# 2 23.2171 68.7476 17.3561 0.4485 18.7478 -1.3197
# 3 30.6310 17.3561 104.1961 5.2987 3.3308 -19.7382
# 4 1.8175 0.4485 5.2987 40.0946 -7.5762 2.6631
# 5 11.6620 18.7478 3.3308 -7.5762 32.3135 6.8875
# 6 13.6874 -1.3197 -19.7382 2.6631 6.8875 37.7308
#
#
#
# Elastic Compliance Matrix: (Units=1/GPa)
#
#
# Indices 1 2 3 4 5 6 
#
# 1 0.008412 -0.002036 -0.003006 0.000251 -0.000501 -0.004622
# 2 -0.002036 0.018703 -0.001528 -0.002189 -0.011062 0.002767
# 3 -0.003006 -0.001528 0.012414 -0.002310 -0.001550 0.007977
# 4 0.000251 -0.002189 -0.002310 0.027260 0.008857 -0.004917
# 5 -0.000501 -0.011062 -0.001550 0.008857 0.041757 -0.009264
# 6 -0.004622 0.002767 0.007977 -0.004917 -0.009264 0.034488
#
#
# Mechanical properties :
#
#
# Convention : Reuss Voigt Hill
#
# Bulk Modulus (GPa) = 37.89344 50.99484 44.44414
# Shear Modulus (GPa) = 30.30873 38.38386 34.34629
#
# Velocity S-wave (km/s) = 3.44307 3.87468 3.66523
# Velocity P-wave (km/s) = 5.53422 6.32165 5.94100
#
# Compressibility (1/GPa) = 0.02638979
#
# Stress axis : x y z
#
# Youngs Moduli (GPa) = 118.87656 53.46644 80.55664
#
# Poissons Ratio (x) = 0.10884 0.24216
# Poissons Ratio (y) = 0.24199 0.12308
# Poissons Ratio (z) = 0.35735 0.08169
#
# Static dielectric constant tensor:
#      x y z
#    x 2.158290 -0.006740 0.107750 
#    y -0.006740 2.057070 -0.019580 
#    z 0.107750 -0.019580 2.073560 
# 
# From -- ./inp_files/215998.got.cif
#   From: 2010.05.17/outbox.cif.g08.bks.cpg/sg2_108_cif.got.tgz:215998.got - 2010.06.03 11:33:40.
