data_PCOD9092264
_publ_section_title
;
Structure prediction by ZEFSAII (Michael W. Deem and Ramdas Pophale) SiO2 
 PCOD9092264
Probable space group: P -1
;
_chemical_formula_sum "Si O2"
_cell_formula_units_Z 16
_cell_length_a 13.288349
_cell_length_b 8.122157
_cell_length_c 11.838720
_cell_angle_alpha 125.920962
_cell_angle_beta 33.089589
_cell_angle_gamma 117.368906
_cell_volume 563.463208
_symmetry_space_group_name_H-M "P -1"
_symmetry_group_IT_number 2
_symmetry_cell_setting 'triclinic'
loop_
_space_group_symop_operation_xyz
x,y,z
-x,-y,-z
loop_
_atom_site_type_symbol
_atom_site_label
_atom_site_fract_x
_atom_site_fract_y
_atom_site_fract_z
Si Si1 0.659974 0.514828 0.677192
Si Si2 0.166431 0.112694 0.235251
Si Si3 0.203427 0.777000 0.226056
Si Si4 0.273620 0.921804 0.804277
Si Si5 0.442471 0.435210 0.651087
Si Si6 0.391991 0.904567 0.315707
Si Si7 0.052714 0.403057 0.288132
Si Si8 0.875700 0.813182 0.160403
O O1 0.689922 0.719192 0.801461
O O2 0.520110 0.572023 0.731159
O O3 0.607668 0.325025 0.726659
O O4 0.865046 0.434288 0.407193
O O5 0.098307 0.174366 0.197348
O O6 0.998138 0.172178 0.505525
O O7 0.211705 0.881820 0.139111
O O8 0.334181 0.887969 0.233704
O O9 0.209956 0.531798 0.139715
O O10 0.414548 0.004498 0.799155
O O11 0.188880 0.082452 0.856000
O O12 0.427931 0.773772 0.532463
O O13 0.096562 0.798872 0.956509
O O14 0.500000 0.500000 0.500000
O O15 0.228626 0.393717 0.829379
O O16 0.232571 0.050435 0.586194
O O17 0.000000 0.500000 0.500000
#
# Coordination Sequence:
#
# PCOD9092264 Si02
#       8
#     2   2   2   2   2   2   2   2
#     4  10  16  29  47  76 108 131 177 223 260 323
#     4   9  16  25  44  78 109 129 173 224 267 318
#     4   9  16  26  45  77 106 132 174 215 268 329
#     4  10  21  36  53  76 105 141 186 225 263 318
#     4  11  22  35  54  80 110 147 177 222 274 316
#     4  11  16  32  56  76 102 139 179 220 270 324
#     4   8  14  27  42  72 112 130 165 233 261 307
#     4  10  21  36  53  76 105 141 186 225 263 318
#
# _framework density 28.395820000000001
#
# number of rings (size 3 to 8) (size 9 to 14) (size 15 to 20)
#    0.000    2.500    6.250    0.750    3.500    0.500 
#    0.000    0.000    0.000    0.000    0.000   24.500 
#    0.000    0.000    0.000    0.000    0.000    0.000 
#
# Total GULP energy -89549.364906 kJ/mol
# GULP energy per Si atom -5596.835307 kJ/mol
# Density = 2.833119 g / cm^3
# Si number density = 28.395820 Si / 1000 Ang^3
#
#
#
# Elastic Constant Matrix: (Units=GPa)
#
#
# Indices 1 2 3 4 5 6 
#
# 1 122.8510 49.3107 38.1753 -20.9287 -9.6598 9.8551
# 2 49.3107 119.7225 18.0414 -10.3705 -8.7158 -15.3341
# 3 38.1753 18.0414 132.8161 -22.8576 -30.6201 12.0955
# 4 -20.9287 -10.3705 -22.8576 36.2031 3.7381 -5.1582
# 5 -9.6598 -8.7158 -30.6201 3.7381 43.9567 -18.1222
# 6 9.8551 -15.3341 12.0955 -5.1582 -18.1222 55.2466
#
#
#
# Elastic Compliance Matrix: (Units=1/GPa)
#
#
# Indices 1 2 3 4 5 6 
#
# 1 0.011351 -0.004519 -0.002060 0.003689 -0.001358 -0.002929
# 2 -0.004519 0.011166 0.000309 0.001149 0.003428 0.005070
# 3 -0.002060 0.000309 0.010410 0.004891 0.006799 0.000861
# 4 0.003689 0.001149 0.004891 0.033262 0.002678 0.002574
# 5 -0.001358 0.003428 0.006799 0.002678 0.031941 0.010432
# 6 -0.002929 0.005070 0.000861 0.002574 0.010432 0.023504
#
#
# Mechanical properties :
#
#
# Convention : Reuss Voigt Hill
#
# Bulk Modulus (GPa) = 49.05367 65.16049 57.10708
# Shear Modulus (GPa) = 35.46854 45.07209 40.27032
#
# Velocity S-wave (km/s) = 3.53806 3.98839 3.76996
# Velocity P-wave (km/s) = 5.83121 6.64881 6.25339
#
# Compressibility (1/GPa) = 0.02038583
#
# Stress axis : x y z
#
# Youngs Moduli (GPa) = 88.10021 89.55870 96.05923
#
# Poissons Ratio (x) = 0.40472 0.19789
# Poissons Ratio (y) = 0.39813 -0.02965
# Poissons Ratio (z) = 0.18149 -0.02764
#
# Static dielectric constant tensor:
#      x y z
#    x 2.197280 0.054470 0.051580 
#    y 0.054470 2.323090 0.175230 
#    z 0.051580 0.175230 2.473820 
# 
# From -- ./inp_files/528782.got.cif
#   From: 2010.05.17/outbox.cif.g08.bks.cpg/sg2_265_cif.got.tgz:528782.got - 2010.06.03 11:33:40.
