data_PCOD9092650
_publ_section_title
;
Structure prediction by ZEFSAII (Michael W. Deem and Ramdas Pophale) SiO2 
 PCOD9092650
Probable space group: P -1
;
_chemical_formula_sum "Si O2"
_cell_formula_units_Z 13
_cell_length_a 13.498076
_cell_length_b 12.295693
_cell_length_c 7.935523
_cell_angle_alpha 46.253366
_cell_angle_beta 117.289927
_cell_angle_gamma 148.085188
_cell_volume 473.681374
_symmetry_space_group_name_H-M "P -1"
_symmetry_group_IT_number 2
_symmetry_cell_setting 'triclinic'
loop_
_space_group_symop_operation_xyz
x,y,z
-x,-y,-z
loop_
_atom_site_type_symbol
_atom_site_label
_atom_site_fract_x
_atom_site_fract_y
_atom_site_fract_z
Si Si1 0.151940 0.898108 0.334992
Si Si2 0.471674 0.090056 0.530891
Si Si3 0.762022 0.734176 0.546334
Si Si4 0.252734 0.353439 0.009800
Si Si5 0.000000 0.500000 0.000000
Si Si6 0.737469 0.407734 0.689013
Si Si7 0.858852 0.114189 0.022549
O O1 0.244284 0.897001 0.558009
O O2 0.199671 0.127949 0.142888
O O3 0.920089 0.612391 0.480429
O O4 0.223996 0.926492 0.178346
O O5 0.553941 0.140674 0.723994
O O6 0.500000 0.000000 0.500000
O O7 0.590670 0.373610 0.263644
O O8 0.660541 0.582834 0.805290
O O9 0.715100 0.556519 0.563588
O O10 0.723540 0.852048 0.308025
O O11 0.000000 0.000000 0.500000
O O12 0.052655 0.229394 0.003189
O O13 0.827705 0.438500 0.895672
O O14 0.084002 0.685237 0.031887
#
# Coordination Sequence:
#
# PCOD9092650 Si02
#       7
#     2   2   2   2   1   2   2
#     4  12  24  45  77 100 133 187 235 283 348 398
#     4  12  29  45  64 106 145 180 233 281 342 421
#     4  10  19  41  73 102 136 173 231 290 338 399
#     4  11  21  45  71 102 138 176 234 290 333 404
#     4  12  24  38  70 102 136 184 220 272 368 406
#     4  12  24  46  73 100 137 185 230 290 340 413
#     4  11  21  40  72 105 134 177 231 283 342 411
#
# _framework density 27.444609
#
# number of rings (size 3 to 8) (size 9 to 14) (size 15 to 20)
#    0.000    0.615    7.692    2.769    2.154    1.231 
#    0.000    7.692    0.000    0.000    0.000    0.000 
#    0.000    0.000    0.000    0.000    0.000    0.000 
#
# Total GULP energy -72733.035599 kJ/mol
# GULP energy per Si atom -5594.848892 kJ/mol
# Density = 2.738214 g / cm^3
# Si number density = 27.444609 Si / 1000 Ang^3
#
#
#
# Elastic Constant Matrix: (Units=GPa)
#
#
# Indices 1 2 3 4 5 6 
#
# 1 83.4303 43.9731 -6.6120 -9.8876 20.5822 -14.6590
# 2 43.9731 120.7394 15.5781 19.5641 1.2742 -17.1589
# 3 -6.6120 15.5781 103.1952 13.7814 2.4185 -5.3203
# 4 -9.8876 19.5641 13.7814 51.1673 -15.3982 -8.9384
# 5 20.5822 1.2742 2.4185 -15.3982 37.0794 -9.9012
# 6 -14.6590 -17.1589 -5.3203 -8.9384 -9.9012 65.8322
#
#
#
# Elastic Compliance Matrix: (Units=1/GPa)
#
#
# Indices 1 2 3 4 5 6 
#
# 1 0.018856 -0.007410 0.002118 0.003680 -0.008374 0.001679
# 2 -0.007410 0.012097 -0.001655 -0.004804 0.002086 0.001031
# 3 0.002118 -0.001655 0.010500 -0.002632 -0.002870 0.000100
# 4 0.003680 -0.004804 -0.002632 0.026810 0.010655 0.004597
# 5 -0.008374 0.002086 -0.002870 0.010655 0.037641 0.005555
# 6 0.001679 0.001031 0.000100 0.004597 0.005555 0.017300
#
#
# Mechanical properties :
#
#
# Convention : Reuss Voigt Hill
#
# Bulk Modulus (GPa) = 36.28498 45.91593 41.10046
# Shear Modulus (GPa) = 34.17950 47.77751 40.97850
#
# Velocity S-wave (km/s) = 3.53285 4.17690 3.86830
# Velocity P-wave (km/s) = 5.46729 6.32683 5.91270
#
# Compressibility (1/GPa) = 0.02755961
#
# Stress axis : x y z
#
# Youngs Moduli (GPa) = 53.03219 82.66178 95.23924
#
# Poissons Ratio (x) = 0.61253 -0.20173
# Poissons Ratio (y) = 0.39297 0.15764
# Poissons Ratio (z) = -0.11233 0.13682
#
# Static dielectric constant tensor:
#      x y z
#    x 2.046690 0.028130 0.050380 
#    y 0.028130 2.055050 0.154280 
#    z 0.050380 0.154280 1.934840 
# 
# From -- ./inp_files/260591.got.cif
#   From: 2010.05.17/outbox.cif.g08.bks.cpg/sg2_131_cif.got.tgz:260591.got - 2010.06.03 11:33:40.
