data_PCOD9092795
_publ_section_title
;
Structure prediction by ZEFSAII (Michael W. Deem and Ramdas Pophale) SiO2 
 PCOD9092795
Probable space group: P -1
;
_chemical_formula_sum "Si O2"
_cell_formula_units_Z 12
_cell_length_a 22.608100
_cell_length_b 11.481453
_cell_length_c 7.386277
_cell_angle_alpha 120.649503
_cell_angle_beta 129.224548
_cell_angle_gamma 22.731856
_cell_volume 556.388038
_symmetry_space_group_name_H-M "P -1"
_symmetry_group_IT_number 2
_symmetry_cell_setting 'triclinic'
loop_
_space_group_symop_operation_xyz
x,y,z
-x,-y,-z
loop_
_atom_site_type_symbol
_atom_site_label
_atom_site_fract_x
_atom_site_fract_y
_atom_site_fract_z
Si Si1 0.034076 0.783088 0.907824
Si Si2 0.316519 0.214174 0.278430
Si Si3 0.105012 0.629274 0.513563
Si Si4 0.248130 0.695287 0.741416
Si Si5 0.563668 0.255283 0.841909
Si Si6 0.323433 0.752791 0.249650
O O1 0.099773 0.626533 0.715918
O O2 0.181558 0.512162 0.127573
O O3 0.852289 0.998946 0.782795
O O4 0.000000 0.000000 0.000000
O O5 0.225048 0.341877 0.398550
O O6 0.500000 0.000000 0.500000
O O7 0.344447 0.017866 0.098103
O O8 0.175630 0.665148 0.623861
O O9 0.906117 0.951929 0.313505
O O10 0.368800 0.501685 0.642901
O O11 0.344562 0.590562 0.027206
O O12 0.679011 0.115295 0.785537
O O13 0.500000 0.500000 0.000000
O O14 0.500000 0.500000 0.500000
#
# Coordination Sequence:
#
# PCOD9092795 Si02
#       6
#     2   2   2   2   2   2
#     4  12  25  45  75 109 152 190 246 305 368 443
#     4  12  26  45  75 112 144 194 248 309 366 432
#     4  11  21  41  74 105 143 181 253 299 362 424
#     4  10  19  42  70 104 140 197 232 302 364 432
#     4  10  24  45  68  97 151 193 238 293 376 433
#     4  11  23  41  71 106 145 198 242 288 372 444
#
# _framework density 21.567681
#
# number of rings (size 3 to 8) (size 9 to 14) (size 15 to 20)
#    0.000    1.000    5.000    2.000    2.333    1.333 
#    6.000    0.833    0.000    0.000    0.000    0.000 
#    0.000    0.000    0.000    0.000    0.000    0.000 
#
# Total GULP energy -66811.666074 kJ/mol
# GULP energy per Si atom -5567.638840 kJ/mol
# Density = 2.151859 g / cm^3
# Si number density = 21.567681 Si / 1000 Ang^3
#
#
#
# Elastic Constant Matrix: (Units=GPa)
#
#
# Indices 1 2 3 4 5 6 
#
# 1 145.6432 58.0094 43.7236 -13.6972 6.5122 -18.6278
# 2 58.0094 114.1876 37.7080 1.3008 1.0688 1.6812
# 3 43.7236 37.7080 125.6666 -14.4216 -0.2581 4.8130
# 4 -13.6972 1.3008 -14.4216 35.5028 -11.7379 3.7990
# 5 6.5122 1.0688 -0.2581 -11.7379 25.5204 1.0145
# 6 -18.6278 1.6812 4.8130 3.7990 1.0145 56.5193
#
#
#
# Elastic Compliance Matrix: (Units=1/GPa)
#
#
# Indices 1 2 3 4 5 6 
#
# 1 0.009974 -0.004473 -0.001993 0.002360 -0.001430 0.003457
# 2 -0.004473 0.011861 -0.002320 -0.003219 -0.000804 -0.001399
# 3 -0.001993 -0.002320 0.009936 0.004482 0.002838 -0.001786
# 4 0.002360 -0.003219 0.004482 0.036736 0.016565 -0.002275
# 5 -0.001430 -0.000804 0.002838 0.016565 0.047336 -0.002652
# 6 0.003457 -0.001399 -0.001786 -0.002275 -0.002652 0.019227
#
#
# Mechanical properties :
#
#
# Convention : Reuss Voigt Hill
#
# Bulk Modulus (GPa) = 70.42949 73.81995 72.12472
# Shear Modulus (GPa) = 31.77149 39.91225 35.84187
#
# Velocity S-wave (km/s) = 3.84227 4.30648 4.08098
# Velocity P-wave (km/s) = 7.23948 7.68304 7.46455
#
# Compressibility (1/GPa) = 0.01419860
#
# Stress axis : x y z
#
# Youngs Moduli (GPa) = 100.26001 84.30958 100.64855
#
# Poissons Ratio (x) = 0.37715 0.20054
# Poissons Ratio (y) = 0.44851 0.23351
# Poissons Ratio (z) = 0.19977 0.19561
#
# Static dielectric constant tensor:
#      x y z
#    x 1.858810 -0.047920 0.014730 
#    y -0.047920 1.880270 0.003010 
#    z 0.014730 0.003010 1.861520 
# 
# From -- ./inp_files/353845.got.cif
#   From: 2010.05.17/outbox.cif.g08.bks.cpg/sg2_177_cif.got.tgz:353845.got - 2010.06.03 11:33:40.
