data_PCOD9092387
_publ_section_title
;
Structure prediction by ZEFSAII (Michael W. Deem and Ramdas Pophale) SiO2 
 PCOD9092387
Probable space group: P -1
;
_chemical_formula_sum "Si O2"
_cell_formula_units_Z 16
_cell_length_a 12.972723
_cell_length_b 13.661474
_cell_length_c 5.485009
_cell_angle_alpha 82.182503
_cell_angle_beta 124.251863
_cell_angle_gamma 71.963146
_cell_volume 701.954694
_symmetry_space_group_name_H-M "P -1"
_symmetry_group_IT_number 2
_symmetry_cell_setting 'triclinic'
loop_
_space_group_symop_operation_xyz
x,y,z
-x,-y,-z
loop_
_atom_site_type_symbol
_atom_site_label
_atom_site_fract_x
_atom_site_fract_y
_atom_site_fract_z
Si Si1 0.901706 0.390497 0.868993
Si Si2 0.905516 0.752523 0.192702
Si Si3 0.397701 0.981520 0.553909
Si Si4 0.756759 0.151037 0.767324
Si Si5 0.632179 0.378159 0.720502
Si Si6 0.843067 0.203953 0.356828
Si Si7 0.327326 0.165635 0.778107
Si Si8 0.126784 0.407808 0.485542
O O1 0.766957 0.383395 0.783259
O O2 0.850556 0.486055 0.559691
O O3 0.024201 0.272976 0.969948
O O4 0.980917 0.426887 0.160779
O O5 0.761712 0.839979 0.102686
O O6 0.885190 0.641600 0.253456
O O7 0.027713 0.767440 0.491922
O O8 0.300211 0.937111 0.314518
O O9 0.500000 0.000000 0.500000
O O10 0.316570 0.091922 0.571215
O O11 0.508679 0.885690 0.917105
O O12 0.626282 0.277223 0.596704
O O13 0.836979 0.151806 0.625676
O O14 0.843856 0.134367 0.140365
O O15 0.500000 0.500000 0.500000
O O16 0.694868 0.319608 0.085129
O O17 0.254945 0.296966 0.574457
#
# Coordination Sequence:
#
# PCOD9092387 Si02
#       8
#     2   2   2   2   2   2   2   2
#     4  11  19  37  63  94 137 170 213 267 321 389
#     4  10  19  41  62  91 127 169 213 267 323 381
#     4  11  25  46  65  90 128 165 218 281 328 392
#     4  10  24  43  67  89 130 172 213 273 329 387
#     4  10  22  38  59  95 129 179 212 264 319 394
#     4  10  21  43  65  92 131 172 213 272 319 396
#     4   9  24  39  66  95 121 170 215 277 327 389
#     4   9  21  36  61  97 127 167 217 263 324 386
#
# _framework density 22.793496000000001
#
# number of rings (size 3 to 8) (size 9 to 14) (size 15 to 20)
#    1.500    0.500    2.500    0.375    5.250    2.500 
#    4.500    1.250    0.000    0.000    0.000    0.000 
#    0.000    0.000    0.000    0.000    0.000    0.000 
#
# Total GULP energy -89076.762219 kJ/mol
# GULP energy per Si atom -5567.297639 kJ/mol
# Density = 2.274162 g / cm^3
# Si number density = 22.793496 Si / 1000 Ang^3
#
#
#
# Elastic Constant Matrix: (Units=GPa)
#
#
# Indices 1 2 3 4 5 6 
#
# 1 76.0790 25.6811 12.1886 2.3528 -17.9910 -10.1875
# 2 25.6811 90.7251 22.4129 10.7176 -3.2884 -14.3098
# 3 12.1886 22.4129 52.0374 11.8390 0.0838 -6.3441
# 4 2.3528 10.7176 11.8390 39.5357 -5.4946 3.0780
# 5 -17.9910 -3.2884 0.0838 -5.4946 25.0706 -0.4683
# 6 -10.1875 -14.3098 -6.3441 3.0780 -0.4683 43.2905
#
#
#
# Elastic Compliance Matrix: (Units=1/GPa)
#
#
# Indices 1 2 3 4 5 6 
#
# 1 0.018312 -0.003876 -0.002888 0.002464 0.013231 0.002573
# 2 -0.003876 0.013911 -0.004047 -0.002791 -0.001494 0.003276
# 3 -0.002888 -0.004047 0.023325 -0.006420 -0.004055 0.001813
# 4 0.002464 -0.002791 -0.006420 0.029159 0.007753 -0.003273
# 5 0.013231 -0.001494 -0.004055 0.007753 0.050937 0.002025
# 6 0.002573 0.003276 0.001813 -0.003273 0.002025 0.025308
#
#
# Mechanical properties :
#
#
# Convention : Reuss Voigt Hill
#
# Bulk Modulus (GPa) = 29.47561 37.71186 33.59374
# Shear Modulus (GPa) = 25.78871 32.14995 28.96933
#
# Velocity S-wave (km/s) = 3.36729 3.75972 3.56890
# Velocity P-wave (km/s) = 5.29885 5.95216 5.63498
#
# Compressibility (1/GPa) = 0.03392635
#
# Stress axis : x y z
#
# Youngs Moduli (GPa) = 54.60801 71.88300 42.87269
#
# Poissons Ratio (x) = 0.27861 0.12382
# Poissons Ratio (y) = 0.21165 0.17351
# Poissons Ratio (z) = 0.15772 0.29092
#
# Static dielectric constant tensor:
#      x y z
#    x 1.823090 0.003310 -0.086430 
#    y 0.003310 1.924870 -0.089590 
#    z -0.086430 -0.089590 1.992810 
# 
# From -- ./inp_files/77985.got.cif
#   From: 2010.05.17/outbox.cif.g08.bks.cpg/sg2_39_cif.got.tgz:77985.got - 2010.06.03 11:33:40.
