data_PCOD9092771
_publ_section_title
;
Structure prediction by ZEFSAII (Michael W. Deem and Ramdas Pophale) SiO2 
 PCOD9092771
Probable space group: P -1
;
_chemical_formula_sum "Si O2"
_cell_formula_units_Z 14
_cell_length_a 14.437147
_cell_length_b 7.006069
_cell_length_c 14.701311
_cell_angle_alpha 112.393009
_cell_angle_beta 29.854658
_cell_angle_gamma 94.207820
_cell_volume 567.754483
_symmetry_space_group_name_H-M "P -1"
_symmetry_group_IT_number 2
_symmetry_cell_setting 'triclinic'
loop_
_space_group_symop_operation_xyz
x,y,z
-x,-y,-z
loop_
_atom_site_type_symbol
_atom_site_label
_atom_site_fract_x
_atom_site_fract_y
_atom_site_fract_z
Si Si1 0.173058 0.764689 0.750792
Si Si2 0.118897 0.119634 0.302125
Si Si3 0.346354 0.789706 0.216567
Si Si4 0.476273 0.229599 0.444046
Si Si5 0.602206 0.728881 0.165226
Si Si6 0.951239 0.420529 0.334436
Si Si7 0.444494 0.702955 0.808668
O O1 0.238325 0.495760 0.686508
O O2 0.396887 0.759688 0.575294
O O3 0.088299 0.770810 0.722583
O O4 0.000000 0.000000 0.000000
O O5 0.277745 0.989229 0.230661
O O6 0.258129 0.913709 0.069208
O O7 0.884872 0.160000 0.537708
O O8 0.046641 0.359840 0.345060
O O9 0.474660 0.820490 0.194385
O O10 0.500000 0.500000 0.000000
O O11 0.599908 0.236743 0.248638
O O12 0.510265 0.966728 0.351785
O O13 0.552010 0.537552 0.212559
O O14 0.864676 0.583502 0.886639
O O15 0.692180 0.646640 0.602487
#
# Coordination Sequence:
#
# PCOD9092771 Si02
#       7
#     2   2   2   2   2   2   2
#     4  10  19  42  68  93 144 172 217 289 335 388
#     4  11  21  44  68  91 137 182 213 282 351 373
#     4  11  24  43  68 100 139 178 227 287 337 401
#     4  10  23  41  69 100 134 183 221 278 339 399
#     4  12  23  43  72 100 133 182 232 270 342 416
#     4  11  23  42  69  99 134 177 224 280 335 404
#     4  11  23  45  69  97 144 172 225 288 332 395
#
# _framework density 24.658543999999999
#
# number of rings (size 3 to 8) (size 9 to 14) (size 15 to 20)
#    0.000    1.143    5.714    0.000    0.000    2.857 
#    0.000    8.571    0.000    0.000    0.000    0.000 
#    0.000    0.000    0.000    0.000    0.000    0.000 
#
# Total GULP energy -78168.623032 kJ/mol
# GULP energy per Si atom -5583.473074 kJ/mol
# Density = 2.460242 g / cm^3
# Si number density = 24.658544 Si / 1000 Ang^3
#
#
#
# Elastic Constant Matrix: (Units=GPa)
#
#
# Indices 1 2 3 4 5 6 
#
# 1 127.0545 22.1773 25.1592 -4.7399 -7.9510 -9.8467
# 2 22.1773 88.7135 39.5428 -0.5041 -8.8621 -6.6808
# 3 25.1592 39.5428 167.0030 13.3448 4.7946 3.3931
# 4 -4.7399 -0.5041 13.3448 32.8783 -2.5290 9.9371
# 5 -7.9510 -8.8621 4.7946 -2.5290 41.9160 3.9406
# 6 -9.8467 -6.6808 3.3931 9.9371 3.9406 36.9400
#
#
#
# Elastic Compliance Matrix: (Units=1/GPa)
#
#
# Indices 1 2 3 4 5 6 
#
# 1 0.008601 -0.001366 -0.001149 0.001293 0.001396 0.001654
# 2 -0.001366 0.013454 -0.003175 0.000974 0.002838 0.001796
# 3 -0.001149 -0.003175 0.007227 -0.003139 -0.001858 -0.000502
# 4 0.001293 0.000974 -0.003139 0.034893 0.003760 -0.008979
# 5 0.001396 0.002838 -0.001858 0.003760 0.025412 -0.002666
# 6 0.001654 0.001796 -0.000502 -0.008979 -0.002666 0.030582
#
#
# Mechanical properties :
#
#
# Convention : Reuss Voigt Hill
#
# Bulk Modulus (GPa) = 55.86783 61.83662 58.85223
# Shear Modulus (GPa) = 36.35888 42.07297 39.21593
#
# Velocity S-wave (km/s) = 3.84408 4.13513 3.99226
# Velocity P-wave (km/s) = 6.51217 6.92319 6.72083
#
# Compressibility (1/GPa) = 0.01789939
#
# Stress axis : x y z
#
# Youngs Moduli (GPa) = 116.27202 74.32982 138.36431
#
# Poissons Ratio (x) = 0.10156 0.15900
# Poissons Ratio (y) = 0.15887 0.43937
# Poissons Ratio (z) = 0.13361 0.23603
#
# Static dielectric constant tensor:
#      x y z
#    x 1.975090 -0.030930 -0.052440 
#    y -0.030930 2.003280 0.078100 
#    z -0.052440 0.078100 2.033970 
# 
# From -- ./inp_files/529938.got.cif
#   From: 2010.05.17/outbox.cif.g08.bks.cpg/sg2_265_cif.got.tgz:529938.got - 2010.06.03 11:33:40.
