data_PCOD9092468
_publ_section_title
;
Structure prediction by ZEFSAII (Michael W. Deem and Ramdas Pophale) SiO2 
 PCOD9092468
Probable space group: P -1
;
_chemical_formula_sum "Si O2"
_cell_formula_units_Z 16
_cell_length_a 11.253603
_cell_length_b 12.083741
_cell_length_c 8.973500
_cell_angle_alpha 126.829934
_cell_angle_beta 126.745210
_cell_angle_gamma 60.813973
_cell_volume 766.652420
_symmetry_space_group_name_H-M "P -1"
_symmetry_group_IT_number 2
_symmetry_cell_setting 'triclinic'
loop_
_space_group_symop_operation_xyz
x,y,z
-x,-y,-z
loop_
_atom_site_type_symbol
_atom_site_label
_atom_site_fract_x
_atom_site_fract_y
_atom_site_fract_z
Si Si1 0.037151 0.985585 0.696362
Si Si2 0.243766 0.787749 0.333762
Si Si3 0.337097 0.000692 0.808971
Si Si4 0.204589 0.412760 0.441422
Si Si5 0.984204 0.699324 0.575487
Si Si6 0.500917 0.348123 0.805672
Si Si7 0.294298 0.288428 0.837565
Si Si8 0.824104 0.496857 0.838691
O O1 0.090826 0.887056 0.238321
O O2 0.212498 0.993329 0.836249
O O3 0.018190 0.843834 0.652698
O O4 0.000000 0.000000 0.500000
O O5 0.329148 0.878986 0.582308
O O6 0.347230 0.723061 0.221037
O O7 0.198335 0.662814 0.296539
O O8 0.282924 0.148133 0.802627
O O9 0.500000 0.000000 0.000000
O O10 0.093937 0.309729 0.329804
O O11 0.367883 0.366355 0.598646
O O12 0.216718 0.428548 0.288299
O O13 0.125828 0.569743 0.566382
O O14 0.852093 0.666987 0.341125
O O15 0.443720 0.261677 0.827322
O O16 0.500000 0.500000 0.000000
O O17 0.283136 0.415139 0.046884
O O18 0.000000 0.500000 0.000000
#
# Coordination Sequence:
#
# PCOD9092468 Si02
#       8
#     2   2   2   2   2   2   2   2
#     4  10  19  41  71  98 133 180 237 279 351 428
#     4  11  24  44  72  98 140 192 239 281 367 423
#     4  11  25  43  68 107 144 183 237 295 355 427
#     4  10  23  37  66 101 143 178 240 287 360 414
#     4  10  19  41  66 101 135 185 226 296 348 420
#     4  11  25  45  64 102 143 188 236 299 356 417
#     4  11  22  42  68  95 143 183 230 294 357 414
#     4  12  23  40  72 105 133 183 241 297 353 423
#
# _framework density 20.869952999999999
#
# number of rings (size 3 to 8) (size 9 to 14) (size 15 to 20)
#    0.000    1.250    5.000    2.250    1.750    3.000 
#    0.000    0.000    0.000    4.500    0.000    0.000 
#    0.000    0.000    0.000    0.000    0.000    0.000 
#
# Total GULP energy -89375.672032 kJ/mol
# GULP energy per Si atom -5585.979502 kJ/mol
# Density = 2.082245 g / cm^3
# Si number density = 20.869953 Si / 1000 Ang^3
#
#
#
# Elastic Constant Matrix: (Units=GPa)
#
#
# Indices 1 2 3 4 5 6 
#
# 1 157.1418 51.9968 32.4968 5.6579 -4.4964 -5.0415
# 2 51.9968 109.0075 18.1728 18.1359 -0.6490 22.7386
# 3 32.4968 18.1728 60.6220 13.0392 4.7668 -2.2325
# 4 5.6579 18.1359 13.0392 26.6274 2.0684 3.5008
# 5 -4.4964 -0.6490 4.7668 2.0684 27.6587 6.0936
# 6 -5.0415 22.7386 -2.2325 3.5008 6.0936 43.2649
#
#
#
# Elastic Compliance Matrix: (Units=1/GPa)
#
#
# Indices 1 2 3 4 5 6 
#
# 1 0.008686 -0.004523 -0.003861 0.002666 0.001152 0.002812
# 2 -0.004523 0.014342 -0.000682 -0.007608 0.001999 -0.007766
# 3 -0.003861 -0.000682 0.021124 -0.009043 -0.004117 0.002310
# 4 0.002666 -0.007608 -0.009043 0.046694 -0.001747 0.000310
# 5 0.001152 0.001999 -0.004117 -0.001747 0.038646 -0.006430
# 6 0.002812 -0.007766 0.002310 0.000310 -0.006430 0.028522
#
#
# Mechanical properties :
#
#
# Convention : Reuss Voigt Hill
#
# Bulk Modulus (GPa) = 38.43058 59.12267 48.77662
# Shear Modulus (GPa) = 27.05359 34.45051 30.75205
#
# Velocity S-wave (km/s) = 3.60431 4.06732 3.84279
# Velocity P-wave (km/s) = 5.98128 7.10268 6.56596
#
# Compressibility (1/GPa) = 0.02602095
#
# Stress axis : x y z
#
# Youngs Moduli (GPa) = 115.13005 69.72376 47.34061
#
# Poissons Ratio (x) = 0.31535 0.18277
# Poissons Ratio (y) = 0.52071 0.03227
# Poissons Ratio (z) = 0.44450 0.04753
#
# Static dielectric constant tensor:
#      x y z
#    x 1.787960 0.003240 -0.001370 
#    y 0.003240 1.716550 0.003960 
#    z -0.001370 0.003960 1.791460 
# 
# From -- ./inp_files/260748.got.cif
#   From: 2010.05.17/outbox.cif.g08.bks.cpg/sg2_131_cif.got.tgz:260748.got - 2010.06.03 11:33:40.
