data_PCOD9092383
_publ_section_title
;
Structure prediction by ZEFSAII (Michael W. Deem and Ramdas Pophale) SiO2 
 PCOD9092383
Probable space group: P -1
;
_chemical_formula_sum "Si O2"
_cell_formula_units_Z 14
_cell_length_a 19.814606
_cell_length_b 6.533672
_cell_length_c 9.494110
_cell_angle_alpha 74.736305
_cell_angle_beta 138.277036
_cell_angle_gamma 74.057630
_cell_volume 536.100440
_symmetry_space_group_name_H-M "P -1"
_symmetry_group_IT_number 2
_symmetry_cell_setting 'triclinic'
loop_
_space_group_symop_operation_xyz
x,y,z
-x,-y,-z
loop_
_atom_site_type_symbol
_atom_site_label
_atom_site_fract_x
_atom_site_fract_y
_atom_site_fract_z
Si Si1 0.454691 0.908964 0.785842
Si Si2 0.622388 0.035976 0.952485
Si Si3 0.877547 0.079365 0.005704
Si Si4 0.291650 0.812218 0.707868
Si Si5 0.987827 0.270169 0.014506
Si Si6 0.903040 0.435208 0.363151
Si Si7 0.669514 0.995808 0.725841
O O1 0.323174 0.989330 0.647504
O O2 0.420748 0.928516 0.564235
O O3 0.504193 0.076854 0.846323
O O4 0.595756 0.539747 0.104207
O O5 0.670857 0.179409 0.075656
O O6 0.773153 0.664131 0.236481
O O7 0.577203 0.140720 0.701184
O O8 0.974554 0.919781 0.329359
O O9 0.977423 0.841341 0.072304
O O10 0.849083 0.359005 0.851364
O O11 0.744561 0.113175 0.802624
O O12 0.127905 0.990401 0.382423
O O13 0.000000 0.500000 0.000000
O O14 0.000000 0.500000 0.500000
O O15 0.801702 0.619307 0.032287
#
# Coordination Sequence:
#
# PCOD9092383 Si02
#       7
#     2   2   2   2   2   2   2
#     4  11  22  42  63  91 127 169 209 251 312 369
#     4  10  21  39  64  90 125 162 208 257 305 363
#     4  10  19  41  62  89 124 165 198 260 313 362
#     4  11  24  40  62  94 125 162 216 257 306 371
#     4  11  23  38  65  93 122 159 213 257 315 370
#     4   8  17  34  66  86 122 165 200 248 314 365
#     4   9  20  39  65  89 123 165 206 246 314 372
#
# _framework density 26.114508000000001
#
# number of rings (size 3 to 8) (size 9 to 14) (size 15 to 20)
#    0.857    1.143    1.429    2.571    0.000    1.714 
#    2.571    2.143    0.000    0.000    0.000    0.000 
#    0.000    0.000    0.000    0.000    0.000    0.000 
#
# Total GULP energy -78169.538550 kJ/mol
# GULP energy per Si atom -5583.538468 kJ/mol
# Density = 2.605507 g / cm^3
# Si number density = 26.114508 Si / 1000 Ang^3
#
#
#
# Elastic Constant Matrix: (Units=GPa)
#
#
# Indices 1 2 3 4 5 6 
#
# 1 124.5173 24.8275 -3.9920 5.6439 -3.0120 34.9430
# 2 24.8275 88.6787 19.2080 10.3334 -11.0707 9.2180
# 3 -3.9920 19.2080 68.5978 4.6929 -4.0270 15.7067
# 4 5.6439 10.3334 4.6929 33.0758 2.9551 -9.2375
# 5 -3.0120 -11.0707 -4.0270 2.9551 35.9115 6.5660
# 6 34.9430 9.2180 15.7067 -9.2375 6.5660 49.9497
#
#
#
# Elastic Compliance Matrix: (Units=1/GPa)
#
#
# Indices 1 2 3 4 5 6 
#
# 1 0.011903 -0.002142 0.004280 -0.005234 0.003199 -0.010666
# 2 -0.002142 0.013731 -0.003100 -0.004266 0.004316 -0.001417
# 3 0.004280 -0.003100 0.018514 -0.005440 0.003708 -0.009738
# 4 -0.005234 -0.004266 -0.005440 0.037930 -0.008088 0.014237
# 5 0.003199 0.004316 0.003708 -0.008088 0.032345 -0.009948
# 6 -0.010666 -0.001417 -0.009738 0.014237 -0.009948 0.034746
#
#
# Mechanical properties :
#
#
# Convention : Reuss Voigt Hill
#
# Bulk Modulus (GPa) = 23.68185 40.20898 31.94541
# Shear Modulus (GPa) = 30.27241 39.90407 35.08824
#
# Velocity S-wave (km/s) = 3.40842 3.91326 3.66953
# Velocity P-wave (km/s) = 4.95761 5.98738 5.49667
#
# Compressibility (1/GPa) = 0.04222644
#
# Stress axis : x y z
#
# Youngs Moduli (GPa) = 84.01136 72.82851 54.01270
#
# Poissons Ratio (x) = 0.15598 -0.23120
# Poissons Ratio (y) = 0.17993 0.16742
# Poissons Ratio (z) = -0.35961 0.22575
#
# Static dielectric constant tensor:
#      x y z
#    x 2.067930 0.039840 -0.038670 
#    y 0.039840 2.102120 -0.034270 
#    z -0.038670 -0.034270 2.063280 
# 
# From -- ./inp_files/473261.got.cif
#   From: 2010.05.17/outbox.cif.g08.bks.cpg/sg2_237_cif.got.tgz:473261.got - 2010.06.03 11:33:40.
