data_PCOD9092838
_publ_section_title
;
Structure prediction by ZEFSAII (Michael W. Deem and Ramdas Pophale) SiO2 
 PCOD9092838
Probable space group: P -1
;
_chemical_formula_sum "Si O2"
_cell_formula_units_Z 16
_cell_length_a 13.220000
_cell_length_b 8.036855
_cell_length_c 13.126608
_cell_angle_alpha 75.114583
_cell_angle_beta 36.089299
_cell_angle_gamma 98.178942
_cell_volume 626.325402
_symmetry_space_group_name_H-M "P -1"
_symmetry_group_IT_number 2
_symmetry_cell_setting 'triclinic'
loop_
_space_group_symop_operation_xyz
x,y,z
-x,-y,-z
loop_
_atom_site_type_symbol
_atom_site_label
_atom_site_fract_x
_atom_site_fract_y
_atom_site_fract_z
Si Si1 0.590142 0.608183 0.741893
Si Si2 0.738909 0.735030 0.257708
Si Si3 0.828563 0.560050 0.025179
Si Si4 0.012293 0.177587 0.748988
Si Si5 0.553698 0.977412 0.132944
Si Si6 0.344948 0.910961 0.737841
Si Si7 0.632191 0.354804 0.898305
Si Si8 0.055478 0.617193 0.630921
O O1 0.825095 0.787706 0.475361
O O2 0.539839 0.682674 0.872825
O O3 0.402840 0.531741 0.824589
O O4 0.582440 0.408194 0.822663
O O5 0.500000 0.500000 0.500000
O O6 0.872742 0.794618 0.242826
O O7 0.853068 0.704288 0.076573
O O8 0.285518 0.076007 0.766088
O O9 0.188947 0.649734 0.892067
O O10 0.004702 0.673058 0.772930
O O11 0.018330 0.389879 0.710376
O O12 0.760123 0.973532 0.969879
O O13 0.568193 0.069217 0.221261
O O14 0.620702 0.146242 0.960870
O O15 0.297879 0.787407 0.367990
O O16 0.500000 0.000000 0.500000
O O17 0.871014 0.562147 0.709651
#
# Coordination Sequence:
#
# PCOD9092838 Si02
#       8
#     2   2   2   2   2   2   2   2
#     4  10  19  42  74  99 140 185 237 304 364 424
#     4  12  24  40  73 112 144 189 245 292 359 439
#     4  11  23  48  71 106 147 195 237 300 364 428
#     4  11  23  43  68 103 144 183 242 298 360 430
#     4  11  24  44  64 103 142 186 239 295 356 434
#     4  12  23  42  72 102 148 193 237 298 361 424
#     4   9  21  44  71  99 136 192 239 293 374 426
#     4  10  23  45  69  97 149 190 237 296 363 429
#
# _framework density 25.545826999999999
#
# number of rings (size 3 to 8) (size 9 to 14) (size 15 to 20)
#    0.000    1.250    6.250    0.750    0.000    4.000 
#    2.250    8.125    0.000    0.000    0.000    0.000 
#    0.000    0.000    0.000    0.000    0.000    0.000 
#
# Total GULP energy -89524.380233 kJ/mol
# GULP energy per Si atom -5595.273765 kJ/mol
# Density = 2.548768 g / cm^3
# Si number density = 25.545827 Si / 1000 Ang^3
#
#
#
# Elastic Constant Matrix: (Units=GPa)
#
#
# Indices 1 2 3 4 5 6 
#
# 1 157.0067 62.1877 54.5918 -13.8234 -3.7707 -13.8804
# 2 62.1877 117.3983 55.9481 7.8661 -8.5856 -0.6720
# 3 54.5918 55.9481 197.6900 -7.3272 -31.7103 20.9218
# 4 -13.8234 7.8661 -7.3272 42.8110 -3.9700 1.2037
# 5 -3.7707 -8.5856 -31.7103 -3.9700 29.8139 -0.8326
# 6 -13.8804 -0.6720 20.9218 1.2037 -0.8326 39.6843
#
#
#
# Elastic Compliance Matrix: (Units=1/GPa)
#
#
# Indices 1 2 3 4 5 6 
#
# 1 0.009370 -0.004358 -0.001917 0.003238 -0.001564 0.004083
# 2 -0.004358 0.012260 -0.002457 -0.004100 -0.000177 0.000099
# 3 -0.001917 -0.002457 0.008138 0.002091 0.007847 -0.004902
# 4 0.003238 -0.004100 0.002091 0.025989 0.004893 -0.000725
# 5 -0.001564 -0.000177 0.007847 0.004893 0.042180 -0.003951
# 6 0.004083 0.000099 -0.004902 -0.000725 -0.003951 0.029152
#
#
# Mechanical properties :
#
#
# Convention : Reuss Voigt Hill
#
# Bulk Modulus (GPa) = 81.27516 90.83891 86.05704
# Shear Modulus (GPa) = 33.63467 42.41967 38.02717
#
# Velocity S-wave (km/s) = 3.63249 4.07938 3.86241
# Velocity P-wave (km/s) = 7.03405 7.60427 7.32471
#
# Compressibility (1/GPa) = 0.01230388
#
# Stress axis : x y z
#
# Youngs Moduli (GPa) = 106.71820 81.56792 122.87688
#
# Poissons Ratio (x) = 0.35547 0.23559
# Poissons Ratio (y) = 0.46507 0.30191
# Poissons Ratio (z) = 0.20461 0.20042
#
# Static dielectric constant tensor:
#      x y z
#    x 2.040120 -0.040140 -0.018600 
#    y -0.040140 2.072300 -0.013890 
#    z -0.018600 -0.013890 2.015650 
# 
# From -- ./inp_files/452347.got.cif
#   From: 2010.05.17/outbox.cif.g08.bks.cpg/sg2_227_cif.got.tgz:452347.got - 2010.06.03 11:33:40.
