data_PCOD9093910
_publ_section_title
;
Structure prediction by ZEFSAII (Michael W. Deem and Ramdas Pophale) SiO2 
 PCOD9093910
Probable space group: P -1
;
_chemical_formula_sum "Si O2"
_cell_formula_units_Z 16
_cell_length_a 9.186334
_cell_length_b 11.249779
_cell_length_c 15.248692
_cell_angle_alpha 129.479344
_cell_angle_beta 37.837690
_cell_angle_gamma 103.523787
_cell_volume 614.804786
_symmetry_space_group_name_H-M "P -1"
_symmetry_group_IT_number 2
_symmetry_cell_setting 'triclinic'
loop_
_space_group_symop_operation_xyz
x,y,z
-x,-y,-z
loop_
_atom_site_type_symbol
_atom_site_label
_atom_site_fract_x
_atom_site_fract_y
_atom_site_fract_z
Si Si1 0.067078 0.154056 0.058722
Si Si2 0.791460 0.996162 0.846732
Si Si3 0.162816 0.692688 0.294366
Si Si4 0.201032 0.564396 0.404221
Si Si5 0.244129 0.234079 0.636878
Si Si6 0.639357 0.106900 0.790072
Si Si7 0.864256 0.851176 0.165308
Si Si8 0.568309 0.428153 0.534542
O O1 0.903848 0.275682 0.278326
O O2 0.392982 0.071063 0.885668
O O3 0.019361 0.251764 0.032076
O O4 0.000000 0.000000 0.000000
O O5 0.037162 0.786265 0.602108
O O6 0.696034 0.136436 0.875922
O O7 0.952474 0.060338 0.862086
O O8 0.500000 0.000000 0.000000
O O9 0.007159 0.683300 0.277416
O O10 0.238731 0.557764 0.277757
O O11 0.412947 0.721072 0.161602
O O12 0.917391 0.904873 0.539106
O O13 0.442079 0.471415 0.323045
O O14 0.000000 0.500000 0.500000
O O15 0.127587 0.254186 0.800430
O O16 0.405905 0.332936 0.589540
O O17 0.517660 0.013903 0.393399
O O18 0.500000 0.500000 0.500000
#
# Coordination Sequence:
#
# PCOD9093910 Si02
#       8
#     2   2   2   2   2   2   2   2
#     4  12  22  41  65 102 131 170 217 277 323 384
#     4  11  21  38  63  97 129 161 208 267 324 380
#     4  10  20  36  62  94 129 170 209 263 325 385
#     4  11  24  41  64  92 124 172 217 260 321 395
#     4  11  21  40  63  99 133 169 217 264 325 392
#     4  10  20  33  60  95 132 161 210 262 323 377
#     4  11  22  36  69  99 133 167 215 270 328 380
#     4  12  26  44  67  93 132 176 221 268 330 397
#
# _framework density 26.024519999999999
#
# number of rings (size 3 to 8) (size 9 to 14) (size 15 to 20)
#    0.000    1.000    5.000    2.250    1.750    3.000 
#    0.000    0.625    2.750    2.250    0.000    0.000 
#    0.000    0.000    0.000    0.000    0.000    0.000 
#
# Total GULP energy -89287.282129 kJ/mol
# GULP energy per Si atom -5580.455133 kJ/mol
# Density = 2.596529 g / cm^3
# Si number density = 26.024520 Si / 1000 Ang^3
#
#
#
# Elastic Constant Matrix: (Units=GPa)
#
#
# Indices 1 2 3 4 5 6 
#
# 1 159.7354 46.2098 32.0475 -21.2667 11.2352 -36.7281
# 2 46.2098 120.2899 31.2705 -33.0367 13.5268 -35.7961
# 3 32.0475 31.2705 77.8101 -15.5223 2.2488 -7.1293
# 4 -21.2667 -33.0367 -15.5223 41.5791 -8.3303 0.1936
# 5 11.2352 13.5268 2.2488 -8.3303 35.1830 -13.3204
# 6 -36.7281 -35.7961 -7.1293 0.1936 -13.3204 49.4631
#
#
#
# Elastic Compliance Matrix: (Units=1/GPa)
#
#
# Indices 1 2 3 4 5 6 
#
# 1 0.008580 0.000120 -0.002281 0.003728 0.000621 0.006282
# 2 0.000120 0.015268 -0.002968 0.011253 0.001096 0.010962
# 3 -0.002281 -0.002968 0.015304 0.002381 0.000927 -0.001395
# 4 0.003728 0.011253 0.002381 0.037373 0.008224 0.013323
# 5 0.000621 0.001096 0.000927 0.008224 0.033634 0.010413
# 6 0.006282 0.010962 -0.001395 0.013323 0.010413 0.035366
#
#
# Mechanical properties :
#
#
# Convention : Reuss Voigt Hill
#
# Bulk Modulus (GPa) = 34.60763 64.09901 49.35332
# Shear Modulus (GPa) = 30.22724 41.79888 36.01306
#
# Velocity S-wave (km/s) = 3.41176 4.01201 3.72400
# Velocity P-wave (km/s) = 5.37095 6.79304 6.12342
#
# Compressibility (1/GPa) = 0.02889536
#
# Stress axis : x y z
#
# Youngs Moduli (GPa) = 116.54679 65.49608 65.34115
#
# Poissons Ratio (x) = -0.00787 0.14904
# Poissons Ratio (y) = -0.01401 0.19392
# Poissons Ratio (z) = 0.26584 0.19438
#
# Static dielectric constant tensor:
#      x y z
#    x 2.398270 -0.333050 -0.372700 
#    y -0.333050 2.218820 0.316250 
#    z -0.372700 0.316250 2.752360 
# 
# From -- ./inp_files/499276.got.cif
#   From: 2010.05.17/outbox.cif.g08.bks.cpg/sg2_250_cif.got.tgz:499276.got - 2010.06.03 11:33:40.
