data_PCOD9093986
_publ_section_title
;
Structure prediction by ZEFSAII (Michael W. Deem and Ramdas Pophale) SiO2 
 PCOD9093986
Probable space group: P -1
;
_chemical_formula_sum "Si O2"
_cell_formula_units_Z 15
_cell_length_a 6.374756
_cell_length_b 13.147085
_cell_length_c 8.810219
_cell_angle_alpha 84.265889
_cell_angle_beta 75.577754
_cell_angle_gamma 64.157732
_cell_volume 643.566154
_symmetry_space_group_name_H-M "P -1"
_symmetry_group_IT_number 2
_symmetry_cell_setting 'triclinic'
loop_
_space_group_symop_operation_xyz
x,y,z
-x,-y,-z
loop_
_atom_site_type_symbol
_atom_site_label
_atom_site_fract_x
_atom_site_fract_y
_atom_site_fract_z
Si Si1 0.677367 0.258631 0.446745
Si Si2 0.749124 0.914066 0.043304
Si Si3 0.777233 0.094368 0.205882
Si Si4 0.000000 0.500000 0.000000
Si Si5 0.691476 0.450251 0.210198
Si Si6 0.772342 0.323735 0.734848
Si Si7 0.139364 0.412187 0.621652
Si Si8 0.427735 0.258321 0.002314
O O1 0.741028 0.139199 0.376504
O O2 0.737621 0.337697 0.305941
O O3 0.804248 0.257765 0.580541
O O4 0.399453 0.332275 0.525085
O O5 0.697056 0.804703 0.065748
O O6 0.781507 0.973338 0.182621
O O7 0.978058 0.903780 0.903576
O O8 0.500000 0.000000 0.000000
O O9 0.548370 0.187198 0.141773
O O10 0.811741 0.433333 0.029717
O O11 0.776359 0.617548 0.957394
O O12 0.425220 0.544600 0.267594
O O13 0.842453 0.518584 0.242030
O O14 0.649729 0.268595 0.876932
O O15 0.013996 0.335432 0.707936
O O16 0.000000 0.500000 0.500000
#
# Coordination Sequence:
#
# PCOD9093986 Si02
#       8
#     2   2   2   1   2   2   2   2
#     4  11  21  34  56  86 115 151 209 246 282 353
#     4   9  20  43  66  87 117 156 199 255 310 352
#     4  10  22  38  67  93 111 154 211 253 295 353
#     4  10  22  34  56  90 126 154 188 242 302 354
#     4  10  20  34  50  78 117 159 197 237 286 352
#     4  10  21  36  52  81 120 161 193 236 297 353
#     4  11  19  33  54  74 114 166 197 231 288 350
#     4  10  22  39  60  88 128 159 195 246 303 362
#
# _framework density 23.30763
#
# number of rings (size 3 to 8) (size 9 to 14) (size 15 to 20)
#    0.000    1.867    2.667    1.600    1.867    6.400 
#    0.000    5.333    0.000    8.000    0.000    0.000 
#    0.000    0.000    0.000    0.000    0.000    0.000 
#
# Total GULP energy -83622.052029 kJ/mol
# GULP energy per Si atom -5574.803469 kJ/mol
# Density = 2.325458 g / cm^3
# Si number density = 23.307630 Si / 1000 Ang^3
#
#
#
# Elastic Constant Matrix: (Units=GPa)
#
#
# Indices 1 2 3 4 5 6 
#
# 1 112.9304 37.5852 26.7594 6.3689 -16.1538 17.5507
# 2 37.5852 45.8048 34.7752 16.4714 -16.0745 13.7604
# 3 26.7594 34.7752 74.0622 20.0358 -14.4482 18.6531
# 4 6.3689 16.4714 20.0358 32.1491 7.4092 -2.7861
# 5 -16.1538 -16.0745 -14.4482 7.4092 39.2007 -10.2805
# 6 17.5507 13.7604 18.6531 -2.7861 -10.2805 50.0357
#
#
#
# Elastic Compliance Matrix: (Units=1/GPa)
#
#
# Indices 1 2 3 4 5 6 
#
# 1 0.012544 -0.011300 0.000166 0.003169 -0.000329 -0.001245
# 2 -0.011300 0.055525 -0.010908 -0.023829 0.017280 -0.005017
# 3 0.000166 -0.010908 0.023917 -0.010991 0.005032 -0.005553
# 4 0.003169 -0.023829 -0.010991 0.055036 -0.020730 0.008344
# 5 -0.000329 0.017280 0.005032 -0.020730 0.038285 0.000199
# 6 -0.001245 -0.005017 -0.005553 0.008344 0.000199 0.024378
#
#
# Mechanical properties :
#
#
# Convention : Reuss Voigt Hill
#
# Bulk Modulus (GPa) = 20.87571 47.89301 34.38436
# Shear Modulus (GPa) = 18.53657 33.18896 25.86276
#
# Velocity S-wave (km/s) = 2.82317 3.77762 3.33472
# Velocity P-wave (km/s) = 4.42754 6.29445 5.44165
#
# Compressibility (1/GPa) = 0.04790257
#
# Stress axis : x y z
#
# Youngs Moduli (GPa) = 79.71719 18.00990 41.81057
#
# Poissons Ratio (x) = 0.20351 -0.00692
# Poissons Ratio (y) = 0.90079 0.45606
# Poissons Ratio (z) = -0.01320 0.19645
#
# Static dielectric constant tensor:
#      x y z
#    x 1.962040 0.031650 0.040050 
#    y 0.031650 1.864730 -0.047400 
#    z 0.040050 -0.047400 1.414710 
# 
# From -- ./inp_files/364435.got.cif
#   From: 2010.05.17/outbox.cif.g08.bks.cpg/sg2_183_cif.got.tgz:364435.got - 2010.06.03 11:33:40.
