data_PCOD9093781
_publ_section_title
;
Structure prediction by ZEFSAII (Michael W. Deem and Ramdas Pophale) SiO2 
 PCOD9093781
Probable space group: P -1
;
_chemical_formula_sum "Si O2"
_cell_formula_units_Z 16
_cell_length_a 9.610505
_cell_length_b 13.750433
_cell_length_c 11.937264
_cell_angle_alpha 48.527440
_cell_angle_beta 58.763565
_cell_angle_gamma 31.155148
_cell_volume 606.762081
_symmetry_space_group_name_H-M "P -1"
_symmetry_group_IT_number 2
_symmetry_cell_setting 'triclinic'
loop_
_space_group_symop_operation_xyz
x,y,z
-x,-y,-z
loop_
_atom_site_type_symbol
_atom_site_label
_atom_site_fract_x
_atom_site_fract_y
_atom_site_fract_z
Si Si1 0.356630 0.026859 0.147494
Si Si2 0.156353 0.501406 0.189524
Si Si3 0.473158 0.673641 0.040838
Si Si4 0.811022 0.237991 0.255171
Si Si5 0.994148 0.863217 0.506150
Si Si6 0.710489 0.579475 0.264763
Si Si7 0.222659 0.089533 0.823543
Si Si8 0.405646 0.152377 0.522296
O O1 0.496884 0.794542 0.266291
O O2 0.468656 0.061055 0.161829
O O3 0.039424 0.199599 0.156334
O O4 0.500000 0.000000 0.000000
O O5 0.274180 0.359133 0.360011
O O6 0.958992 0.520778 0.200497
O O7 0.975212 0.735726 0.130367
O O8 0.375941 0.387951 0.090944
O O9 0.593337 0.627779 0.151614
O O10 0.520265 0.486684 0.160743
O O11 0.227628 0.932660 0.934757
O O12 0.833571 0.206333 0.403685
O O13 0.918645 0.029540 0.327557
O O14 0.167369 0.629112 0.572129
O O15 0.695109 0.010881 0.560940
O O16 0.192543 0.203136 0.643139
O O17 0.500000 0.000000 0.500000
#
# Coordination Sequence:
#
# PCOD9093781 Si02
#       8
#     2   2   2   2   2   2   2   2
#     4  11  20  33  58  94 123 150 195 251 309 348
#     4  11  23  35  60  90 119 158 197 253 306 345
#     4  11  21  35  59  88 119 155 193 251 306 352
#     4  10  22  37  60  86 121 164 197 241 308 360
#     4  10  21  40  58  83 122 166 199 241 297 366
#     4  10  20  33  57  90 123 149 198 247 306 355
#     4  11  22  36  57  90 124 147 199 258 298 353
#     4  12  21  38  62  85 117 164 204 247 299 350
#
# _framework density 26.369478999999998
#
# number of rings (size 3 to 8) (size 9 to 14) (size 15 to 20)
#    0.000    1.250    5.000    2.250    1.750    0.500 
#    0.000    0.625    0.000    0.750    0.000    0.000 
#    0.000    0.000    0.000    0.000    0.000    0.000 
#
# Total GULP energy -89227.991660 kJ/mol
# GULP energy per Si atom -5576.749479 kJ/mol
# Density = 2.630946 g / cm^3
# Si number density = 26.369479 Si / 1000 Ang^3
#
#
#
# Elastic Constant Matrix: (Units=GPa)
#
#
# Indices 1 2 3 4 5 6 
#
# 1 64.7583 32.7871 29.2679 4.4037 -14.6467 -7.9873
# 2 32.7871 112.0069 33.3140 -24.9717 -23.4919 35.3505
# 3 29.2679 33.3140 105.3342 -28.8483 -19.4991 12.2114
# 4 4.4037 -24.9717 -28.8483 55.2508 13.9664 -12.6985
# 5 -14.6467 -23.4919 -19.4991 13.9664 39.7110 -6.2153
# 6 -7.9873 35.3505 12.2114 -12.6985 -6.2153 30.3411
#
#
#
# Elastic Compliance Matrix: (Units=1/GPa)
#
#
# Indices 1 2 3 4 5 6 
#
# 1 0.034665 -0.018237 -0.009142 -0.010149 0.005933 0.031021
# 2 -0.018237 0.025667 0.002976 0.006456 0.002533 -0.032682
# 3 -0.009142 0.002976 0.014332 0.007254 0.001578 -0.008282
# 4 -0.010149 0.006456 0.007254 0.026409 -0.006171 -0.003324
# 5 0.005933 0.002533 0.001578 -0.006171 0.032122 0.001974
# 6 0.031021 -0.032682 -0.008282 -0.003324 0.001974 0.081550
#
#
# Mechanical properties :
#
#
# Convention : Reuss Voigt Hill
#
# Bulk Modulus (GPa) = 38.67405 52.53749 45.60577
# Shear Modulus (GPa) = 18.37079 37.50928 27.94004
#
# Velocity S-wave (km/s) = 2.64231 3.77563 3.25862
# Velocity P-wave (km/s) = 4.89971 6.24292 5.61165
#
# Compressibility (1/GPa) = 0.02585713
#
# Stress axis : x y z
#
# Youngs Moduli (GPa) = 28.84723 38.96060 69.77594
#
# Poissons Ratio (x) = 0.71054 0.63787
# Poissons Ratio (y) = 0.52610 -0.20762
# Poissons Ratio (z) = 0.26371 -0.11593
#
# Static dielectric constant tensor:
#      x y z
#    x 2.184820 -0.016740 0.026940 
#    y -0.016740 2.033760 -0.054640 
#    z 0.026940 -0.054640 2.226010 
# 
# From -- ./inp_files/432573.got.cif
#   From: 2010.05.17/outbox.cif.g08.bks.cpg/sg2_217_cif.got.tgz:432573.got - 2010.06.03 11:33:40.
