data_PCOD9093398
_publ_section_title
;
Structure prediction by ZEFSAII (Michael W. Deem and Ramdas Pophale) SiO2 
 PCOD9093398
Probable space group: P -1
;
_chemical_formula_sum "Si O2"
_cell_formula_units_Z 16
_cell_length_a 16.335698
_cell_length_b 8.960081
_cell_length_c 11.850494
_cell_angle_alpha 76.711887
_cell_angle_beta 141.735604
_cell_angle_gamma 128.626884
_cell_volume 707.390627
_symmetry_space_group_name_H-M "P -1"
_symmetry_group_IT_number 2
_symmetry_cell_setting 'triclinic'
loop_
_space_group_symop_operation_xyz
x,y,z
-x,-y,-z
loop_
_atom_site_type_symbol
_atom_site_label
_atom_site_fract_x
_atom_site_fract_y
_atom_site_fract_z
Si Si1 0.146390 0.916219 0.949396
Si Si2 0.602215 0.776804 0.394296
Si Si3 0.109961 0.391633 0.607435
Si Si4 0.787853 0.678592 0.471112
Si Si5 0.190106 0.323216 0.946329
Si Si6 0.117308 0.941922 0.163081
Si Si7 0.497473 0.226634 0.129708
Si Si8 0.337671 0.980197 0.788506
O O1 0.141477 0.874973 0.083639
O O2 0.329376 0.004904 0.061937
O O3 0.165971 0.120454 0.931236
O O4 0.938586 0.704539 0.702805
O O5 0.754807 0.800389 0.486841
O O6 0.676570 0.852739 0.588657
O O7 0.616213 0.939038 0.304153
O O8 0.388965 0.524892 0.193535
O O9 0.115936 0.244236 0.561244
O O10 0.182242 0.407794 0.806090
O O11 0.279933 0.635721 0.686603
O O12 0.887276 0.254550 0.393074
O O13 0.571753 0.430378 0.252528
O O14 0.016877 0.240875 0.851822
O O15 0.000000 0.000000 0.000000
O O16 0.391426 0.163499 0.905343
O O17 0.500000 0.000000 0.000000
#
# Coordination Sequence:
#
# PCOD9093398 Si02
#       8
#     2   2   2   2   2   2   2   2
#     4  11  20  34  53  87 123 156 185 229 289 354
#     4  12  21  37  58  87 124 159 190 238 294 343
#     4  10  21  36  58  87 111 149 189 241 295 350
#     4  10  20  32  60  88 119 149 184 240 296 351
#     4  11  20  33  55  86 123 154 186 230 295 356
#     4  10  22  34  52  86 127 161 188 230 285 358
#     4  10  21  37  59  88 115 151 190 243 297 350
#     4  12  25  40  60  86 119 155 195 240 295 351
#
# _framework density 22.618338000000001
#
# number of rings (size 3 to 8) (size 9 to 14) (size 15 to 20)
#    0.750    0.500    7.500    0.000    1.750    6.000 
#    0.000    0.000    0.000    0.750    0.000    2.625 
#    0.000    0.000    0.000    0.000    0.000    0.000 
#
# Total GULP energy -89095.980410 kJ/mol
# GULP energy per Si atom -5568.498776 kJ/mol
# Density = 2.256686 g / cm^3
# Si number density = 22.618338 Si / 1000 Ang^3
#
#
#
# Elastic Constant Matrix: (Units=GPa)
#
#
# Indices 1 2 3 4 5 6 
#
# 1 78.4874 1.9859 27.6958 -2.2199 -5.0243 26.2908
# 2 1.9859 -3.1766 7.6727 11.2148 -16.0264 -3.1348
# 3 27.6958 7.6727 158.1767 17.8077 -21.9355 1.9754
# 4 -2.2199 11.2148 17.8077 30.6602 13.5319 -1.7777
# 5 -5.0243 -16.0264 -21.9355 13.5319 44.7415 -7.1004
# 6 26.2908 -3.1348 1.9754 -1.7777 -7.1004 20.3724
#
#
#
# Elastic Compliance Matrix: (Units=1/GPa)
#
#
# Indices 1 2 3 4 5 6 
#
# 1 0.022696 0.012131 -0.003643 -0.003013 0.001780 -0.026711
# 2 0.012131 -0.038217 -0.007511 0.030731 -0.029830 -0.028523
# 3 -0.003643 -0.007511 0.007908 -0.002876 0.002168 0.003283
# 4 -0.003013 0.030731 -0.002876 0.021454 0.004742 0.012421
# 5 0.001780 -0.029830 0.002168 0.004742 0.011044 -0.002835
# 6 -0.026711 -0.028523 0.003283 0.012421 -0.002835 0.078946
#
#
# Mechanical properties :
#
#
# Convention : Reuss Voigt Hill
#
# Bulk Modulus (GPa) = -176.73313 34.24403 -71.24455
# Shear Modulus (GPa) = 50.00561 32.23037 41.11799
#
# Velocity S-wave (km/s) = 4.70706 3.77897 4.26832
# Velocity P-wave (km/s) = 6.98318 5.84924 2.69733
#
# Compressibility (1/GPa) = -0.00565825
#
# Stress axis : x y z
#
# Youngs Moduli (GPa) = 44.06152 -26.16633 126.45959
#
# Poissons Ratio (x) = 0.31743 0.46065
# Poissons Ratio (y) = -0.53451 0.94979
# Poissons Ratio (z) = 0.16050 -0.19653
#
# Static dielectric constant tensor:
#      x y z
#    x 2.003750 -0.090970 -0.033380 
#    y -0.090970 1.980160 0.036200 
#    z -0.033380 0.036200 1.859090 
# 
# From -- ./inp_files/431600.got.cif
#   From: 2010.05.17/outbox.cif.g08.bks.cpg/sg2_216_cif.got.tgz:431600.got - 2010.06.03 11:33:40.
