data_PCOD9093317
_publ_section_title
;
Structure prediction by ZEFSAII (Michael W. Deem and Ramdas Pophale) SiO2 
 PCOD9093317
Probable space group: P -1
;
_chemical_formula_sum "Si O2"
_cell_formula_units_Z 14
_cell_length_a 7.332254
_cell_length_b 8.227249
_cell_length_c 12.362554
_cell_angle_alpha 81.711847
_cell_angle_beta 108.785407
_cell_angle_gamma 126.378783
_cell_volume 567.364745
_symmetry_space_group_name_H-M "P -1"
_symmetry_group_IT_number 2
_symmetry_cell_setting 'triclinic'
loop_
_space_group_symop_operation_xyz
x,y,z
-x,-y,-z
loop_
_atom_site_type_symbol
_atom_site_label
_atom_site_fract_x
_atom_site_fract_y
_atom_site_fract_z
Si Si1 0.175636 0.761576 0.119467
Si Si2 0.275543 0.827975 0.575999
Si Si3 0.382203 0.166186 0.190320
Si Si4 0.170070 0.700344 0.870292
Si Si5 0.712089 0.934463 0.272365
Si Si6 0.469364 0.471657 0.682372
Si Si7 0.233345 0.562758 0.435687
O O1 0.444750 0.840926 0.190290
O O2 0.999498 0.540642 0.158383
O O3 0.158292 0.942474 0.137901
O O4 0.150416 0.735829 0.988511
O O5 0.494339 0.864638 0.681577
O O6 0.280489 0.776150 0.457275
O O7 0.042853 0.617058 0.597088
O O8 0.249371 0.998515 0.600005
O O9 0.569507 0.236027 0.121280
O O10 0.389939 0.356209 0.216186
O O11 0.136489 0.856014 0.784472
O O12 0.727431 0.747406 0.282894
O O13 0.345159 0.522604 0.563733
O O14 0.641904 0.446029 0.644618
#
# Coordination Sequence:
#
# PCOD9093317 Si02
#       7
#     2   2   2   2   2   2   2
#     4   9  18  36  61  81 101 146 184 226 263 322
#     4   8  17  34  57  76 102 147 199 215 252 311
#     4   9  18  35  54  86 109 143 178 226 268 326
#     4   9  18  36  60  81 106 139 189 222 263 331
#     4  10  20  32  55  86 109 143 175 230 269 324
#     4  10  21  33  52  83 121 141 174 225 290 307
#     4   9  18  36  55  75 111 152 187 223 256 330
#
# _framework density 24.675484999999998
#
# number of rings (size 3 to 8) (size 9 to 14) (size 15 to 20)
#    0.000    3.143    0.000    1.714    4.000    1.143 
#    2.571    2.857    0.000    3.429    0.000    0.000 
#    0.000    0.000    0.000    0.000    0.000    0.000 
#
# Total GULP energy -78091.077073 kJ/mol
# GULP energy per Si atom -5577.934077 kJ/mol
# Density = 2.461932 g / cm^3
# Si number density = 24.675485 Si / 1000 Ang^3
#
#
#
# Elastic Constant Matrix: (Units=GPa)
#
#
# Indices 1 2 3 4 5 6 
#
# 1 39.2319 28.3142 22.3043 -1.1904 -20.2793 -2.6926
# 2 28.3142 227.1082 62.3556 17.5164 -27.7618 -21.1686
# 3 22.3043 62.3556 60.0492 -2.3246 -17.2185 -11.2752
# 4 -1.1904 17.5164 -2.3246 44.9611 -1.0442 -13.6328
# 5 -20.2793 -27.7618 -17.2185 -1.0442 24.4507 5.9736
# 6 -2.6926 -21.1686 -11.2752 -13.6328 5.9736 33.9078
#
#
#
# Elastic Compliance Matrix: (Units=1/GPa)
#
#
# Indices 1 2 3 4 5 6 
#
# 1 0.048345 0.000318 -0.009161 -0.000094 0.035289 -0.005263
# 2 0.000318 0.006711 -0.006145 -0.002694 0.003318 0.000504
# 3 -0.009161 -0.006145 0.029243 0.005795 0.004635 0.006673
# 4 -0.000094 -0.002694 0.005795 0.026967 -0.000639 0.011192
# 5 0.035289 0.003318 0.004635 -0.000639 0.079071 -0.007772
# 6 -0.005263 0.000504 0.006673 0.011192 -0.007772 0.037476
#
#
# Mechanical properties :
#
#
# Convention : Reuss Voigt Hill
#
# Bulk Modulus (GPa) = 18.40792 61.37085 39.88938
# Shear Modulus (GPa) = 18.12270 34.89161 26.50715
#
# Velocity S-wave (km/s) = 2.71300 3.76442 3.28110
# Velocity P-wave (km/s) = 4.15813 6.61964 5.52764
#
# Compressibility (1/GPa) = 0.05432444
#
# Stress axis : x y z
#
# Youngs Moduli (GPa) = 20.68465 149.00533 34.19566
#
# Poissons Ratio (x) = -0.04743 0.31325
# Poissons Ratio (y) = -0.00658 0.21015
# Poissons Ratio (z) = 0.18948 0.91570
#
# Static dielectric constant tensor:
#      x y z
#    x 2.046250 -0.047700 -0.034940 
#    y -0.047700 2.081320 0.003660 
#    z -0.034940 0.003660 1.968430 
# 
# From -- ./inp_files/378781.got.cif
#   From: 2010.05.17/outbox.cif.g08.bks.cpg/sg2_190_cif.got.tgz:378781.got - 2010.06.03 11:33:40.
