data_PCOD9093283
_publ_section_title
;
Structure prediction by ZEFSAII (Michael W. Deem and Ramdas Pophale) SiO2 
 PCOD9093283
Probable space group: P -1
;
_chemical_formula_sum "Si O2"
_cell_formula_units_Z 16
_cell_length_a 12.108038
_cell_length_b 8.850016
_cell_length_c 10.548459
_cell_angle_alpha 99.968764
_cell_angle_beta 66.588018
_cell_angle_gamma 59.464821
_cell_volume 786.478179
_symmetry_space_group_name_H-M "P -1"
_symmetry_group_IT_number 2
_symmetry_cell_setting 'triclinic'
loop_
_space_group_symop_operation_xyz
x,y,z
-x,-y,-z
loop_
_atom_site_type_symbol
_atom_site_label
_atom_site_fract_x
_atom_site_fract_y
_atom_site_fract_z
Si Si1 0.138639 0.414047 0.258270
Si Si2 0.155845 0.524260 0.551099
Si Si3 0.268155 0.929475 0.509462
Si Si4 0.500716 0.678255 0.572015
Si Si5 0.986674 0.980231 0.654129
Si Si6 0.296993 0.988468 0.229215
Si Si7 0.481195 0.493120 0.218863
Si Si8 0.633738 0.582658 0.989026
O O1 0.157278 0.488344 0.394251
O O2 0.238546 0.179000 0.203407
O O3 0.210889 0.451291 0.116718
O O4 0.961309 0.503084 0.338597
O O5 0.325713 0.394276 0.516061
O O6 0.078167 0.755126 0.626308
O O7 0.095882 0.031406 0.656974
O O8 0.351801 0.708347 0.376145
O O9 0.261607 0.041382 0.403864
O O10 0.000000 0.000000 0.500000
O O11 0.500000 0.500000 0.500000
O O12 0.384033 0.867722 0.563901
O O13 0.461701 0.685335 0.738751
O O14 0.807372 0.075852 0.772810
O O15 0.479989 0.813589 0.105713
O O16 0.402057 0.485318 0.130869
O O17 0.621605 0.485484 0.103608
#
# Coordination Sequence:
#
# PCOD9093283 Si02
#       8
#     2   2   2   2   2   2   2   2
#     4  10  19  31  48  69 104 125 158 199 234 286
#     4  10  18  30  48  76  93 123 160 197 246 277
#     4   9  16  29  49  74  95 121 159 202 245 276
#     4  10  16  29  52  75  96 117 159 206 241 281
#     4   9  15  27  45  72  97 114 151 203 242 267
#     4   9  19  28  45  72  97 131 158 191 237 285
#     4   9  17  27  49  74  91 121 160 205 236 276
#     4  10  17  30  46  70  99 126 161 194 240 281
#
# _framework density 20.343857
#
# number of rings (size 3 to 8) (size 9 to 14) (size 15 to 20)
#    0.000    2.500    3.750    0.375    0.000    0.000 
#    0.000    0.625    0.000    7.500    0.000    0.000 
#    0.000    0.000    0.000    0.000    0.000    0.000 
#
# Total GULP energy -89105.337773 kJ/mol
# GULP energy per Si atom -5569.083611 kJ/mol
# Density = 2.029755 g / cm^3
# Si number density = 20.343857 Si / 1000 Ang^3
#
#
#
# Elastic Constant Matrix: (Units=GPa)
#
#
# Indices 1 2 3 4 5 6 
#
# 1 108.6660 18.5649 28.5773 -14.8315 -39.7612 -15.1441
# 2 18.5649 43.0337 18.6362 -9.0887 -9.9169 -9.1734
# 3 28.5773 18.6362 68.5490 -16.0640 -35.5502 8.7765
# 4 -14.8315 -9.0887 -16.0640 21.7563 12.1777 -1.0890
# 5 -39.7612 -9.9169 -35.5502 12.1777 39.0827 -6.6737
# 6 -15.1441 -9.1734 8.7765 -1.0890 -6.6737 25.6693
#
#
#
# Elastic Compliance Matrix: (Units=1/GPa)
#
#
# Indices 1 2 3 4 5 6 
#
# 1 0.021030 0.000147 0.003386 0.002835 0.026767 0.018381
# 2 0.000147 0.031742 -0.008480 0.007449 0.000701 0.014828
# 3 0.003386 -0.008480 0.031839 0.006717 0.027390 -0.004513
# 4 0.002835 0.007449 0.006717 0.060265 -0.007439 0.002660
# 5 0.026767 0.000701 0.027390 -0.007439 0.085094 0.028485
# 6 0.018381 0.014828 -0.004513 0.002660 0.028485 0.064162
#
#
# Mechanical properties :
#
#
# Convention : Reuss Voigt Hill
#
# Bulk Modulus (GPa) = 13.38406 39.08951 26.23678
# Shear Modulus (GPa) = 15.20070 27.59968 21.40019
#
# Velocity S-wave (km/s) = 2.73644 3.68728 3.24686
# Velocity P-wave (km/s) = 4.07153 6.11426 5.19430
#
# Compressibility (1/GPa) = 0.07471577
#
# Stress axis : x y z
#
# Youngs Moduli (GPa) = 47.55127 31.50368 31.40808
#
# Poissons Ratio (x) = -0.00462 -0.10634
# Poissons Ratio (y) = -0.00698 0.26635
# Poissons Ratio (z) = -0.16100 0.26716
#
# Static dielectric constant tensor:
#      x y z
#    x 1.784760 0.011790 -0.012070 
#    y 0.011790 1.801870 -0.002610 
#    z -0.012070 -0.002610 1.767400 
# 
# From -- ./inp_files/387534.got.cif
#   From: 2010.05.17/outbox.cif.g08.bks.cpg/sg2_194_cif.got.tgz:387534.got - 2010.06.03 11:33:40.
