data_PCOD9093790
_publ_section_title
;
Structure prediction by ZEFSAII (Michael W. Deem and Ramdas Pophale) SiO2 
 PCOD9093790
Probable space group: P -1
;
_chemical_formula_sum "Si O2"
_cell_formula_units_Z 16
_cell_length_a 9.796691
_cell_length_b 13.565701
_cell_length_c 14.467665
_cell_angle_alpha 40.069751
_cell_angle_beta 60.627011
_cell_angle_gamma 34.166194
_cell_volume 638.650094
_symmetry_space_group_name_H-M "P -1"
_symmetry_group_IT_number 2
_symmetry_cell_setting 'triclinic'
loop_
_space_group_symop_operation_xyz
x,y,z
-x,-y,-z
loop_
_atom_site_type_symbol
_atom_site_label
_atom_site_fract_x
_atom_site_fract_y
_atom_site_fract_z
Si Si1 0.107984 0.321685 0.679355
Si Si2 0.088472 0.776757 0.454494
Si Si3 0.593758 0.075883 0.612813
Si Si4 0.553038 0.222472 0.002557
Si Si5 0.745725 0.790632 0.001877
Si Si6 0.941080 0.226241 0.192319
Si Si7 0.185779 0.304683 0.331726
Si Si8 0.438197 0.542166 0.331810
O O1 0.391521 0.191319 0.681269
O O2 0.000000 0.500000 0.500000
O O3 0.886166 0.513684 0.695041
O O4 0.205556 0.067468 0.829139
O O5 0.205193 0.699071 0.369414
O O6 0.322312 0.587327 0.589016
O O7 0.912164 0.769249 0.530929
O O8 0.928481 0.056233 0.324686
O O9 0.518960 0.307169 0.440657
O O10 0.894244 0.852055 0.713765
O O11 0.581557 0.952950 0.625575
O O12 0.348810 0.253352 0.012315
O O13 0.619475 0.287814 0.850180
O O14 0.348112 0.481793 0.944908
O O15 0.984301 0.521396 0.166751
O O16 0.855997 0.869099 0.881838
O O17 0.500000 0.000000 0.000000
#
# Coordination Sequence:
#
# PCOD9093790 Si02
#       8
#     2   2   2   2   2   2   2   2
#     4  12  28  46  61  85 123 168 216 260 296 353
#     4  10  20  33  57  97 134 157 189 237 317 382
#     4  11  21  40  65  92 126 162 201 248 310 370
#     4  12  21  37  60  91 128 160 197 248 311 365
#     4  12  20  32  56  93 123 159 195 241 319 368
#     4  11  21  34  59 100 134 153 188 253 314 380
#     4  12  22  38  65  90 122 163 201 253 308 370
#     4  10  20  34  59  94 131 161 190 243 310 379
#
# _framework density 25.052844
#
# number of rings (size 3 to 8) (size 9 to 14) (size 15 to 20)
#    0.000    0.750    6.250    2.625    1.750    2.500 
#    0.000    0.625    0.000    1.500    0.000    0.000 
#    0.000    0.000    0.000    0.000    0.000    0.000 
#
# Total GULP energy -89260.716145 kJ/mol
# GULP energy per Si atom -5578.794759 kJ/mol
# Density = 2.499582 g / cm^3
# Si number density = 25.052844 Si / 1000 Ang^3
#
#
#
# Elastic Constant Matrix: (Units=GPa)
#
#
# Indices 1 2 3 4 5 6 
#
# 1 38.2230 4.9021 26.9507 -7.9829 -3.1189 1.0639
# 2 4.9021 82.8999 9.5463 4.7110 5.2568 10.9620
# 3 26.9507 9.5463 169.2510 -7.0979 -10.3923 -2.6664
# 4 -7.9829 4.7110 -7.0979 37.6413 -11.1001 -7.5662
# 5 -3.1189 5.2568 -10.3923 -11.1001 29.3801 7.9327
# 6 1.0639 10.9620 -2.6664 -7.5662 7.9327 15.2138
#
#
#
# Elastic Compliance Matrix: (Units=1/GPa)
#
#
# Indices 1 2 3 4 5 6 
#
# 1 0.031447 -0.002077 -0.004261 0.007573 0.005165 -0.000377
# 2 -0.002077 0.014324 -0.001013 -0.005415 -0.001938 -0.012036
# 3 -0.004261 -0.001013 0.006876 0.001552 0.002253 0.001830
# 4 0.007573 -0.005415 0.001552 0.035657 0.011664 0.015296
# 5 0.005165 -0.001938 0.002253 0.011664 0.044440 -0.015941
# 6 -0.000377 -0.012036 0.001830 0.015296 -0.015941 0.090668
#
#
# Mechanical properties :
#
#
# Convention : Reuss Voigt Hill
#
# Bulk Modulus (GPa) = 26.35391 41.46356 33.90873
# Shear Modulus (GPa) = 19.93911 33.04536 26.49223
#
# Velocity S-wave (km/s) = 2.82420 3.63578 3.25538
# Velocity P-wave (km/s) = 4.60184 5.84907 5.26253
#
# Compressibility (1/GPa) = 0.03794504
#
# Stress axis : x y z
#
# Youngs Moduli (GPa) = 31.79958 69.81119 145.42558
#
# Poissons Ratio (x) = 0.14499 0.61973
# Poissons Ratio (y) = 0.06605 0.14730
# Poissons Ratio (z) = 0.13551 0.07071
#
# Static dielectric constant tensor:
#      x y z
#    x 2.025060 0.056550 0.080380 
#    y 0.056550 2.123170 -0.021790 
#    z 0.080380 -0.021790 1.989590 
# 
# From -- ./inp_files/270446.got.cif
#   From: 2010.05.17/outbox.cif.g08.bks.cpg/sg2_136_cif.got.tgz:270446.got - 2010.06.03 11:33:40.
