data_PCOD9093164
_publ_section_title
;
Structure prediction by ZEFSAII (Michael W. Deem and Ramdas Pophale) SiO2 
 PCOD9093164
Probable space group: P -1
;
_chemical_formula_sum "Si O2"
_cell_formula_units_Z 16
_cell_length_a 12.361067
_cell_length_b 9.687585
_cell_length_c 12.070571
_cell_angle_alpha 42.038946
_cell_angle_beta 60.577799
_cell_angle_gamma 94.074647
_cell_volume 560.182387
_symmetry_space_group_name_H-M "P -1"
_symmetry_group_IT_number 2
_symmetry_cell_setting 'triclinic'
loop_
_space_group_symop_operation_xyz
x,y,z
-x,-y,-z
loop_
_atom_site_type_symbol
_atom_site_label
_atom_site_fract_x
_atom_site_fract_y
_atom_site_fract_z
Si Si1 0.669978 0.484050 0.086468
Si Si2 0.124088 0.417866 0.435743
Si Si3 0.457692 0.872186 0.427410
Si Si4 0.395716 0.718887 0.304950
Si Si5 0.173402 0.941612 0.865573
Si Si6 0.322611 0.290435 0.347698
Si Si7 0.232431 0.030058 0.014266
Si Si8 0.024919 0.657706 0.777879
O O1 0.672066 0.425473 0.250310
O O2 0.544987 0.534947 0.101610
O O3 0.519236 0.145294 0.303867
O O4 0.869202 0.644568 0.851079
O O5 0.198508 0.463116 0.495639
O O6 0.254419 0.440285 0.278451
O O7 0.161865 0.704620 0.225408
O O8 0.905457 0.084108 0.746490
O O9 0.384752 0.798211 0.384768
O O10 0.645533 0.976231 0.261101
O O11 0.500000 0.000000 0.000000
O O12 0.544333 0.711841 0.236163
O O13 0.218546 0.100054 0.629529
O O14 0.181670 0.079117 0.894660
O O15 0.008600 0.569195 0.155937
O O16 0.218758 0.019175 0.471868
O O17 0.000000 0.500000 0.000000
#
# Coordination Sequence:
#
# PCOD9093164 Si02
#       8
#     2   2   2   2   2   2   2   2
#     4   9  17  30  49  75 105 129 159 213 259 296
#     4  10  21  34  51  73 100 135 173 208 254 302
#     4   8  14  29  52  74  96 128 169 204 248 303
#     4   9  18  33  53  72  94 132 174 206 244 302
#     4   8  16  32  53  73  98 130 167 208 253 303
#     4  10  20  32  48  78 106 128 166 214 255 301
#     4   9  19  37  53  68  97 136 172 211 250 302
#     4   9  17  30  51  76 102 134 164 200 258 310
#
# _framework density 28.562125000000002
#
# number of rings (size 3 to 8) (size 9 to 14) (size 15 to 20)
#    0.000    3.000    0.000    2.250    0.000    4.500 
#    0.000    6.250    0.000   12.000    0.000    0.000 
#    0.000    0.000    0.000    0.000    0.000    0.000 
#
# Total GULP energy -89414.832108 kJ/mol
# GULP energy per Si atom -5588.427007 kJ/mol
# Density = 2.849712 g / cm^3
# Si number density = 28.562125 Si / 1000 Ang^3
#
#
#
# Elastic Constant Matrix: (Units=GPa)
#
#
# Indices 1 2 3 4 5 6 
#
# 1 124.6388 33.8601 48.5706 15.8130 -18.7632 8.3419
# 2 33.8601 77.4485 12.8173 -6.0680 13.8235 19.9564
# 3 48.5706 12.8173 112.9088 12.5012 -20.2968 -2.4998
# 4 15.8130 -6.0680 12.5012 30.7570 -0.4570 -4.0185
# 5 -18.7632 13.8235 -20.2968 -0.4570 50.4589 10.9410
# 6 8.3419 19.9564 -2.4998 -4.0185 10.9410 49.3864
#
#
#
# Elastic Compliance Matrix: (Units=1/GPa)
#
#
# Indices 1 2 3 4 5 6 
#
# 1 0.012627 -0.006089 -0.003077 -0.006566 0.005405 -0.001560
# 2 -0.006089 0.018801 -0.001632 0.006805 -0.007025 -0.004541
# 3 -0.003077 -0.001632 0.011406 -0.003234 0.003717 0.000670
# 4 -0.006566 0.006805 -0.003234 0.038804 -0.005828 0.002644
# 5 0.005405 -0.007025 0.003717 -0.005828 0.026092 -0.004141
# 6 -0.001560 -0.004541 0.000670 0.002644 -0.004141 0.023514
#
#
# Mechanical properties :
#
#
# Convention : Reuss Voigt Hill
#
# Bulk Modulus (GPa) = 47.08040 56.16577 51.62309
# Shear Modulus (GPa) = 31.26572 40.77033 36.01803
#
# Velocity S-wave (km/s) = 3.31215 3.78223 3.55497
# Velocity P-wave (km/s) = 5.58090 6.22742 5.91300
#
# Compressibility (1/GPa) = 0.02124026
#
# Stress axis : x y z
#
# Youngs Moduli (GPa) = 79.19353 53.18882 87.66959
#
# Poissons Ratio (x) = 0.32384 0.26974
# Poissons Ratio (y) = 0.48217 0.14307
# Poissons Ratio (z) = 0.24366 0.08680
#
# Static dielectric constant tensor:
#      x y z
#    x 2.255080 -0.049920 0.061830 
#    y -0.049920 2.353650 0.036210 
#    z 0.061830 0.036210 2.280170 
# 
# From -- ./inp_files/519531.got.cif
#   From: 2010.05.17/outbox.cif.g08.bks.cpg/sg2_260_cif.got.tgz:519531.got - 2010.06.03 11:33:40.
