data_PCOD9093402
_publ_section_title
;
Structure prediction by ZEFSAII (Michael W. Deem and Ramdas Pophale) SiO2 
 PCOD9093402
Probable space group: P -1
;
_chemical_formula_sum "Si O2"
_cell_formula_units_Z 15
_cell_length_a 7.746352
_cell_length_b 11.805218
_cell_length_c 16.387480
_cell_angle_alpha 48.392470
_cell_angle_beta 137.144124
_cell_angle_gamma 140.717147
_cell_volume 628.905429
_symmetry_space_group_name_H-M "P -1"
_symmetry_group_IT_number 2
_symmetry_cell_setting 'triclinic'
loop_
_space_group_symop_operation_xyz
x,y,z
-x,-y,-z
loop_
_atom_site_type_symbol
_atom_site_label
_atom_site_fract_x
_atom_site_fract_y
_atom_site_fract_z
Si Si1 0.434228 0.392047 0.281134
Si Si2 0.324444 0.109159 0.249087
Si Si3 0.691463 0.809166 0.505894
Si Si4 0.000000 0.500000 0.000000
Si Si5 0.658910 0.257698 0.734161
Si Si6 0.039099 0.657260 0.638133
Si Si7 0.100585 0.257937 0.623179
Si Si8 0.814575 0.145661 0.992620
O O1 0.459823 0.301735 0.252106
O O2 0.353713 0.234091 0.394517
O O3 0.728910 0.579222 0.329362
O O4 0.177665 0.432890 0.153066
O O5 0.651620 0.169376 0.298081
O O6 0.163856 0.932219 0.336102
O O7 0.056439 0.090884 0.111426
O O8 0.425976 0.787638 0.368336
O O9 0.747932 0.657270 0.567983
O O10 0.000000 0.000000 0.500000
O O11 0.933350 0.340004 0.984683
O O12 0.362550 0.235186 0.686502
O O13 0.740052 0.144817 0.872381
O O14 0.953051 0.465129 0.733622
O O15 0.028642 0.686821 0.523244
O O16 0.500000 0.000000 0.000000
#
# Coordination Sequence:
#
# PCOD9093402 Si02
#       8
#     2   2   2   1   2   2   2   2
#     4  11  20  39  61  90 118 163 212 244 298 373
#     4  11  25  37  62  96 122 160 201 256 316 357
#     4  11  22  38  66  91 119 165 214 248 300 372
#     4  10  20  32  60  90 116 150 210 256 282 350
#     4  11  20  40  64  87 120 165 208 252 305 361
#     4  11  22  40  58  92 130 152 198 264 315 354
#     4  11  19  40  61  84 121 162 203 245 297 369
#     4  11  21  39  64  88 120 163 211 250 297 379
#
# _framework density 23.850961999999999
#
# number of rings (size 3 to 8) (size 9 to 14) (size 15 to 20)
#    0.000    1.067    5.333    2.800    1.867    1.067 
#    2.400    0.000    0.000    0.800    0.000    0.000 
#    0.000    0.000    0.000    0.000    0.000    0.000 
#
# Total GULP energy -83553.715498 kJ/mol
# GULP energy per Si atom -5570.247700 kJ/mol
# Density = 2.379668 g / cm^3
# Si number density = 23.850962 Si / 1000 Ang^3
#
#
#
# Elastic Constant Matrix: (Units=GPa)
#
#
# Indices 1 2 3 4 5 6 
#
# 1 38.7307 7.4741 11.8109 -1.9705 9.0937 6.4185
# 2 7.4741 95.4607 23.5050 -1.5974 0.5443 19.6098
# 3 11.8109 23.5050 184.4350 11.3725 -5.1078 23.1792
# 4 -1.9705 -1.5974 11.3725 34.3726 3.6306 2.9111
# 5 9.0937 0.5443 -5.1078 3.6306 17.4817 -3.7171
# 6 6.4185 19.6098 23.1792 2.9111 -3.7171 35.0767
#
#
#
# Elastic Compliance Matrix: (Units=1/GPa)
#
#
# Indices 1 2 3 4 5 6 
#
# 1 0.032677 -0.000422 -0.002046 0.005249 -0.020154 -0.006963
# 2 -0.000422 0.012087 -0.000857 0.001592 -0.002114 -0.006470
# 3 -0.002046 -0.000857 0.006229 -0.002278 0.002793 -0.002778
# 4 0.005249 0.001592 -0.002278 0.031724 -0.010913 -0.004135
# 5 -0.020154 -0.002114 0.002793 -0.010913 0.073322 0.011700
# 6 -0.006963 -0.006470 -0.002778 -0.004135 0.011700 0.036819
#
#
# Mechanical properties :
#
#
# Convention : Reuss Voigt Hill
#
# Bulk Modulus (GPa) = 22.55023 44.91183 33.73103
# Shear Modulus (GPa) = 23.33290 35.77531 29.55410
#
# Velocity S-wave (km/s) = 3.13114 3.87712 3.52393
# Velocity P-wave (km/s) = 4.74839 6.23810 5.54351
#
# Compressibility (1/GPa) = 0.04434544
#
# Stress axis : x y z
#
# Youngs Moduli (GPa) = 30.60219 82.73103 160.53702
#
# Poissons Ratio (x) = 0.03488 0.32838
# Poissons Ratio (y) = 0.01290 0.13759
# Poissons Ratio (z) = 0.06260 0.07090
#
# Static dielectric constant tensor:
#      x y z
#    x 2.116830 -0.009570 0.143030 
#    y -0.009570 1.965770 -0.008670 
#    z 0.143030 -0.008670 2.086710 
# 
# From -- ./inp_files/171237.got.cif
#   From: 2010.05.17/outbox.cif.g08.bks.cpg/sg2_86_cif.got.tgz:171237.got - 2010.06.03 11:33:40.
