data_PCOD9093324
_publ_section_title
;
Structure prediction by ZEFSAII (Michael W. Deem and Ramdas Pophale) SiO2 
 PCOD9093324
Probable space group: P -1
;
_chemical_formula_sum "Si O2"
_cell_formula_units_Z 14
_cell_length_a 9.208844
_cell_length_b 11.424791
_cell_length_c 18.690618
_cell_angle_alpha 36.507817
_cell_angle_beta 130.755163
_cell_angle_gamma 136.314683
_cell_volume 795.684233
_symmetry_space_group_name_H-M "P -1"
_symmetry_group_IT_number 2
_symmetry_cell_setting 'triclinic'
loop_
_space_group_symop_operation_xyz
x,y,z
-x,-y,-z
loop_
_atom_site_type_symbol
_atom_site_label
_atom_site_fract_x
_atom_site_fract_y
_atom_site_fract_z
Si Si1 0.919211 0.373684 0.336685
Si Si2 0.390240 0.882534 0.763307
Si Si3 0.563812 0.443597 0.969442
Si Si4 0.808004 0.940842 0.788626
Si Si5 0.718183 0.712496 0.454771
Si Si6 0.898424 0.812594 0.119148
Si Si7 0.054013 0.717573 0.455841
O O1 0.752264 0.267990 0.272602
O O2 0.990758 0.632605 0.232107
O O3 0.111907 0.304675 0.426269
O O4 0.829736 0.290889 0.428556
O O5 0.632152 0.961552 0.774477
O O6 0.326387 0.078482 0.655858
O O7 0.354652 0.735950 0.894867
O O8 0.730507 0.682033 0.878592
O O9 0.353207 0.326609 0.910459
O O10 0.500000 0.500000 0.000000
O O11 0.029927 0.064428 0.842437
O O12 0.823336 0.072373 0.656756
O O13 0.500000 0.500000 0.500000
O O14 0.833617 0.711494 0.417637
O O15 0.000000 0.000000 0.000000
O O16 0.000000 0.500000 0.500000
#
# Coordination Sequence:
#
# PCOD9093324 Si02
#       7
#     2   2   2   2   2   2   2
#     4  10  21  34  57  87 112 146 196 227 293 334
#     4  11  19  38  57  86 116 144 195 238 281 343
#     4  10  20  32  55  88 111 149 191 235 283 330
#     4  11  20  36  59  86 120 146 191 244 281 336
#     4  10  22  37  57  83 114 153 191 234 290 343
#     4  12  18  33  58  87 112 148 194 238 276 333
#     4  10  21  36  57  85 115 153 188 236 291 342
#
# _framework density 17.594919999999998
#
# number of rings (size 3 to 8) (size 9 to 14) (size 15 to 20)
#    0.857    0.571    7.143    2.143    0.000    0.571 
#    0.000    0.714    0.000    0.857    0.000    0.000 
#    0.000    0.000    0.000    0.000    0.000    0.000 
#
# Total GULP energy -77947.649046 kJ/mol
# GULP energy per Si atom -5567.689218 kJ/mol
# Density = 1.755487 g / cm^3
# Si number density = 17.594920 Si / 1000 Ang^3
#
#
#
# Elastic Constant Matrix: (Units=GPa)
#
#
# Indices 1 2 3 4 5 6 
#
# 1 42.9079 21.8439 31.5705 -11.7783 0.0556 -3.8623
# 2 21.8439 125.4635 51.0194 -6.3454 11.1474 3.1212
# 3 31.5705 51.0194 144.6594 -28.9966 13.9694 1.1730
# 4 -11.7783 -6.3454 -28.9966 43.8829 4.6465 4.5035
# 5 0.0556 11.1474 13.9694 4.6465 23.0283 -5.1204
# 6 -3.8623 3.1212 1.1730 4.5035 -5.1204 10.5098
#
#
#
# Elastic Compliance Matrix: (Units=1/GPa)
#
#
# Indices 1 2 3 4 5 6 
#
# 1 0.032034 -0.004242 -0.006407 0.000864 0.009715 0.018110
# 2 -0.004242 0.010203 -0.002048 0.000271 -0.005312 -0.007064
# 3 -0.006407 -0.002048 0.011721 0.007995 -0.010270 -0.011483
# 4 0.000864 0.000271 0.007995 0.032414 -0.016550 -0.022608
# 5 0.009715 -0.005312 -0.010270 -0.016550 0.065628 0.045359
# 6 0.018110 -0.007064 -0.011483 -0.022608 0.045359 0.136971
#
#
# Mechanical properties :
#
#
# Convention : Reuss Voigt Hill
#
# Bulk Modulus (GPa) = 35.00928 57.98871 46.49899
# Shear Modulus (GPa) = 15.43752 29.39066 22.41409
#
# Velocity S-wave (km/s) = 2.96528 4.09149 3.57304
# Velocity P-wave (km/s) = 5.62712 7.43973 6.59599
#
# Compressibility (1/GPa) = 0.02856385
#
# Stress axis : x y z
#
# Youngs Moduli (GPa) = 31.21678 98.00724 85.31841
#
# Poissons Ratio (x) = 0.41575 0.54662
# Poissons Ratio (y) = 0.13242 0.17476
# Poissons Ratio (z) = 0.20000 0.20075
#
# Static dielectric constant tensor:
#      x y z
#    x 1.587670 0.012540 0.026820 
#    y 0.012540 1.635210 0.021820 
#    z 0.026820 0.021820 1.654740 
# 
# From -- ./inp_files/558391.got.cif
#   From: 2010.05.17/outbox.cif.g08.bks.cpg/sg2_280_cif.got.tgz:558391.got - 2010.06.03 11:33:40.
