data_PCOD9093303
_publ_section_title
;
Structure prediction by ZEFSAII (Michael W. Deem and Ramdas Pophale) SiO2 
 PCOD9093303
Probable space group: P -1
;
_chemical_formula_sum "Si O2"
_cell_formula_units_Z 14
_cell_length_a 15.074831
_cell_length_b 13.273968
_cell_length_c 15.822692
_cell_angle_alpha 18.026891
_cell_angle_beta 133.520173
_cell_angle_gamma 133.124031
_cell_volume 704.628398
_symmetry_space_group_name_H-M "P -1"
_symmetry_group_IT_number 2
_symmetry_cell_setting 'triclinic'
loop_
_space_group_symop_operation_xyz
x,y,z
-x,-y,-z
loop_
_atom_site_type_symbol
_atom_site_label
_atom_site_fract_x
_atom_site_fract_y
_atom_site_fract_z
Si Si1 0.790947 0.028042 0.580472
Si Si2 0.846225 0.823553 0.610365
Si Si3 0.140540 0.884399 0.785092
Si Si4 0.319385 0.360086 0.927070
Si Si5 0.440535 0.334345 0.207983
Si Si6 0.068207 0.041259 0.797135
Si Si7 0.890134 0.193752 0.806075
O O1 0.764866 0.344215 0.365817
O O2 0.921962 0.932938 0.772940
O O3 0.808728 0.081045 0.449243
O O4 0.672177 0.758289 0.729161
O O5 0.994815 0.837493 0.702496
O O6 0.804652 0.885749 0.438629
O O7 0.804054 0.457075 0.907076
O O8 0.139377 0.991416 0.796421
O O9 0.437452 0.406710 0.904936
O O10 0.376884 0.407483 0.020119
O O11 0.236619 0.014696 0.140186
O O12 0.500000 0.000000 0.500000
O O13 0.089492 0.434793 0.510142
O O14 0.106662 0.837913 0.064477
O O15 0.000000 0.000000 0.000000
#
# Coordination Sequence:
#
# PCOD9093303 Si02
#       7
#     2   2   2   2   2   2   2
#     4  10  20  32  55  81 111 142 178 224 273 321
#     4   9  18  30  53  75 105 139 175 222 271 313
#     4   9  18  34  47  76 108 140 178 217 264 319
#     4  10  21  35  53  77 115 141 183 222 265 324
#     4   9  20  36  53  75 108 142 180 230 271 311
#     4  11  23  35  55  80 117 151 178 215 266 323
#     4  12  23  35  54  82 112 153 182 211 261 328
#
# _framework density 19.86863
#
# number of rings (size 3 to 8) (size 9 to 14) (size 15 to 20)
#    0.000    2.000    1.429    2.143    6.000    2.286 
#    0.000    0.000    0.000    0.000    0.000    6.000 
#    0.000    0.000    0.000    0.000    0.000    0.000 
#
# Total GULP energy -78029.260787 kJ/mol
# GULP energy per Si atom -5573.518628 kJ/mol
# Density = 1.982341 g / cm^3
# Si number density = 19.868630 Si / 1000 Ang^3
#
#
#
# Elastic Constant Matrix: (Units=GPa)
#
#
# Indices 1 2 3 4 5 6 
#
# 1 86.2943 28.1988 22.2031 -4.9762 -11.0731 5.7762
# 2 28.1988 36.7416 0.3618 -0.6560 2.8150 2.9366
# 3 22.2031 0.3618 48.3068 -1.0035 -10.7205 -0.0225
# 4 -4.9762 -0.6560 -1.0035 23.9291 -6.3596 -12.8635
# 5 -11.0731 2.8150 -10.7205 -6.3596 21.1895 -1.3940
# 6 5.7762 2.9366 -0.0225 -12.8635 -1.3940 35.5393
#
#
#
# Elastic Compliance Matrix: (Units=1/GPa)
#
#
# Indices 1 2 3 4 5 6 
#
# 1 0.020568 -0.016596 -0.006530 0.007334 0.011926 0.001147
# 2 -0.016596 0.041271 0.003792 -0.008530 -0.015086 -0.004390
# 3 -0.006530 0.003792 0.026142 0.004135 0.010728 0.002682
# 4 0.007334 -0.008530 0.004135 0.063200 0.027570 0.023472
# 5 0.011926 -0.015086 0.010728 0.027570 0.069924 0.012037
# 6 0.001147 -0.004390 0.002682 0.023472 0.012037 0.037284
#
#
# Mechanical properties :
#
#
# Convention : Reuss Voigt Hill
#
# Bulk Modulus (GPa) = 20.27860 30.31892 25.29876
# Shear Modulus (GPa) = 15.94928 24.17017 20.05972
#
# Velocity S-wave (km/s) = 2.83633 3.49162 3.18090
# Velocity P-wave (km/s) = 4.57765 5.61676 5.12362
#
# Compressibility (1/GPa) = 0.04931308
#
# Stress axis : x y z
#
# Youngs Moduli (GPa) = 48.61940 24.22998 38.25310
#
# Poissons Ratio (x) = 0.40212 0.24978
# Poissons Ratio (y) = 0.80688 -0.14504
# Poissons Ratio (z) = 0.31747 -0.09187
#
# Static dielectric constant tensor:
#      x y z
#    x 1.772120 -0.002580 -0.004520 
#    y -0.002580 1.714730 0.008590 
#    z -0.004520 0.008590 1.809390 
# 
# From -- ./inp_files/64542.got.cif
#   From: 2010.05.17/outbox.cif.g08.bks.cpg/sg2_33_cif.got.tgz:64542.got - 2010.06.03 11:33:40.
