data_PCOD9093863
_publ_section_title
;
Structure prediction by ZEFSAII (Michael W. Deem and Ramdas Pophale) SiO2 
 PCOD9093863
Probable space group: P -1
;
_chemical_formula_sum "Si O2"
_cell_formula_units_Z 16
_cell_length_a 8.046027
_cell_length_b 12.514242
_cell_length_c 15.624432
_cell_angle_alpha 48.698757
_cell_angle_beta 42.055884
_cell_angle_gamma 47.654200
_cell_volume 737.151871
_symmetry_space_group_name_H-M "P -1"
_symmetry_group_IT_number 2
_symmetry_cell_setting 'triclinic'
loop_
_space_group_symop_operation_xyz
x,y,z
-x,-y,-z
loop_
_atom_site_type_symbol
_atom_site_label
_atom_site_fract_x
_atom_site_fract_y
_atom_site_fract_z
Si Si1 0.552723 0.756540 0.471828
Si Si2 0.270002 0.871589 0.230241
Si Si3 0.402699 0.920596 0.970463
Si Si4 0.734130 0.132505 0.314719
Si Si5 0.597185 0.035259 0.238256
Si Si6 0.991130 0.742353 0.642815
Si Si7 0.962722 0.648637 0.883231
Si Si8 0.273040 0.572130 0.475475
O O1 0.500285 0.834308 0.544222
O O2 0.257346 0.779612 0.536722
O O3 0.719080 0.576327 0.501223
O O4 0.675769 0.855103 0.316030
O O5 0.326094 0.699960 0.329769
O O6 0.505681 0.933470 0.130831
O O7 0.236379 0.901823 0.124893
O O8 0.995385 0.985029 0.317397
O O9 0.298712 0.925675 0.911474
O O10 0.676273 0.774685 0.947059
O O11 0.665218 0.109370 0.256978
O O12 0.823705 0.277151 0.211349
O O13 0.273796 0.111241 0.319259
O O14 0.016080 0.662667 0.583587
O O15 0.989183 0.628917 0.781088
O O16 0.000000 0.500000 0.000000
O O17 0.500000 0.500000 0.500000
#
# Coordination Sequence:
#
# PCOD9093863 Si02
#       8
#     2   2   2   2   2   2   2   2
#     4  10  20  35  59  84 111 148 189 235 281 323
#     4  10  20  38  56  84 114 146 193 229 281 334
#     4   9  20  34  60  82 108 153 187 234 273 332
#     4  10  22  37  57  84 111 156 183 231 284 336
#     4  11  20  38  57  82 117 148 195 222 281 341
#     4   9  19  35  57  86 108 145 189 233 277 329
#     4   9  19  36  60  82 111 144 189 233 279 332
#     4  10  20  33  59  87 111 138 187 244 277 318
#
# _framework density 21.705161
#
# number of rings (size 3 to 8) (size 9 to 14) (size 15 to 20)
#    0.000    2.250    0.000    3.750    5.250    0.500 
#    2.250    5.000    0.000    0.000    0.000    0.000 
#    0.000    0.000    0.000    0.000    0.000    0.000 
#
# Total GULP energy -89362.945027 kJ/mol
# GULP energy per Si atom -5585.184064 kJ/mol
# Density = 2.165576 g / cm^3
# Si number density = 21.705161 Si / 1000 Ang^3
#
#
#
# Elastic Constant Matrix: (Units=GPa)
#
#
# Indices 1 2 3 4 5 6 
#
# 1 52.6233 15.7312 18.7099 0.6639 17.9981 7.7846
# 2 15.7312 104.9389 67.4967 -12.5289 17.4765 11.1240
# 3 18.7099 67.4967 125.1304 -18.1845 28.4466 2.6272
# 4 0.6639 -12.5289 -18.1845 47.7040 -2.0287 9.0210
# 5 17.9981 17.4765 28.4466 -2.0287 27.6615 11.1077
# 6 7.7846 11.1240 2.6272 9.0210 11.1077 15.7269
#
#
#
# Elastic Compliance Matrix: (Units=1/GPa)
#
#
# Indices 1 2 3 4 5 6 
#
# 1 0.024680 -0.001760 0.000728 -0.001461 -0.016310 0.001265
# 2 -0.001760 0.017183 -0.009741 0.004503 0.007749 -0.017711
# 3 0.000728 -0.009741 0.016994 -0.000064 -0.018562 0.016837
# 4 -0.001461 0.004503 -0.000064 0.027418 0.010443 -0.025554
# 5 -0.016310 0.007749 -0.018562 0.010443 0.086324 -0.061267
# 6 0.001265 -0.017711 0.016837 -0.025554 -0.061267 0.130604
#
#
# Mechanical properties :
#
#
# Convention : Reuss Voigt Hill
#
# Bulk Modulus (GPa) = 26.80163 54.06315 40.43239
# Shear Modulus (GPa) = 14.82857 30.26878 22.54868
#
# Velocity S-wave (km/s) = 2.61661 3.73841 3.22664
# Velocity P-wave (km/s) = 4.63721 6.60275 5.70526
#
# Compressibility (1/GPa) = 0.03731116
#
# Stress axis : x y z
#
# Youngs Moduli (GPa) = 40.51880 58.19613 58.84387
#
# Poissons Ratio (x) = 0.10245 -0.04286
# Poissons Ratio (y) = 0.07133 0.57320
# Poissons Ratio (z) = -0.02951 0.56689
#
# Static dielectric constant tensor:
#      x y z
#    x 1.851510 0.008490 0.018780 
#    y 0.008490 1.802050 0.040820 
#    z 0.018780 0.040820 1.820260 
# 
# From -- ./inp_files/226305.got.cif
#   From: 2010.05.17/outbox.cif.g08.bks.cpg/sg2_114_cif.got.tgz:226305.got - 2010.06.03 11:33:40.
