data_PCOD9093874
_publ_section_title
;
Structure prediction by ZEFSAII (Michael W. Deem and Ramdas Pophale) SiO2 
 PCOD9093874
Probable space group: P -1
;
_chemical_formula_sum "Si O2"
_cell_formula_units_Z 16
_cell_length_a 10.201194
_cell_length_b 10.608117
_cell_length_c 11.732315
_cell_angle_alpha 71.073669
_cell_angle_beta 89.113919
_cell_angle_gamma 144.424807
_cell_volume 602.037810
_symmetry_space_group_name_H-M "P -1"
_symmetry_group_IT_number 2
_symmetry_cell_setting 'triclinic'
loop_
_space_group_symop_operation_xyz
x,y,z
-x,-y,-z
loop_
_atom_site_type_symbol
_atom_site_label
_atom_site_fract_x
_atom_site_fract_y
_atom_site_fract_z
Si Si1 0.347528 0.272117 0.411406
Si Si2 0.132385 0.235021 0.997889
Si Si3 0.938537 0.217251 0.575302
Si Si4 0.431707 0.797152 0.118215
Si Si5 0.336989 0.430013 0.163693
Si Si6 0.122737 0.388087 0.756064
Si Si7 0.825889 0.275527 0.356344
Si Si8 0.559536 0.805526 0.358824
O O1 0.281899 0.350376 0.320821
O O2 0.656066 0.521933 0.311075
O O3 0.318924 0.213461 0.563344
O O4 0.182030 0.019149 0.413532
O O5 0.441475 0.481678 0.900337
O O6 0.040846 0.283097 0.915943
O O7 0.103710 0.208686 0.141264
O O8 0.000000 0.000000 0.000000
O O9 0.902893 0.191007 0.719546
O O10 0.249785 0.508503 0.468635
O O11 0.820482 0.235541 0.501311
O O12 0.437507 0.669348 0.077073
O O13 0.581044 0.875625 0.207279
O O14 0.126510 0.539534 0.233729
O O15 0.500000 0.000000 0.000000
O O16 0.262645 0.652511 0.679484
O O17 0.674043 0.029968 0.362324
#
# Coordination Sequence:
#
# PCOD9093874 Si02
#       8
#     2   2   2   2   2   2   2   2
#     4   9  19  38  63  88 120 152 198 258 302 351
#     4  10  22  39  63  89 116 159 203 254 305 348
#     4   9  18  36  60  91 122 154 196 249 310 354
#     4  11  26  42  61  86 125 169 201 245 298 361
#     4  10  23  42  60  91 122 155 208 250 298 358
#     4  10  20  33  59  90 120 158 196 249 302 356
#     4  10  22  38  57  89 124 160 203 245 296 362
#     4   9  21  40  60  89 119 159 208 240 304 360
#
# _framework density 26.576402999999999
#
# number of rings (size 3 to 8) (size 9 to 14) (size 15 to 20)
#    0.000    2.250    0.000    1.125    3.500    8.500 
#    0.000    5.625    0.000    0.000    0.000    0.000 
#    0.000    0.000    0.000    0.000    0.000    0.000 
#
# Total GULP energy -89427.122212 kJ/mol
# GULP energy per Si atom -5589.195138 kJ/mol
# Density = 2.651591 g / cm^3
# Si number density = 26.576403 Si / 1000 Ang^3
#
#
#
# Elastic Constant Matrix: (Units=GPa)
#
#
# Indices 1 2 3 4 5 6 
#
# 1 56.5972 24.8045 50.2830 0.6701 23.9379 -10.4661
# 2 24.8045 143.5075 70.1515 15.4316 27.3012 -10.8946
# 3 50.2830 70.1515 207.6831 26.4059 44.2905 0.3201
# 4 0.6701 15.4316 26.4059 49.9176 5.0387 -0.3298
# 5 23.9379 27.3012 44.2905 5.0387 55.8169 -13.0122
# 6 -10.4661 -10.8946 0.3201 -0.3298 -13.0122 36.3411
#
#
#
# Elastic Compliance Matrix: (Units=1/GPa)
#
#
# Indices 1 2 3 4 5 6 
#
# 1 0.026018 -0.000807 -0.005245 0.003281 -0.005663 0.005300
# 2 -0.000807 0.008807 -0.002268 -0.001337 -0.001612 0.001838
# 3 -0.005245 -0.002268 0.008011 -0.003132 -0.003545 -0.003559
# 4 0.003281 -0.001337 -0.003132 0.022073 -0.000088 0.000740
# 5 -0.005663 -0.001612 -0.003545 -0.000088 0.025605 0.007084
# 6 0.005300 0.001838 -0.003559 0.000740 0.007084 0.032169
#
#
# Mechanical properties :
#
#
# Convention : Reuss Voigt Hill
#
# Bulk Modulus (GPa) = 38.17363 77.58511 57.87937
# Shear Modulus (GPa) = 33.77170 45.91836 39.84503
#
# Velocity S-wave (km/s) = 3.56861 4.16118 3.87623
# Velocity P-wave (km/s) = 5.60133 7.23490 6.46988
#
# Compressibility (1/GPa) = 0.02619609
#
# Stress axis : x y z
#
# Youngs Moduli (GPa) = 38.43507 113.55087 124.83448
#
# Poissons Ratio (x) = 0.09158 0.65470
# Poissons Ratio (y) = 0.03100 0.28318
# Poissons Ratio (z) = 0.20157 0.25759
#
# Static dielectric constant tensor:
#      x y z
#    x 2.144830 0.048760 -0.020760 
#    y 0.048760 2.067210 0.009880 
#    z -0.020760 0.009880 2.165690 
# 
# From -- ./inp_files/365263.got.cif
#   From: 2010.05.17/outbox.cif.g08.bks.cpg/sg2_183_cif.got.tgz:365263.got - 2010.06.03 11:33:40.
