data_PCOD9093740
_publ_section_title
;
Structure prediction by ZEFSAII (Michael W. Deem and Ramdas Pophale) SiO2 
 PCOD9093740
Probable space group: P -1
;
_chemical_formula_sum "Si O2"
_cell_formula_units_Z 16
_cell_length_a 7.122534
_cell_length_b 19.229086
_cell_length_c 14.614597
_cell_angle_alpha 140.377479
_cell_angle_beta 146.243655
_cell_angle_gamma 34.010504
_cell_volume 600.573998
_symmetry_space_group_name_H-M "P -1"
_symmetry_group_IT_number 2
_symmetry_cell_setting 'triclinic'
loop_
_space_group_symop_operation_xyz
x,y,z
-x,-y,-z
loop_
_atom_site_type_symbol
_atom_site_label
_atom_site_fract_x
_atom_site_fract_y
_atom_site_fract_z
Si Si1 0.540255 0.512417 0.137187
Si Si2 0.516532 0.280489 0.875554
Si Si3 0.514224 0.642807 0.583515
Si Si4 0.407571 0.199688 0.360421
Si Si5 0.659634 0.206006 0.664339
Si Si6 0.619461 0.405843 0.318370
Si Si7 0.338181 0.093729 0.945118
Si Si8 0.327021 0.813721 0.971371
O O1 0.330714 0.665364 0.227352
O O2 0.005978 0.445347 0.288146
O O3 0.500000 0.500000 0.000000
O O4 0.384379 0.418324 0.005312
O O5 0.389396 0.257192 0.700265
O O6 0.983859 0.225728 0.982759
O O7 0.520493 0.192062 0.870017
O O8 0.386915 0.776238 0.617288
O O9 0.415159 0.556820 0.390866
O O10 0.325080 0.646978 0.609300
O O11 0.582970 0.158488 0.490573
O O12 0.048311 0.347944 0.387508
O O13 0.133519 0.144988 0.165971
O O14 0.062669 0.084215 0.746511
O O15 0.441436 0.332978 0.121414
O O16 0.634985 0.112870 0.023966
O O17 0.500000 0.000000 0.000000
#
# Coordination Sequence:
#
# PCOD9093740 Si02
#       8
#     2   2   2   2   2   2   2   2
#     4  10  16  29  56  82 118 150 179 219 286 335
#     4   9  20  36  60  82 117 148 182 238 286 340
#     4  11  18  33  51  81 123 168 172 229 280 348
#     4  10  20  34  57  83 120 147 201 221 286 343
#     4   9  21  37  56  85 121 154 178 242 284 337
#     4   9  21  29  53  82 116 152 201 209 280 345
#     4  10  23  43  60  79 113 153 198 243 290 338
#     4  10  20  35  62  87 102 155 198 228 289 350
#
# _framework density 26.641179999999999
#
# number of rings (size 3 to 8) (size 9 to 14) (size 15 to 20)
#    1.500    0.750    2.500    1.125    1.750    0.500 
#    2.250    1.250    0.000    0.750    0.000    0.000 
#    0.000    0.000    0.000    0.000    0.000    0.000 
#
# Total GULP energy -89106.010096 kJ/mol
# GULP energy per Si atom -5569.125631 kJ/mol
# Density = 2.658054 g / cm^3
# Si number density = 26.641180 Si / 1000 Ang^3
#
#
#
# Elastic Constant Matrix: (Units=GPa)
#
#
# Indices 1 2 3 4 5 6 
#
# 1 102.8839 44.9329 26.5800 -10.3097 -11.4589 42.0737
# 2 44.9329 121.3771 37.4848 -26.6382 -10.0628 42.4029
# 3 26.5800 37.4848 102.1040 -14.8062 -24.9938 21.7144
# 4 -10.3097 -26.6382 -14.8062 37.0810 3.2235 -8.8535
# 5 -11.4589 -10.0628 -24.9938 3.2235 28.4095 -9.5388
# 6 42.0737 42.4029 21.7144 -8.8535 -9.5388 60.4875
#
#
#
# Elastic Compliance Matrix: (Units=1/GPa)
#
#
# Indices 1 2 3 4 5 6 
#
# 1 0.014271 -0.002117 -0.000861 0.000086 0.001597 -0.007869
# 2 -0.002117 0.013265 -0.002283 0.006637 -0.000996 -0.006193
# 3 -0.000861 -0.002283 0.013992 0.002602 0.010600 -0.000771
# 4 0.000086 0.006637 0.002602 0.032552 0.000723 -0.000768
# 5 0.001597 -0.000996 0.010600 0.000723 0.045777 0.003107
# 6 -0.007869 -0.006193 -0.000771 -0.000768 0.003107 0.027002
#
#
# Mechanical properties :
#
#
# Convention : Reuss Voigt Hill
#
# Bulk Modulus (GPa) = 32.25177 60.48449 46.36813
# Shear Modulus (GPa) = 29.81199 39.68673 34.74936
#
# Velocity S-wave (km/s) = 3.34880 3.86382 3.61549
# Velocity P-wave (km/s) = 5.20432 6.53132 5.90521
#
# Compressibility (1/GPa) = 0.03100605
#
# Stress axis : x y z
#
# Youngs Moduli (GPa) = 70.07117 75.38662 71.46768
#
# Poissons Ratio (x) = 0.15958 0.06154
# Poissons Ratio (y) = 0.14833 0.16318
# Poissons Ratio (z) = 0.06034 0.17213
#
# Static dielectric constant tensor:
#      x y z
#    x 2.146480 -0.075250 0.041480 
#    y -0.075250 2.268930 0.000330 
#    z 0.041480 0.000330 2.157290 
# 
# From -- ./inp_files/506290.got.cif
#   From: 2010.05.17/outbox.cif.g08.bks.cpg/sg2_254_cif.got.tgz:506290.got - 2010.06.03 11:33:40.
