data_PCOD9093501
_publ_section_title
;
Structure prediction by ZEFSAII (Michael W. Deem and Ramdas Pophale) SiO2 
 PCOD9093501
Probable space group: P -1
;
_chemical_formula_sum "Si O2"
_cell_formula_units_Z 16
_cell_length_a 8.964845
_cell_length_b 17.037500
_cell_length_c 6.228240
_cell_angle_alpha 124.097823
_cell_angle_beta 77.035499
_cell_angle_gamma 97.292809
_cell_volume 767.666621
_symmetry_space_group_name_H-M "P -1"
_symmetry_group_IT_number 2
_symmetry_cell_setting 'triclinic'
loop_
_space_group_symop_operation_xyz
x,y,z
-x,-y,-z
loop_
_atom_site_type_symbol
_atom_site_label
_atom_site_fract_x
_atom_site_fract_y
_atom_site_fract_z
Si Si1 0.377375 0.122441 0.762062
Si Si2 0.073320 0.156811 0.723015
Si Si3 0.824301 0.262511 0.763802
Si Si4 0.465043 0.727955 0.814362
Si Si5 0.336475 0.608801 0.288833
Si Si6 0.116836 0.983802 0.136212
Si Si7 0.574715 0.560687 0.759504
Si Si8 0.339126 0.917816 0.644883
O O1 0.222853 0.176833 0.842999
O O2 0.494591 0.123767 0.525693
O O3 0.331642 0.013995 0.655847
O O4 0.467980 0.167770 0.003599
O O5 0.988536 0.247125 0.791756
O O6 0.953041 0.097358 0.814321
O O7 0.125401 0.082451 0.409826
O O8 0.804453 0.341195 0.707715
O O9 0.779458 0.161304 0.518754
O O10 0.693545 0.279475 0.011164
O O11 0.420752 0.686149 0.533650
O O12 0.591042 0.660560 0.786891
O O13 0.305238 0.512662 0.286051
O O14 0.455268 0.582209 0.021687
O O15 0.280529 0.949153 0.943578
O O16 0.000000 0.000000 0.000000
O O17 0.500000 0.500000 0.500000
#
# Coordination Sequence:
#
# PCOD9093501 Si02
#       8
#     2   2   2   2   2   2   2   2
#     4  10  21  38  53  85 117 151 189 240 291 333
#     4  11  22  35  55  79 114 147 201 244 277 338
#     4  10  20  33  51  81 110 149 193 235 271 331
#     4   9  19  34  54  81 115 142 183 235 280 335
#     4   9  17  32  56  83 107 143 184 228 279 335
#     4  11  20  37  56  74 102 159 207 244 278 322
#     4   8  15  32  57  84 108 134 180 237 278 327
#     4  10  20  38  54  75 114 153 202 233 281 328
#
# _framework density 20.842381
#
# number of rings (size 3 to 8) (size 9 to 14) (size 15 to 20)
#    0.000    2.250    2.500    0.750    1.750    0.500 
#    6.750    0.000    0.000    0.750    0.000   29.750 
#    0.000    0.000    0.000    0.000    0.000    0.000 
#
# Total GULP energy -89198.582135 kJ/mol
# GULP energy per Si atom -5574.911383 kJ/mol
# Density = 2.079494 g / cm^3
# Si number density = 20.842381 Si / 1000 Ang^3
#
#
#
# Elastic Constant Matrix: (Units=GPa)
#
#
# Indices 1 2 3 4 5 6 
#
# 1 73.5223 26.2526 9.4555 1.1566 -11.8545 -27.6778
# 2 26.2526 62.9817 12.7829 5.6679 -1.9334 -36.9183
# 3 9.4555 12.7829 112.2122 -1.7344 -6.3772 2.2447
# 4 1.1566 5.6679 -1.7344 21.1317 -3.0185 1.1660
# 5 -11.8545 -1.9334 -6.3772 -3.0185 17.7605 -3.3027
# 6 -27.6778 -36.9183 2.2447 1.1660 -3.3027 33.9735
#
#
#
# Elastic Compliance Matrix: (Units=1/GPa)
#
#
# Indices 1 2 3 4 5 6 
#
# 1 0.029628 0.015408 -0.003636 -0.004543 0.027549 0.043956
# 2 0.015408 0.065015 -0.009231 -0.020011 0.026845 0.087109
# 3 -0.003636 -0.009231 0.010524 0.004087 -0.001558 -0.013980
# 4 -0.004543 -0.020011 0.004087 0.054859 0.000457 -0.027555
# 5 0.027549 0.026845 -0.001558 0.000457 0.088345 0.060291
# 6 0.043956 0.087109 -0.013980 -0.027555 0.060291 0.167635
#
#
# Mechanical properties :
#
#
# Convention : Reuss Voigt Hill
#
# Bulk Modulus (GPa) = 9.07031 38.41092 23.74061
# Shear Modulus (GPa) = 11.16888 27.92147 19.54518
#
# Velocity S-wave (km/s) = 2.31741 3.66409 3.06561
# Velocity P-wave (km/s) = 3.39438 6.03075 4.89346
#
# Compressibility (1/GPa) = 0.11024977
#
# Stress axis : x y z
#
# Youngs Moduli (GPa) = 33.75216 15.38115 95.02164
#
# Poissons Ratio (x) = -0.23700 0.34547
# Poissons Ratio (y) = -0.52007 0.87714
# Poissons Ratio (z) = 0.12271 0.14198
#
# Static dielectric constant tensor:
#      x y z
#    x 1.746630 -0.042600 -0.012020 
#    y -0.042600 1.841660 0.011700 
#    z -0.012020 0.011700 1.770840 
# 
# From -- ./inp_files/44598.got.cif
#   From: 2010.05.17/outbox.cif.g08.bks.cpg/sg2_23_cif.got.tgz:44598.got - 2010.06.03 11:33:40.
