data_PCOD9093736
_publ_section_title
;
Structure prediction by ZEFSAII (Michael W. Deem and Ramdas Pophale) SiO2 
 PCOD9093736
Probable space group: P -1
;
_chemical_formula_sum "Si O2"
_cell_formula_units_Z 16
_cell_length_a 8.290506
_cell_length_b 15.088355
_cell_length_c 18.614965
_cell_angle_alpha 29.875939
_cell_angle_beta 91.696329
_cell_angle_gamma 68.420777
_cell_volume 710.502541
_symmetry_space_group_name_H-M "P -1"
_symmetry_group_IT_number 2
_symmetry_cell_setting 'triclinic'
loop_
_space_group_symop_operation_xyz
x,y,z
-x,-y,-z
loop_
_atom_site_type_symbol
_atom_site_label
_atom_site_fract_x
_atom_site_fract_y
_atom_site_fract_z
Si Si1 0.324249 0.033250 0.762198
Si Si2 0.017404 0.354163 0.886029
Si Si3 0.715907 0.284454 0.218291
Si Si4 0.424830 0.309546 0.618539
Si Si5 0.905984 0.508557 0.069862
Si Si6 0.270245 0.724228 0.445108
Si Si7 0.725262 0.303311 0.963845
Si Si8 0.954103 0.301964 0.433054
O O1 0.268725 0.266202 0.635290
O O2 0.123313 0.172467 0.598469
O O3 0.318301 0.868915 0.930642
O O4 0.604249 0.804986 0.884607
O O5 0.946682 0.511361 0.851171
O O6 0.072669 0.477469 0.751265
O O7 0.797649 0.393259 0.845125
O O8 0.288807 0.007168 0.129381
O O9 0.901347 0.297536 0.215279
O O10 0.884840 0.962596 0.432712
O O11 0.500000 0.500000 0.000000
O O12 0.535954 0.422124 0.188991
O O13 0.301731 0.553472 0.501122
O O14 0.493642 0.346125 0.518708
O O15 0.000000 0.500000 0.000000
O O16 0.282505 0.612391 0.599427
O O17 0.988724 0.068886 0.184870
#
# Coordination Sequence:
#
# PCOD9093736 Si02
#       8
#     2   2   2   2   2   2   2   2
#     4   9  19  34  56  79 102 141 186 217 260 322
#     4  10  22  36  52  82 113 139 179 224 274 313
#     4  11  18  34  54  77 108 142 182 218 258 323
#     4   9  19  37  59  82 104 139 189 220 257 328
#     4  10  20  33  57  76 103 148 184 217 260 319
#     4   9  18  35  61  79 104 144 182 221 266 315
#     4   9  18  34  53  74 107 145 177 216 256 320
#     4  11  22  34  54  83 112 142 173 226 278 311
#
# _framework density 22.519269999999999
#
# number of rings (size 3 to 8) (size 9 to 14) (size 15 to 20)
#    0.000    2.250    3.750    0.750    3.500    3.500 
#    0.000    3.750    0.000    7.500    0.000    0.000 
#    0.000    0.000    0.000    0.000    0.000    0.000 
#
# Total GULP energy -89175.838532 kJ/mol
# GULP energy per Si atom -5573.489908 kJ/mol
# Density = 2.246802 g / cm^3
# Si number density = 22.519270 Si / 1000 Ang^3
#
#
#
# Elastic Constant Matrix: (Units=GPa)
#
#
# Indices 1 2 3 4 5 6 
#
# 1 126.0403 39.2318 41.2665 -13.8189 -38.9430 -22.4904
# 2 39.2318 43.2216 32.2903 -4.9829 -12.7232 -28.3385
# 3 41.2665 32.2903 68.7345 0.8090 -33.3426 -22.1931
# 4 -13.8189 -4.9829 0.8090 22.8249 -2.0872 -2.9869
# 5 -38.9430 -12.7232 -33.3426 -2.0872 33.5509 8.1604
# 6 -22.4904 -28.3385 -22.1931 -2.9869 8.1604 41.6929
#
#
#
# Elastic Compliance Matrix: (Units=1/GPa)
#
#
# Indices 1 2 3 4 5 6 
#
# 1 0.018242 -0.012953 0.006463 0.010193 0.023154 0.000675
# 2 -0.012953 0.069200 -0.024314 0.010453 -0.020034 0.031776
# 3 0.006463 -0.024314 0.041669 0.000926 0.039385 0.001498
# 4 0.010193 0.010453 0.000926 0.055574 0.016819 0.013785
# 5 0.023154 -0.020034 0.039385 0.016819 0.088358 0.003749
# 6 0.000675 0.031776 0.001498 0.013785 0.003749 0.046998
#
#
# Mechanical properties :
#
#
# Convention : Reuss Voigt Hill
#
# Bulk Modulus (GPa) = 14.81416 51.50818 33.16117
# Shear Modulus (GPa) = 12.37167 27.96092 20.16629
#
# Velocity S-wave (km/s) = 2.34643 3.52752 2.99576
# Velocity P-wave (km/s) = 3.73279 6.28600 5.16950
#
# Compressibility (1/GPa) = 0.06750298
#
# Stress axis : x y z
#
# Youngs Moduli (GPa) = 54.81982 14.45088 23.99874
#
# Poissons Ratio (x) = 0.18718 -0.15510
# Poissons Ratio (y) = 0.71006 0.58350
# Poissons Ratio (z) = -0.35430 0.35136
#
# Static dielectric constant tensor:
#      x y z
#    x 2.005190 -0.020650 -0.028360 
#    y -0.020650 1.839810 0.050400 
#    z -0.028360 0.050400 1.865950 
# 
# From -- ./inp_files/196943.got.cif
#   From: 2010.05.17/outbox.cif.g08.bks.cpg/sg2_99_cif.got.tgz:196943.got - 2010.06.03 11:33:40.
