data_PCOD9093537
_publ_section_title
;
Structure prediction by ZEFSAII (Michael W. Deem and Ramdas Pophale) SiO2 
 PCOD9093537
Probable space group: P -1
;
_chemical_formula_sum "Si O2"
_cell_formula_units_Z 16
_cell_length_a 13.292117
_cell_length_b 11.881170
_cell_length_c 10.286786
_cell_angle_alpha 80.062958
_cell_angle_beta 55.273125
_cell_angle_gamma 35.634890
_cell_volume 618.482378
_symmetry_space_group_name_H-M "P -1"
_symmetry_group_IT_number 2
_symmetry_cell_setting 'triclinic'
loop_
_space_group_symop_operation_xyz
x,y,z
-x,-y,-z
loop_
_atom_site_type_symbol
_atom_site_label
_atom_site_fract_x
_atom_site_fract_y
_atom_site_fract_z
Si Si1 0.595262 0.494911 0.615804
Si Si2 0.915856 0.769287 0.645830
Si Si3 0.268227 0.273083 0.462484
Si Si4 0.369637 0.762061 0.999023
Si Si5 0.278102 0.838410 0.338790
Si Si6 0.841280 0.808662 0.230898
Si Si7 0.924435 0.991571 0.185071
Si Si8 0.703013 0.910031 0.045789
O O1 0.873070 0.320986 0.417651
O O2 0.570537 0.379193 0.643879
O O3 0.379868 0.733953 0.640732
O O4 0.543158 0.565305 0.795215
O O5 0.098176 0.521910 0.498364
O O6 0.773280 0.830388 0.862462
O O7 0.772264 0.986769 0.623923
O O8 0.113905 0.316116 0.661478
O O9 0.526300 0.091291 0.395082
O O10 0.419952 0.095369 0.261965
O O11 0.436215 0.715818 0.110532
O O12 0.319042 0.933578 0.958233
O O13 0.112693 0.894542 0.167635
O O14 0.000000 0.000000 0.500000
O O15 0.971658 0.820218 0.165101
O O16 0.894659 0.720436 0.062236
O O17 0.000000 0.000000 0.000000
#
# Coordination Sequence:
#
# PCOD9093537 Si02
#       8
#     2   2   2   2   2   2   2   2
#     4  10  16  30  48  71 102 130 159 202 238 292
#     4  10  17  29  47  69 100 126 160 207 245 280
#     4   9  16  30  45  66 100 132 157 212 239 281
#     4  10  17  30  52  72 103 134 158 199 253 294
#     4   9  20  30  44  74 104 124 174 198 234 304
#     4   9  16  29  46  69  99 127 165 198 247 293
#     4  10  16  29  54  72 102 131 159 197 253 296
#     4   9  16  28  45  70  98 126 165 191 250 292
#
# _framework density 25.869772999999999
#
# number of rings (size 3 to 8) (size 9 to 14) (size 15 to 20)
#    0.750    1.750    5.000    0.375    0.000    0.500 
#    0.000    5.625    0.000    0.000    0.000    7.000 
#    0.000    0.250    0.000    0.000    0.000    0.000 
#
# Total GULP energy -89248.646155 kJ/mol
# GULP energy per Si atom -5578.040385 kJ/mol
# Density = 2.581089 g / cm^3
# Si number density = 25.869773 Si / 1000 Ang^3
#
#
#
# Elastic Constant Matrix: (Units=GPa)
#
#
# Indices 1 2 3 4 5 6 
#
# 1 41.3675 26.4250 13.4150 -7.5513 15.5601 7.6281
# 2 26.4250 101.2257 20.5476 -5.8917 9.2041 22.9591
# 3 13.4150 20.5476 91.0201 -15.4595 24.9164 2.0234
# 4 -7.5513 -5.8917 -15.4595 37.2710 -2.1420 -4.8536
# 5 15.5601 9.2041 24.9164 -2.1420 45.9394 0.9237
# 6 7.6281 22.9591 2.0234 -4.8536 0.9237 29.9342
#
#
#
# Elastic Compliance Matrix: (Units=1/GPa)
#
#
# Indices 1 2 3 4 5 6 
#
# 1 0.033660 -0.007211 0.000240 0.004961 -0.009816 -0.001956
# 2 -0.007211 0.014147 -0.002450 -0.001365 0.001056 -0.009102
# 3 0.000240 -0.002450 0.014346 0.005455 -0.007157 0.001953
# 4 0.004961 -0.001365 0.005455 0.030283 -0.003042 0.004418
# 5 -0.009816 0.001056 -0.007157 -0.003042 0.028605 0.000799
# 6 -0.001956 -0.009102 0.001953 0.004418 0.000799 0.041446
#
#
# Mechanical properties :
#
#
# Convention : Reuss Voigt Hill
#
# Bulk Modulus (GPa) = 23.08768 39.37648 31.23208
# Shear Modulus (GPa) = 25.54067 34.17730 29.85899
#
# Velocity S-wave (km/s) = 3.14551 3.63868 3.40104
# Velocity P-wave (km/s) = 4.70492 5.73649 5.24612
#
# Compressibility (1/GPa) = 0.04331314
#
# Stress axis : x y z
#
# Youngs Moduli (GPa) = 29.70853 70.68413 69.70398
#
# Poissons Ratio (x) = 0.50969 -0.01672
# Poissons Ratio (y) = 0.21422 0.17074
# Poissons Ratio (z) = -0.00713 0.17314
#
# Static dielectric constant tensor:
#      x y z
#    x 2.197270 -0.012920 -0.004540 
#    y -0.012920 2.053150 0.057350 
#    z -0.004540 0.057350 2.120360 
# 
# From -- ./inp_files/537983.got.cif
#   From: 2010.05.17/outbox.cif.g08.bks.cpg/sg2_269_cif.got.tgz:537983.got - 2010.06.03 11:33:40.
