data_PCOD9093359
_publ_section_title
;
Structure prediction by ZEFSAII (Michael W. Deem and Ramdas Pophale) SiO2 
 PCOD9093359
Probable space group: P -1
;
_chemical_formula_sum "Si O2"
_cell_formula_units_Z 16
_cell_length_a 11.821074
_cell_length_b 10.969437
_cell_length_c 9.459024
_cell_angle_alpha 55.367500
_cell_angle_beta 107.390684
_cell_angle_gamma 139.594001
_cell_volume 633.240401
_symmetry_space_group_name_H-M "P -1"
_symmetry_group_IT_number 2
_symmetry_cell_setting 'triclinic'
loop_
_space_group_symop_operation_xyz
x,y,z
-x,-y,-z
loop_
_atom_site_type_symbol
_atom_site_label
_atom_site_fract_x
_atom_site_fract_y
_atom_site_fract_z
Si Si1 0.524988 0.385099 0.917508
Si Si2 0.135966 0.829221 0.348513
Si Si3 0.275319 0.670997 0.443053
Si Si4 0.737151 0.332562 0.893146
Si Si5 0.965381 0.121156 0.984643
Si Si6 0.356702 0.516711 0.793351
Si Si7 0.870227 0.164045 0.204961
Si Si8 0.825307 0.897735 0.583685
O O1 0.576990 0.278254 0.939014
O O2 0.365626 0.354171 0.849410
O O3 0.688713 0.641208 0.746631
O O4 0.520135 0.360170 0.102349
O O5 0.274241 0.825917 0.424356
O O6 0.138998 0.979834 0.340801
O O7 0.933716 0.579404 0.462515
O O8 0.157227 0.893413 0.150805
O O9 0.307443 0.717102 0.257539
O O10 0.384798 0.652381 0.584366
O O11 0.936845 0.598026 0.815456
O O12 0.767857 0.206481 0.069187
O O13 0.165146 0.379919 0.878882
O O14 0.908283 0.082773 0.148043
O O15 0.000000 0.000000 0.000000
O O16 0.762145 0.970437 0.408553
O O17 0.000000 0.000000 0.500000
#
# Coordination Sequence:
#
# PCOD9093359 Si02
#       8
#     2   2   2   2   2   2   2   2
#     4  11  23  41  63  87 121 162 208 247 304 366
#     4  10  20  32  57  89 124 147 197 253 303 356
#     4  10  20  36  58  88 119 159 199 250 303 361
#     4  11  21  38  60  91 121 164 202 248 301 367
#     4  11  20  37  63  94 120 152 196 257 307 351
#     4  10  23  40  62  89 117 165 206 242 303 376
#     4  11  22  35  64  94 122 155 203 253 305 356
#     4  12  21  38  60  94 124 156 200 261 306 351
#
# _framework density 25.266866
#
# number of rings (size 3 to 8) (size 9 to 14) (size 15 to 20)
#    0.000    1.250    5.000    1.500    1.750    1.500 
#    0.000    0.625    2.750    1.500    0.000    0.000 
#    0.000    0.000    0.000    0.000    0.000    0.000 
#
# Total GULP energy -89434.506928 kJ/mol
# GULP energy per Si atom -5589.656683 kJ/mol
# Density = 2.520936 g / cm^3
# Si number density = 25.266866 Si / 1000 Ang^3
#
#
#
# Elastic Constant Matrix: (Units=GPa)
#
#
# Indices 1 2 3 4 5 6 
#
# 1 165.7366 28.6730 65.6552 11.0766 14.8608 -7.6467
# 2 28.6730 54.7226 28.1293 1.6752 -6.3024 -5.5528
# 3 65.6552 28.1293 143.0336 18.9842 22.5779 7.4266
# 4 11.0766 1.6752 18.9842 33.2694 -0.3620 -4.6364
# 5 14.8608 -6.3024 22.5779 -0.3620 52.8472 -1.8378
# 6 -7.6467 -5.5528 7.4266 -4.6364 -1.8378 29.8794
#
#
#
# Elastic Compliance Matrix: (Units=1/GPa)
#
#
# Indices 1 2 3 4 5 6 
#
# 1 0.007888 -0.002497 -0.002989 -0.000508 -0.001168 0.002147
# 2 -0.002497 0.023411 -0.005163 0.003485 0.005929 0.005900
# 3 -0.002989 -0.005163 0.011235 -0.006009 -0.004816 -0.005745
# 4 -0.000508 0.003485 -0.006009 0.034579 0.003627 0.007600
# 5 -0.001168 0.005929 -0.004816 0.003627 0.022177 0.003927
# 6 0.002147 0.005900 -0.005745 0.007600 0.003927 0.037963
#
#
# Mechanical properties :
#
#
# Convention : Reuss Voigt Hill
#
# Bulk Modulus (GPa) = 47.09146 67.60087 57.34617
# Shear Modulus (GPa) = 30.18820 39.26822 34.72821
#
# Velocity S-wave (km/s) = 3.46030 3.94653 3.71139
# Velocity P-wave (km/s) = 5.88583 6.89780 6.41181
#
# Compressibility (1/GPa) = 0.02123527
#
# Stress axis : x y z
#
# Youngs Moduli (GPa) = 126.78224 42.71480 89.01011
#
# Poissons Ratio (x) = 0.10668 0.26606
# Poissons Ratio (y) = 0.31663 0.45951
# Poissons Ratio (z) = 0.37896 0.22052
#
# Static dielectric constant tensor:
#      x y z
#    x 2.003700 0.053320 0.063270 
#    y 0.053320 2.129210 -0.052030 
#    z 0.063270 -0.052030 1.975720 
# 
# From -- ./inp_files/256796.got.cif
#   From: 2010.05.17/outbox.cif.g08.bks.cpg/sg2_129_cif.got.tgz:256796.got - 2010.06.03 11:33:40.
