data_PCOD9093190
_publ_section_title
;
Structure prediction by ZEFSAII (Michael W. Deem and Ramdas Pophale) SiO2 
 PCOD9093190
Probable space group: P -1
;
_chemical_formula_sum "Si O2"
_cell_formula_units_Z 14
_cell_length_a 15.249884
_cell_length_b 8.804335
_cell_length_c 11.529215
_cell_angle_alpha 38.701577
_cell_angle_beta 38.777086
_cell_angle_gamma 40.156753
_cell_volume 556.085471
_symmetry_space_group_name_H-M "P -1"
_symmetry_group_IT_number 2
_symmetry_cell_setting 'triclinic'
loop_
_space_group_symop_operation_xyz
x,y,z
-x,-y,-z
loop_
_atom_site_type_symbol
_atom_site_label
_atom_site_fract_x
_atom_site_fract_y
_atom_site_fract_z
Si Si1 0.944542 0.046645 0.244070
Si Si2 0.198476 0.339635 0.950534
Si Si3 0.494441 0.666424 0.247267
Si Si4 0.048463 0.340775 0.332714
Si Si5 0.374516 0.924501 0.552831
Si Si6 0.800421 0.872012 0.175476
Si Si7 0.640791 0.803697 0.810272
O O1 0.905095 0.348807 0.143881
O O2 0.793187 0.056665 0.328986
O O3 0.982192 0.852072 0.430432
O O4 0.086190 0.980342 0.050802
O O5 0.353781 0.335655 0.846840
O O6 0.232432 0.193156 0.881625
O O7 0.119251 0.234988 0.195689
O O8 0.497828 0.627553 0.577934
O O9 0.366983 0.913473 0.295542
O O10 0.519111 0.731895 0.050227
O O11 0.187297 0.393845 0.219701
O O12 0.899981 0.601595 0.302845
O O13 0.347272 0.979475 0.683612
O O14 0.395218 0.140513 0.319883
#
# Coordination Sequence:
#
# PCOD9093190 Si02
#       7
#     2   2   2   2   2   2   2
#     4   9  18  32  50  69  97 136 167 194 235 288
#     4   9  19  33  49  73 101 132 164 197 239 293
#     4   9  18  36  56  71  93 128 173 206 234 282
#     4   9  18  32  52  75  97 127 169 203 236 288
#     4  10  20  32  50  77 101 127 161 203 249 289
#     4  11  21  31  47  77 110 128 151 199 255 298
#     4   9  18  33  56  75  91 126 172 211 235 274
#
# _framework density 25.175986000000002
#
# number of rings (size 3 to 8) (size 9 to 14) (size 15 to 20)
#    0.000    2.571    0.000    3.429    0.000    5.714 
#    0.000    0.714    0.000    7.714    0.000    0.000 
#    0.000    0.000    0.000    0.000    0.000    0.000 
#
# Total GULP energy -78318.345174 kJ/mol
# GULP energy per Si atom -5594.167512 kJ/mol
# Density = 2.511868 g / cm^3
# Si number density = 25.175986 Si / 1000 Ang^3
#
#
#
# Elastic Constant Matrix: (Units=GPa)
#
#
# Indices 1 2 3 4 5 6 
#
# 1 71.7375 24.2588 30.6113 0.2319 27.9006 -6.7275
# 2 24.2588 67.4935 18.6990 4.8352 15.2168 -5.0384
# 3 30.6113 18.6990 149.9552 -1.9139 39.4970 -3.9756
# 4 0.2319 4.8352 -1.9139 27.9715 -10.6312 9.0914
# 5 27.9006 15.2168 39.4970 -10.6312 45.1606 4.1276
# 6 -6.7275 -5.0384 -3.9756 9.0914 4.1276 28.0647
#
#
#
# Elastic Compliance Matrix: (Units=1/GPa)
#
#
# Indices 1 2 3 4 5 6 
#
# 1 0.021941 -0.003031 0.000176 -0.008820 -0.015669 0.009902
# 2 -0.003031 0.018419 0.000203 -0.007762 -0.006899 0.006138
# 3 0.000176 0.000203 0.009211 -0.004465 -0.009673 0.004252
# 4 -0.008820 -0.007762 -0.004465 0.055864 0.027522 -0.026285
# 5 -0.015669 -0.006899 -0.009673 0.027522 0.051171 -0.022807
# 6 0.009902 0.006138 0.004252 -0.026285 -0.022807 0.051579
#
#
# Mechanical properties :
#
#
# Convention : Reuss Voigt Hill
#
# Bulk Modulus (GPa) = 22.59038 48.48049 35.53544
# Shear Modulus (GPa) = 21.90629 34.61384 28.26007
#
# Velocity S-wave (km/s) = 2.95299 3.71195 3.35401
# Velocity P-wave (km/s) = 4.54085 6.13758 5.39858
#
# Compressibility (1/GPa) = 0.04426663
#
# Stress axis : x y z
#
# Youngs Moduli (GPa) = 45.57727 54.29075 108.56778
#
# Poissons Ratio (x) = 0.16456 -0.01912
# Poissons Ratio (y) = 0.13815 -0.02202
# Poissons Ratio (z) = -0.00803 -0.01101
#
# Static dielectric constant tensor:
#      x y z
#    x 2.033830 0.007390 -0.014780 
#    y 0.007390 2.017550 0.009510 
#    z -0.014780 0.009510 1.982370 
# 
# From -- ./inp_files/202583.got.cif
#   From: 2010.05.17/outbox.cif.g08.bks.cpg/sg2_102_cif.got.tgz:202583.got - 2010.06.03 11:33:40.
