data_PCOD9093413
_publ_section_title
;
Structure prediction by ZEFSAII (Michael W. Deem and Ramdas Pophale) SiO2 
 PCOD9093413
Probable space group: P -1
;
_chemical_formula_sum "Si O2"
_cell_formula_units_Z 12
_cell_length_a 7.819207
_cell_length_b 15.718678
_cell_length_c 4.917132
_cell_angle_alpha 63.434991
_cell_angle_beta 61.581910
_cell_angle_gamma 64.949547
_cell_volume 458.061051
_symmetry_space_group_name_H-M "P -1"
_symmetry_group_IT_number 2
_symmetry_cell_setting 'triclinic'
loop_
_space_group_symop_operation_xyz
x,y,z
-x,-y,-z
loop_
_atom_site_type_symbol
_atom_site_label
_atom_site_fract_x
_atom_site_fract_y
_atom_site_fract_z
Si Si1 0.721326 0.191037 0.603354
Si Si2 0.798046 0.874724 0.780600
Si Si3 0.766358 0.996809 0.139549
Si Si4 0.065177 0.593573 0.207419
Si Si5 0.833204 0.676399 0.751398
Si Si6 0.414382 0.672577 0.984860
O O1 0.603808 0.243481 0.353618
O O2 0.956493 0.153924 0.394337
O O3 0.689409 0.273215 0.743664
O O4 0.665460 0.098388 0.916853
O O5 0.706649 0.969596 0.521625
O O6 0.747745 0.780452 0.819010
O O7 0.755016 0.909004 0.071268
O O8 0.000000 0.000000 0.000000
O O9 0.998724 0.385569 0.083684
O O10 0.000000 0.500000 0.500000
O O11 0.928793 0.680882 0.377614
O O12 0.291163 0.598120 0.081666
O O13 0.648656 0.627781 0.931174
#
# Coordination Sequence:
#
# PCOD9093413 Si02
#       6
#     2   2   2   2   2   2
#     4  11  20  39  63  94 135 176 221 267 322 380
#     4  11  19  38  61  92 133 173 222 270 316 378
#     4  10  20  32  61  97 126 177 228 264 312 373
#     4  12  26  48  73  98 131 170 214 276 338 401
#     4  12  26  44  70 101 133 172 220 269 331 399
#     4  12  24  43  68  99 134 174 217 270 329 394
#
# _framework density 26.197381
#
# number of rings (size 3 to 8) (size 9 to 14) (size 15 to 20)
#    0.000    0.667    3.333    7.500    0.000    1.333 
#    0.000    5.000    0.000    0.000    0.000    0.000 
#    0.000    0.000    0.000    0.000    0.000    0.000 
#
# Total GULP energy -67301.799954 kJ/mol
# GULP energy per Si atom -5608.483329 kJ/mol
# Density = 2.613775 g / cm^3
# Si number density = 26.197381 Si / 1000 Ang^3
#
#
#
# Elastic Constant Matrix: (Units=GPa)
#
#
# Indices 1 2 3 4 5 6 
#
# 1 143.0201 19.7159 24.5663 7.6883 -9.0993 24.3078
# 2 19.7159 65.2194 12.1236 5.6927 0.3214 15.8325
# 3 24.5663 12.1236 106.9944 3.4272 22.7787 11.7675
# 4 7.6883 5.6927 3.4272 43.5709 12.9626 -6.2481
# 5 -9.0993 0.3214 22.7787 12.9626 49.3641 0.7730
# 6 24.3078 15.8325 11.7675 -6.2481 0.7730 28.7438
#
#
#
# Elastic Compliance Matrix: (Units=1/GPa)
#
#
# Indices 1 2 3 4 5 6 
#
# 1 0.009067 -0.000243 -0.001864 -0.003588 0.003595 -0.007648
# 2 -0.000243 0.018532 -0.001096 -0.004288 0.001631 -0.010530
# 3 -0.001864 -0.001096 0.011329 0.001006 -0.005796 -0.002084
# 4 -0.003588 -0.004288 0.001006 0.028284 -0.008703 0.011366
# 5 0.003595 0.001631 -0.005796 -0.008703 0.025934 -0.004155
# 6 -0.007648 -0.010530 -0.002084 0.011366 -0.004155 0.050493
#
#
# Mechanical properties :
#
#
# Convention : Reuss Voigt Hill
#
# Bulk Modulus (GPa) = 30.74642 47.56061 39.15351
# Shear Modulus (GPa) = 31.07789 41.59096 36.33442
#
# Velocity S-wave (km/s) = 3.44800 3.98879 3.72822
# Velocity P-wave (km/s) = 5.25486 6.27759 5.78885
#
# Compressibility (1/GPa) = 0.03252411
#
# Stress axis : x y z
#
# Youngs Moduli (GPa) = 110.29076 53.95968 88.26734
#
# Poissons Ratio (x) = 0.01309 0.16449
# Poissons Ratio (y) = 0.02675 0.09675
# Poissons Ratio (z) = 0.20554 0.05914
#
# Static dielectric constant tensor:
#      x y z
#    x 2.078390 -0.001020 -0.071150 
#    y -0.001020 2.075120 -0.031910 
#    z -0.071150 -0.031910 1.972260 
# 
# From -- ./inp_files/31597.got.cif
#   From: 2010.05.17/outbox.cif.g08.bks.cpg/sg2_16_cif.got.tgz:31597.got - 2010.06.03 11:33:40.
