data_PCOD9093027
_publ_section_title
;
Structure prediction by ZEFSAII (Michael W. Deem and Ramdas Pophale) SiO2 
 PCOD9093027
Probable space group: P -1
;
_chemical_formula_sum "Si O2"
_cell_formula_units_Z 12
_cell_length_a 12.194526
_cell_length_b 5.648138
_cell_length_c 8.286064
_cell_angle_alpha 61.211705
_cell_angle_beta 65.982814
_cell_angle_gamma 74.174483
_cell_volume 454.771038
_symmetry_space_group_name_H-M "P -1"
_symmetry_group_IT_number 2
_symmetry_cell_setting 'triclinic'
loop_
_space_group_symop_operation_xyz
x,y,z
-x,-y,-z
loop_
_atom_site_type_symbol
_atom_site_label
_atom_site_fract_x
_atom_site_fract_y
_atom_site_fract_z
Si Si1 0.420414 0.406394 0.427700
Si Si2 0.346595 0.859956 0.779851
Si Si3 0.817044 0.567316 0.949659
Si Si4 0.963331 0.643346 0.306825
Si Si5 0.039802 0.848218 0.694661
Si Si6 0.640174 0.051558 0.884624
O O1 0.500000 0.500000 0.500000
O O2 0.517296 0.280985 0.279136
O O3 0.349267 0.676387 0.311359
O O4 0.347360 0.154653 0.602175
O O5 0.264600 0.629397 0.843337
O O6 0.320522 0.908702 0.967895
O O7 0.906814 0.366190 0.854319
O O8 0.919813 0.756491 0.885451
O O9 0.720498 0.789970 0.852020
O O10 0.893882 0.436283 0.310868
O O11 0.000000 0.500000 0.500000
O O12 0.907716 0.938653 0.290353
O O13 0.000000 0.000000 0.500000
O O14 0.500000 0.000000 0.000000
#
# Coordination Sequence:
#
# PCOD9093027 Si02
#       6
#     2   2   2   2   2   2
#     4  11  23  38  56  79 117 160 206 243 294 346
#     4  11  22  37  56  82 117 159 203 244 295 351
#     4  10  20  30  56  80 117 154 199 239 295 359
#     4   8  15  28  48  77 112 142 188 245 288 343
#     4   8  15  29  48  76 112 142 186 245 290 341
#     4  12  22  37  56  84 119 159 198 247 292 354
#
# _framework density 26.386904999999999
#
# number of rings (size 3 to 8) (size 9 to 14) (size 15 to 20)
#    1.000    1.000    3.333    1.500    0.000    0.000 
#    0.000    0.000    0.000    0.000    0.000    2.333 
#    0.000    0.333    0.000    0.000    0.000    0.000 
#
# Total GULP energy -67019.087925 kJ/mol
# GULP energy per Si atom -5584.923994 kJ/mol
# Density = 2.632685 g / cm^3
# Si number density = 26.386905 Si / 1000 Ang^3
#
#
#
# Elastic Constant Matrix: (Units=GPa)
#
#
# Indices 1 2 3 4 5 6 
#
# 1 85.1979 48.9320 49.6649 -16.4360 -13.8089 5.8268
# 2 48.9320 217.7820 44.3349 -36.0756 1.2106 8.4653
# 3 49.6649 44.3349 147.2024 -48.8334 3.4996 -4.1541
# 4 -16.4360 -36.0756 -48.8334 59.4026 -0.2940 0.9638
# 5 -13.8089 1.2106 3.4996 -0.2940 31.2662 -18.1651
# 6 5.8268 8.4653 -4.1541 0.9638 -18.1651 50.9569
#
#
#
# Elastic Compliance Matrix: (Units=1/GPa)
#
#
# Indices 1 2 3 4 5 6 
#
# 1 0.018210 -0.003294 -0.005946 -0.001826 0.009667 0.001461
# 2 -0.003294 0.005819 0.000345 0.002918 -0.002585 -0.001539
# 3 -0.005946 0.000345 0.011419 0.007932 -0.003819 0.000042
# 4 -0.001826 0.002918 0.007932 0.024625 -0.002057 -0.000828
# 5 0.009667 -0.002585 -0.003819 -0.002057 0.045669 0.015332
# 6 0.001461 -0.001539 0.000042 -0.000828 0.015332 0.025198
#
#
# Mechanical properties :
#
#
# Convention : Reuss Voigt Hill
#
# Bulk Modulus (GPa) = 56.63238 81.78287 69.20763
# Shear Modulus (GPa) = 32.33804 48.80852 40.57328
#
# Velocity S-wave (km/s) = 3.50456 4.30551 3.92552
# Velocity P-wave (km/s) = 6.15506 7.46844 6.84333
#
# Compressibility (1/GPa) = 0.01765774
#
# Stress axis : x y z
#
# Youngs Moduli (GPa) = 54.91415 171.84309 87.57303
#
# Poissons Ratio (x) = 0.56606 0.52073
# Poissons Ratio (y) = 0.18089 -0.03020
# Poissons Ratio (z) = 0.32653 -0.05927
#
# Static dielectric constant tensor:
#      x y z
#    x 1.922160 0.024270 0.007130 
#    y 0.024270 2.085260 0.007180 
#    z 0.007130 0.007180 2.062990 
# 
# From -- ./inp_files/79669.got.cif
#   From: 2010.05.17/outbox.cif.g08.bks.cpg/sg2_40_cif.got.tgz:79669.got - 2010.06.03 11:33:40.
