data_PCOD9093425
_publ_section_title
;
Structure prediction by ZEFSAII (Michael W. Deem and Ramdas Pophale) SiO2 
 PCOD9093425
Probable space group: P -1
;
_chemical_formula_sum "Si O2"
_cell_formula_units_Z 16
_cell_length_a 16.649146
_cell_length_b 19.346972
_cell_length_c 9.033952
_cell_angle_alpha 153.907926
_cell_angle_beta 33.203140
_cell_angle_gamma 147.648748
_cell_volume 646.097120
_symmetry_space_group_name_H-M "P -1"
_symmetry_group_IT_number 2
_symmetry_cell_setting 'triclinic'
loop_
_space_group_symop_operation_xyz
x,y,z
-x,-y,-z
loop_
_atom_site_type_symbol
_atom_site_label
_atom_site_fract_x
_atom_site_fract_y
_atom_site_fract_z
Si Si1 0.480610 0.554902 0.380785
Si Si2 0.442583 0.085001 0.382239
Si Si3 0.332042 0.262429 0.289590
Si Si4 0.891317 0.935881 0.190803
Si Si5 0.330249 0.920060 0.531500
Si Si6 0.974698 0.325600 0.371733
Si Si7 0.997089 0.830986 0.267120
Si Si8 0.696552 0.430034 0.616042
O O1 0.404373 0.385992 0.276822
O O2 0.546942 0.698922 0.683616
O O3 0.365005 0.573395 0.465719
O O4 0.629202 0.546754 0.043004
O O5 0.298928 0.147580 0.697834
O O6 0.601115 0.246892 0.485802
O O7 0.365923 0.942826 0.349091
O O8 0.500000 0.000000 0.000000
O O9 0.179669 0.287147 0.636397
O O10 0.267212 0.066479 0.960849
O O11 0.911503 0.089606 0.570033
O O12 0.950710 0.799047 0.906368
O O13 0.000000 0.000000 0.000000
O O14 0.203980 0.734532 0.407939
O O15 0.500000 0.000000 0.500000
O O16 0.113980 0.504390 0.539130
O O17 0.954430 0.274176 0.132522
O O18 0.000000 0.000000 0.500000
#
# Coordination Sequence:
#
# PCOD9093425 Si02
#       8
#     2   2   2   2   2   2   2   2
#     4  10  22  35  68 101 135 169 217 296 340 391
#     4  12  28  46  70 101 138 186 229 277 347 422
#     4  11  20  40  62 103 135 171 229 275 347 396
#     4  11  21  40  71 102 133 173 235 288 327 393
#     4  12  27  44  70  94 142 188 225 273 341 426
#     4  11  23  41  68 102 133 172 229 290 341 393
#     4  10  20  32  62  99 130 165 217 284 331 385
#     4  11  23  41  67  99 136 171 227 288 350 394
#
# _framework density 24.764081000000001
#
# number of rings (size 3 to 8) (size 9 to 14) (size 15 to 20)
#    0.000    1.000    6.250    1.500    7.000    0.000 
#    0.000    1.250    5.500    0.000    0.000    0.000 
#    0.000    0.000    0.000    0.000    0.000    0.000 
#
# Total GULP energy -89448.706527 kJ/mol
# GULP energy per Si atom -5590.544158 kJ/mol
# Density = 2.470772 g / cm^3
# Si number density = 24.764081 Si / 1000 Ang^3
#
#
#
# Elastic Constant Matrix: (Units=GPa)
#
#
# Indices 1 2 3 4 5 6 
#
# 1 102.5084 45.6396 28.9092 -17.9769 18.4194 0.4038
# 2 45.6396 162.2635 31.9199 -37.2538 10.0919 20.6329
# 3 28.9092 31.9199 57.9106 -22.0037 28.0484 -6.5832
# 4 -17.9769 -37.2538 -22.0037 41.8024 -2.7479 6.9679
# 5 18.4194 10.0919 28.0484 -2.7479 46.3804 -3.6149
# 6 0.4038 20.6329 -6.5832 6.9679 -3.6149 45.0289
#
#
#
# Elastic Compliance Matrix: (Units=1/GPa)
#
#
# Indices 1 2 3 4 5 6 
#
# 1 0.012390 -0.002429 -0.003180 0.001310 -0.002381 0.000143
# 2 -0.002429 0.009713 -0.001940 0.007572 0.000014 -0.005883
# 3 -0.003180 -0.001940 0.033803 0.013127 -0.017792 0.002400
# 4 0.001310 0.007572 0.013127 0.038967 -0.008442 -0.008270
# 5 -0.002381 0.000014 -0.017792 -0.008442 0.032869 0.001359
# 6 0.000143 -0.005883 0.002400 -0.008270 0.001359 0.026642
#
#
# Mechanical properties :
#
#
# Convention : Reuss Voigt Hill
#
# Bulk Modulus (GPa) = 24.50422 59.51332 42.00877
# Shear Modulus (GPa) = 27.30985 41.05659 34.18322
#
# Velocity S-wave (km/s) = 3.32445 4.07616 3.71934
# Velocity P-wave (km/s) = 4.96513 6.79983 5.95358
#
# Compressibility (1/GPa) = 0.04080930
#
# Stress axis : x y z
#
# Youngs Moduli (GPa) = 80.70814 102.95122 29.58344
#
# Poissons Ratio (x) = 0.25007 0.09406
# Poissons Ratio (y) = 0.19604 0.05739
# Poissons Ratio (z) = 0.25661 0.19972
#
# Static dielectric constant tensor:
#      x y z
#    x 2.168520 0.015710 -0.131200 
#    y 0.015710 2.004620 0.029350 
#    z -0.131200 0.029350 2.037460 
# 
# From -- ./inp_files/338226.got.cif
#   From: 2010.05.17/outbox.cif.g08.bks.cpg/sg2_170_cif.got.tgz:338226.got - 2010.06.03 11:33:40.
