data_PCOD9093603
_publ_section_title
;
Structure prediction by ZEFSAII (Michael W. Deem and Ramdas Pophale) SiO2 
 PCOD9093603
Probable space group: P -1
;
_chemical_formula_sum "Si O2"
_cell_formula_units_Z 14
_cell_length_a 8.542492
_cell_length_b 5.749516
_cell_length_c 16.760541
_cell_angle_alpha 72.099315
_cell_angle_beta 137.141343
_cell_angle_gamma 103.253500
_cell_volume 532.816433
_symmetry_space_group_name_H-M "P -1"
_symmetry_group_IT_number 2
_symmetry_cell_setting 'triclinic'
loop_
_space_group_symop_operation_xyz
x,y,z
-x,-y,-z
loop_
_atom_site_type_symbol
_atom_site_label
_atom_site_fract_x
_atom_site_fract_y
_atom_site_fract_z
Si Si1 0.816921 0.880068 0.884822
Si Si2 0.436786 0.470884 0.259343
Si Si3 0.754847 0.691706 0.159142
Si Si4 0.695616 0.989888 0.467579
Si Si5 0.747055 0.244239 0.686882
Si Si6 0.129346 0.259857 0.602589
Si Si7 0.527437 0.160405 0.110901
O O1 0.763580 0.597840 0.871288
O O2 0.580649 0.937420 0.837092
O O3 0.837204 0.004106 0.792915
O O4 0.000000 0.000000 0.000000
O O5 0.565206 0.233138 0.366234
O O6 0.324829 0.591330 0.282222
O O7 0.646675 0.625116 0.283102
O O8 0.655258 0.413465 0.153493
O O9 0.026848 0.655582 0.281223
O O10 0.667102 0.945232 0.141880
O O11 0.683111 0.760869 0.033488
O O12 0.938349 0.074097 0.587813
O O13 0.487405 0.820067 0.442359
O O14 0.775925 0.859584 0.430313
O O15 0.000000 0.500000 0.500000
#
# Coordination Sequence:
#
# PCOD9093603 Si02
#       7
#     2   2   2   2   2   2   2
#     4  11  22  35  52  79 109 145 186 235 277 326
#     4   9  19  29  49  77 111 137 181 223 283 322
#     4  10  22  39  56  75 108 148 192 234 276 334
#     4   8  15  27  47  76 109 133 175 218 282 318
#     4  10  20  33  54  81 108 143 186 234 273 327
#     4   8  13  27  46  73 109 139 163 221 277 330
#     4  10  23  39  55  76 107 150 191 230 285 329
#
# _framework density 26.275466000000002
#
# number of rings (size 3 to 8) (size 9 to 14) (size 15 to 20)
#    0.000    2.571    1.429    0.000    6.000    1.714 
#    0.000    0.000    0.000    0.000    0.000    2.000 
#    0.000    0.000    0.000    0.000    0.000    0.000 
#
# Total GULP energy -78041.259067 kJ/mol
# GULP energy per Si atom -5574.375648 kJ/mol
# Density = 2.621566 g / cm^3
# Si number density = 26.275466 Si / 1000 Ang^3
#
#
#
# Elastic Constant Matrix: (Units=GPa)
#
#
# Indices 1 2 3 4 5 6 
#
# 1 64.7815 44.3360 33.8592 26.1781 29.8054 -2.7775
# 2 44.3360 131.8250 70.1507 43.8337 25.7341 -4.4680
# 3 33.8592 70.1507 106.8640 50.9444 12.5530 -7.2039
# 4 26.1781 43.8337 50.9444 71.4911 6.1119 -1.5979
# 5 29.8054 25.7341 12.5530 6.1119 47.1540 6.2018
# 6 -2.7775 -4.4680 -7.2039 -1.5979 6.2018 34.8027
#
#
#
# Elastic Compliance Matrix: (Units=1/GPa)
#
#
# Indices 1 2 3 4 5 6 
#
# 1 0.028229 -0.003546 -0.002034 -0.005330 -0.015180 0.003837
# 2 -0.003546 0.013506 -0.006251 -0.002235 -0.003259 0.000635
# 3 -0.002034 -0.006251 0.018181 -0.008382 0.000641 0.002299
# 4 -0.005330 -0.002235 -0.008382 0.022881 0.004135 -0.002133
# 5 -0.015180 -0.003259 0.000641 0.004135 0.032815 -0.007155
# 6 0.003837 0.000635 0.002299 -0.002133 -0.007155 0.030774
#
#
# Mechanical properties :
#
#
# Convention : Reuss Voigt Hill
#
# Bulk Modulus (GPa) = 27.58337 66.68470 47.13404
# Shear Modulus (GPa) = 27.45233 41.03121 34.24177
#
# Velocity S-wave (km/s) = 3.23583 3.95597 3.61388
# Velocity P-wave (km/s) = 4.94786 6.80444 5.94902
#
# Compressibility (1/GPa) = 0.03625373
#
# Stress axis : x y z
#
# Youngs Moduli (GPa) = 35.42467 74.04094 55.00204
#
# Poissons Ratio (x) = 0.26257 0.11185
# Poissons Ratio (y) = 0.12563 0.34383
# Poissons Ratio (z) = 0.07204 0.46285
#
# Static dielectric constant tensor:
#      x y z
#    x 2.128930 0.015480 -0.044120 
#    y 0.015480 2.129490 0.117500 
#    z -0.044120 0.117500 2.208260 
# 
# From -- ./inp_files/34637.got.cif
#   From: 2010.05.17/outbox.cif.g08.bks.cpg/sg2_18_cif.got.tgz:34637.got - 2010.06.03 11:33:40.
