data_PCOD9093447
_publ_section_title
;
Structure prediction by ZEFSAII (Michael W. Deem and Ramdas Pophale) SiO2 
 PCOD9093447
Probable space group: P -1
;
_chemical_formula_sum "Si O2"
_cell_formula_units_Z 16
_cell_length_a 15.488517
_cell_length_b 23.937488
_cell_length_c 15.124242
_cell_angle_alpha 31.230591
_cell_angle_beta 18.853737
_cell_angle_gamma 30.935678
_cell_volume 899.236351
_symmetry_space_group_name_H-M "P -1"
_symmetry_group_IT_number 2
_symmetry_cell_setting 'triclinic'
loop_
_space_group_symop_operation_xyz
x,y,z
-x,-y,-z
loop_
_atom_site_type_symbol
_atom_site_label
_atom_site_fract_x
_atom_site_fract_y
_atom_site_fract_z
Si Si1 0.074250 0.371963 0.640459
Si Si2 0.103353 0.417165 0.746376
Si Si3 0.517244 0.123221 0.294987
Si Si4 0.899147 0.218482 0.690453
Si Si5 0.407065 0.709222 0.859223
Si Si6 0.487465 0.438328 0.881019
Si Si7 0.886801 0.351066 0.351636
Si Si8 0.336164 0.388494 0.738550
O O1 0.020967 0.367554 0.802904
O O2 0.394537 0.309064 0.392573
O O3 0.000000 0.500000 0.500000
O O4 0.889027 0.306208 0.857201
O O5 0.331697 0.475678 0.412163
O O6 0.242620 0.348766 0.790059
O O7 0.818038 0.506509 0.935864
O O8 0.597911 0.182332 0.224242
O O9 0.206339 0.193694 0.468665
O O10 0.500000 0.000000 0.500000
O O11 0.750135 0.125317 0.992074
O O12 0.678263 0.329442 0.794252
O O13 0.919879 0.250919 0.524659
O O14 0.548704 0.604347 0.928529
O O15 0.662013 0.348111 0.498297
O O16 0.759272 0.474096 0.354890
O O17 0.172808 0.352859 0.026011
#
# Coordination Sequence:
#
# PCOD9093447 Si02
#       8
#     2   2   2   2   2   2   2   2
#     4  12  21  33  48  76 106 144 188 209 244 311
#     4  12  21  30  47  68 110 142 185 207 246 289
#     4  11  24  40  59  81 107 135 177 231 282 317
#     4  11  21  35  57  77 104 140 182 213 275 320
#     4  11  21  35  50  73 104 141 176 222 251 312
#     4  11  19  30  47  72  99 143 179 211 238 303
#     4  10  20  33  49  71 101 141 183 214 256 308
#     4  10  21  31  45  72 106 141 182 218 246 296
#
# _framework density 17.792874999999999
#
# number of rings (size 3 to 8) (size 9 to 14) (size 15 to 20)
#    0.000    1.000    3.750    6.000    3.500    0.000 
#    0.000    0.000    0.000    0.000    0.000    0.000 
#    0.000   20.000    0.000    0.000    0.000    0.000 
#
# Total GULP energy -89286.343591 kJ/mol
# GULP energy per Si atom -5580.396474 kJ/mol
# Density = 1.775238 g / cm^3
# Si number density = 17.792875 Si / 1000 Ang^3
#
#
#
# Elastic Constant Matrix: (Units=GPa)
#
#
# Indices 1 2 3 4 5 6 
#
# 1 77.9333 18.9507 13.4062 -12.6378 -8.9691 -4.4271
# 2 18.9507 26.0234 22.4396 -6.4050 0.5277 1.5026
# 3 13.4062 22.4396 91.8033 -10.2962 -10.8981 -1.5257
# 4 -12.6378 -6.4050 -10.2962 26.9734 -7.4428 -2.0622
# 5 -8.9691 0.5277 -10.8981 -7.4428 27.0004 3.4441
# 6 -4.4271 1.5026 -1.5257 -2.0622 3.4441 12.4224
#
#
#
# Elastic Compliance Matrix: (Units=1/GPa)
#
#
# Indices 1 2 3 4 5 6 
#
# 1 0.019066 -0.014901 0.003247 0.009905 0.009650 0.007965
# 2 -0.014901 0.062542 -0.014829 -0.001772 -0.011127 -0.011906
# 3 0.003247 -0.014829 0.015980 0.006928 0.009283 0.003490
# 4 0.009905 -0.001772 0.006928 0.049724 0.018856 0.007622
# 5 0.009650 -0.011127 0.009283 0.018856 0.050018 -0.004812
# 6 0.007965 -0.011906 0.003490 0.007622 -0.004812 0.087807
#
#
# Mechanical properties :
#
#
# Convention : Reuss Voigt Hill
#
# Bulk Modulus (GPa) = 22.41051 33.92812 28.16931
# Shear Modulus (GPa) = 14.16523 22.67678 18.42100
#
# Velocity S-wave (km/s) = 2.82462 3.57387 3.22110
# Velocity P-wave (km/s) = 4.82291 6.01164 5.44979
#
# Compressibility (1/GPa) = 0.04462193
#
# Stress axis : x y z
#
# Youngs Moduli (GPa) = 52.45013 15.98930 62.57679
#
# Poissons Ratio (x) = 0.23826 -0.20319
# Poissons Ratio (y) = 0.78158 0.92793
# Poissons Ratio (z) = -0.17031 0.23710
#
# Static dielectric constant tensor:
#      x y z
#    x 1.674270 0.013580 0.014400 
#    y 0.013580 1.606770 0.006230 
#    z 0.014400 0.006230 1.641460 
# 
# From -- ./inp_files/454752.got.cif
#   From: 2010.05.17/outbox.cif.g08.bks.cpg/sg2_228_cif.got.tgz:454752.got - 2010.06.03 11:33:40.
