data_PCOD9093687
_publ_section_title
;
Structure prediction by ZEFSAII (Michael W. Deem and Ramdas Pophale) SiO2 
 PCOD9093687
Probable space group: P -1
;
_chemical_formula_sum "Si O2"
_cell_formula_units_Z 16
_cell_length_a 15.127583
_cell_length_b 9.691692
_cell_length_c 6.234426
_cell_angle_alpha 94.510393
_cell_angle_beta 102.520581
_cell_angle_gamma 70.099290
_cell_volume 839.006784
_symmetry_space_group_name_H-M "P -1"
_symmetry_group_IT_number 2
_symmetry_cell_setting 'triclinic'
loop_
_space_group_symop_operation_xyz
x,y,z
-x,-y,-z
loop_
_atom_site_type_symbol
_atom_site_label
_atom_site_fract_x
_atom_site_fract_y
_atom_site_fract_z
Si Si1 0.386397 0.555920 0.435816
Si Si2 0.743097 0.187827 0.879918
Si Si3 0.247885 0.592699 0.741451
Si Si4 0.100689 0.525546 0.339510
Si Si5 0.078337 0.040158 0.186627
Si Si6 0.221950 0.114041 0.974084
Si Si7 0.730316 0.610283 0.891346
Si Si8 0.920114 0.746509 0.438653
O O1 0.500000 0.500000 0.500000
O O2 0.343312 0.695867 0.274693
O O3 0.336454 0.597797 0.645009
O O4 0.344334 0.433674 0.301989
O O5 0.830747 0.109430 0.753404
O O6 0.780780 0.275071 0.089101
O O7 0.720148 0.056538 0.974533
O O8 0.163545 0.586984 0.541618
O O9 0.278118 0.446142 0.882699
O O10 0.162807 0.481509 0.151652
O O11 0.091946 0.378310 0.424195
O O12 0.997877 0.651197 0.296619
O O13 0.046423 0.135936 0.394906
O O14 0.128771 0.130569 0.074963
O O15 0.000000 0.000000 0.000000
O O16 0.178276 0.163825 0.722466
O O17 0.276665 0.221946 0.092836
#
# Coordination Sequence:
#
# PCOD9093687 Si02
#       8
#     2   2   2   2   2   2   2   2
#     4  10  23  42  68  93 113 148 196 251 310 377
#     4   9  22  37  59  88 124 156 197 244 302 354
#     4  10  20  38  64  83 119 155 191 246 310 355
#     4  10  20  33  55  88 116 161 209 248 283 340
#     4  10  22  37  55  84 126 166 207 243 288 345
#     4  10  22  37  56  86 119 163 199 248 297 350
#     4  10  20  40  60  87 122 154 202 252 303 353
#     4  11  21  33  57  83 123 165 211 243 288 337
#
# _framework density 19.070167999999999
#
# number of rings (size 3 to 8) (size 9 to 14) (size 15 to 20)
#    0.750    1.250    2.500    0.750    1.750    7.000 
#    0.000    0.625    0.000    1.500    0.000    0.000 
#    0.000    0.000    0.000    0.000    0.000    0.000 
#
# Total GULP energy -89188.662849 kJ/mol
# GULP energy per Si atom -5574.291428 kJ/mol
# Density = 1.902676 g / cm^3
# Si number density = 19.070168 Si / 1000 Ang^3
#
#
#
# Elastic Constant Matrix: (Units=GPa)
#
#
# Indices 1 2 3 4 5 6 
#
# 1 67.9201 41.1371 13.5219 -0.2935 15.1252 -1.1163
# 2 41.1371 128.3730 31.8628 4.6721 20.8904 12.4447
# 3 13.5219 31.8628 40.7071 -1.8781 7.2538 -1.8211
# 4 -0.2935 4.6721 -1.8781 21.7389 0.8343 4.2701
# 5 15.1252 20.8904 7.2538 0.8343 17.3204 -2.6663
# 6 -1.1163 12.4447 -1.8211 4.2701 -2.6663 25.8251
#
#
#
# Elastic Compliance Matrix: (Units=1/GPa)
#
#
# Indices 1 2 3 4 5 6 
#
# 1 0.020309 -0.004582 -0.000956 0.001308 -0.011625 0.001602
# 2 -0.004582 0.013764 -0.007824 -0.001685 -0.010503 -0.008188
# 3 -0.000956 -0.007824 0.031834 0.003502 -0.002437 0.005143
# 4 0.001308 -0.001685 0.003502 0.048267 -0.004023 -0.007281
# 5 -0.011625 -0.010503 -0.002437 -0.004023 0.083880 0.013712
# 6 0.001602 -0.008188 0.005143 -0.007281 0.013712 0.045719
#
#
# Mechanical properties :
#
#
# Convention : Reuss Voigt Hill
#
# Bulk Modulus (GPa) = 25.52177 45.56042 35.54110
# Shear Modulus (GPa) = 17.63295 23.00877 20.32086
#
# Velocity S-wave (km/s) = 3.04408 3.47729 3.26787
# Velocity P-wave (km/s) = 5.07616 6.32968 5.73726
#
# Compressibility (1/GPa) = 0.03918223
#
# Stress axis : x y z
#
# Youngs Moduli (GPa) = 49.23817 72.65130 31.41329
#
# Poissons Ratio (x) = 0.33288 0.03004
# Poissons Ratio (y) = 0.22561 0.24579
# Poissons Ratio (z) = 0.04709 0.56845
#
# Static dielectric constant tensor:
#      x y z
#    x 1.649180 0.014250 -0.024580 
#    y 0.014250 1.684010 0.002670 
#    z -0.024580 0.002670 1.687310 
# 
# From -- ./inp_files/90779.got.cif
#   From: 2010.05.17/outbox.cif.g08.bks.cpg/sg2_46_cif.got.tgz:90779.got - 2010.06.03 11:33:40.
