data_PCOD9093545
_publ_section_title
;
Structure prediction by ZEFSAII (Michael W. Deem and Ramdas Pophale) SiO2 
 PCOD9093545
Probable space group: P -1
;
_chemical_formula_sum "Si O2"
_cell_formula_units_Z 16
_cell_length_a 8.855313
_cell_length_b 8.084665
_cell_length_c 13.964770
_cell_angle_alpha 91.176571
_cell_angle_beta 137.415844
_cell_angle_gamma 67.771436
_cell_volume 570.648427
_symmetry_space_group_name_H-M "P -1"
_symmetry_group_IT_number 2
_symmetry_cell_setting 'triclinic'
loop_
_space_group_symop_operation_xyz
x,y,z
-x,-y,-z
loop_
_atom_site_type_symbol
_atom_site_label
_atom_site_fract_x
_atom_site_fract_y
_atom_site_fract_z
Si Si1 0.843108 0.202434 0.148084
Si Si2 0.337735 0.386542 0.039526
Si Si3 0.932821 0.326594 0.743000
Si Si4 0.064185 0.182024 0.614297
Si Si5 0.715198 0.745134 0.585113
Si Si6 0.627530 0.114552 0.877393
Si Si7 0.518638 0.488058 0.713824
Si Si8 0.520337 0.040639 0.339998
O O1 0.629182 0.251921 0.130336
O O2 0.112562 0.157213 0.317898
O O3 0.764410 0.405436 0.057566
O O4 0.818192 0.070579 0.054884
O O5 0.361741 0.408961 0.164284
O O6 0.163190 0.302943 0.919982
O O7 0.978737 0.167876 0.682440
O O8 0.874268 0.513725 0.652975
O O9 0.673709 0.402403 0.686242
O O10 0.796807 0.360171 0.443462
O O11 0.324349 0.190880 0.764710
O O12 0.221857 0.018965 0.602829
O O13 0.580042 0.847230 0.424643
O O14 0.559352 0.800852 0.613734
O O15 0.592268 0.300139 0.808754
O O16 0.701016 0.936517 0.837497
#
# Coordination Sequence:
#
# PCOD9093545 Si02
#       8
#     2   2   2   2   2   2   2   2
#     4   9  16  29  53  77  97 133 170 209 249 292
#     4   9  17  30  48  76 108 130 162 209 255 298
#     4  11  21  33  51  80 107 131 165 211 255 301
#     4  10  20  34  52  75 101 135 173 207 249 293
#     4  10  20  33  53  78 105 127 170 215 252 296
#     4   9  19  33  52  76 101 132 171 210 245 297
#     4  11  20  30  52  80 104 136 164 207 258 302
#     4   9  20  35  52  75 102 133 169 217 247 288
#
# _framework density 28.038277000000001
#
# number of rings (size 3 to 8) (size 9 to 14) (size 15 to 20)
#    0.750    1.500    1.250    2.625    3.500    0.500 
#    0.000    0.625    0.000    1.500    0.000   10.500 
#    0.000    0.000    0.000    0.000    0.000    0.000 
#
# Total GULP energy -89507.784363 kJ/mol
# GULP energy per Si atom -5594.236523 kJ/mol
# Density = 2.797446 g / cm^3
# Si number density = 28.038277 Si / 1000 Ang^3
#
#
#
# Elastic Constant Matrix: (Units=GPa)
#
#
# Indices 1 2 3 4 5 6 
#
# 1 84.7840 32.9475 24.3576 6.5343 4.4761 -17.6749
# 2 32.9475 99.2423 23.6268 18.0522 1.7363 -18.5798
# 3 24.3576 23.6268 105.4246 26.6556 -3.1883 -10.1977
# 4 6.5343 18.0522 26.6556 44.4725 -5.1383 -0.4348
# 5 4.4761 1.7363 -3.1883 -5.1383 57.9831 1.5497
# 6 -17.6749 -18.5798 -10.1977 -0.4348 1.5497 54.4307
#
#
#
# Elastic Compliance Matrix: (Units=1/GPa)
#
#
# Indices 1 2 3 4 5 6 
#
# 1 0.014618 -0.003822 -0.002459 0.000773 -0.001161 0.003021
# 2 -0.003822 0.012855 -0.000633 -0.004315 -0.000588 0.003010
# 3 -0.002459 -0.000633 0.011962 -0.006510 0.000258 0.001167
# 4 0.000773 -0.004315 -0.006510 0.028267 0.002277 -0.002281
# 5 -0.001161 -0.000588 0.000258 0.002277 0.017597 -0.001012
# 6 0.003021 0.003010 0.001167 -0.002281 -0.001012 0.020610
#
#
# Mechanical properties :
#
#
# Convention : Reuss Voigt Hill
#
# Bulk Modulus (GPa) = 39.05395 50.14608 44.60001
# Shear Modulus (GPa) = 38.97929 45.27853 42.12891
#
# Velocity S-wave (km/s) = 3.73261 4.02292 3.88048
# Velocity P-wave (km/s) = 5.70399 6.28508 6.00157
#
# Compressibility (1/GPa) = 0.02560561
#
# Stress axis : x y z
#
# Youngs Moduli (GPa) = 68.40883 77.79108 83.59599
#
# Poissons Ratio (x) = 0.29735 0.20557
# Poissons Ratio (y) = 0.26148 0.05294
# Poissons Ratio (z) = 0.16823 0.04926
#
# Static dielectric constant tensor:
#      x y z
#    x 2.178060 0.017470 -0.022370 
#    y 0.017470 2.224400 0.027690 
#    z -0.022370 0.027690 2.167720 
# 
# From -- ./inp_files/499214.got.cif
#   From: 2010.05.17/outbox.cif.g08.bks.cpg/sg2_250_cif.got.tgz:499214.got - 2010.06.03 11:33:40.
