data_PCOD9093260
_publ_section_title
;
Structure prediction by ZEFSAII (Michael W. Deem and Ramdas Pophale) SiO2 
 PCOD9093260
Probable space group: P -1
;
_chemical_formula_sum "Si O2"
_cell_formula_units_Z 12
_cell_length_a 12.791248
_cell_length_b 13.553284
_cell_length_c 11.450700
_cell_angle_alpha 39.456500
_cell_angle_beta 149.133546
_cell_angle_gamma 147.630080
_cell_volume 537.176607
_symmetry_space_group_name_H-M "P -1"
_symmetry_group_IT_number 2
_symmetry_cell_setting 'triclinic'
loop_
_space_group_symop_operation_xyz
x,y,z
-x,-y,-z
loop_
_atom_site_type_symbol
_atom_site_label
_atom_site_fract_x
_atom_site_fract_y
_atom_site_fract_z
Si Si1 0.002108 0.447966 0.722891
Si Si2 0.557597 0.697012 0.104010
Si Si3 0.409102 0.368321 0.419101
Si Si4 0.098899 0.684420 0.004034
Si Si5 0.722528 0.945375 0.265673
Si Si6 0.783566 0.633682 0.190588
O O1 0.851323 0.357003 0.780032
O O2 0.047863 0.312312 0.812312
O O3 0.874576 0.524587 0.452304
O O4 0.281737 0.620076 0.867029
O O5 0.539191 0.513074 0.306147
O O6 0.631612 0.835429 0.156310
O O7 0.761560 0.772114 0.129098
O O8 0.500000 0.500000 0.500000
O O9 0.415871 0.194102 0.629529
O O10 0.128296 0.298558 0.198125
O O11 0.000000 0.500000 0.000000
O O12 0.258650 0.862164 0.910022
O O13 0.000000 0.000000 0.500000
O O14 0.500000 0.500000 0.000000
#
# Coordination Sequence:
#
# PCOD9093260 Si02
#       6
#     2   2   2   2   2   2
#     4   9  19  34  55  85 110 139 196 231 267 348
#     4   9  17  33  58  79 111 150 183 231 280 320
#     4   8  16  31  50  75 107 143 183 217 262 338
#     4  10  20  32  53  81 115 148 178 231 285 324
#     4   9  18  32  53  81 116 150 188 222 271 342
#     4   9  18  34  61  82 102 148 192 231 285 324
#
# _framework density 22.339023000000001
#
# number of rings (size 3 to 8) (size 9 to 14) (size 15 to 20)
#    0.000    3.000    0.000    0.000    7.000    0.000 
#    0.000    8.333    0.000    9.000    0.000    0.000 
#    0.000    0.000    0.000    0.000    0.000    0.000 
#
# Total GULP energy -66804.518822 kJ/mol
# GULP energy per Si atom -5567.043235 kJ/mol
# Density = 2.228818 g / cm^3
# Si number density = 22.339023 Si / 1000 Ang^3
#
#
#
# Elastic Constant Matrix: (Units=GPa)
#
#
# Indices 1 2 3 4 5 6 
#
# 1 152.9187 39.0330 9.8729 1.4311 -12.1404 -1.5402
# 2 39.0330 76.1392 34.9036 -17.2479 -6.9322 -1.3827
# 3 9.8729 34.9036 155.0983 1.2174 -2.9000 -8.5161
# 4 1.4311 -17.2479 1.2174 40.3219 0.5707 -3.2811
# 5 -12.1404 -6.9322 -2.9000 0.5707 32.4536 -0.0835
# 6 -1.5402 -1.3827 -8.5161 -3.2811 -0.0835 21.0211
#
#
#
# Elastic Compliance Matrix: (Units=1/GPa)
#
#
# Indices 1 2 3 4 5 6 
#
# 1 0.007872 -0.004647 0.000610 -0.002301 0.002048 0.000167
# 2 -0.004647 0.019548 -0.004100 0.008676 0.001920 0.000646
# 3 0.000610 -0.004100 0.007485 -0.001797 0.000060 0.002527
# 4 -0.002301 0.008676 -0.001797 0.028984 0.000333 0.004200
# 5 0.002048 0.001920 0.000060 0.000333 0.031990 0.000479
# 6 0.000167 0.000646 0.002527 0.004200 0.000479 0.049307
#
#
# Mechanical properties :
#
#
# Convention : Reuss Voigt Hill
#
# Bulk Modulus (GPa) = 53.67347 61.30837 57.49092
# Shear Modulus (GPa) = 29.82041 38.78244 34.30143
#
# Velocity S-wave (km/s) = 3.65760 4.17116 3.92279
# Velocity P-wave (km/s) = 6.47428 7.12054 6.80509
#
# Compressibility (1/GPa) = 0.01863118
#
# Stress axis : x y z
#
# Youngs Moduli (GPa) = 127.03253 51.15742 133.59494
#
# Poissons Ratio (x) = 0.23774 -0.08152
# Poissons Ratio (y) = 0.59034 0.54773
# Poissons Ratio (z) = -0.07752 0.20974
#
# Static dielectric constant tensor:
#      x y z
#    x 1.890630 0.007350 0.023120 
#    y 0.007350 1.816660 0.011100 
#    z 0.023120 0.011100 1.922870 
# 
# From -- ./inp_files/213685.got.cif
#   From: 2010.05.17/outbox.cif.g08.bks.cpg/sg2_107_cif.got.tgz:213685.got - 2010.06.03 11:33:40.
