data_PCOD9093558
_publ_section_title
;
Structure prediction by ZEFSAII (Michael W. Deem and Ramdas Pophale) SiO2 
 PCOD9093558
Probable space group: P -1
;
_chemical_formula_sum "Si O2"
_cell_formula_units_Z 14
_cell_length_a 15.708384
_cell_length_b 4.912413
_cell_length_c 12.529613
_cell_angle_alpha 100.704334
_cell_angle_beta 52.355916
_cell_angle_gamma 122.584804
_cell_volume 630.044660
_symmetry_space_group_name_H-M "P -1"
_symmetry_group_IT_number 2
_symmetry_cell_setting 'triclinic'
loop_
_space_group_symop_operation_xyz
x,y,z
-x,-y,-z
loop_
_atom_site_type_symbol
_atom_site_label
_atom_site_fract_x
_atom_site_fract_y
_atom_site_fract_z
Si Si1 0.948231 0.186921 0.797359
Si Si2 0.660957 0.838103 0.973974
Si Si3 0.080283 0.300812 0.040130
Si Si4 0.665626 0.421220 0.761027
Si Si5 0.370421 0.646468 0.855601
Si Si6 0.107240 0.518930 0.495532
Si Si7 0.631380 0.828520 0.660426
O O1 0.976069 0.472456 0.881621
O O2 0.046819 0.318335 0.635097
O O3 0.810585 0.092283 0.851169
O O4 0.929540 0.873557 0.851151
O O5 0.620107 0.559162 0.896795
O O6 0.652410 0.655202 0.077054
O O7 0.605360 0.056953 0.063073
O O8 0.230500 0.518423 0.904613
O O9 0.000000 0.000000 0.000000
O O10 0.819232 0.611621 0.639899
O O11 0.623706 0.509910 0.688586
O O12 0.630947 0.050838 0.775490
O O13 0.499802 0.745215 0.698442
O O14 0.000000 0.500000 0.500000
O O15 0.225400 0.892468 0.468182
#
# Coordination Sequence:
#
# PCOD9093558 Si02
#       7
#     2   2   2   2   2   2   2
#     4  10  22  36  61  86 114 148 186 236 288 335
#     4  10  20  33  53  80 111 149 193 228 274 325
#     4  10  22  41  64  88 107 139 189 248 303 338
#     4  10  22  34  50  80 113 158 195 221 266 325
#     4  10  21  36  55  80 111 145 186 240 288 335
#     4  10  24  37  56  82 123 158 196 222 265 337
#     4  10  22  35  51  78 112 160 187 229 273 324
#
# _framework density 22.220645999999999
#
# number of rings (size 3 to 8) (size 9 to 14) (size 15 to 20)
#    0.857    1.143    0.000    3.000    8.000    4.571 
#    0.000    0.000    0.000    1.714    0.000    0.000 
#    0.000    0.000    0.000    0.000    0.000    0.000 
#
# Total GULP energy -77937.826663 kJ/mol
# GULP energy per Si atom -5566.987619 kJ/mol
# Density = 2.217007 g / cm^3
# Si number density = 22.220646 Si / 1000 Ang^3
#
#
#
# Elastic Constant Matrix: (Units=GPa)
#
#
# Indices 1 2 3 4 5 6 
#
# 1 55.5554 7.7173 25.9098 -3.6517 -24.2961 -7.7403
# 2 7.7173 86.1020 1.6003 -4.1978 -1.4212 -7.6350
# 3 25.9098 1.6003 56.5862 -16.4959 -24.2518 2.4854
# 4 -3.6517 -4.1978 -16.4959 32.6417 -1.6394 -4.6983
# 5 -24.2961 -1.4212 -24.2518 -1.6394 30.9620 -0.9889
# 6 -7.7403 -7.6350 2.4854 -4.6983 -0.9889 38.3865
#
#
#
# Elastic Compliance Matrix: (Units=1/GPa)
#
#
# Indices 1 2 3 4 5 6 
#
# 1 0.030582 -0.001541 -0.004466 0.003027 0.020815 0.007056
# 2 -0.001541 0.012054 0.001103 0.002287 0.000402 0.002306
# 3 -0.004466 0.001103 0.036612 0.019464 0.026254 0.000007
# 4 0.003027 0.002287 0.019464 0.042921 0.020177 0.005578
# 5 0.020815 0.000402 0.026254 0.020177 0.070501 0.006863
# 6 0.007056 0.002306 0.000007 0.005578 0.006863 0.028791
#
#
# Mechanical properties :
#
#
# Convention : Reuss Voigt Hill
#
# Bulk Modulus (GPa) = 14.40116 29.85538 22.12827
# Shear Modulus (GPa) = 19.65280 31.26579 25.45929
#
# Velocity S-wave (km/s) = 2.97718 3.75515 3.38856
# Velocity P-wave (km/s) = 4.27939 5.68037 5.02890
#
# Compressibility (1/GPa) = 0.06943885
#
# Stress axis : x y z
#
# Youngs Moduli (GPa) = 32.69909 82.95733 27.31372
#
# Poissons Ratio (x) = 0.12786 0.12198
# Poissons Ratio (y) = 0.05040 -0.03012
# Poissons Ratio (z) = 0.14604 -0.09148
#
# Static dielectric constant tensor:
#      x y z
#    x 1.879750 0.093040 -0.056010 
#    y 0.093040 1.910730 -0.037400 
#    z -0.056010 -0.037400 1.855370 
# 
# From -- ./inp_files/459573.got.cif
#   From: 2010.05.17/outbox.cif.g08.bks.cpg/sg2_230_cif.got.tgz:459573.got - 2010.06.03 11:33:40.
