data_PCOD9094065
_publ_section_title
;
Structure prediction by ZEFSAII (Michael W. Deem and Ramdas Pophale) SiO2 
 PCOD9094065
Probable space group: P -1
;
_chemical_formula_sum "Si O2"
_cell_formula_units_Z 14
_cell_length_a 17.148096
_cell_length_b 9.051555
_cell_length_c 11.084144
_cell_angle_alpha 90.063176
_cell_angle_beta 144.182514
_cell_angle_gamma 117.554296
_cell_volume 614.679119
_symmetry_space_group_name_H-M "P -1"
_symmetry_group_IT_number 2
_symmetry_cell_setting 'triclinic'
loop_
_space_group_symop_operation_xyz
x,y,z
-x,-y,-z
loop_
_atom_site_type_symbol
_atom_site_label
_atom_site_fract_x
_atom_site_fract_y
_atom_site_fract_z
Si Si1 0.243944 0.646012 0.797968
Si Si2 0.983935 0.659657 0.984338
Si Si3 0.936445 0.095040 0.156144
Si Si4 0.540553 0.401323 0.396287
Si Si5 0.014912 0.837238 0.509537
Si Si6 0.184470 0.100955 0.326667
Si Si7 0.529365 0.869314 0.920026
O O1 0.345483 0.718223 0.791131
O O2 0.000000 0.500000 0.500000
O O3 0.197316 0.442911 0.795957
O O4 0.408230 0.914891 0.056238
O O5 0.742674 0.503634 0.719591
O O6 0.017775 0.747881 0.890484
O O7 0.000000 0.500000 0.000000
O O8 0.159330 0.904436 0.284404
O O9 0.957342 0.180360 0.314093
O O10 0.102309 0.103938 0.346627
O O11 0.691670 0.820031 0.834130
O O12 0.527733 0.297977 0.254851
O O13 0.601224 0.623439 0.443556
O O14 0.000000 0.000000 0.500000
O O15 0.241525 0.985636 0.733768
O O16 0.000000 0.000000 0.000000
#
# Coordination Sequence:
#
# PCOD9094065 Si02
#       7
#     2   2   2   2   2   2   2
#     4   9  17  32  52  74 105 141 178 217 262 308
#     4  10  21  35  52  79 106 133 171 214 265 316
#     4   9  18  35  56  74 102 140 172 214 263 302
#     4   9  17  33  55  75 101 135 174 212 258 314
#     4  10  20  34  53  79 108 140 179 219 260 311
#     4   8  17  32  53  75  99 134 172 212 261 311
#     4   9  18  33  54  76 101 142 179 216 264 310
#
# _framework density 22.776112999999999
#
# number of rings (size 3 to 8) (size 9 to 14) (size 15 to 20)
#    0.000    3.143    0.000    1.714    0.000    6.286 
#    0.000   12.857    0.000    0.000    0.000    0.000 
#    0.000    0.000    0.000    0.000    0.000    0.000 
#
# Total GULP energy -78024.916225 kJ/mol
# GULP energy per Si atom -5573.208302 kJ/mol
# Density = 2.272427 g / cm^3
# Si number density = 22.776113 Si / 1000 Ang^3
#
#
#
# Elastic Constant Matrix: (Units=GPa)
#
#
# Indices 1 2 3 4 5 6 
#
# 1 89.4146 40.3739 6.3155 7.3658 4.8895 -8.9785
# 2 40.3739 123.9239 61.9932 39.9318 9.3736 -42.6873
# 3 6.3155 61.9932 78.8335 36.4752 14.8151 -5.4928
# 4 7.3658 39.9318 36.4752 40.8601 -0.9959 -10.0662
# 5 4.8895 9.3736 14.8151 -0.9959 39.6024 14.2939
# 6 -8.9785 -42.6873 -5.4928 -10.0662 14.2939 43.1386
#
#
#
# Elastic Compliance Matrix: (Units=1/GPa)
#
#
# Indices 1 2 3 4 5 6 
#
# 1 0.014649 -0.010175 0.006151 0.000256 0.000607 -0.006378
# 2 -0.010175 0.035910 -0.018803 -0.008620 -0.012378 0.033113
# 3 0.006151 -0.018803 0.034953 -0.017897 -0.004180 -0.015666
# 4 0.000256 -0.008620 -0.017897 0.048323 0.011053 -0.003141
# 5 0.000607 -0.012378 -0.004180 0.011053 0.038146 -0.022715
# 6 -0.006378 0.033113 -0.015666 -0.003141 -0.022715 0.059419
#
#
# Mechanical properties :
#
#
# Convention : Reuss Voigt Hill
#
# Bulk Modulus (GPa) = 25.08819 56.61526 40.85172
# Shear Modulus (GPa) = 17.22125 36.95283 27.08704
#
# Velocity S-wave (km/s) = 2.75273 4.03232 3.45233
# Velocity P-wave (km/s) = 4.59809 6.82574 5.81950
#
# Compressibility (1/GPa) = 0.03985940
#
# Stress axis : x y z
#
# Youngs Moduli (GPa) = 68.26388 27.84721 28.61001
#
# Poissons Ratio (x) = 0.28334 -0.17598
# Poissons Ratio (y) = 0.69457 0.53794
# Poissons Ratio (z) = -0.41990 0.52360
#
# Static dielectric constant tensor:
#      x y z
#    x 1.913030 -0.054900 -0.027220 
#    y -0.054900 1.917670 0.008440 
#    z -0.027220 0.008440 1.910640 
# 
# From -- ./inp_files/461273.got.cif
#   From: 2010.05.17/outbox.cif.g08.bks.cpg/sg2_231_cif.got.tgz:461273.got - 2010.06.03 11:33:40.
