data_PCOD9094247
_publ_section_title
;
Structure prediction by ZEFSAII (Michael W. Deem and Ramdas Pophale) SiO2 
 PCOD9094247
Probable space group: P -1
;
_chemical_formula_sum "Si O2"
_cell_formula_units_Z 16
_cell_length_a 9.260332
_cell_length_b 15.546023
_cell_length_c 15.324011
_cell_angle_alpha 26.505455
_cell_angle_beta 41.683388
_cell_angle_gamma 40.169176
_cell_volume 619.670242
_symmetry_space_group_name_H-M "P -1"
_symmetry_group_IT_number 2
_symmetry_cell_setting 'triclinic'
loop_
_space_group_symop_operation_xyz
x,y,z
-x,-y,-z
loop_
_atom_site_type_symbol
_atom_site_label
_atom_site_fract_x
_atom_site_fract_y
_atom_site_fract_z
Si Si1 0.904799 0.006778 0.416836
Si Si2 0.825982 0.331800 0.028052
Si Si3 0.034553 0.752409 0.412525
Si Si4 0.745532 0.602273 0.560618
Si Si5 0.562696 0.816982 0.710965
Si Si6 0.689066 0.663813 0.242890
Si Si7 0.418787 0.717383 0.145322
Si Si8 0.416783 0.913748 0.294776
O O1 0.977825 0.892657 0.394231
O O2 0.152012 0.945236 0.406273
O O3 0.710707 0.912975 0.621014
O O4 0.812238 0.242465 0.213224
O O5 0.724503 0.577835 0.844452
O O6 0.092212 0.266685 0.941148
O O7 0.677826 0.228771 0.127942
O O8 0.203963 0.536035 0.566038
O O9 0.173664 0.817652 0.213523
O O10 0.805962 0.715089 0.512987
O O11 0.627779 0.428004 0.775280
O O12 0.588529 0.757000 0.423184
O O13 0.000000 0.500000 0.500000
O O14 0.500000 0.000000 0.500000
O O15 0.589796 0.612546 0.243055
O O16 0.495962 0.825367 0.240963
O O17 0.525142 0.879612 0.914660
#
# Coordination Sequence:
#
# PCOD9094247 Si02
#       8
#     2   2   2   2   2   2   2   2
#     4  11  20  35  59  86 113 145 189 235 280 327
#     4  10  20  34  55  88 114 141 182 233 291 332
#     4  11  21  35  52  78 116 159 184 228 276 325
#     4  10  23  38  47  73 122 162 194 221 270 337
#     4   9  20  36  55  83 119 140 174 236 294 335
#     4  12  19  34  57  86 116 145 189 233 277 337
#     4  11  21  35  52  78 115 152 190 228 274 330
#     4  12  22  35  56  86 116 156 189 228 282 332
#
# _framework density 25.820183
#
# number of rings (size 3 to 8) (size 9 to 14) (size 15 to 20)
#    0.000    1.250    6.250    2.250    0.000    2.000 
#    2.250    0.000    0.000    0.000    0.000   11.375 
#    0.000    0.000    0.000    0.000    0.000    0.000 
#
# Total GULP energy -89453.537679 kJ/mol
# GULP energy per Si atom -5590.846105 kJ/mol
# Density = 2.576141 g / cm^3
# Si number density = 25.820183 Si / 1000 Ang^3
#
#
#
# Elastic Constant Matrix: (Units=GPa)
#
#
# Indices 1 2 3 4 5 6 
#
# 1 123.9229 46.3550 54.1524 -10.7104 -27.6042 -34.2886
# 2 46.3550 121.4379 33.8759 9.8432 -15.5710 -22.4107
# 3 54.1524 33.8759 132.6580 1.4029 -19.8191 -25.3840
# 4 -10.7104 9.8432 1.4029 33.7766 -14.5193 -4.8052
# 5 -27.6042 -15.5710 -19.8191 -14.5193 46.3961 8.7032
# 6 -34.2886 -22.4107 -25.3840 -4.8052 8.7032 44.8047
#
#
#
# Elastic Compliance Matrix: (Units=1/GPa)
#
#
# Indices 1 2 3 4 5 6 
#
# 1 0.015862 -0.003509 -0.002765 0.011230 0.009043 0.008265
# 2 -0.003509 0.010402 -0.000955 -0.004130 -0.000607 0.001652
# 3 -0.002765 -0.000955 0.009654 0.000099 0.001710 0.002554
# 4 0.011230 -0.004130 0.000099 0.042917 0.017300 0.007827
# 5 0.009043 -0.000607 0.001710 0.017300 0.032280 0.003171
# 6 0.008265 0.001652 0.002554 0.007827 0.003171 0.031141
#
#
# Mechanical properties :
#
#
# Convention : Reuss Voigt Hill
#
# Bulk Modulus (GPa) = 46.59802 71.86504 59.23153
# Shear Modulus (GPa) = 30.51231 41.23785 35.87508
#
# Velocity S-wave (km/s) = 3.44135 4.00073 3.73154
# Velocity P-wave (km/s) = 5.82038 7.01673 6.44637
#
# Compressibility (1/GPa) = 0.02146014
#
# Stress axis : x y z
#
# Youngs Moduli (GPa) = 63.04206 96.13309 103.58407
#
# Poissons Ratio (x) = 0.33733 0.28645
# Poissons Ratio (y) = 0.22122 0.09891
# Poissons Ratio (z) = 0.17433 0.09180
#
# Static dielectric constant tensor:
#      x y z
#    x 2.105730 0.030960 0.033780 
#    y 0.030960 2.091570 0.015200 
#    z 0.033780 0.015200 2.137870 
# 
# From -- ./inp_files/349391.got.cif
#   From: 2010.05.17/outbox.cif.g08.bks.cpg/sg2_175_cif.got.tgz:349391.got - 2010.06.03 11:33:40.
