data_PCOD9094965
_publ_section_title
;
Structure prediction by ZEFSAII (Michael W. Deem and Ramdas Pophale) SiO2 
 PCOD9094965
Probable space group: P -1
;
_chemical_formula_sum "Si O2"
_cell_formula_units_Z 16
_cell_length_a 17.110698
_cell_length_b 14.561964
_cell_length_c 23.714102
_cell_angle_alpha 30.808633
_cell_angle_beta 18.891813
_cell_angle_gamma 19.861800
_cell_volume 623.707594
_symmetry_space_group_name_H-M "P -1"
_symmetry_group_IT_number 2
_symmetry_cell_setting 'triclinic'
loop_
_space_group_symop_operation_xyz
x,y,z
-x,-y,-z
loop_
_atom_site_type_symbol
_atom_site_label
_atom_site_fract_x
_atom_site_fract_y
_atom_site_fract_z
Si Si1 0.895719 0.625184 0.084054
Si Si2 0.206357 0.396286 0.708295
Si Si3 0.309070 0.681049 0.290755
Si Si4 0.290836 0.711589 0.417989
Si Si5 0.310540 0.998937 0.782673
Si Si6 0.550322 0.519893 0.891842
Si Si7 0.293280 0.868747 0.090844
Si Si8 0.616419 0.754247 0.586666
O O1 0.709313 0.702237 0.232641
O O2 0.688779 0.591264 0.207699
O O3 0.346510 0.368992 0.915851
O O4 0.840826 0.857520 0.976790
O O5 0.317779 0.521247 0.539442
O O6 0.394172 0.146212 0.670245
O O7 0.748793 0.638201 0.894984
O O8 0.175554 0.744822 0.413465
O O9 0.116539 0.885275 0.259649
O O10 0.419193 0.416098 0.332667
O O11 0.000000 0.000000 0.500000
O O12 0.635727 0.681174 0.752222
O O13 0.321029 0.960191 0.730063
O O14 0.871865 0.228560 0.980411
O O15 0.779118 0.245389 0.845597
O O16 0.500000 0.500000 0.000000
O O17 0.000000 0.500000 0.500000
O O18 0.500000 0.000000 0.500000
#
# Coordination Sequence:
#
# PCOD9094965 Si02
#       8
#     2   2   2   2   2   2   2   2
#     4  11  24  45  75 102 145 196 253 318 379 452
#     4  10  22  44  68 104 144 187 252 306 381 451
#     4  11  27  47  74 105 150 193 257 316 377 478
#     4  12  25  49  71 104 143 199 253 324 394 449
#     4  10  22  39  64 103 139 187 236 297 369 447
#     4  10  20  34  67 101 139 183 243 294 362 447
#     4  10  21  42  68 105 142 192 247 299 376 453
#     4  12  29  49  74 111 157 204 248 310 396 473
#
# _framework density 25.653046
#
# number of rings (size 3 to 8) (size 9 to 14) (size 15 to 20)
#    0.000    1.250    2.500    2.250    7.000    1.500 
#    4.500    0.000    0.000    0.000    0.000    0.000 
#    0.000    0.000    0.000    0.000    0.000    0.000 
#
# Total GULP energy -89149.121639 kJ/mol
# GULP energy per Si atom -5571.820102 kJ/mol
# Density = 2.559466 g / cm^3
# Si number density = 25.653046 Si / 1000 Ang^3
#
#
#
# Elastic Constant Matrix: (Units=GPa)
#
#
# Indices 1 2 3 4 5 6 
#
# 1 154.0764 55.2896 59.4300 -16.5458 31.7999 20.4461
# 2 55.2896 111.0573 41.3850 -54.2005 23.4779 11.1504
# 3 59.4300 41.3850 124.5278 -23.3323 18.6781 -1.9433
# 4 -16.5458 -54.2005 -23.3323 56.4605 -16.0908 3.9690
# 5 31.7999 23.4779 18.6781 -16.0908 66.4023 -0.5140
# 6 20.4461 11.1504 -1.9433 3.9690 -0.5140 39.7894
#
#
#
# Elastic Compliance Matrix: (Units=1/GPa)
#
#
# Indices 1 2 3 4 5 6 
#
# 1 0.010273 -0.004227 -0.003680 -0.003198 -0.003196 -0.003996
# 2 -0.004227 0.021888 -0.001634 0.019343 -0.000614 -0.005979
# 3 -0.003680 -0.001634 0.010696 0.001501 -0.000284 0.002718
# 4 -0.003198 0.019343 0.001501 0.037418 0.003280 -0.007394
# 5 -0.003196 -0.000614 -0.000284 0.003280 0.017695 0.001702
# 6 -0.003996 -0.005979 0.002718 -0.007394 0.001702 0.029754
#
#
# Mechanical properties :
#
#
# Convention : Reuss Voigt Hill
#
# Bulk Modulus (GPa) = 42.06058 77.98563 60.02311
# Shear Modulus (GPa) = 32.31416 48.10090 40.20753
#
# Velocity S-wave (km/s) = 3.55302 4.33489 3.96328
# Velocity P-wave (km/s) = 5.76745 7.45125 6.66276
#
# Compressibility (1/GPa) = 0.02377523
#
# Stress axis : x y z
#
# Youngs Moduli (GPa) = 97.34146 45.68731 93.49362
#
# Poissons Ratio (x) = 0.19311 0.34408
# Poissons Ratio (y) = 0.41144 0.15276
# Poissons Ratio (z) = 0.35824 0.07465
#
# Static dielectric constant tensor:
#      x y z
#    x 2.083160 -0.080830 -0.149130 
#    y -0.080830 2.006770 -0.065590 
#    z -0.149130 -0.065590 1.881320 
# 
# From -- ./inp_files/613242.got.cif
#   From: 2010.05.17/outbox.cif.g08.bks.cpg/sg2_307_cif.got.tgz:613242.got - 2010.06.03 11:33:40.
