data_PCOD9094255
_publ_section_title
;
Structure prediction by ZEFSAII (Michael W. Deem and Ramdas Pophale) SiO2 
 PCOD9094255
Probable space group: P -1
;
_chemical_formula_sum "Si O2"
_cell_formula_units_Z 16
_cell_length_a 11.557975
_cell_length_b 14.346400
_cell_length_c 20.409062
_cell_angle_alpha 149.085693
_cell_angle_beta 34.292126
_cell_angle_gamma 150.891880
_cell_volume 805.068412
_symmetry_space_group_name_H-M "P -1"
_symmetry_group_IT_number 2
_symmetry_cell_setting 'triclinic'
loop_
_space_group_symop_operation_xyz
x,y,z
-x,-y,-z
loop_
_atom_site_type_symbol
_atom_site_label
_atom_site_fract_x
_atom_site_fract_y
_atom_site_fract_z
Si Si1 0.308076 0.206314 0.321937
Si Si2 0.163165 0.463098 0.176692
Si Si3 0.342579 0.938264 0.874151
Si Si4 0.251970 0.298651 0.624404
Si Si5 0.902357 0.159955 0.583329
Si Si6 0.673806 0.925927 0.900819
Si Si7 0.579678 0.437826 0.024008
Si Si8 0.787806 0.547527 0.128359
O O1 0.462669 0.119853 0.230852
O O2 0.511334 0.462090 0.362100
O O3 0.191956 0.078830 0.230071
O O4 0.114920 0.191643 0.454273
O O5 0.183916 0.689828 0.311281
O O6 0.333845 0.438083 0.131948
O O7 0.875893 0.253001 0.183836
O O8 0.273089 0.479723 0.063028
O O9 0.214640 0.944798 0.005884
O O10 0.488714 0.184086 0.924647
O O11 0.169434 0.300495 0.738396
O O12 0.031961 0.244652 0.644788
O O13 0.292422 0.103668 0.479930
O O14 0.479214 0.675546 0.863866
O O15 0.500000 0.000000 0.000000
O O16 0.748974 0.587674 0.096083
O O17 0.000000 0.500000 0.000000
#
# Coordination Sequence:
#
# PCOD9094255 Si02
#       8
#     2   2   2   2   2   2   2   2
#     4  10  20  34  55  89 115 144 180 236 286 335
#     4  11  23  40  56  82 116 156 189 228 276 347
#     4  10  20  35  61  84 115 145 185 237 286 327
#     4  10  22  35  52  86 116 145 184 234 280 330
#     4  11  23  34  56  82 117 153 187 224 282 340
#     4   8  18  31  50  87 115 133 178 230 281 337
#     4  10  24  39  59  84 113 146 195 235 281 335
#     4  10  20  34  59  83 108 143 184 241 287 320
#
# _framework density 19.874086999999999
#
# number of rings (size 3 to 8) (size 9 to 14) (size 15 to 20)
#    0.000    2.000    1.250    1.500   12.250    0.000 
#    0.000    0.625    0.000    6.750    0.000    0.000 
#    0.000    0.000    0.000    0.000    0.000    0.000 
#
# Total GULP energy -89316.374890 kJ/mol
# GULP energy per Si atom -5582.273431 kJ/mol
# Density = 1.982885 g / cm^3
# Si number density = 19.874087 Si / 1000 Ang^3
#
#
#
# Elastic Constant Matrix: (Units=GPa)
#
#
# Indices 1 2 3 4 5 6 
#
# 1 88.3014 14.9955 37.8975 0.4991 4.8778 4.2637
# 2 14.9955 64.4482 16.0763 12.0221 -4.9647 -8.2553
# 3 37.8975 16.0763 76.9812 8.6917 -3.9604 5.9036
# 4 0.4991 12.0221 8.6917 34.9165 -7.6582 4.5963
# 5 4.8778 -4.9647 -3.9604 -7.6582 29.5385 -2.5901
# 6 4.2637 -8.2553 5.9036 4.5963 -2.5901 19.8979
#
#
#
# Elastic Compliance Matrix: (Units=1/GPa)
#
#
# Indices 1 2 3 4 5 6 
#
# 1 0.015195 -0.002891 -0.007054 0.002169 -0.003672 -0.003342
# 2 -0.002891 0.019875 -0.002684 -0.007087 0.002642 0.011643
# 3 -0.007054 -0.002684 0.017711 -0.002389 0.002116 -0.004029
# 4 0.002169 -0.007087 -0.002389 0.034286 0.006159 -0.009814
# 5 -0.003672 0.002642 0.002116 0.006159 0.037195 0.004674
# 6 -0.003342 0.011643 -0.004029 -0.009814 0.004674 0.059874
#
#
# Mechanical properties :
#
#
# Convention : Reuss Voigt Hill
#
# Bulk Modulus (GPa) = 36.33387 40.85213 38.59300
# Shear Modulus (GPa) = 22.87586 27.58801 25.23194
#
# Velocity S-wave (km/s) = 3.39638 3.72982 3.56700
# Velocity P-wave (km/s) = 5.80536 6.25690 6.03536
#
# Compressibility (1/GPa) = 0.02752253
#
# Stress axis : x y z
#
# Youngs Moduli (GPa) = 65.80941 50.31321 56.46162
#
# Poissons Ratio (x) = 0.14548 0.39830
# Poissons Ratio (y) = 0.19028 0.15154
# Poissons Ratio (z) = 0.46424 0.13504
#
# Static dielectric constant tensor:
#      x y z
#    x 1.694970 -0.007270 0.044040 
#    y -0.007270 1.750320 0.009630 
#    z 0.044040 0.009630 1.711820 
# 
# From -- ./inp_files/457413.got.cif
#   From: 2010.05.17/outbox.cif.g08.bks.cpg/sg2_229_cif.got.tgz:457413.got - 2010.06.03 11:33:40.
