data_PCOD9094573
_publ_section_title
;
Structure prediction by ZEFSAII (Michael W. Deem and Ramdas Pophale) SiO2 
 PCOD9094573
Probable space group: P -1
;
_chemical_formula_sum "Si O2"
_cell_formula_units_Z 15
_cell_length_a 15.084642
_cell_length_b 8.967234
_cell_length_c 17.764264
_cell_angle_alpha 137.504482
_cell_angle_beta 156.182138
_cell_angle_gamma 55.565975
_cell_volume 600.838893
_symmetry_space_group_name_H-M "P -1"
_symmetry_group_IT_number 2
_symmetry_cell_setting 'triclinic'
loop_
_space_group_symop_operation_xyz
x,y,z
-x,-y,-z
loop_
_atom_site_type_symbol
_atom_site_label
_atom_site_fract_x
_atom_site_fract_y
_atom_site_fract_z
Si Si1 0.128197 0.931177 0.771142
Si Si2 0.500000 0.000000 0.500000
Si Si3 0.130683 0.498476 0.333151
Si Si4 0.530608 0.989457 0.809434
Si Si5 0.731388 0.844159 0.766054
Si Si6 0.811257 0.859233 0.638975
Si Si7 0.354222 0.473008 0.087054
Si Si8 0.339362 0.364519 0.754651
O O1 0.932407 0.919230 0.676462
O O2 0.950615 0.736115 0.502270
O O3 0.259556 0.205335 0.947630
O O4 0.311409 0.871212 0.944137
O O5 0.550995 0.888957 0.584697
O O6 0.793281 0.092396 0.745706
O O7 0.312806 0.765884 0.592309
O O8 0.265715 0.417379 0.341998
O O9 0.114623 0.327674 0.328027
O O10 0.873020 0.488323 0.107237
O O11 0.685830 0.910481 0.840232
O O12 0.410686 0.135033 0.723851
O O13 0.000000 0.000000 0.000000
O O14 0.512015 0.708329 0.349017
O O15 0.545021 0.489058 0.176444
O O16 0.500000 0.500000 0.000000
#
# Coordination Sequence:
#
# PCOD9094573 Si02
#       8
#     2   1   2   2   2   2   2   2
#     4  11  23  42  69  95 129 169 215 272 336 387
#     4  10  20  34  58  88 128 174 224 262 300 372
#     4  11  22  39  64  97 134 178 217 262 319 389
#     4  12  23  43  65  97 135 174 219 273 326 392
#     4  11  22  38  61  95 132 180 224 264 317 377
#     4  10  21  39  60  90 129 174 217 264 319 377
#     4  11  22  42  67  95 129 169 215 269 328 390
#     4  11  26  47  72  96 126 169 219 276 337 396
#
# _framework density 24.965094000000001
#
# number of rings (size 3 to 8) (size 9 to 14) (size 15 to 20)
#    0.000    1.067    2.667    6.000    0.000    1.067 
#    0.000    2.000    0.000    0.000    0.000    0.000 
#    0.000    0.000    0.000    0.000    0.000    0.000 
#
# Total GULP energy -83538.930759 kJ/mol
# GULP energy per Si atom -5569.262051 kJ/mol
# Density = 2.490827 g / cm^3
# Si number density = 24.965094 Si / 1000 Ang^3
#
#
#
# Elastic Constant Matrix: (Units=GPa)
#
#
# Indices 1 2 3 4 5 6 
#
# 1 60.5028 20.2040 29.1190 13.0530 -0.8344 19.8445
# 2 20.2040 82.4071 35.6534 -25.1634 8.1888 28.0849
# 3 29.1190 35.6534 163.5744 -14.6134 -8.8544 25.6943
# 4 13.0530 -25.1634 -14.6134 46.5895 14.9228 -1.7855
# 5 -0.8344 8.1888 -8.8544 14.9228 42.4164 3.1047
# 6 19.8445 28.0849 25.6943 -1.7855 3.1047 31.8241
#
#
#
# Elastic Compliance Matrix: (Units=1/GPa)
#
#
# Indices 1 2 3 4 5 6 
#
# 1 0.026804 -0.007598 -0.002572 -0.015186 0.007496 -0.009516
# 2 -0.007598 0.026860 -0.000848 0.019317 -0.011129 -0.016112
# 3 -0.002572 -0.000848 0.007607 0.002107 0.001237 -0.003793
# 4 -0.015186 0.019317 0.002107 0.042426 -0.018139 -0.005129
# 5 0.007496 -0.011129 0.001237 -0.018139 0.032515 -0.000042
# 6 -0.009516 -0.016112 -0.003793 -0.005129 -0.000042 0.054354
#
#
# Mechanical properties :
#
#
# Convention : Reuss Voigt Hill
#
# Bulk Modulus (GPa) = 25.48640 52.93746 39.21193
# Shear Modulus (GPa) = 22.15536 38.93319 30.54427
#
# Velocity S-wave (km/s) = 2.98225 3.95334 3.50162
# Velocity P-wave (km/s) = 4.69993 6.48762 5.66474
#
# Compressibility (1/GPa) = 0.03923662
#
# Stress axis : x y z
#
# Youngs Moduli (GPa) = 37.30828 37.22996 131.45912
#
# Poissons Ratio (x) = 0.28286 0.33805
# Poissons Ratio (y) = 0.28346 0.11144
# Poissons Ratio (z) = 0.09594 0.03156
#
# Static dielectric constant tensor:
#      x y z
#    x 3.227810 -1.282790 -0.108680 
#    y -1.282790 3.358250 -0.078190 
#    z -0.108680 -0.078190 2.351620 
# 
# From -- ./inp_files/599656.got.cif
#   From: 2010.05.17/outbox.cif.g08.bks.cpg/sg2_300_cif.got.tgz:599656.got - 2010.06.03 11:33:40.
