data_PCOD9094021
_publ_section_title
;
Structure prediction by ZEFSAII (Michael W. Deem and Ramdas Pophale) SiO2 
 PCOD9094021
Probable space group: P -1
;
_chemical_formula_sum "Si O2"
_cell_formula_units_Z 16
_cell_length_a 15.605901
_cell_length_b 8.903716
_cell_length_c 11.847036
_cell_angle_alpha 61.681452
_cell_angle_beta 145.950444
_cell_angle_gamma 94.728780
_cell_volume 630.020564
_symmetry_space_group_name_H-M "P -1"
_symmetry_group_IT_number 2
_symmetry_cell_setting 'triclinic'
loop_
_space_group_symop_operation_xyz
x,y,z
-x,-y,-z
loop_
_atom_site_type_symbol
_atom_site_label
_atom_site_fract_x
_atom_site_fract_y
_atom_site_fract_z
Si Si1 0.428241 0.290273 0.915530
Si Si2 0.395723 0.834897 0.517949
Si Si3 0.771149 0.294777 0.273685
Si Si4 0.055674 0.103577 0.234284
Si Si5 0.370021 0.545724 0.452156
Si Si6 0.630837 0.957503 0.807634
Si Si7 0.692025 0.790610 0.479519
Si Si8 0.897431 0.710724 0.393238
O O1 0.331224 0.493650 0.827632
O O2 0.238818 0.306159 0.665219
O O3 0.598519 0.287837 0.046959
O O4 0.560009 0.037525 0.196078
O O5 0.447143 0.615609 0.607154
O O6 0.592232 0.788668 0.793802
O O7 0.230307 0.944380 0.392658
O O8 0.308946 0.993706 0.257691
O O9 0.932489 0.283811 0.378893
O O10 0.910721 0.065982 0.577355
O O11 0.097079 0.268027 0.264158
O O12 0.848547 0.246456 0.897115
O O13 0.500000 0.500000 0.500000
O O14 0.343891 0.376166 0.538408
O O15 0.405099 0.166700 0.516346
O O16 0.758430 0.900032 0.078815
O O17 0.000000 0.500000 0.500000
#
# Coordination Sequence:
#
# PCOD9094021 Si02
#       8
#     2   2   2   2   2   2   2   2
#     4   8  16  29  48  78 109 132 171 234 278 305
#     4  10  20  34  52  77 110 150 177 222 276 328
#     4   9  16  29  51  78 106 133 180 228 271 312
#     4  10  21  34  53  78 109 144 182 225 270 329
#     4  12  22  33  51  78 110 147 183 219 273 335
#     4   9  17  33  53  76 110 142 180 225 270 326
#     4   9  18  34  52  76 112 140 178 228 277 321
#     4   9  16  27  49  78 104 132 174 231 273 306
#
# _framework density 25.395994999999999
#
# number of rings (size 3 to 8) (size 9 to 14) (size 15 to 20)
#    0.000    2.500    1.250    2.250    1.750    0.000 
#    0.000    0.000    0.000    0.750    0.000    7.875 
#    0.000    0.000    0.000    0.000    0.000    0.000 
#
# Total GULP energy -89134.381238 kJ/mol
# GULP energy per Si atom -5570.898827 kJ/mol
# Density = 2.533819 g / cm^3
# Si number density = 25.395995 Si / 1000 Ang^3
#
#
#
# Elastic Constant Matrix: (Units=GPa)
#
#
# Indices 1 2 3 4 5 6 
#
# 1 89.3944 57.1723 47.6736 20.6847 18.7226 46.3349
# 2 57.1723 157.7440 29.3189 19.5386 6.1884 45.5976
# 3 47.6736 29.3189 70.4342 9.6274 1.4542 29.4794
# 4 20.6847 19.5386 9.6274 41.3214 21.1424 11.0707
# 5 18.7226 6.1884 1.4542 21.1424 29.6119 7.9004
# 6 46.3349 45.5976 29.4794 11.0707 7.9004 39.3862
#
#
#
# Elastic Compliance Matrix: (Units=1/GPa)
#
#
# Indices 1 2 3 4 5 6 
#
# 1 0.037132 -0.002265 -0.011622 0.000874 -0.015169 -0.029564
# 2 -0.002265 0.010071 0.002143 -0.003703 0.004666 -0.010493
# 3 -0.011622 0.002143 0.025160 -0.004447 0.011141 -0.008624
# 4 0.000874 -0.003703 -0.004447 0.041302 -0.029276 0.000852
# 5 -0.015169 0.004666 0.011141 -0.029276 0.062812 -0.000266
# 6 -0.029564 -0.010493 -0.008624 0.000852 -0.000266 0.078587
#
#
# Mechanical properties :
#
#
# Convention : Reuss Voigt Hill
#
# Bulk Modulus (GPa) = 20.46121 65.10024 42.78072
# Shear Modulus (GPa) = 16.95818 34.29107 25.62463
#
# Velocity S-wave (km/s) = 2.58689 3.67857 3.17993
# Velocity P-wave (km/s) = 4.12274 6.61303 5.51041
#
# Compressibility (1/GPa) = 0.04887297
#
# Stress axis : x y z
#
# Youngs Moduli (GPa) = 26.93109 99.29580 39.74634
#
# Poissons Ratio (x) = 0.22490 0.46194
# Poissons Ratio (y) = 0.06100 -0.08516
# Poissons Ratio (z) = 0.31300 -0.21276
#
# Static dielectric constant tensor:
#      x y z
#    x 2.065780 0.003950 -0.060430 
#    y 0.003950 2.166230 0.015000 
#    z -0.060430 0.015000 2.095090 
# 
# From -- ./inp_files/201933.got.cif
#   From: 2010.05.17/outbox.cif.g08.bks.cpg/sg2_101_cif.got.tgz:201933.got - 2010.06.03 11:33:40.
