data_PCOD9094001
_publ_section_title
;
Structure prediction by ZEFSAII (Michael W. Deem and Ramdas Pophale) SiO2 
 PCOD9094001
Probable space group: P -1
;
_chemical_formula_sum "Si O2"
_cell_formula_units_Z 16
_cell_length_a 14.140068
_cell_length_b 12.339153
_cell_length_c 23.098381
_cell_angle_alpha 46.750865
_cell_angle_beta 134.508915
_cell_angle_gamma 159.320878
_cell_volume 1008.023498
_symmetry_space_group_name_H-M "P -1"
_symmetry_group_IT_number 2
_symmetry_cell_setting 'triclinic'
loop_
_space_group_symop_operation_xyz
x,y,z
-x,-y,-z
loop_
_atom_site_type_symbol
_atom_site_label
_atom_site_fract_x
_atom_site_fract_y
_atom_site_fract_z
Si Si1 0.897745 0.108287 0.180402
Si Si2 0.181349 0.485408 0.417134
Si Si3 0.226247 0.634706 0.511803
Si Si4 0.551664 0.852652 0.339501
Si Si5 0.462730 0.838489 0.175975
Si Si6 0.857668 0.783958 0.351612
Si Si7 0.717897 0.134988 0.002473
Si Si8 0.468531 0.444928 0.412085
O O1 0.775715 0.031072 0.093264
O O2 0.205790 0.475442 0.185148
O O3 0.720082 0.024523 0.182744
O O4 0.881327 0.918894 0.258582
O O5 0.167523 0.554866 0.447455
O O6 0.367536 0.740050 0.353149
O O7 0.342469 0.490233 0.498635
O O8 0.871621 0.159002 0.381746
O O9 0.239341 0.480897 0.600226
O O10 0.000000 0.500000 0.500000
O O11 0.500000 0.000000 0.500000
O O12 0.516167 0.894333 0.246687
O O13 0.447044 0.580558 0.384855
O O14 0.383243 0.921320 0.084287
O O15 0.636488 0.636746 0.354695
O O16 0.163319 0.082377 0.402000
O O17 0.000000 0.500000 0.000000
O O18 0.500000 0.000000 0.000000
#
# Coordination Sequence:
#
# PCOD9094001 Si02
#       8
#     2   2   2   2   2   2   2   2
#     4  10  16  30  44  68  96 125 164 188 214 273
#     4  11  23  33  48  69  88 127 163 196 235 280
#     4  11  23  40  53  64  89 119 160 213 253 275
#     4  12  19  31  47  70 103 126 158 185 220 287
#     4  10  18  28  44  66 100 135 152 180 225 260
#     4  11  19  32  52  72  90 127 163 194 237 279
#     4   8  16  26  42  62  92 131 160 181 212 261
#     4  11  20  32  45  69 103 126 156 188 229 271
#
# _framework density 15.872646
#
# number of rings (size 3 to 8) (size 9 to 14) (size 15 to 20)
#    0.000    1.500    2.500    6.000    0.000    0.000 
#    0.000    0.000    0.000    0.000    0.000    0.000 
#    0.000    6.000    0.000    0.000    0.000    0.500 
#
# Total GULP energy -89181.393002 kJ/mol
# GULP energy per Si atom -5573.837063 kJ/mol
# Density = 1.583652 g / cm^3
# Si number density = 15.872646 Si / 1000 Ang^3
#
#
#
# Elastic Constant Matrix: (Units=GPa)
#
#
# Indices 1 2 3 4 5 6 
#
# 1 64.9685 14.3556 30.0509 -2.7069 -7.6290 7.9853
# 2 14.3556 86.2032 34.9715 -4.3624 7.4237 13.5408
# 3 30.0509 34.9715 133.6189 3.6338 -3.5257 -15.5752
# 4 -2.7069 -4.3624 3.6338 19.1834 3.4520 -1.9925
# 5 -7.6290 7.4237 -3.5257 3.4520 17.7758 -2.1741
# 6 7.9853 13.5408 -15.5752 -1.9925 -2.1741 27.6152
#
#
#
# Elastic Compliance Matrix: (Units=1/GPa)
#
#
# Indices 1 2 3 4 5 6 
#
# 1 0.019590 -0.000468 -0.005055 0.001679 0.006337 -0.007667
# 2 -0.000468 0.017540 -0.006413 0.005899 -0.011480 -0.012560
# 3 -0.005055 -0.006413 0.011875 -0.004148 0.005064 0.011403
# 4 0.001679 0.005899 -0.004148 0.056713 -0.013912 -0.002720
# 5 0.006337 -0.011480 0.005064 -0.013912 0.068830 0.011068
# 6 -0.007667 -0.012560 0.011403 -0.002720 0.011068 0.051694
#
#
# Mechanical properties :
#
#
# Convention : Reuss Voigt Hill
#
# Bulk Modulus (GPa) = 39.78860 49.28293 44.53577
# Shear Modulus (GPa) = 19.34287 26.60905 22.97596
#
# Velocity S-wave (km/s) = 3.49467 4.09884 3.80876
# Velocity P-wave (km/s) = 6.43471 7.31553 6.88921
#
# Compressibility (1/GPa) = 0.02513282
#
# Stress axis : x y z
#
# Youngs Moduli (GPa) = 51.04587 57.01201 84.21045
#
# Poissons Ratio (x) = 0.02668 0.42573
# Poissons Ratio (y) = 0.02388 0.54003
# Poissons Ratio (z) = 0.25806 0.36561
#
# Static dielectric constant tensor:
#      x y z
#    x 1.515270 0.021940 -0.006370 
#    y 0.021940 1.519670 -0.006800 
#    z -0.006370 -0.006800 1.613940 
# 
# From -- ./inp_files/439575.got.cif
#   From: 2010.05.17/outbox.cif.g08.bks.cpg/sg2_220_cif.got.tgz:439575.got - 2010.06.03 11:33:40.
