data_PCOD9094457
_publ_section_title
;
Structure prediction by ZEFSAII (Michael W. Deem and Ramdas Pophale) SiO2 
 PCOD9094457
Probable space group: P -1
;
_chemical_formula_sum "Si O2"
_cell_formula_units_Z 14
_cell_length_a 15.411386
_cell_length_b 12.617143
_cell_length_c 15.207436
_cell_angle_alpha 60.002806
_cell_angle_beta 39.378820
_cell_angle_gamma 28.133070
_cell_volume 702.774299
_symmetry_space_group_name_H-M "P -1"
_symmetry_group_IT_number 2
_symmetry_cell_setting 'triclinic'
loop_
_space_group_symop_operation_xyz
x,y,z
-x,-y,-z
loop_
_atom_site_type_symbol
_atom_site_label
_atom_site_fract_x
_atom_site_fract_y
_atom_site_fract_z
Si Si1 0.266108 0.761062 0.692317
Si Si2 0.677142 0.179876 0.869665
Si Si3 0.014197 0.847046 0.583126
Si Si4 0.777620 0.570801 0.732782
Si Si5 0.916174 0.429679 0.486003
Si Si6 0.278508 0.012277 0.665030
Si Si7 0.863985 0.242947 0.027835
O O1 0.643187 0.452284 0.515993
O O2 0.190982 0.717684 0.841994
O O3 0.192173 0.953774 0.710433
O O4 0.022166 0.940916 0.730726
O O5 0.462873 0.466320 0.886873
O O6 0.488177 0.267751 0.060696
O O7 0.742122 0.048064 0.785919
O O8 0.990870 0.771381 0.551291
O O9 0.000000 0.000000 0.500000
O O10 0.756351 0.543121 0.660257
O O11 0.808323 0.692933 0.663852
O O12 0.113582 0.247383 0.638728
O O13 0.649403 0.705511 0.517812
O O14 0.103302 0.149305 0.839940
O O15 0.000000 0.000000 0.000000
#
# Coordination Sequence:
#
# PCOD9094457 Si02
#       7
#     2   2   2   2   2   2   2
#     4  10  20  34  57  86 120 156 192 238 293 352
#     4  11  22  37  59  90 120 156 197 238 295 357
#     4  11  23  40  60  86 124 158 189 245 302 348
#     4  10  22  39  63  86 112 158 201 242 286 344
#     4  10  22  41  60  84 119 154 199 244 288 346
#     4   9  19  32  58  87 114 150 192 247 289 340
#     4   9  18  32  51  85 121 151 186 241 292 336
#
# _framework density 19.921047999999999
#
# number of rings (size 3 to 8) (size 9 to 14) (size 15 to 20)
#    0.000    2.000    1.429    1.714    2.000    6.857 
#    0.000    0.000    0.000    0.857    0.000    0.000 
#    0.000    0.000    0.000    0.000    0.000    0.000 
#
# Total GULP energy -78028.255914 kJ/mol
# GULP energy per Si atom -5573.446851 kJ/mol
# Density = 1.987571 g / cm^3
# Si number density = 19.921048 Si / 1000 Ang^3
#
#
#
# Elastic Constant Matrix: (Units=GPa)
#
#
# Indices 1 2 3 4 5 6 
#
# 1 116.5173 42.1764 42.3544 1.8112 13.5886 16.0678
# 2 42.1764 96.2531 24.9975 6.5838 4.4988 1.0963
# 3 42.3544 24.9975 53.6816 6.9852 25.5835 14.2548
# 4 1.8112 6.5838 6.9852 16.8147 5.1874 2.9958
# 5 13.5886 4.4988 25.5835 5.1874 21.7699 -0.6544
# 6 16.0678 1.0963 14.2548 2.9958 -0.6544 27.7363
#
#
#
# Elastic Compliance Matrix: (Units=1/GPa)
#
#
# Indices 1 2 3 4 5 6 
#
# 1 0.013621 -0.003576 -0.010773 0.003636 0.003954 -0.002513
# 2 -0.003576 0.015400 -0.015293 -0.007034 0.019014 0.010531
# 3 -0.010773 -0.015293 0.096041 0.008232 -0.106323 -0.045912
# 4 0.003636 -0.007034 0.008232 0.069416 -0.027457 -0.014204
# 5 0.003954 0.019014 -0.106323 -0.027457 0.172792 0.058644
# 6 -0.002513 0.010531 -0.045912 -0.014204 0.058644 0.063607
#
#
# Mechanical properties :
#
#
# Convention : Reuss Voigt Hill
#
# Bulk Modulus (GPa) = 15.20211 53.94539 34.57375
# Shear Modulus (GPa) = 9.76397 23.72575 16.74486
#
# Velocity S-wave (km/s) = 2.21630 3.45482 2.90239
# Velocity P-wave (km/s) = 3.76790 6.56146 5.35022
#
# Compressibility (1/GPa) = 0.06578033
#
# Stress axis : x y z
#
# Youngs Moduli (GPa) = 73.41361 64.93386 10.41221
#
# Poissons Ratio (x) = 0.23220 0.11217
# Poissons Ratio (y) = 0.26252 0.15923
# Poissons Ratio (z) = 0.79085 0.99302
#
# Static dielectric constant tensor:
#      x y z
#    x 1.738640 -0.022960 0.020560 
#    y -0.022960 1.711890 -0.007850 
#    z 0.020560 -0.007850 1.778870 
# 
# From -- ./inp_files/436967.got.cif
#   From: 2010.05.17/outbox.cif.g08.bks.cpg/sg2_219_cif.got.tgz:436967.got - 2010.06.03 11:33:40.
