data_PCOD9094334
_publ_section_title
;
Structure prediction by ZEFSAII (Michael W. Deem and Ramdas Pophale) SiO2 
 PCOD9094334
Probable space group: P -1
;
_chemical_formula_sum "Si O2"
_cell_formula_units_Z 16
_cell_length_a 8.201510
_cell_length_b 23.145020
_cell_length_c 8.252132
_cell_angle_alpha 72.846318
_cell_angle_beta 80.149940
_cell_angle_gamma 32.126621
_cell_volume 786.366684
_symmetry_space_group_name_H-M "P -1"
_symmetry_group_IT_number 2
_symmetry_cell_setting 'triclinic'
loop_
_space_group_symop_operation_xyz
x,y,z
-x,-y,-z
loop_
_atom_site_type_symbol
_atom_site_label
_atom_site_fract_x
_atom_site_fract_y
_atom_site_fract_z
Si Si1 0.432087 0.660508 0.502477
Si Si2 0.734773 0.473823 0.363597
Si Si3 0.637941 0.493798 0.827388
Si Si4 0.642993 0.733443 0.437343
Si Si5 0.879646 0.605258 0.949988
Si Si6 0.851833 0.904803 0.468809
Si Si7 0.258471 0.836833 0.722737
Si Si8 0.070885 0.956665 0.202946
O O1 0.582509 0.577528 0.396074
O O2 0.496043 0.601928 0.703076
O O3 0.597684 0.674764 0.475181
O O4 0.063369 0.787363 0.446555
O O5 0.470727 0.513665 0.298894
O O6 0.999055 0.363651 0.525326
O O7 0.948523 0.421473 0.214982
O O8 0.500000 0.500000 0.000000
O O9 0.982520 0.405247 0.903788
O O10 0.463439 0.805490 0.574189
O O11 0.436427 0.829614 0.259373
O O12 0.511605 0.727974 0.887994
O O13 0.000000 0.500000 0.000000
O O14 0.041245 0.858777 0.641045
O O15 0.898565 0.949796 0.309307
O O16 0.500000 0.000000 0.500000
O O17 0.042863 0.952702 0.744564
O O18 0.000000 0.000000 0.000000
#
# Coordination Sequence:
#
# PCOD9094334 Si02
#       8
#     2   2   2   2   2   2   2   2
#     4  10  20  37  56  82 115 152 195 238 290 357
#     4  10  20  34  56  85 114 147 190 240 293 346
#     4  10  21  34  52  83 116 147 186 235 290 347
#     4   9  19  36  59  83 111 157 196 234 291 365
#     4  10  20  36  57  84 116 152 189 234 290 352
#     4  10  22  40  62  84 114 161 201 237 291 362
#     4   9  19  37  59  81 113 159 200 233 287 366
#     4  10  21  38  60  90 116 147 202 255 291 337
#
# _framework density 20.346738999999999
#
# number of rings (size 3 to 8) (size 9 to 14) (size 15 to 20)
#    0.000    2.500    0.000    4.500    0.000    7.000 
#    0.000    1.875    0.000    0.000    0.000    0.000 
#    0.000    0.000    0.000    0.000    0.000    0.000 
#
# Total GULP energy -89096.128509 kJ/mol
# GULP energy per Si atom -5568.508032 kJ/mol
# Density = 2.030043 g / cm^3
# Si number density = 20.346739 Si / 1000 Ang^3
#
#
#
# Elastic Constant Matrix: (Units=GPa)
#
#
# Indices 1 2 3 4 5 6 
#
# 1 75.4875 53.7151 60.5579 -10.9154 26.9094 -11.9986
# 2 53.7151 134.3382 54.5646 -11.7429 24.2941 -2.5853
# 3 60.5579 54.5646 108.8525 -36.0481 22.1390 -3.7263
# 4 -10.9154 -11.7429 -36.0481 31.7860 -0.9147 1.9213
# 5 26.9094 24.2941 22.1390 -0.9147 28.5089 -4.6022
# 6 -11.9986 -2.5853 -3.7263 1.9213 -4.6022 40.7064
#
#
#
# Elastic Compliance Matrix: (Units=1/GPa)
#
#
# Indices 1 2 3 4 5 6 
#
# 1 0.036262 -0.005391 -0.017570 -0.010355 -0.015107 0.007518
# 2 -0.005391 0.010875 -0.001901 0.000011 -0.002929 -0.001404
# 3 -0.017570 -0.001901 0.029673 0.027046 -0.004679 -0.004389
# 4 -0.010355 0.000011 0.027046 0.058562 -0.010083 -0.004480
# 5 -0.015107 -0.002929 -0.004679 -0.010083 0.055413 0.001673
# 6 0.007518 -0.001404 -0.004389 -0.004480 0.001673 0.026692
#
#
# Mechanical properties :
#
#
# Convention : Reuss Voigt Hill
#
# Bulk Modulus (GPa) = 36.92052 72.92816 54.92434
# Shear Modulus (GPa) = 18.10091 30.18964 24.14527
#
# Velocity S-wave (km/s) = 2.98589 3.85614 3.44857
# Velocity P-wave (km/s) = 5.48383 7.46638 6.55055
#
# Compressibility (1/GPa) = 0.02708521
#
# Stress axis : x y z
#
# Youngs Moduli (GPa) = 27.57710 91.95199 33.70118
#
# Poissons Ratio (x) = 0.49572 0.59214
# Poissons Ratio (y) = 0.14867 0.06406
# Poissons Ratio (z) = 0.48454 0.17478
#
# Static dielectric constant tensor:
#      x y z
#    x 1.774690 -0.012480 0.012410 
#    y -0.012480 1.746340 -0.020990 
#    z 0.012410 -0.020990 1.875970 
# 
# From -- ./inp_files/226313.got.cif
#   From: 2010.05.17/outbox.cif.g08.bks.cpg/sg2_114_cif.got.tgz:226313.got - 2010.06.03 11:33:40.
