data_PCOD9094882
_publ_section_title
;
Structure prediction by ZEFSAII (Michael W. Deem and Ramdas Pophale) SiO2 
 PCOD9094882
Probable space group: P -1
;
_chemical_formula_sum "Si O2"
_cell_formula_units_Z 14
_cell_length_a 10.238122
_cell_length_b 8.341192
_cell_length_c 9.174456
_cell_angle_alpha 55.261261
_cell_angle_beta 100.720244
_cell_angle_gamma 84.467097
_cell_volume 612.395111
_symmetry_space_group_name_H-M "P -1"
_symmetry_group_IT_number 2
_symmetry_cell_setting 'triclinic'
loop_
_space_group_symop_operation_xyz
x,y,z
-x,-y,-z
loop_
_atom_site_type_symbol
_atom_site_label
_atom_site_fract_x
_atom_site_fract_y
_atom_site_fract_z
Si Si1 0.198407 0.300001 0.687461
Si Si2 0.248775 0.739414 0.127656
Si Si3 0.336045 0.116392 0.088689
Si Si4 0.684212 0.070374 0.546489
Si Si5 0.594129 0.266488 0.117902
Si Si6 0.419515 0.346559 0.496139
Si Si7 0.077806 0.766722 0.342712
O O1 0.335904 0.251960 0.644849
O O2 0.133517 0.532702 0.517791
O O3 0.084031 0.179817 0.689697
O O4 0.234995 0.267300 0.881473
O O5 0.310240 0.503108 0.296282
O O6 0.107838 0.790676 0.164167
O O7 0.326297 0.896235 0.140515
O O8 0.281467 0.748076 0.961050
O O9 0.482623 0.162205 0.079117
O O10 0.300148 0.130830 0.246801
O O11 0.659602 0.138465 0.339517
O O12 0.534162 0.189487 0.514768
O O13 0.820384 0.133811 0.596297
O O14 0.500000 0.500000 0.000000
O O15 0.500000 0.500000 0.500000
#
# Coordination Sequence:
#
# PCOD9094882 Si02
#       7
#     2   2   2   2   2   2   2
#     4  10  20  34  63  87 115 152 206 239 288 341
#     4  10  21  36  60  84 118 154 202 242 283 345
#     4  11  23  36  60  91 116 152 203 247 287 343
#     4  11  22  36  58  86 126 149 194 243 298 344
#     4  12  23  37  58  88 124 159 188 243 303 348
#     4  11  17  35  59  89 115 154 194 245 284 347
#     4   9  20  39  60  85 114 159 200 240 284 357
#
# _framework density 22.861059000000001
#
# number of rings (size 3 to 8) (size 9 to 14) (size 15 to 20)
#    0.000    1.429    5.714    2.571    2.000    2.286 
#    0.000    0.000    3.143    5.143    0.000    0.000 
#    0.000    0.000    0.000    0.000    0.000    0.000 
#
# Total GULP energy -77993.246798 kJ/mol
# GULP energy per Si atom -5570.946200 kJ/mol
# Density = 2.280903 g / cm^3
# Si number density = 22.861059 Si / 1000 Ang^3
#
#
#
# Elastic Constant Matrix: (Units=GPa)
#
#
# Indices 1 2 3 4 5 6 
#
# 1 136.4609 26.0718 54.5013 4.5299 -9.4568 19.6487
# 2 26.0718 53.2909 28.2779 -4.6334 -6.3786 -3.9395
# 3 54.5013 28.2779 171.7123 25.2550 -26.1877 -16.0602
# 4 4.5299 -4.6334 25.2550 34.6939 1.0896 0.3415
# 5 -9.4568 -6.3786 -26.1877 1.0896 24.8064 -5.1474
# 6 19.6487 -3.9395 -16.0602 0.3415 -5.1474 20.0518
#
#
#
# Elastic Compliance Matrix: (Units=1/GPa)
#
#
# Indices 1 2 3 4 5 6 
#
# 1 0.014006 -0.005287 -0.007667 0.003561 -0.009105 -0.023302
# 2 -0.005287 0.023699 -0.001258 0.004528 0.004613 0.009936
# 3 -0.007667 -0.001258 0.015133 -0.010994 0.018245 0.024257
# 4 0.003561 0.004528 -0.010994 0.037559 -0.013978 -0.015634
# 5 -0.009105 0.004613 0.018245 -0.013978 0.066569 0.041768
# 6 -0.023302 0.009936 0.024257 -0.015634 0.041768 0.105073
#
#
# Mechanical properties :
#
#
# Convention : Reuss Voigt Hill
#
# Bulk Modulus (GPa) = 40.95828 64.35178 52.65503
# Shear Modulus (GPa) = 16.74473 32.75127 24.74800
#
# Velocity S-wave (km/s) = 2.70933 3.78911 3.29377
# Velocity P-wave (km/s) = 5.26710 6.88137 6.12763
#
# Compressibility (1/GPa) = 0.02441509
#
# Stress axis : x y z
#
# Youngs Moduli (GPa) = 71.39673 42.19515 66.08271
#
# Poissons Ratio (x) = 0.22308 0.50664
# Poissons Ratio (y) = 0.37747 0.08313
# Poissons Ratio (z) = 0.54738 0.05308
#
# Static dielectric constant tensor:
#      x y z
#    x 1.876710 -0.010060 -0.000410 
#    y -0.010060 1.904410 0.008630 
#    z -0.000410 0.008630 1.955270 
# 
# From -- ./inp_files/236766.got.cif
#   From: 2010.05.17/outbox.cif.g08.bks.cpg/sg2_119_cif.got.tgz:236766.got - 2010.06.03 11:33:40.
