data_PCOD9094626
_publ_section_title
;
Structure prediction by ZEFSAII (Michael W. Deem and Ramdas Pophale) SiO2 
 PCOD9094626
Probable space group: P -1
;
_chemical_formula_sum "Si O2"
_cell_formula_units_Z 16
_cell_length_a 13.658521
_cell_length_b 18.759388
_cell_length_c 8.786310
_cell_angle_alpha 46.254327
_cell_angle_beta 42.263055
_cell_angle_gamma 32.225298
_cell_volume 793.837882
_symmetry_space_group_name_H-M "P -1"
_symmetry_group_IT_number 2
_symmetry_cell_setting 'triclinic'
loop_
_space_group_symop_operation_xyz
x,y,z
-x,-y,-z
loop_
_atom_site_type_symbol
_atom_site_label
_atom_site_fract_x
_atom_site_fract_y
_atom_site_fract_z
Si Si1 0.774017 0.029417 0.280594
Si Si2 0.188126 0.884746 0.175366
Si Si3 0.328309 0.057246 0.229570
Si Si4 0.263943 0.486532 0.729788
Si Si5 0.697509 0.332786 0.400189
Si Si6 0.905073 0.881366 0.879451
Si Si7 0.169852 0.317315 0.212505
Si Si8 0.268934 0.134164 0.613991
O O1 0.629318 0.051317 0.542054
O O2 0.849029 0.897771 0.294786
O O3 0.693274 0.137733 0.080733
O O4 0.962951 0.982619 0.223658
O O5 0.259814 0.754427 0.370265
O O6 0.183386 0.974218 0.172607
O O7 0.147846 0.111327 0.246342
O O8 0.279440 0.179263 0.196180
O O9 0.500000 0.000000 0.000000
O O10 0.466749 0.414815 0.508773
O O11 0.266122 0.571808 0.728766
O O12 0.062744 0.581354 0.719433
O O13 0.259346 0.380985 0.969295
O O14 0.854000 0.233470 0.233357
O O15 0.798676 0.851761 0.156216
O O16 0.207912 0.266347 0.417087
O O17 0.500000 0.000000 0.500000
#
# Coordination Sequence:
#
# PCOD9094626 Si02
#       8
#     2   2   2   2   2   2   2   2
#     4   9  19  34  51  86 122 153 180 226 317 362
#     4  10  20  34  59  84 125 150 187 251 311 352
#     4  11  21  34  59  90 124 146 193 255 310 357
#     4  10  23  39  64  80 115 175 209 236 285 358
#     4  11  21  38  59  89 115 160 214 246 289 353
#     4  11  21  35  59  95 121 149 195 266 310 348
#     4  10  21  43  62  85 121 160 208 239 297 368
#     4  10  21  37  61  90 122 154 190 248 316 366
#
# _framework density 20.155249000000001
#
# number of rings (size 3 to 8) (size 9 to 14) (size 15 to 20)
#    0.000    1.750    2.500    2.625    5.250    0.000 
#    0.000    1.250    0.000    0.000    0.000    0.000 
#    0.000    0.000    0.000    0.000    0.000    0.000 
#
# Total GULP energy -89205.245418 kJ/mol
# GULP energy per Si atom -5575.327839 kJ/mol
# Density = 2.010937 g / cm^3
# Si number density = 20.155249 Si / 1000 Ang^3
#
#
#
# Elastic Constant Matrix: (Units=GPa)
#
#
# Indices 1 2 3 4 5 6 
#
# 1 59.0025 14.2860 34.8130 -7.1018 -13.7686 3.5777
# 2 14.2860 54.5280 46.3564 4.4883 -3.0149 -9.1109
# 3 34.8130 46.3564 154.0359 1.7384 3.6926 0.1406
# 4 -7.1018 4.4883 1.7384 37.9860 1.8639 -8.9832
# 5 -13.7686 -3.0149 3.6926 1.8639 33.6456 5.4417
# 6 3.5777 -9.1109 0.1406 -8.9832 5.4417 21.0466
#
#
#
# Elastic Compliance Matrix: (Units=1/GPa)
#
#
# Indices 1 2 3 4 5 6 
#
# 1 0.023803 -0.002958 -0.004778 0.002845 0.010961 -0.006914
# 2 -0.002958 0.027767 -0.007696 -0.000586 0.000169 0.012281
# 3 -0.004778 -0.007696 0.009979 -0.000757 -0.003369 -0.002038
# 4 0.002845 -0.000586 -0.000757 0.030107 -0.002539 0.012775
# 5 0.010961 0.000169 -0.003369 -0.002539 0.036730 -0.012348
# 6 -0.006914 0.012281 -0.002038 0.012775 -0.012348 0.062664
#
#
# Mechanical properties :
#
#
# Convention : Reuss Voigt Hill
#
# Bulk Modulus (GPa) = 32.58960 50.94194 41.76577
# Shear Modulus (GPa) = 21.53851 30.00969 25.77410
#
# Velocity S-wave (km/s) = 3.27254 3.86285 3.57988
# Velocity P-wave (km/s) = 5.52121 6.72496 6.15259
#
# Compressibility (1/GPa) = 0.03068464
#
# Stress axis : x y z
#
# Youngs Moduli (GPa) = 42.01092 36.01449 100.20795
#
# Poissons Ratio (x) = 0.10652 0.47881
# Poissons Ratio (y) = 0.12426 0.77124
# Poissons Ratio (z) = 0.20073 0.27718
#
# Static dielectric constant tensor:
#      x y z
#    x 1.855220 -0.090730 -0.019700 
#    y -0.090730 1.746630 0.014500 
#    z -0.019700 0.014500 1.784960 
# 
# From -- ./inp_files/318861.got.cif
#   From: 2010.05.17/outbox.cif.g08.bks.cpg/sg2_160_cif.got.tgz:318861.got - 2010.06.03 11:33:40.
