data_PCOD9094992
_publ_section_title
;
Structure prediction by ZEFSAII (Michael W. Deem and Ramdas Pophale) SiO2 
 PCOD9094992
Probable space group: P -1
;
_chemical_formula_sum "Si O2"
_cell_formula_units_Z 16
_cell_length_a 10.614516
_cell_length_b 11.693517
_cell_length_c 9.239098
_cell_angle_alpha 82.934234
_cell_angle_beta 140.761449
_cell_angle_gamma 99.103744
_cell_volume 716.250117
_symmetry_space_group_name_H-M "P -1"
_symmetry_group_IT_number 2
_symmetry_cell_setting 'triclinic'
loop_
_space_group_symop_operation_xyz
x,y,z
-x,-y,-z
loop_
_atom_site_type_symbol
_atom_site_label
_atom_site_fract_x
_atom_site_fract_y
_atom_site_fract_z
Si Si1 0.706413 0.495987 0.593863
Si Si2 0.478341 0.180741 0.040561
Si Si3 0.830869 0.856359 0.977744
Si Si4 0.491883 0.625882 0.190154
Si Si5 0.785751 0.120640 0.824684
Si Si6 0.352193 0.173601 0.473499
Si Si7 0.110452 0.647483 0.005137
Si Si8 0.779226 0.997019 0.373592
O O1 0.500000 0.500000 0.500000
O O2 0.631226 0.522744 0.361052
O O3 0.802179 0.382020 0.753372
O O4 0.890081 0.589880 0.787446
O O5 0.511297 0.304602 0.971983
O O6 0.363732 0.090182 0.840250
O O7 0.319111 0.189944 0.025169
O O8 0.677193 0.118209 0.267864
O O9 0.763025 0.795638 0.776340
O O10 0.807375 0.992357 0.918645
O O11 0.068912 0.850764 0.187287
O O12 0.583155 0.722273 0.374982
O O13 0.263074 0.593359 0.039778
O O14 0.554537 0.130925 0.596513
O O15 0.853034 0.214476 0.995387
O O16 0.235349 0.068768 0.475069
O O17 0.000000 0.000000 0.500000
#
# Coordination Sequence:
#
# PCOD9094992 Si02
#       8
#     2   2   2   2   2   2   2   2
#     4   9  17  33  57  84 104 134 174 233 284 330
#     4  10  22  36  47  79 112 147 185 227 266 325
#     4  11  22  33  55  75 115 154 190 217 259 317
#     4   9  19  34  55  79 114 141 178 225 280 322
#     4  10  21  33  52  78 110 146 184 227 267 311
#     4  10  20  35  51  76 108 148 187 224 254 319
#     4   9  18  33  56  83 108 133 182 231 279 323
#     4  10  22  33  51  70 106 147 187 226 270 307
#
# _framework density 22.338564000000002
#
# number of rings (size 3 to 8) (size 9 to 14) (size 15 to 20)
#    0.000    2.250    1.250    1.125    5.250    2.000 
#    0.000    0.000    0.000    0.750    0.000   35.875 
#    0.000    0.000    0.000    0.000    0.000    0.000 
#
# Total GULP energy -89215.615167 kJ/mol
# GULP energy per Si atom -5575.975948 kJ/mol
# Density = 2.228772 g / cm^3
# Si number density = 22.338564 Si / 1000 Ang^3
#
#
#
# Elastic Constant Matrix: (Units=GPa)
#
#
# Indices 1 2 3 4 5 6 
#
# 1 115.8419 24.6092 45.4125 -16.5864 16.1555 34.3907
# 2 24.6092 52.9376 17.6543 -5.5066 5.0596 24.0316
# 3 45.4125 17.6543 68.4518 -9.2232 15.1521 17.0806
# 4 -16.5864 -5.5066 -9.2232 36.1614 3.9995 -4.4865
# 5 16.1555 5.0596 15.1521 3.9995 42.0127 1.9117
# 6 34.3907 24.0316 17.0806 -4.4865 1.9117 33.4990
#
#
#
# Elastic Compliance Matrix: (Units=1/GPa)
#
#
# Indices 1 2 3 4 5 6 
#
# 1 0.015934 0.001664 -0.006092 0.004762 -0.003966 -0.013582
# 2 0.001664 0.028796 -0.002538 0.002213 -0.002464 -0.020636
# 3 -0.006092 -0.002538 0.021341 0.002568 -0.005195 -0.002167
# 4 0.004762 0.002213 0.002568 0.031067 -0.005832 -0.003293
# 5 -0.003966 -0.002464 -0.005195 -0.005832 0.027774 0.006122
# 6 -0.013582 -0.020636 -0.002167 -0.003293 0.006122 0.058913
#
#
# Mechanical properties :
#
#
# Convention : Reuss Voigt Hill
#
# Bulk Modulus (GPa) = 19.17881 45.84258 32.51069
# Shear Modulus (GPa) = 23.24101 32.30497 27.77299
#
# Velocity S-wave (km/s) = 3.22902 3.80696 3.52984
# Velocity P-wave (km/s) = 4.74407 6.31587 5.58554
#
# Compressibility (1/GPa) = 0.05214089
#
# Stress axis : x y z
#
# Youngs Moduli (GPa) = 62.75869 34.72653 46.85759
#
# Poissons Ratio (x) = -0.05780 0.28544
# Poissons Ratio (y) = -0.10445 0.11893
# Poissons Ratio (z) = 0.38230 0.08814
#
# Static dielectric constant tensor:
#      x y z
#    x 1.850470 -0.006760 0.013820 
#    y -0.006760 1.880430 -0.028220 
#    z 0.013820 -0.028220 1.906850 
# 
# From -- ./inp_files/206594.got.cif
#   From: 2010.05.17/outbox.cif.g08.bks.cpg/sg2_104_cif.got.tgz:206594.got - 2010.06.03 11:33:40.
