data_PCOD9094024
_publ_section_title
;
Structure prediction by ZEFSAII (Michael W. Deem and Ramdas Pophale) SiO2 
 PCOD9094024
Probable space group: P -1
;
_chemical_formula_sum "Si O2"
_cell_formula_units_Z 14
_cell_length_a 7.999589
_cell_length_b 23.178220
_cell_length_c 8.843671
_cell_angle_alpha 141.106146
_cell_angle_beta 74.482471
_cell_angle_gamma 133.530798
_cell_volume 602.745123
_symmetry_space_group_name_H-M "P -1"
_symmetry_group_IT_number 2
_symmetry_cell_setting 'triclinic'
loop_
_space_group_symop_operation_xyz
x,y,z
-x,-y,-z
loop_
_atom_site_type_symbol
_atom_site_label
_atom_site_fract_x
_atom_site_fract_y
_atom_site_fract_z
Si Si1 0.172976 0.934588 0.382526
Si Si2 0.012601 0.541541 0.328006
Si Si3 0.693215 0.154681 0.062796
Si Si4 0.591852 0.779032 0.164230
Si Si5 0.836101 0.561650 0.101068
Si Si6 0.744063 0.764102 0.393160
Si Si7 0.915260 0.145568 0.271892
O O1 0.881176 0.847338 0.189335
O O2 0.036052 0.866485 0.441208
O O3 0.385666 0.109122 0.672268
O O4 0.298561 0.897844 0.201376
O O5 0.979586 0.573414 0.235275
O O6 0.197228 0.695692 0.681573
O O7 0.693985 0.392936 0.164407
O O8 0.130657 0.489779 0.157628
O O9 0.892498 0.176634 0.172519
O O10 0.389329 0.023199 0.952028
O O11 0.608566 0.785775 0.360359
O O12 0.992629 0.724210 0.390994
O O13 0.499036 0.416307 0.924353
O O14 0.838197 0.819862 0.656846
#
# Coordination Sequence:
#
# PCOD9094024 Si02
#       7
#     2   2   2   2   2   2   2
#     4   9  18  35  56  78 101 131 180 208 256 303
#     4   9  17  32  53  76 102 136 173 209 252 303
#     4  10  21  34  51  81 106 135 166 217 263 299
#     4   8  17  34  56  78  96 139 177 204 249 313
#     4   9  17  32  55  75 101 137 176 208 245 311
#     4   9  18  33  56  80  98 135 178 211 248 305
#     4  10  20  34  52  79 106 134 174 210 258 300
#
# _framework density 23.227063000000001
#
# number of rings (size 3 to 8) (size 9 to 14) (size 15 to 20)
#    0.857    2.000    0.000    1.286    0.000    4.571 
#    0.000    2.857    0.000    1.714    0.000    0.000 
#    0.000    0.000    0.000    0.000    0.000    0.000 
#
# Total GULP energy -77949.923121 kJ/mol
# GULP energy per Si atom -5567.851652 kJ/mol
# Density = 2.317420 g / cm^3
# Si number density = 23.227063 Si / 1000 Ang^3
#
#
#
# Elastic Constant Matrix: (Units=GPa)
#
#
# Indices 1 2 3 4 5 6 
#
# 1 34.6056 17.5737 21.9683 3.4632 -0.8901 -9.6103
# 2 17.5737 56.4907 31.4201 26.9979 -10.1338 -15.6398
# 3 21.9683 31.4201 90.2080 29.1740 -11.9445 -5.3391
# 4 3.4632 26.9979 29.1740 41.0960 -8.7829 0.1364
# 5 -0.8901 -10.1338 -11.9445 -8.7829 28.0128 -2.1295
# 6 -9.6103 -15.6398 -5.3391 0.1364 -2.1295 27.7585
#
#
#
# Elastic Compliance Matrix: (Units=1/GPa)
#
#
# Indices 1 2 3 4 5 6 
#
# 1 0.041102 -0.011285 -0.009362 0.009887 -0.003230 0.005775
# 2 -0.011285 0.039160 -0.001664 -0.022031 0.007599 0.018528
# 3 -0.009362 -0.001664 0.017557 -0.009840 0.003465 -0.000488
# 4 0.009887 -0.022031 -0.009840 0.045321 0.001523 -0.010989
# 5 -0.003230 0.007599 0.003465 0.001523 0.040828 0.006955
# 6 0.005775 0.018528 -0.000488 -0.010989 0.006955 0.048957
#
#
# Mechanical properties :
#
#
# Convention : Reuss Voigt Hill
#
# Bulk Modulus (GPa) = 18.79768 35.91428 27.35598
# Shear Modulus (GPa) = 16.93313 26.72959 21.83136
#
# Velocity S-wave (km/s) = 2.70298 3.39602 3.06912
# Velocity P-wave (km/s) = 4.22517 5.55635 4.93584
#
# Compressibility (1/GPa) = 0.05319805
#
# Stress axis : x y z
#
# Youngs Moduli (GPa) = 24.32946 25.53638 56.95691
#
# Poissons Ratio (x) = 0.28817 0.53325
# Poissons Ratio (y) = 0.27455 0.09475
# Poissons Ratio (z) = 0.22778 0.04248
#
# Static dielectric constant tensor:
#      x y z
#    x 2.032760 -0.011500 0.030900 
#    y -0.011500 1.838170 -0.013980 
#    z 0.030900 -0.013980 1.869970 
# 
# From -- ./inp_files/225662.got.cif
#   From: 2010.05.17/outbox.cif.g08.bks.cpg/sg2_113_cif.got.tgz:225662.got - 2010.06.03 11:33:40.
