data_PCOD9094915
_publ_section_title
;
Structure prediction by ZEFSAII (Michael W. Deem and Ramdas Pophale) SiO2 
 PCOD9094915
Probable space group: P -1
;
_chemical_formula_sum "Si O2"
_cell_formula_units_Z 16
_cell_length_a 8.027907
_cell_length_b 11.385207
_cell_length_c 14.400017
_cell_angle_alpha 37.142242
_cell_angle_beta 117.461721
_cell_angle_gamma 107.575898
_cell_volume 699.829716
_symmetry_space_group_name_H-M "P -1"
_symmetry_group_IT_number 2
_symmetry_cell_setting 'triclinic'
loop_
_space_group_symop_operation_xyz
x,y,z
-x,-y,-z
loop_
_atom_site_type_symbol
_atom_site_label
_atom_site_fract_x
_atom_site_fract_y
_atom_site_fract_z
Si Si1 0.094407 0.877061 0.016545
Si Si2 0.773820 0.597808 0.101511
Si Si3 0.578476 0.851988 0.739431
Si Si4 0.945674 0.206046 0.302947
Si Si5 0.033594 0.543890 0.589541
Si Si6 0.648402 0.455810 0.646193
Si Si7 0.369422 0.260370 0.376425
Si Si8 0.014421 0.992249 0.281052
O O1 0.294474 0.767495 0.167968
O O2 0.956469 0.714733 0.054569
O O3 0.000000 0.000000 0.000000
O O4 0.093005 0.009360 0.842646
O O5 0.806470 0.378686 0.204806
O O6 0.793869 0.576168 0.232312
O O7 0.606316 0.725115 0.920680
O O8 0.551480 0.735479 0.710195
O O9 0.427570 0.045316 0.572557
O O10 0.779252 0.937370 0.721852
O O11 0.143669 0.294465 0.289468
O O12 0.000000 0.000000 0.500000
O O13 0.895814 0.137129 0.231031
O O14 0.843236 0.512452 0.616199
O O15 0.000000 0.500000 0.500000
O O16 0.053358 0.771167 0.464232
O O17 0.500000 0.500000 0.500000
O O18 0.576160 0.581864 0.637051
#
# Coordination Sequence:
#
# PCOD9094915 Si02
#       8
#     2   2   2   2   2   2   2   2
#     4  10  21  37  58  89 116 156 210 245 288 361
#     4  10  20  37  60  91 113 156 204 249 298 361
#     4   9  22  35  64  89 119 155 191 257 299 367
#     4  11  19  36  62  86 117 149 198 248 306 352
#     4  11  22  40  61  88 121 161 207 245 298 368
#     4  11  24  39  62  87 123 163 201 252 299 356
#     4  10  20  39  58  88 124 151 202 238 313 354
#     4  10  20  34  64  85 114 154 199 250 302 349
#
# _framework density 22.862703
#
# number of rings (size 3 to 8) (size 9 to 14) (size 15 to 20)
#    0.000    1.750    3.750    1.500    7.000    1.500 
#    0.000    1.250    2.750    0.000    0.000    0.000 
#    0.000    0.000    0.000    0.000    0.000    0.000 
#
# Total GULP energy -89318.256816 kJ/mol
# GULP energy per Si atom -5582.391051 kJ/mol
# Density = 2.281067 g / cm^3
# Si number density = 22.862703 Si / 1000 Ang^3
#
#
#
# Elastic Constant Matrix: (Units=GPa)
#
#
# Indices 1 2 3 4 5 6 
#
# 1 42.4899 11.1692 14.6042 5.5995 3.3386 -5.3686
# 2 11.1692 111.7822 52.7819 14.6828 12.6503 -25.0377
# 3 14.6042 52.7819 157.5279 33.6096 5.3878 -18.0413
# 4 5.5995 14.6828 33.6096 43.3058 -0.5230 -2.7075
# 5 3.3386 12.6503 5.3878 -0.5230 25.8407 -2.9221
# 6 -5.3686 -25.0377 -18.0413 -2.7075 -2.9221 26.7697
#
#
#
# Elastic Compliance Matrix: (Units=1/GPa)
#
#
# Indices 1 2 3 4 5 6 
#
# 1 0.024964 -0.000715 -0.001251 -0.001851 -0.002306 0.003056
# 2 -0.000715 0.013247 -0.002727 -0.001732 -0.004761 0.009714
# 3 -0.001251 -0.002727 0.008887 -0.005650 -0.000177 0.002597
# 4 -0.001851 -0.001732 -0.005650 0.028167 0.002533 -0.002674
# 5 -0.002306 -0.004761 -0.000177 0.002533 0.041386 -0.000261
# 6 0.003056 0.009714 0.002597 -0.002674 -0.000261 0.048505
#
#
# Mechanical properties :
#
#
# Convention : Reuss Voigt Hill
#
# Bulk Modulus (GPa) = 26.51712 52.10118 39.30915
# Shear Modulus (GPa) = 26.72168 34.73287 30.72728
#
# Velocity S-wave (km/s) = 3.42246 3.90191 3.67003
# Velocity P-wave (km/s) = 5.21932 6.56796 5.93209
#
# Compressibility (1/GPa) = 0.03771149
#
# Stress axis : x y z
#
# Youngs Moduli (GPa) = 40.05732 75.48663 112.52490
#
# Poissons Ratio (x) = 0.05398 0.14076
# Poissons Ratio (y) = 0.02865 0.30691
# Poissons Ratio (z) = 0.05011 0.20589
#
# Static dielectric constant tensor:
#      x y z
#    x 1.939130 0.019300 0.013700 
#    y 0.019300 1.859930 0.013300 
#    z 0.013700 0.013300 1.944670 
# 
# From -- ./inp_files/243127.got.cif
#   From: 2010.05.17/outbox.cif.g08.bks.cpg/sg2_122_cif.got.tgz:243127.got - 2010.06.03 11:33:40.
