data_PCOD9094294
_publ_section_title
;
Structure prediction by ZEFSAII (Michael W. Deem and Ramdas Pophale) SiO2 
 PCOD9094294
Probable space group: P -1
;
_chemical_formula_sum "Si O2"
_cell_formula_units_Z 16
_cell_length_a 10.179021
_cell_length_b 15.536477
_cell_length_c 16.878788
_cell_angle_alpha 155.321256
_cell_angle_beta 67.258094
_cell_angle_gamma 94.937046
_cell_volume 745.220989
_symmetry_space_group_name_H-M "P -1"
_symmetry_group_IT_number 2
_symmetry_cell_setting 'triclinic'
loop_
_space_group_symop_operation_xyz
x,y,z
-x,-y,-z
loop_
_atom_site_type_symbol
_atom_site_label
_atom_site_fract_x
_atom_site_fract_y
_atom_site_fract_z
Si Si1 0.270128 0.880323 0.949535
Si Si2 0.954269 0.826742 0.473727
Si Si3 0.988444 0.366057 0.009923
Si Si4 0.242067 0.203326 0.371308
Si Si5 0.718453 0.722486 0.240391
Si Si6 0.440993 0.788806 0.659246
Si Si7 0.730479 0.289042 0.781895
Si Si8 0.966913 0.856978 0.027017
O O1 0.346843 0.865143 0.832589
O O2 0.413108 0.551518 0.670238
O O3 0.057459 0.981261 0.078737
O O4 0.272528 0.071445 0.168211
O O5 0.035327 0.518860 0.180075
O O6 0.832938 0.910197 0.651068
O O7 0.135308 0.804521 0.405179
O O8 0.813557 0.031571 0.605025
O O9 0.776812 0.614395 0.226599
O O10 0.996430 0.182376 0.919411
O O11 0.141858 0.238853 0.795978
O O12 0.433804 0.124621 0.297656
O O13 0.085805 0.548966 0.699932
O O14 0.500000 0.000000 0.500000
O O15 0.763465 0.463812 0.970443
O O16 0.261503 0.949080 0.774803
O O17 0.500000 0.500000 0.000000
#
# Coordination Sequence:
#
# PCOD9094294 Si02
#       8
#     2   2   2   2   2   2   2   2
#     4  10  22  40  63  93 126 160 204 261 307 371
#     4   9  20  37  55  76 115 150 191 244 295 344
#     4   9  20  37  54  77 113 150 191 240 295 348
#     4  10  22  39  63  89 122 164 206 255 306 368
#     4  10  20  34  56  81 109 151 193 235 292 352
#     4  10  22  41  63  92 126 163 204 253 317 368
#     4  10  20  35  56  80 112 152 191 241 292 350
#     4  10  22  39  62  88 124 164 201 257 308 366
#
# _framework density 21.470141000000002
#
# number of rings (size 3 to 8) (size 9 to 14) (size 15 to 20)
#    0.000    2.250    0.000    1.500    1.750    8.500 
#    0.000    0.000    0.000    0.000    0.000    0.000 
#    0.000    0.000    0.000    0.000    0.000    0.000 
#
# Total GULP energy -89230.017693 kJ/mol
# GULP energy per Si atom -5576.876106 kJ/mol
# Density = 2.142127 g / cm^3
# Si number density = 21.470141 Si / 1000 Ang^3
#
#
#
# Elastic Constant Matrix: (Units=GPa)
#
#
# Indices 1 2 3 4 5 6 
#
# 1 111.3063 16.1269 24.8990 7.4508 -6.7303 2.9075
# 2 16.1269 66.6704 17.4870 -6.3695 -10.4057 0.2004
# 3 24.8990 17.4870 35.1390 5.7062 -6.6875 -5.8092
# 4 7.4508 -6.3695 5.7062 20.6839 -8.4417 -2.3415
# 5 -6.7303 -10.4057 -6.6875 -8.4417 47.1586 2.1164
# 6 2.9075 0.2004 -5.8092 -2.3415 2.1164 30.8567
#
#
#
# Elastic Compliance Matrix: (Units=1/GPa)
#
#
# Indices 1 2 3 4 5 6 
#
# 1 0.011003 -0.000978 -0.007331 -0.002547 -0.000024 -0.002602
# 2 -0.000978 0.019734 -0.010249 0.011053 0.004805 -0.001456
# 3 -0.007331 -0.010249 0.041895 -0.011069 0.000303 0.007784
# 4 -0.002547 0.011053 -0.011069 0.060531 0.011256 0.001906
# 5 -0.000024 0.004805 0.000303 0.011256 0.024355 -0.000788
# 6 -0.002602 -0.001456 0.007784 0.001906 -0.000788 0.034327
#
#
# Mechanical properties :
#
#
# Convention : Reuss Voigt Hill
#
# Bulk Modulus (GPa) = 28.15584 36.68238 32.41911
# Shear Modulus (GPa) = 20.76411 30.04669 25.40540
#
# Velocity S-wave (km/s) = 3.11322 3.74500 3.44363
# Velocity P-wave (km/s) = 5.10542 5.98518 5.56272
#
# Compressibility (1/GPa) = 0.03551661
#
# Stress axis : x y z
#
# Youngs Moduli (GPa) = 90.88585 50.67316 23.86896
#
# Poissons Ratio (x) = 0.04955 0.17498
# Poissons Ratio (y) = 0.08887 0.24463
# Poissons Ratio (z) = 0.66629 0.51935
#
# Static dielectric constant tensor:
#      x y z
#    x 1.860900 0.061800 0.027100 
#    y 0.061800 1.844200 -0.004220 
#    z 0.027100 -0.004220 1.837690 
# 
# From -- ./inp_files/505799.got.cif
#   From: 2010.05.17/outbox.cif.g08.bks.cpg/sg2_253_cif.got.tgz:505799.got - 2010.06.03 11:33:40.
