data_PCOD9094682
_publ_section_title
;
Structure prediction by ZEFSAII (Michael W. Deem and Ramdas Pophale) SiO2 
 PCOD9094682
Probable space group: P -1
;
_chemical_formula_sum "Si O2"
_cell_formula_units_Z 16
_cell_length_a 11.329000
_cell_length_b 8.242216
_cell_length_c 23.915490
_cell_angle_alpha 49.279310
_cell_angle_beta 31.489125
_cell_angle_gamma 68.797994
_cell_volume 769.808294
_symmetry_space_group_name_H-M "P -1"
_symmetry_group_IT_number 2
_symmetry_cell_setting 'triclinic'
loop_
_space_group_symop_operation_xyz
x,y,z
-x,-y,-z
loop_
_atom_site_type_symbol
_atom_site_label
_atom_site_fract_x
_atom_site_fract_y
_atom_site_fract_z
Si Si1 0.356571 0.466286 0.624241
Si Si2 0.199778 0.502326 0.493552
Si Si3 0.362420 0.524788 0.859067
Si Si4 0.417543 0.950916 0.480005
Si Si5 0.931879 0.392317 0.139011
Si Si6 0.368145 0.735520 0.249688
Si Si7 0.939648 0.150072 0.942643
Si Si8 0.770738 0.034673 0.560758
O O1 0.500000 0.500000 0.500000
O O2 0.590703 0.566525 0.552338
O O3 0.256456 0.657581 0.611962
O O4 0.132116 0.211826 0.797585
O O5 0.299148 0.621824 0.365576
O O6 0.207717 0.710914 0.485141
O O7 0.901643 0.288292 0.657351
O O8 0.173062 0.488416 0.892000
O O9 0.558415 0.433056 0.781007
O O10 0.514862 0.816001 0.741460
O O11 0.187192 0.397610 0.011610
O O12 0.259245 0.014050 0.483338
O O13 0.500000 0.000000 0.500000
O O14 0.705633 0.113831 0.300776
O O15 0.990794 0.580490 0.123492
O O16 0.635647 0.991488 0.086694
O O17 0.000000 0.000000 0.000000
O O18 0.000000 0.000000 0.500000
#
# Coordination Sequence:
#
# PCOD9094682 Si02
#       8
#     2   2   2   2   2   2   2   2
#     4  12  25  41  67  96 133 176 223 272 334 402
#     4  11  23  41  62  98 132 176 216 273 342 390
#     4  10  20  34  59  95 121 162 214 283 318 381
#     4  11  24  42  66  94 129 174 219 273 330 402
#     4  10  21  36  61  90 126 164 222 272 331 380
#     4  11  23  37  64  96 132 165 222 279 326 390
#     4  12  22  39  65  97 130 173 226 279 324 399
#     4  11  22  39  66  95 130 169 220 270 330 396
#
# _framework density 20.784395
#
# number of rings (size 3 to 8) (size 9 to 14) (size 15 to 20)
#    0.000    1.000    6.250    0.750    3.500    0.000 
#    0.000    0.625    2.750    1.500    0.000    0.000 
#    0.000    0.000    0.000    0.000    0.000    0.000 
#
# Total GULP energy -89088.050748 kJ/mol
# GULP energy per Si atom -5568.003172 kJ/mol
# Density = 2.073709 g / cm^3
# Si number density = 20.784395 Si / 1000 Ang^3
#
#
#
# Elastic Constant Matrix: (Units=GPa)
#
#
# Indices 1 2 3 4 5 6 
#
# 1 96.3384 0.8969 53.5085 6.5800 -5.6889 -2.2945
# 2 0.8969 35.3579 11.4399 -0.1983 1.6402 2.7838
# 3 53.5085 11.4399 148.1151 1.1257 -3.2854 2.0327
# 4 6.5800 -0.1983 1.1257 30.0736 6.0966 0.4081
# 5 -5.6889 1.6402 -3.2854 6.0966 42.1240 2.1127
# 6 -2.2945 2.7838 2.0327 0.4081 2.1127 25.1928
#
#
#
# Elastic Compliance Matrix: (Units=1/GPa)
#
#
# Indices 1 2 3 4 5 6 
#
# 1 0.013439 0.001031 -0.004891 -0.003130 0.001776 0.001406
# 2 0.001031 0.029385 -0.002630 0.000331 -0.001115 -0.002853
# 3 -0.004891 -0.002630 0.008729 0.000725 0.000062 -0.000876
# 4 -0.003130 0.000331 0.000725 0.035018 -0.005422 -0.000493
# 5 0.001776 -0.001115 0.000062 -0.005422 0.024899 -0.001720
# 6 0.001406 -0.002853 -0.000876 -0.000493 -0.001720 0.040360
#
#
# Mechanical properties :
#
#
# Convention : Reuss Voigt Hill
#
# Bulk Modulus (GPa) = 25.92450 45.72243 35.82346
# Shear Modulus (GPa) = 28.14240 33.74248 30.94244
#
# Velocity S-wave (km/s) = 3.68369 4.03358 3.86260
# Velocity P-wave (km/s) = 5.53108 6.61356 6.09640
#
# Compressibility (1/GPa) = 0.03857356
#
# Stress axis : x y z
#
# Youngs Moduli (GPa) = 74.41003 34.03071 114.55571
#
# Poissons Ratio (x) = -0.03508 0.56027
# Poissons Ratio (y) = -0.07670 0.30129
# Poissons Ratio (z) = 0.36392 0.08950
#
# Static dielectric constant tensor:
#      x y z
#    x 1.761210 0.060120 -0.002840 
#    y 0.060120 1.855470 0.018100 
#    z -0.002840 0.018100 1.772240 
# 
# From -- ./inp_files/257412.got.cif
#   From: 2010.05.17/outbox.cif.g08.bks.cpg/sg2_129_cif.got.tgz:257412.got - 2010.06.03 11:33:40.
