data_PCOD9094303
_publ_section_title
;
Structure prediction by ZEFSAII (Michael W. Deem and Ramdas Pophale) SiO2 
 PCOD9094303
Probable space group: P -1
;
_chemical_formula_sum "Si O2"
_cell_formula_units_Z 16
_cell_length_a 9.223888
_cell_length_b 20.029935
_cell_length_c 6.123885
_cell_angle_alpha 72.530800
_cell_angle_beta 101.052383
_cell_angle_gamma 57.524878
_cell_volume 818.250281
_symmetry_space_group_name_H-M "P -1"
_symmetry_group_IT_number 2
_symmetry_cell_setting 'triclinic'
loop_
_space_group_symop_operation_xyz
x,y,z
-x,-y,-z
loop_
_atom_site_type_symbol
_atom_site_label
_atom_site_fract_x
_atom_site_fract_y
_atom_site_fract_z
Si Si1 0.290260 0.716365 0.672739
Si Si2 0.312738 0.852051 0.279444
Si Si3 0.538063 0.545502 0.157440
Si Si4 0.069637 0.987456 0.775040
Si Si5 0.392766 0.121226 0.629038
Si Si6 0.231620 0.071905 0.973475
Si Si7 0.038194 0.209111 0.136293
Si Si8 0.220161 0.622454 0.367933
O O1 0.308867 0.782926 0.482919
O O2 0.246148 0.672237 0.516336
O O3 0.118046 0.764651 0.751617
O O4 0.483133 0.634735 0.937082
O O5 0.512383 0.831370 0.373542
O O6 0.137238 0.952562 0.222673
O O7 0.234089 0.880453 0.981351
O O8 0.382906 0.583111 0.268455
O O9 0.737121 0.463977 0.412100
O O10 0.500000 0.500000 0.000000
O O11 0.161481 0.036134 0.809454
O O12 0.000000 0.000000 0.500000
O O13 0.285877 0.126546 0.809673
O O14 0.241243 0.160738 0.355018
O O15 0.576288 0.014680 0.773066
O O16 0.071258 0.138219 0.038055
O O17 0.967566 0.299284 0.896600
#
# Coordination Sequence:
#
# PCOD9094303 Si02
#       8
#     2   2   2   2   2   2   2   2
#     4  10  20  34  56  82 111 141 175 226 278 323
#     4  10  22  35  51  80 108 138 181 223 274 328
#     4   8  16  31  52  82 113 138 169 221 275 320
#     4  10  22  38  54  74 104 140 184 233 274 315
#     4  10  22  36  52  74 108 148 185 225 266 318
#     4  10  22  39  54  74 104 146 192 226 266 321
#     4  11  20  34  57  80 107 144 184 226 269 319
#     4   9  17  31  54  84 108 136 181 222 267 325
#
# _framework density 19.553920000000002
#
# number of rings (size 3 to 8) (size 9 to 14) (size 15 to 20)
#    0.000    2.250    0.000    2.625    0.000   13.000 
#    0.000    0.000    0.000    0.750    0.000   35.875 
#    0.000    0.000    0.000    0.000    0.000    0.000 
#
# Total GULP energy -89110.317046 kJ/mol
# GULP energy per Si atom -5569.394815 kJ/mol
# Density = 1.950941 g / cm^3
# Si number density = 19.553920 Si / 1000 Ang^3
#
#
#
# Elastic Constant Matrix: (Units=GPa)
#
#
# Indices 1 2 3 4 5 6 
#
# 1 94.5187 26.6455 48.6054 -6.2911 1.0270 10.2087
# 2 26.6455 79.4500 45.5508 0.9782 -3.6990 -7.9434
# 3 48.6054 45.5508 172.6581 -39.6107 8.5008 14.0329
# 4 -6.2911 0.9782 -39.6107 39.8690 -1.4909 -10.5368
# 5 1.0270 -3.6990 8.5008 -1.4909 29.3492 -1.3058
# 6 10.2087 -7.9434 14.0329 -10.5368 -1.3058 13.9907
#
#
#
# Elastic Compliance Matrix: (Units=1/GPa)
#
#
# Indices 1 2 3 4 5 6 
#
# 1 0.014458 -0.004802 -0.002489 -0.003741 -0.001190 -0.013708
# 2 -0.004802 0.020120 -0.006320 -0.001971 0.005336 0.020280
# 3 -0.002489 -0.006320 0.010865 0.008713 -0.003701 -0.006453
# 4 -0.003741 -0.001971 0.008713 0.039121 0.000341 0.022366
# 5 -0.001190 0.005336 -0.003701 0.000341 0.036377 0.011263
# 6 -0.013708 0.020280 -0.006453 0.022366 0.011263 0.117362
#
#
# Mechanical properties :
#
#
# Convention : Reuss Voigt Hill
#
# Bulk Modulus (GPa) = 54.87428 65.35890 60.11659
# Shear Modulus (GPa) = 18.40954 31.69677 25.05315
#
# Velocity S-wave (km/s) = 3.07168 4.03052 3.58332
# Velocity P-wave (km/s) = 6.37999 7.42682 6.92322
#
# Compressibility (1/GPa) = 0.01822348
#
# Stress axis : x y z
#
# Youngs Moduli (GPa) = 69.16614 49.70076 92.03607
#
# Poissons Ratio (x) = 0.23866 0.22905
# Poissons Ratio (y) = 0.33213 0.58162
# Poissons Ratio (z) = 0.17213 0.31408
#
# Static dielectric constant tensor:
#      x y z
#    x 1.690780 -0.008710 -0.087560 
#    y -0.008710 1.752060 0.042580 
#    z -0.087560 0.042580 2.038490 
# 
# From -- ./inp_files/52770.got.cif
#   From: 2010.05.17/outbox.cif.g08.bks.cpg/sg2_27_cif.got.tgz:52770.got - 2010.06.03 11:33:40.
