data_PCOD9094338
_publ_section_title
;
Structure prediction by ZEFSAII (Michael W. Deem and Ramdas Pophale) SiO2 
 PCOD9094338
Probable space group: P -1
;
_chemical_formula_sum "Si O2"
_cell_formula_units_Z 14
_cell_length_a 9.349159
_cell_length_b 11.756121
_cell_length_c 12.014588
_cell_angle_alpha 27.047656
_cell_angle_beta 97.352404
_cell_angle_gamma 110.723712
_cell_volume 504.309019
_symmetry_space_group_name_H-M "P -1"
_symmetry_group_IT_number 2
_symmetry_cell_setting 'triclinic'
loop_
_space_group_symop_operation_xyz
x,y,z
-x,-y,-z
loop_
_atom_site_type_symbol
_atom_site_label
_atom_site_fract_x
_atom_site_fract_y
_atom_site_fract_z
Si Si1 0.125340 0.851872 0.201860
Si Si2 0.809896 0.898240 0.777054
Si Si3 0.754943 0.570424 0.652460
Si Si4 0.632784 0.689120 0.747736
Si Si5 0.816854 0.088291 0.087368
Si Si6 0.590767 0.263394 0.669509
Si Si7 0.637214 0.283508 0.412522
O O1 0.096154 0.946545 0.234621
O O2 0.318245 0.921035 0.159798
O O3 0.000000 0.500000 0.500000
O O4 0.113445 0.947556 0.992831
O O5 0.696920 0.055414 0.622702
O O6 0.814926 0.871737 0.667050
O O7 0.748966 0.564497 0.101058
O O8 0.641090 0.498814 0.813391
O O9 0.657979 0.449975 0.627874
O O10 0.844071 0.924106 0.335306
O O11 0.869824 0.429204 0.805533
O O12 0.553337 0.857943 0.531365
O O13 0.500000 0.500000 0.000000
O O14 0.611410 0.931272 0.191093
O O15 0.648970 0.418684 0.419583
#
# Coordination Sequence:
#
# PCOD9094338 Si02
#       7
#     2   2   2   2   2   2   2
#     4  10  22  41  64  89 120 157 201 246 297 352
#     4  10  22  37  53  83 121 154 194 237 297 347
#     4  11  22  35  55  89 119 155 193 239 301 349
#     4  10  22  32  56  84 127 156 191 239 299 354
#     4  11  23  37  63  86 120 152 194 251 296 343
#     4  10  21  36  62  87 121 151 196 248 298 343
#     4  10  20  34  56  85 118 154 189 242 293 352
#
# _framework density 27.760757999999999
#
# number of rings (size 3 to 8) (size 9 to 14) (size 15 to 20)
#    0.000    1.714    1.429    3.429   12.000    2.286 
#    0.000   11.429    0.000    4.286    0.000    0.000 
#    0.000    0.000    0.000    0.000    0.000    0.000 
#
# Total GULP energy -78049.406147 kJ/mol
# GULP energy per Si atom -5574.957582 kJ/mol
# Density = 2.769757 g / cm^3
# Si number density = 27.760758 Si / 1000 Ang^3
#
#
#
# Elastic Constant Matrix: (Units=GPa)
#
#
# Indices 1 2 3 4 5 6 
#
# 1 101.2661 33.3368 31.7863 12.7332 25.3367 -3.8107
# 2 33.3368 169.1166 22.6420 24.8815 19.7742 0.7047
# 3 31.7863 22.6420 120.7370 14.5047 30.2599 -9.9040
# 4 12.7332 24.8815 14.5047 49.9583 2.4341 0.1535
# 5 25.3367 19.7742 30.2599 2.4341 50.1382 17.1464
# 6 -3.8107 0.7047 -9.9040 0.1535 17.1464 41.3729
#
#
#
# Elastic Compliance Matrix: (Units=1/GPa)
#
#
# Indices 1 2 3 4 5 6 
#
# 1 0.012597 -0.001332 -0.000918 -0.001978 -0.006434 0.003637
# 2 -0.001332 0.006857 0.000004 -0.002976 -0.002111 0.000647
# 3 -0.000918 0.000004 0.011469 -0.002706 -0.008438 0.006168
# 4 -0.001978 -0.002976 -0.002706 0.022625 0.003499 -0.002314
# 5 -0.006434 -0.002111 -0.008438 0.003499 0.034764 -0.016997
# 6 0.003637 0.000647 0.006168 -0.002314 -0.016997 0.033024
#
#
# Mechanical properties :
#
#
# Convention : Reuss Voigt Hill
#
# Bulk Modulus (GPa) = 37.83296 62.96109 50.39702
# Shear Modulus (GPa) = 37.13661 48.51752 42.82706
#
# Velocity S-wave (km/s) = 3.66148 4.18509 3.93201
# Velocity P-wave (km/s) = 5.61543 6.78840 6.22958
#
# Compressibility (1/GPa) = 0.02643198
#
# Stress axis : x y z
#
# Youngs Moduli (GPa) = 79.38335 145.83573 87.19125
#
# Poissons Ratio (x) = 0.19426 0.08004
# Poissons Ratio (y) = 0.10574 -0.00039
# Poissons Ratio (z) = 0.07288 -0.00065
#
# Static dielectric constant tensor:
#      x y z
#    x 2.438900 0.112250 -0.179380 
#    y 0.112250 2.231260 -0.124400 
#    z -0.179380 -0.124400 2.371690 
# 
# From -- ./inp_files/427242.got.cif
#   From: 2010.05.17/outbox.cif.g08.bks.cpg/sg2_214_cif.got.tgz:427242.got - 2010.06.03 11:33:40.
