data_PCOD9094978
_publ_section_title
;
Structure prediction by ZEFSAII (Michael W. Deem and Ramdas Pophale) SiO2 
 PCOD9094978
Probable space group: P -1
;
_chemical_formula_sum "Si O2"
_cell_formula_units_Z 15
_cell_length_a 9.202651
_cell_length_b 8.531030
_cell_length_c 11.160153
_cell_angle_alpha 125.747137
_cell_angle_beta 98.517778
_cell_angle_gamma 103.748647
_cell_volume 643.336601
_symmetry_space_group_name_H-M "P -1"
_symmetry_group_IT_number 2
_symmetry_cell_setting 'triclinic'
loop_
_space_group_symop_operation_xyz
x,y,z
-x,-y,-z
loop_
_atom_site_type_symbol
_atom_site_label
_atom_site_fract_x
_atom_site_fract_y
_atom_site_fract_z
Si Si1 0.471129 0.440847 0.631283
Si Si2 0.327966 0.776081 0.125098
Si Si3 0.017021 0.652142 0.683799
Si Si4 0.341266 0.059927 0.630096
Si Si5 0.236819 0.612668 0.294122
Si Si6 0.192445 0.108450 0.319066
Si Si7 0.359087 0.774293 0.865203
Si Si8 0.000000 0.000000 0.500000
O O1 0.659122 0.504356 0.689504
O O2 0.367423 0.296771 0.447625
O O3 0.416750 0.628112 0.727636
O O4 0.412567 0.279263 0.664547
O O5 0.246723 0.618915 0.155283
O O6 0.233184 0.929443 0.179917
O O7 0.517859 0.903073 0.238322
O O8 0.316336 0.675497 0.949058
O O9 0.937009 0.494626 0.715435
O O10 0.924273 0.801635 0.717939
O O11 0.000000 0.500000 0.500000
O O12 0.202279 0.781954 0.791232
O O13 0.325398 0.853649 0.459496
O O14 0.156436 0.018101 0.613227
O O15 0.113445 0.031729 0.407127
O O16 0.500000 0.000000 0.000000
#
# Coordination Sequence:
#
# PCOD9094978 Si02
#       8
#     2   2   2   2   2   2   2   1
#     4  10  21  44  71 106 137 189 245 282 364 436
#     4  11  24  46  74 102 149 191 234 299 369 429
#     4  12  28  45  73 109 146 188 251 299 358 428
#     4  10  20  39  74 112 136 177 244 300 347 424
#     4  11  22  43  77 110 136 184 248 306 346 434
#     4  11  22  42  74 105 139 189 246 294 351 428
#     4  12  31  49  67 105 156 194 234 301 377 426
#     4  10  20  34  70 110 136 178 238 298 340 406
#
# _framework density 23.315943000000001
#
# number of rings (size 3 to 8) (size 9 to 14) (size 15 to 20)
#    0.000    1.067    5.333    1.600    7.467    3.733 
#    0.000    0.000    0.000    0.000    0.000    0.000 
#    0.000    0.000    0.000    0.000    0.000    0.000 
#
# Total GULP energy -83623.211180 kJ/mol
# GULP energy per Si atom -5574.880745 kJ/mol
# Density = 2.326287 g / cm^3
# Si number density = 23.315943 Si / 1000 Ang^3
#
#
#
# Elastic Constant Matrix: (Units=GPa)
#
#
# Indices 1 2 3 4 5 6 
#
# 1 179.7485 29.1582 25.5439 2.9372 12.3445 -9.0435
# 2 29.1582 70.6048 12.8428 -11.6374 -1.0217 -1.1375
# 3 25.5439 12.8428 40.9286 -16.9858 1.1984 2.6976
# 4 2.9372 -11.6374 -16.9858 29.4665 -0.6003 -5.0170
# 5 12.3445 -1.0217 1.1984 -0.6003 30.5275 -7.5300
# 6 -9.0435 -1.1375 2.6976 -5.0170 -7.5300 46.4649
#
#
#
# Elastic Compliance Matrix: (Units=1/GPa)
#
#
# Indices 1 2 3 4 5 6 
#
# 1 0.007105 -0.002763 -0.005593 -0.004964 -0.002678 0.000670
# 2 -0.002763 0.016587 -0.000902 0.006512 0.002073 0.000960
# 3 -0.005593 -0.000902 0.037154 0.021506 0.001003 -0.000783
# 4 -0.004964 0.006512 0.021506 0.050132 0.003328 0.003897
# 5 -0.002678 0.002073 0.001003 0.003328 0.035305 0.005552
# 6 0.000670 0.000960 -0.000783 0.003897 0.005552 0.023042
#
#
# Mechanical properties :
#
#
# Convention : Reuss Voigt Hill
#
# Bulk Modulus (GPa) = 23.62381 47.37465 35.49923
# Shear Modulus (GPa) = 24.75845 36.20758 30.48301
#
# Velocity S-wave (km/s) = 3.26217 3.94497 3.61971
# Velocity P-wave (km/s) = 4.93386 6.41195 5.72084
#
# Compressibility (1/GPa) = 0.04233017
#
# Stress axis : x y z
#
# Youngs Moduli (GPa) = 140.74254 60.28721 26.91504
#
# Poissons Ratio (x) = 0.16658 0.15054
# Poissons Ratio (y) = 0.38888 0.02427
# Poissons Ratio (z) = 0.78722 0.05436
#
# Static dielectric constant tensor:
#      x y z
#    x 1.909890 0.025380 0.017580 
#    y 0.025380 1.975100 -0.049330 
#    z 0.017580 -0.049330 1.828610 
# 
# From -- ./inp_files/413438.got.cif
#   From: 2010.05.17/outbox.cif.g08.bks.cpg/sg2_207_cif.got.tgz:413438.got - 2010.06.03 11:33:40.
