data_PCOD9094518
_publ_section_title
;
Structure prediction by ZEFSAII (Michael W. Deem and Ramdas Pophale) SiO2 
 PCOD9094518
Probable space group: P -1
;
_chemical_formula_sum "Si O2"
_cell_formula_units_Z 16
_cell_length_a 5.326757
_cell_length_b 22.361850
_cell_length_c 7.576430
_cell_angle_alpha 84.573124
_cell_angle_beta 47.176482
_cell_angle_gamma 107.116708
_cell_volume 574.005656
_symmetry_space_group_name_H-M "P -1"
_symmetry_group_IT_number 2
_symmetry_cell_setting 'triclinic'
loop_
_space_group_symop_operation_xyz
x,y,z
-x,-y,-z
loop_
_atom_site_type_symbol
_atom_site_label
_atom_site_fract_x
_atom_site_fract_y
_atom_site_fract_z
Si Si1 0.406320 0.675546 0.313311
Si Si2 0.205012 0.956199 0.353150
Si Si3 0.693989 0.913593 0.311498
Si Si4 0.532400 0.296024 0.312493
Si Si5 0.638045 0.202237 0.782308
Si Si6 0.533075 0.450671 0.770077
Si Si7 0.493952 0.423333 0.213356
Si Si8 0.438651 0.829762 0.791138
O O1 0.435694 0.700402 0.492921
O O2 0.578872 0.623038 0.239557
O O3 0.536143 0.745448 0.120650
O O4 0.951780 0.624951 0.492681
O O5 0.125604 0.947582 0.183693
O O6 0.911609 0.876360 0.574263
O O7 0.587170 0.969583 0.272329
O O8 0.000000 0.000000 0.500000
O O9 0.412972 0.871867 0.624852
O O10 0.622425 0.858910 0.208607
O O11 0.074905 0.252424 0.488048
O O12 0.685858 0.374703 0.161312
O O13 0.701691 0.248422 0.173661
O O14 0.705561 0.172989 0.941454
O O15 0.363228 0.502152 0.786273
O O16 0.000000 0.500000 0.500000
O O17 0.470044 0.434448 0.013432
#
# Coordination Sequence:
#
# PCOD9094518 Si02
#       8
#     2   2   2   2   2   2   2   2
#     4  10  20  34  58  82 117 153 206 256 316 375
#     4  10  21  42  67  92 133 173 210 268 321 376
#     4  10  21  42  63  94 132 166 217 266 313 387
#     4  11  21  38  56  89 120 156 209 267 311 384
#     4  11  21  40  60  92 123 167 207 265 318 381
#     4   9  18  37  54  80 112 161 198 259 311 383
#     4   9  20  35  56  76 118 153 204 254 317 375
#     4  10  23  37  64  90 126 167 210 262 325 372
#
# _framework density 27.874290999999999
#
# number of rings (size 3 to 8) (size 9 to 14) (size 15 to 20)
#    0.750    1.250    2.500    1.125    0.000    2.500 
#    0.000    6.875    0.000    0.000    0.000    0.000 
#    0.000    0.000    0.000    0.000    0.000    0.000 
#
# Total GULP energy -89455.324465 kJ/mol
# GULP energy per Si atom -5590.957779 kJ/mol
# Density = 2.781085 g / cm^3
# Si number density = 27.874291 Si / 1000 Ang^3
#
#
#
# Elastic Constant Matrix: (Units=GPa)
#
#
# Indices 1 2 3 4 5 6 
#
# 1 147.6870 81.4214 36.0870 7.6210 11.4196 -19.6891
# 2 81.4214 194.7396 35.9841 15.0723 13.4809 -13.3415
# 3 36.0870 35.9841 55.6091 -4.2071 16.2637 -8.0326
# 4 7.6210 15.0723 -4.2071 43.9733 -1.5384 0.5794
# 5 11.4196 13.4809 16.2637 -1.5384 55.7701 3.3655
# 6 -19.6891 -13.3415 -8.0326 0.5794 3.3655 61.7536
#
#
#
# Elastic Compliance Matrix: (Units=1/GPa)
#
#
# Indices 1 2 3 4 5 6 
#
# 1 0.009822 -0.003121 -0.004092 -0.001057 -0.000210 0.001946
# 2 -0.003121 0.007133 -0.002601 -0.002170 -0.000402 0.000250
# 3 -0.004092 -0.002601 0.024491 0.003725 -0.005669 0.001593
# 4 -0.001057 -0.002170 0.003725 0.024044 0.000352 -0.000566
# 5 -0.000210 -0.000402 -0.005669 0.000352 0.019853 -0.001976
# 6 0.001946 0.000250 0.001593 -0.000566 -0.001976 0.017188
#
#
# Mechanical properties :
#
#
# Convention : Reuss Voigt Hill
#
# Bulk Modulus (GPa) = 45.83242 78.33565 62.08403
# Shear Modulus (GPa) = 38.63025 48.60228 43.61626
#
# Velocity S-wave (km/s) = 3.72677 4.18020 3.95998
# Velocity P-wave (km/s) = 5.91580 7.17377 6.57494
#
# Compressibility (1/GPa) = 0.02181862
#
# Stress axis : x y z
#
# Youngs Moduli (GPa) = 101.81631 140.18435 40.83111
#
# Poissons Ratio (x) = 0.43747 0.16707
# Poissons Ratio (y) = 0.31774 0.10622
# Poissons Ratio (z) = 0.41659 0.36469
#
# Static dielectric constant tensor:
#      x y z
#    x 2.223480 -0.053340 -0.144610 
#    y -0.053340 2.165930 0.033170 
#    z -0.144610 0.033170 2.303920 
# 
# From -- ./inp_files/141393.got.cif
#   From: 2010.05.17/outbox.cif.g08.bks.cpg/sg2_71_cif.got.tgz:141393.got - 2010.06.03 11:33:40.
