data_PCOD9094295
_publ_section_title
;
Structure prediction by ZEFSAII (Michael W. Deem and Ramdas Pophale) SiO2 
 PCOD9094295
Probable space group: P -1
;
_chemical_formula_sum "Si O2"
_cell_formula_units_Z 16
_cell_length_a 15.129762
_cell_length_b 19.584518
_cell_length_c 11.099695
_cell_angle_alpha 148.999713
_cell_angle_beta 32.123605
_cell_angle_gamma 149.208124
_cell_volume 787.227641
_symmetry_space_group_name_H-M "P -1"
_symmetry_group_IT_number 2
_symmetry_cell_setting 'triclinic'
loop_
_space_group_symop_operation_xyz
x,y,z
-x,-y,-z
loop_
_atom_site_type_symbol
_atom_site_label
_atom_site_fract_x
_atom_site_fract_y
_atom_site_fract_z
Si Si1 0.409912 0.958028 0.170678
Si Si2 0.178208 0.904561 0.031741
Si Si3 0.518879 0.848125 0.243367
Si Si4 0.104385 0.358988 0.193990
Si Si5 0.127445 0.120786 0.265772
Si Si6 0.748030 0.865506 0.242158
Si Si7 0.038647 0.715357 0.155332
Si Si8 0.126632 0.551733 0.237181
O O1 0.236784 0.787052 0.109622
O O2 0.331579 0.072503 0.466056
O O3 0.500000 0.000000 0.000000
O O4 0.595221 0.001064 0.099648
O O5 0.103126 0.823737 0.124717
O O6 0.096639 0.014948 0.257600
O O7 0.095042 0.774434 0.829802
O O8 0.604539 0.832359 0.248456
O O9 0.310955 0.711984 0.247165
O O10 0.500000 0.000000 0.500000
O O11 0.674682 0.845241 0.968978
O O12 0.182644 0.470220 0.157124
O O13 0.048299 0.432671 0.479857
O O14 0.224118 0.277342 0.972004
O O15 0.101077 0.257510 0.554475
O O16 0.958115 0.012609 0.206253
O O17 0.944780 0.550781 0.954932
#
# Coordination Sequence:
#
# PCOD9094295 Si02
#       8
#     2   2   2   2   2   2   2   2
#     4   9  17  30  55  85 112 138 177 229 277 327
#     4   9  16  33  58  84 108 142 188 231 275 319
#     4  12  24  38  58  81 110 150 192 230 273 334
#     4   9  19  37  60  83 111 144 184 235 281 322
#     4  10  20  34  56  81 110 144 184 230 274 332
#     4  10  20  37  59  84 108 141 190 235 276 322
#     4   9  19  34  54  80 114 147 181 227 279 330
#     4  10  21  37  56  82 115 149 182 226 284 332
#
# _framework density 20.324490000000001
#
# number of rings (size 3 to 8) (size 9 to 14) (size 15 to 20)
#    0.000    2.250    0.000    3.750    0.000    5.000 
#    0.000    1.250    0.000   10.500    0.000    0.000 
#    0.000    0.000    0.000    0.000    0.000    0.000 
#
# Total GULP energy -89173.214146 kJ/mol
# GULP energy per Si atom -5573.325884 kJ/mol
# Density = 2.027823 g / cm^3
# Si number density = 20.324490 Si / 1000 Ang^3
#
#
#
# Elastic Constant Matrix: (Units=GPa)
#
#
# Indices 1 2 3 4 5 6 
#
# 1 53.4379 16.6926 32.9300 6.8351 -10.9626 11.6305
# 2 16.6926 93.5105 43.0152 11.3721 2.8649 21.6019
# 3 32.9300 43.0152 129.1971 5.6191 8.0441 7.5169
# 4 6.8351 11.3721 5.6191 31.4817 -0.9072 4.5220
# 5 -10.9626 2.8649 8.0441 -0.9072 22.0200 -7.2311
# 6 11.6305 21.6019 7.5169 4.5220 -7.2311 16.5532
#
#
#
# Elastic Compliance Matrix: (Units=1/GPa)
#
#
# Indices 1 2 3 4 5 6 
#
# 1 0.028697 0.001043 -0.007668 -0.003216 0.013056 -0.011459
# 2 0.001043 0.019598 -0.004457 -0.002806 -0.009621 -0.027720
# 3 -0.007668 -0.004457 0.011366 0.000618 -0.006346 0.003101
# 4 -0.003216 -0.002806 0.000618 0.033937 -0.001466 -0.004271
# 5 0.013056 -0.009621 -0.006346 -0.001466 0.067260 0.036046
# 6 -0.011459 -0.027720 0.003101 -0.004271 0.036046 0.120142
#
#
# Mechanical properties :
#
#
# Convention : Reuss Voigt Hill
#
# Bulk Modulus (GPa) = 26.66885 51.26902 38.96893
# Shear Modulus (GPa) = 15.83976 26.24483 21.04229
#
# Velocity S-wave (km/s) = 2.79470 3.59735 3.22113
# Velocity P-wave (km/s) = 4.85426 6.52185 5.74884
#
# Compressibility (1/GPa) = 0.03749693
#
# Stress axis : x y z
#
# Youngs Moduli (GPa) = 34.84744 51.02675 87.98037
#
# Poissons Ratio (x) = -0.05322 0.67461
# Poissons Ratio (y) = -0.03635 0.39212
# Poissons Ratio (z) = 0.26720 0.22742
#
# Static dielectric constant tensor:
#      x y z
#    x 1.790800 0.008770 0.012380 
#    y 0.008770 1.747800 0.003010 
#    z 0.012380 0.003010 1.726810 
# 
# From -- ./inp_files/457530.got.cif
#   From: 2010.05.17/outbox.cif.g08.bks.cpg/sg2_229_cif.got.tgz:457530.got - 2010.06.03 11:33:40.
