data_PCOD9094972
_publ_section_title
;
Structure prediction by ZEFSAII (Michael W. Deem and Ramdas Pophale) SiO2 
 PCOD9094972
Probable space group: P -1
;
_chemical_formula_sum "Si O2"
_cell_formula_units_Z 16
_cell_length_a 9.118865
_cell_length_b 19.344141
_cell_length_c 12.471449
_cell_angle_alpha 151.894538
_cell_angle_beta 126.171310
_cell_angle_gamma 47.196316
_cell_volume 760.106089
_symmetry_space_group_name_H-M "P -1"
_symmetry_group_IT_number 2
_symmetry_cell_setting 'triclinic'
loop_
_space_group_symop_operation_xyz
x,y,z
-x,-y,-z
loop_
_atom_site_type_symbol
_atom_site_label
_atom_site_fract_x
_atom_site_fract_y
_atom_site_fract_z
Si Si1 0.563772 0.330222 0.357423
Si Si2 0.709003 0.251639 0.954305
Si Si3 0.763712 0.566819 0.474441
Si Si4 0.668516 0.314787 0.794865
Si Si5 0.201938 0.949776 0.083346
Si Si6 0.863178 0.324845 0.666262
Si Si7 0.320415 0.245398 0.526281
Si Si8 0.748878 0.671599 0.162666
O O1 0.500000 0.500000 0.500000
O O2 0.375475 0.337363 0.355783
O O3 0.633193 0.196037 0.111739
O O4 0.747632 0.294674 0.473441
O O5 0.792137 0.253798 0.873905
O O6 0.490116 0.247962 0.846167
O O7 0.694743 0.421251 0.227475
O O8 0.827360 0.112975 0.898954
O O9 0.728375 0.672263 0.496815
O O10 0.000000 0.500000 0.500000
O O11 0.768830 0.309122 0.717049
O O12 0.553133 0.200111 0.577189
O O13 0.500000 0.500000 0.000000
O O14 0.262777 0.097923 0.314391
O O15 0.000000 0.000000 0.000000
O O16 0.104037 0.239832 0.667771
O O17 0.816976 0.515091 0.903122
O O18 0.220161 0.366484 0.748186
#
# Coordination Sequence:
#
# PCOD9094972 Si02
#       8
#     2   2   2   2   2   2   2   2
#     4  12  24  44  70  97 142 183 232 283 327 421
#     4  11  21  45  65  98 133 175 231 278 339 411
#     4  12  23  40  68 100 131 180 235 277 335 404
#     4  11  18  39  66  95 131 170 221 290 334 396
#     4  12  27  45  68 100 144 187 226 280 350 412
#     4  11  19  36  63 102 130 168 224 287 342 388
#     4  11  22  41  65  96 134 177 223 278 349 396
#     4  10  20  34  68  95 129 167 224 282 345 394
#
# _framework density 21.049695
#
# number of rings (size 3 to 8) (size 9 to 14) (size 15 to 20)
#    0.000    0.750    7.500    1.500    1.750    2.500 
#    2.250    0.000    0.000    2.250    0.000    0.000 
#    0.000    0.000    0.000    0.000    0.000    0.000 
#
# Total GULP energy -89219.233910 kJ/mol
# GULP energy per Si atom -5576.202119 kJ/mol
# Density = 2.100178 g / cm^3
# Si number density = 21.049695 Si / 1000 Ang^3
#
#
#
# Elastic Constant Matrix: (Units=GPa)
#
#
# Indices 1 2 3 4 5 6 
#
# 1 95.6396 22.5837 21.7945 -10.9922 10.0896 11.5829
# 2 22.5837 103.1166 18.0610 -8.7594 3.6148 27.2146
# 3 21.7945 18.0610 85.0746 0.6434 7.8649 8.7059
# 4 -10.9922 -8.7594 0.6434 25.6926 5.5970 3.8136
# 5 10.0896 3.6148 7.8649 5.5970 25.3056 -3.3170
# 6 11.5829 27.2146 8.7059 3.8136 -3.3170 39.9682
#
#
#
# Elastic Compliance Matrix: (Units=1/GPa)
#
#
# Indices 1 2 3 4 5 6 
#
# 1 0.013197 -0.000471 -0.002275 0.007649 -0.006742 -0.004297
# 2 -0.000471 0.013275 -0.001400 0.006650 -0.003998 -0.009564
# 3 -0.002275 -0.001400 0.013054 -0.000935 -0.002925 -0.001384
# 4 0.007649 0.006650 -0.000935 0.049941 -0.016415 -0.012668
# 5 -0.006742 -0.003998 -0.002925 -0.016415 0.048748 0.010925
# 6 -0.004297 -0.009564 -0.001384 -0.012668 0.010925 0.035194
#
#
# Mechanical properties :
#
#
# Convention : Reuss Voigt Hill
#
# Bulk Modulus (GPa) = 32.01792 45.41211 38.71502
# Shear Modulus (GPa) = 26.02645 32.95271 29.48958
#
# Velocity S-wave (km/s) = 3.52010 3.96090 3.74699
# Velocity P-wave (km/s) = 5.63606 6.52218 6.09525
#
# Compressibility (1/GPa) = 0.03123251
#
# Stress axis : x y z
#
# Youngs Moduli (GPa) = 75.77741 75.32780 76.60756
#
# Poissons Ratio (x) = 0.03552 0.17432
# Poissons Ratio (y) = 0.03573 0.10721
# Poissons Ratio (z) = 0.17243 0.10542
#
# Static dielectric constant tensor:
#      x y z
#    x 1.822860 -0.021030 -0.017830 
#    y -0.021030 1.791960 -0.033120 
#    z -0.017830 -0.033120 1.772700 
# 
# From -- ./inp_files/403618.got.cif
#   From: 2010.05.17/outbox.cif.g08.bks.cpg/sg2_202_cif.got.tgz:403618.got - 2010.06.03 11:33:40.
