data_PCOD9095264
_publ_section_title
;
Structure prediction by ZEFSAII (Michael W. Deem and Ramdas Pophale) SiO2 
 PCOD9095264
Probable space group: P -1
;
_chemical_formula_sum "Si O2"
_cell_formula_units_Z 16
_cell_length_a 16.925212
_cell_length_b 22.941907
_cell_length_c 14.120286
_cell_angle_alpha 153.906461
_cell_angle_beta 21.571163
_cell_angle_gamma 161.195895
_cell_volume 642.432290
_symmetry_space_group_name_H-M "P -1"
_symmetry_group_IT_number 2
_symmetry_cell_setting 'triclinic'
loop_
_space_group_symop_operation_xyz
x,y,z
-x,-y,-z
loop_
_atom_site_type_symbol
_atom_site_label
_atom_site_fract_x
_atom_site_fract_y
_atom_site_fract_z
Si Si1 0.355833 0.633635 0.293656
Si Si2 0.160129 0.456654 0.904513
Si Si3 0.453781 0.865053 0.678289
Si Si4 0.679172 0.771032 0.672830
Si Si5 0.532456 0.793315 0.678077
Si Si6 0.244641 0.393487 0.915465
Si Si7 0.737325 0.001393 0.275600
Si Si8 0.015191 0.908798 0.695727
O O1 0.462775 0.722404 0.408731
O O2 0.383627 0.507372 0.023644
O O3 0.531601 0.812528 0.291527
O O4 0.000000 0.500000 0.500000
O O5 0.341506 0.615468 0.857220
O O6 0.215198 0.326879 0.626322
O O7 0.285020 0.513957 0.957431
O O8 0.820041 0.351115 0.127727
O O9 0.580509 0.914984 0.715853
O O10 0.114475 0.765458 0.906681
O O11 0.687887 0.034276 0.597087
O O12 0.690842 0.874972 0.722261
O O13 0.843655 0.857318 0.714159
O O14 0.626911 0.691108 0.383411
O O15 0.500000 0.000000 0.500000
O O16 0.918301 0.006473 0.998284
O O17 0.976004 0.166937 0.324468
#
# Coordination Sequence:
#
# PCOD9095264 Si02
#       8
#     2   2   2   2   2   2   2   2
#     4   9  18  36  60  86 117 152 191 240 293 339
#     4   9  19  36  55  82 112 143 194 251 294 341
#     4   9  20  36  53  81 118 151 195 243 288 348
#     4  10  20  36  57  79 113 153 190 239 294 349
#     4  10  20  35  56  83 112 150 196 243 293 345
#     4   9  18  35  57  81 115 149 189 250 297 338
#     4  10  22  41  62  87 120 155 195 241 290 353
#     4  10  22  39  58  84 118 156 193 236 293 353
#
# _framework density 24.905346999999999
#
# number of rings (size 3 to 8) (size 9 to 14) (size 15 to 20)
#    0.000    2.500    0.000    1.125    0.000    5.000 
#    0.000   30.625    0.000    0.000    0.000    0.000 
#    0.000    0.000    0.000    0.000    0.000    0.000 
#
# Total GULP energy -89077.649967 kJ/mol
# GULP energy per Si atom -5567.353123 kJ/mol
# Density = 2.484866 g / cm^3
# Si number density = 24.905347 Si / 1000 Ang^3
#
#
#
# Elastic Constant Matrix: (Units=GPa)
#
#
# Indices 1 2 3 4 5 6 
#
# 1 121.7094 23.3944 42.8018 3.5207 19.9016 44.9101
# 2 23.3944 40.5196 25.6437 -4.0654 16.0049 3.2671
# 3 42.8018 25.6437 143.2144 -21.4605 19.2614 -11.0404
# 4 3.5207 -4.0654 -21.4605 30.2125 3.6032 16.1749
# 5 19.9016 16.0049 19.2614 3.6032 42.6325 2.9325
# 6 44.9101 3.2671 -11.0404 16.1749 2.9325 38.1637
#
#
#
# Elastic Compliance Matrix: (Units=1/GPa)
#
#
# Indices 1 2 3 4 5 6 
#
# 1 0.025342 -0.003811 -0.007208 0.011333 -0.005628 -0.035951
# 2 -0.003811 0.032909 -0.002863 0.004062 -0.009615 -0.000143
# 3 -0.007208 -0.002863 0.011102 0.002678 -0.001554 0.010923
# 4 0.011333 0.004062 0.002678 0.054243 -0.010194 -0.035115
# 5 -0.005628 -0.009615 -0.001554 -0.010194 0.030640 0.008962
# 6 -0.035951 -0.000143 0.010923 -0.035115 0.008962 0.085876
#
#
# Mechanical properties :
#
#
# Convention : Reuss Voigt Hill
#
# Bulk Modulus (GPa) = 24.04482 54.34702 39.19592
# Shear Modulus (GPa) = 17.74703 36.44197 27.09450
#
# Velocity S-wave (km/s) = 2.67231 3.82935 3.30191
# Velocity P-wave (km/s) = 4.38145 6.43589 5.50535
#
# Compressibility (1/GPa) = 0.04158899
#
# Stress axis : x y z
#
# Youngs Moduli (GPa) = 39.46036 30.38713 90.07694
#
# Poissons Ratio (x) = 0.11581 0.64926
# Poissons Ratio (y) = 0.15039 0.25786
# Poissons Ratio (z) = 0.28442 0.08699
#
# Static dielectric constant tensor:
#      x y z
#    x 2.041640 0.027510 -0.006770 
#    y 0.027510 2.193740 -0.023310 
#    z -0.006770 -0.023310 1.972210 
# 
# From -- ./inp_files/367012.got.cif
#   From: 2010.05.17/outbox.cif.g08.bks.cpg/sg2_184_cif.got.tgz:367012.got - 2010.06.03 11:33:40.
