data_PCOD9095198
_publ_section_title
;
Structure prediction by ZEFSAII (Michael W. Deem and Ramdas Pophale) SiO2 
 PCOD9095198
Probable space group: P -1
;
_chemical_formula_sum "Si O2"
_cell_formula_units_Z 14
_cell_length_a 9.188642
_cell_length_b 9.386306
_cell_length_c 11.700717
_cell_angle_alpha 129.136669
_cell_angle_beta 126.068773
_cell_angle_gamma 84.055118
_cell_volume 571.967141
_symmetry_space_group_name_H-M "P -1"
_symmetry_group_IT_number 2
_symmetry_cell_setting 'triclinic'
loop_
_space_group_symop_operation_xyz
x,y,z
-x,-y,-z
loop_
_atom_site_type_symbol
_atom_site_label
_atom_site_fract_x
_atom_site_fract_y
_atom_site_fract_z
Si Si1 0.056339 0.308018 0.589632
Si Si2 0.436438 0.165093 0.189516
Si Si3 0.707989 0.266930 0.574677
Si Si4 0.307319 0.762223 0.022687
Si Si5 0.746980 0.599134 0.490376
Si Si6 0.103451 0.285752 0.123337
Si Si7 0.652893 0.861204 0.410901
O O1 0.058851 0.332307 0.466151
O O2 0.163104 0.159005 0.578171
O O3 0.855704 0.250275 0.535730
O O4 0.202802 0.533727 0.813599
O O5 0.514028 0.224998 0.387469
O O6 0.598327 0.360190 0.297540
O O7 0.220697 0.162978 0.067452
O O8 0.409014 0.933976 0.059219
O O9 0.811562 0.493628 0.785004
O O10 0.690010 0.092278 0.565789
O O11 0.468440 0.775897 0.197312
O O12 0.132888 0.808486 0.024820
O O13 0.820116 0.659361 0.682722
O O14 0.634065 0.722621 0.441914
#
# Coordination Sequence:
#
# PCOD9095198 Si02
#       7
#     2   2   2   2   2   2   2
#     4   9  19  33  57  78 110 129 176 214 260 310
#     4  10  20  36  53  76 108 141 176 212 258 308
#     4   9  17  32  56  77  99 141 171 205 263 310
#     4  10  20  35  56  75 103 147 170 204 272 315
#     4   9  20  34  55  78 111 128 175 224 255 294
#     4  10  20  37  55  76 105 139 179 217 252 306
#     4   9  19  35  53  82 107 133 172 213 265 311
#
# _framework density 24.476928999999998
#
# number of rings (size 3 to 8) (size 9 to 14) (size 15 to 20)
#    0.857    1.714    0.000    3.000    0.000    5.714 
#    0.000   11.429    0.000    0.000    0.000    0.000 
#    0.000    0.000    0.000    0.000    0.000    0.000 
#
# Total GULP energy -78164.104989 kJ/mol
# GULP energy per Si atom -5583.150356 kJ/mol
# Density = 2.442122 g / cm^3
# Si number density = 24.476929 Si / 1000 Ang^3
#
#
#
# Elastic Constant Matrix: (Units=GPa)
#
#
# Indices 1 2 3 4 5 6 
#
# 1 70.8781 16.8003 7.1543 -13.3491 12.8077 5.7239
# 2 16.8003 185.2936 36.5812 8.9239 8.7660 -4.1163
# 3 7.1543 36.5812 43.8007 0.8051 10.0946 -0.8296
# 4 -13.3491 8.9239 0.8051 34.6731 -8.3107 15.7440
# 5 12.8077 8.7660 10.0946 -8.3107 28.3729 -4.1779
# 6 5.7239 -4.1163 -0.8296 15.7440 -4.1779 33.4267
#
#
#
# Elastic Compliance Matrix: (Units=1/GPa)
#
#
# Indices 1 2 3 4 5 6 
#
# 1 0.018328 -0.002014 -0.000320 0.010243 -0.005855 -0.008951
# 2 -0.002014 0.006862 -0.005281 -0.003688 -0.000001 0.002796
# 3 -0.000320 -0.005281 0.029432 -0.001512 -0.009182 -0.000301
# 4 0.010243 -0.003688 -0.001512 0.045909 0.007117 -0.022979
# 5 -0.005855 -0.000001 -0.009182 0.007117 0.043664 0.002880
# 6 -0.008951 0.002796 -0.000301 -0.022979 0.002880 0.042969
#
#
# Mechanical properties :
#
#
# Convention : Reuss Voigt Hill
#
# Bulk Modulus (GPa) = 25.38581 46.78265 36.08423
# Shear Modulus (GPa) = 23.19923 35.25697 29.22810
#
# Velocity S-wave (km/s) = 3.08198 3.79940 3.45934
# Velocity P-wave (km/s) = 4.80194 6.19691 5.54348
#
# Compressibility (1/GPa) = 0.03939208
#
# Stress axis : x y z
#
# Youngs Moduli (GPa) = 54.56024 145.73462 33.97683
#
# Poissons Ratio (x) = 0.29347 0.01088
# Poissons Ratio (y) = 0.10987 0.17943
# Poissons Ratio (z) = 0.01747 0.76961
#
# Static dielectric constant tensor:
#      x y z
#    x 2.058300 -0.018870 0.011450 
#    y -0.018870 1.978160 0.041320 
#    z 0.011450 0.041320 1.879690 
# 
# From -- ./inp_files/194066.got.cif
#   From: 2010.05.17/outbox.cif.g08.bks.cpg/sg2_98_cif.got.tgz:194066.got - 2010.06.03 11:33:40.
