data_PCOD9095311
_publ_section_title
;
Structure prediction by ZEFSAII (Michael W. Deem and Ramdas Pophale) SiO2 
 PCOD9095311
Probable space group: P -1
;
_chemical_formula_sum "Si O2"
_cell_formula_units_Z 16
_cell_length_a 8.275077
_cell_length_b 8.616971
_cell_length_c 14.613352
_cell_angle_alpha 37.253667
_cell_angle_beta 94.319226
_cell_angle_gamma 91.416383
_cell_volume 627.918617
_symmetry_space_group_name_H-M "P -1"
_symmetry_group_IT_number 2
_symmetry_cell_setting 'triclinic'
loop_
_space_group_symop_operation_xyz
x,y,z
-x,-y,-z
loop_
_atom_site_type_symbol
_atom_site_label
_atom_site_fract_x
_atom_site_fract_y
_atom_site_fract_z
Si Si1 0.444469 0.899182 0.676999
Si Si2 0.021164 0.636274 0.237807
Si Si3 0.877900 0.972242 0.218572
Si Si4 0.641830 0.512124 0.424906
Si Si5 0.324199 0.405352 0.826700
Si Si6 0.909469 0.115933 0.568413
Si Si7 0.721957 0.719791 0.644766
Si Si8 0.445889 0.755385 0.934863
O O1 0.317061 0.687228 0.741925
O O2 0.602362 0.749210 0.711546
O O3 0.468382 0.948468 0.761039
O O4 0.384636 0.155737 0.501023
O O5 0.006886 0.874167 0.194001
O O6 0.859872 0.675176 0.151066
O O7 0.990840 0.370150 0.416107
O O8 0.192895 0.558537 0.236763
O O9 0.776562 0.719773 0.353958
O O10 0.973944 0.031434 0.285651
O O11 0.745005 0.191217 0.078728
O O12 0.500000 0.500000 0.500000
O O13 0.607842 0.576586 0.283696
O O14 0.745501 0.239352 0.551018
O O15 0.441641 0.231377 0.978577
O O16 0.855579 0.920132 0.582137
O O17 0.500000 0.500000 0.000000
#
# Coordination Sequence:
#
# PCOD9095311 Si02
#       8
#     2   2   2   2   2   2   2   2
#     4  10  21  36  58  91 119 156 195 253 300 344
#     4  10  20  35  57  89 115 157 189 250 297 364
#     4  10  22  38  60  86 121 159 202 240 302 354
#     4  10  21  36  62  95 125 150 191 251 310 357
#     4   9  20  39  57  84 117 156 207 237 291 355
#     4  10  20  35  56  91 121 156 194 240 301 369
#     4  11  21  34  62  90 124 148 200 249 313 348
#     4  10  22  38  64  83 112 164 211 242 282 361
#
# _framework density 25.481010000000001
#
# number of rings (size 3 to 8) (size 9 to 14) (size 15 to 20)
#    0.000    2.250    2.500    2.625    5.250    4.000 
#    0.000    0.625    0.000    3.750    0.000    0.000 
#    0.000    0.000    0.000    0.000    0.000    0.000 
#
# Total GULP energy -89386.868438 kJ/mol
# GULP energy per Si atom -5586.679277 kJ/mol
# Density = 2.542301 g / cm^3
# Si number density = 25.481010 Si / 1000 Ang^3
#
#
#
# Elastic Constant Matrix: (Units=GPa)
#
#
# Indices 1 2 3 4 5 6 
#
# 1 70.8221 51.6878 43.1461 16.9481 24.2105 -32.3395
# 2 51.6878 94.2482 56.6184 2.1561 25.7530 -43.2574
# 3 43.1461 56.6184 116.4663 34.4376 43.9268 -14.2979
# 4 16.9481 2.1561 34.4376 51.5774 3.7362 9.0331
# 5 24.2105 25.7530 43.9268 3.7362 53.4402 -9.1388
# 6 -32.3395 -43.2574 -14.2979 9.0331 -9.1388 52.5545
#
#
#
# Elastic Compliance Matrix: (Units=1/GPa)
#
#
# Indices 1 2 3 4 5 6 
#
# 1 0.032237 -0.010258 0.001179 -0.012600 -0.007601 0.012558
# 2 -0.010258 0.028216 -0.011226 0.007274 0.001984 0.012953
# 3 0.001179 -0.011226 0.022030 -0.013276 -0.012724 -0.002451
# 4 -0.012600 0.007274 -0.013276 0.033082 0.009184 -0.009467
# 5 -0.007601 0.001984 -0.012724 0.009184 0.030543 -0.002774
# 6 0.012558 0.012953 -0.002451 -0.009467 -0.002774 0.037895
#
#
# Mechanical properties :
#
#
# Convention : Reuss Voigt Hill
#
# Bulk Modulus (GPa) = 23.88176 64.93791 44.40983
# Shear Modulus (GPa) = 20.95818 40.18673 30.57245
#
# Velocity S-wave (km/s) = 2.87104 3.97561 3.46759
# Velocity P-wave (km/s) = 4.51478 6.82745 5.78780
#
# Compressibility (1/GPa) = 0.04187297
#
# Stress axis : x y z
#
# Youngs Moduli (GPa) = 31.02069 35.44033 45.39192
#
# Poissons Ratio (x) = 0.36356 -0.05351
# Poissons Ratio (y) = 0.31823 0.50955
# Poissons Ratio (z) = -0.03657 0.39784
#
# Static dielectric constant tensor:
#      x y z
#    x 2.113620 -0.021040 -0.044890 
#    y -0.021040 2.028270 -0.002100 
#    z -0.044890 -0.002100 2.096590 
# 
# From -- ./inp_files/494414.got.cif
#   From: 2010.05.17/outbox.cif.g08.bks.cpg/sg2_248_cif.got.tgz:494414.got - 2010.06.03 11:33:40.
