data_PCOD9095575
_publ_section_title
;
Structure prediction by ZEFSAII (Michael W. Deem and Ramdas Pophale) SiO2 
 PCOD9095575
Probable space group: P -1
;
_chemical_formula_sum "Si O2"
_cell_formula_units_Z 14
_cell_length_a 8.451401
_cell_length_b 14.182960
_cell_length_c 14.461949
_cell_angle_alpha 39.917196
_cell_angle_beta 84.860045
_cell_angle_gamma 52.976593
_cell_volume 610.184308
_symmetry_space_group_name_H-M "P -1"
_symmetry_group_IT_number 2
_symmetry_cell_setting 'triclinic'
loop_
_space_group_symop_operation_xyz
x,y,z
-x,-y,-z
loop_
_atom_site_type_symbol
_atom_site_label
_atom_site_fract_x
_atom_site_fract_y
_atom_site_fract_z
Si Si1 0.532674 0.771509 0.141393
Si Si2 0.217221 0.255288 0.462896
Si Si3 0.631410 0.384500 0.479404
Si Si4 0.386946 0.806225 0.539285
Si Si5 0.320007 0.186930 0.719473
Si Si6 0.770134 0.332779 0.211072
Si Si7 0.276252 0.895372 0.760525
O O1 0.494480 0.627692 0.248835
O O2 0.495519 0.855742 0.186499
O O3 0.871995 0.537427 0.276927
O O4 0.340379 0.014373 0.899600
O O5 0.344114 0.298593 0.372454
O O6 0.374478 0.131964 0.648975
O O7 0.285637 0.035946 0.593686
O O8 0.500000 0.500000 0.500000
O O9 0.579937 0.276207 0.506017
O O10 0.978328 0.139161 0.648869
O O11 0.324789 0.701525 0.675189
O O12 0.102434 0.119100 0.343499
O O13 0.000000 0.500000 0.500000
O O14 0.751019 0.230448 0.204566
O O15 0.567356 0.631024 0.997552
#
# Coordination Sequence:
#
# PCOD9095575 Si02
#       7
#     2   2   2   2   2   2   2
#     4   9  19  36  56  81 121 164 191 241 295 352
#     4  10  20  35  58  89 114 150 200 248 299 346
#     4  10  20  37  59  88 121 154 198 241 301 363
#     4  10  21  37  60  86 115 155 198 248 291 359
#     4   9  18  35  56  81 120 157 199 236 290 355
#     4   9  20  41  58  80 118 156 200 241 301 348
#     4   9  20  39  60  82 116 158 193 251 293 352
#
# _framework density 22.94389
#
# number of rings (size 3 to 8) (size 9 to 14) (size 15 to 20)
#    0.000    2.571    0.000    0.857    2.000    2.286 
#   15.429    0.714    0.000    0.000    0.000    0.000 
#    0.000    0.000    0.000    0.000    0.000    0.000 
#
# Total GULP energy -78043.274250 kJ/mol
# GULP energy per Si atom -5574.519589 kJ/mol
# Density = 2.289167 g / cm^3
# Si number density = 22.943890 Si / 1000 Ang^3
#
#
#
# Elastic Constant Matrix: (Units=GPa)
#
#
# Indices 1 2 3 4 5 6 
#
# 1 70.3264 12.9171 13.4753 -13.5256 -10.6540 -7.1150
# 2 12.9171 100.5772 31.7182 -9.6905 -3.1285 -2.4230
# 3 13.4753 31.7182 134.7594 -16.3561 -22.5125 7.7361
# 4 -13.5256 -9.6905 -16.3561 22.9225 11.2288 -4.8039
# 5 -10.6540 -3.1285 -22.5125 11.2288 19.6972 1.4951
# 6 -7.1150 -2.4230 7.7361 -4.8039 1.4951 15.8054
#
#
#
# Elastic Compliance Matrix: (Units=1/GPa)
#
#
# Indices 1 2 3 4 5 6 
#
# 1 0.018134 -0.000648 -0.000696 0.011782 0.001293 0.011863
# 2 -0.000648 0.011624 -0.003274 0.006517 -0.006392 0.005678
# 3 -0.000696 -0.003274 0.010641 -0.002346 0.013210 -0.007986
# 4 0.011782 0.006517 -0.002346 0.080854 -0.044114 0.036199
# 5 0.001293 -0.006392 0.013210 -0.044114 0.092904 -0.029060
# 6 0.011863 0.005678 -0.007986 0.036199 -0.029060 0.087140
#
#
# Mechanical properties :
#
#
# Convention : Reuss Voigt Hill
#
# Bulk Modulus (GPa) = 32.08902 46.87604 39.48253
# Shear Modulus (GPa) = 15.58013 28.18852 21.88433
#
# Velocity S-wave (km/s) = 2.60869 3.50892 3.09175
# Velocity P-wave (km/s) = 4.80520 6.07386 5.47639
#
# Compressibility (1/GPa) = 0.03116331
#
# Stress axis : x y z
#
# Youngs Moduli (GPa) = 55.14529 86.02721 93.97378
#
# Poissons Ratio (x) = 0.05577 0.06537
# Poissons Ratio (y) = 0.03575 0.30768
# Poissons Ratio (z) = 0.03836 0.28166
#
# Static dielectric constant tensor:
#      x y z
#    x 1.915350 0.035380 0.040850 
#    y 0.035380 1.933170 0.074160 
#    z 0.040850 0.074160 1.936070 
# 
# From -- ./inp_files/505252.got.cif
#   From: 2010.05.17/outbox.cif.g08.bks.cpg/sg2_253_cif.got.tgz:505252.got - 2010.06.03 11:33:40.
