data_PCOD9095925
_publ_section_title
;
Structure prediction by ZEFSAII (Michael W. Deem and Ramdas Pophale) SiO2 
 PCOD9095925
Probable space group: P -1
;
_chemical_formula_sum "Si O2"
_cell_formula_units_Z 16
_cell_length_a 7.858969
_cell_length_b 5.649901
_cell_length_c 17.220017
_cell_angle_alpha 94.171803
_cell_angle_beta 79.485388
_cell_angle_gamma 115.852154
_cell_volume 676.515302
_symmetry_space_group_name_H-M "P -1"
_symmetry_group_IT_number 2
_symmetry_cell_setting 'triclinic'
loop_
_space_group_symop_operation_xyz
x,y,z
-x,-y,-z
loop_
_atom_site_type_symbol
_atom_site_label
_atom_site_fract_x
_atom_site_fract_y
_atom_site_fract_z
Si Si1 0.311424 0.832462 0.753245
Si Si2 0.784246 0.212834 0.947060
Si Si3 0.235280 0.881873 0.268947
Si Si4 0.421738 0.258625 0.941500
Si Si5 0.335848 0.325140 0.681552
Si Si6 0.775617 0.621768 0.711306
Si Si7 0.194293 0.489075 0.894623
Si Si8 0.028498 0.029599 0.589273
O O1 0.258295 0.543014 0.714204
O O2 0.257915 0.749804 0.844683
O O3 0.539704 0.983591 0.728547
O O4 0.247339 0.048008 0.730236
O O5 0.593920 0.170603 0.914052
O O6 0.978895 0.293010 0.886662
O O7 0.811658 0.438995 0.013105
O O8 0.740574 0.965615 0.999880
O O9 0.189553 0.585699 0.243657
O O10 0.109153 0.854576 0.356338
O O11 0.213886 0.125411 0.235184
O O12 0.343665 0.359226 0.876960
O O13 0.500000 0.500000 0.000000
O O14 0.564831 0.475474 0.683859
O O15 0.246822 0.211463 0.601848
O O16 0.936000 0.746006 0.633915
O O17 0.000000 0.000000 0.500000
#
# Coordination Sequence:
#
# PCOD9095925 Si02
#       8
#     2   2   2   2   2   2   2   2
#     4  10  22  42  59  85 119 166 199 243 315 364
#     4   9  19  36  56  89 117 148 209 257 297 363
#     4   8  18  38  56  80 118 149 191 240 291 358
#     4   9  18  35  56  80 120 151 190 255 307 352
#     4  10  22  41  60  84 125 154 205 253 293 379
#     4   8  18  37  56  82 116 150 188 244 296 350
#     4  10  20  35  61  83 115 162 200 252 309 361
#     4  10  22  38  64  91 117 158 201 252 310 357
#
# _framework density 23.650611000000001
#
# number of rings (size 3 to 8) (size 9 to 14) (size 15 to 20)
#    0.750    2.000    0.000    0.375    3.500    1.000 
#    2.250    3.750    0.000    0.000    0.000    0.000 
#    0.000    0.000    0.000    0.000    0.000    0.000 
#
# Total GULP energy -89100.161100 kJ/mol
# GULP energy per Si atom -5568.760069 kJ/mol
# Density = 2.359678 g / cm^3
# Si number density = 23.650611 Si / 1000 Ang^3
#
#
#
# Elastic Constant Matrix: (Units=GPa)
#
#
# Indices 1 2 3 4 5 6 
#
# 1 64.1824 42.5197 14.4413 1.0362 8.2260 25.6423
# 2 42.5197 160.6130 33.6778 -20.0228 17.3660 -25.5238
# 3 14.4413 33.6778 61.1352 4.8751 15.3793 9.2608
# 4 1.0362 -20.0228 4.8751 29.5682 1.9376 5.4666
# 5 8.2260 17.3660 15.3793 1.9376 21.1919 -4.8931
# 6 25.6423 -25.5238 9.2608 5.4666 -4.8931 43.9400
#
#
#
# Elastic Compliance Matrix: (Units=1/GPa)
#
#
# Indices 1 2 3 4 5 6 
#
# 1 0.045719 -0.020367 0.012226 -0.008379 -0.018896 -0.042150
# 2 -0.020367 0.018541 -0.011333 0.010259 0.005631 0.024395
# 3 0.012226 -0.011333 0.028650 -0.007589 -0.020426 -0.021087
# 4 -0.008379 0.010259 -0.007589 0.041107 -0.001756 0.007139
# 5 -0.018896 0.005631 -0.020426 -0.001756 0.071065 0.026735
# 6 -0.042150 0.024395 -0.021087 0.007139 0.026735 0.068060
#
#
# Mechanical properties :
#
#
# Convention : Reuss Voigt Hill
#
# Bulk Modulus (GPa) = 18.53105 51.91202 35.22154
# Shear Modulus (GPa) = 15.14804 31.95947 23.55376
#
# Velocity S-wave (km/s) = 2.53354 3.68001 3.15922
# Velocity P-wave (km/s) = 4.05102 6.32881 5.31341
#
# Compressibility (1/GPa) = 0.05396349
#
# Stress axis : x y z
#
# Youngs Moduli (GPa) = 21.87267 53.93457 34.90430
#
# Poissons Ratio (x) = 1.09848 -0.42675
# Poissons Ratio (y) = 0.44548 0.39556
# Poissons Ratio (z) = -0.26742 0.61123
#
# Static dielectric constant tensor:
#      x y z
#    x 2.005270 -0.023400 0.032350 
#    y -0.023400 1.956540 0.026580 
#    z 0.032350 0.026580 1.876730 
# 
# From -- ./inp_files/552587.got.cif
#   From: 2010.05.17/outbox.cif.g08.bks.cpg/sg2_277_cif.got.tgz:552587.got - 2010.06.03 11:33:40.
