data_PCOD9095466
_publ_section_title
;
Structure prediction by ZEFSAII (Michael W. Deem and Ramdas Pophale) SiO2 
 PCOD9095466
Probable space group: P -1
;
_chemical_formula_sum "Si O2"
_cell_formula_units_Z 16
_cell_length_a 7.525102
_cell_length_b 8.692300
_cell_length_c 11.150600
_cell_angle_alpha 75.429752
_cell_angle_beta 76.493159
_cell_angle_gamma 71.028097
_cell_volume 658.320386
_symmetry_space_group_name_H-M "P -1"
_symmetry_group_IT_number 2
_symmetry_cell_setting 'triclinic'
loop_
_space_group_symop_operation_xyz
x,y,z
-x,-y,-z
loop_
_atom_site_type_symbol
_atom_site_label
_atom_site_fract_x
_atom_site_fract_y
_atom_site_fract_z
Si Si1 0.808637 0.536229 0.679345
Si Si2 0.916059 0.764300 0.448838
Si Si3 0.190538 0.282440 0.947327
Si Si4 0.325819 0.999695 0.175840
Si Si5 0.448318 0.635474 0.111220
Si Si6 0.730287 0.952710 0.226512
Si Si7 0.974836 0.230084 0.313724
Si Si8 0.210697 0.717964 0.898771
O O1 0.771967 0.672378 0.552042
O O2 0.636282 0.493556 0.780152
O O3 0.925749 0.618680 0.736938
O O4 0.941692 0.370222 0.631099
O O5 0.797963 0.916226 0.358970
O O6 0.038110 0.795818 0.537260
O O7 0.323245 0.403945 0.911481
O O8 0.198901 0.218514 0.823558
O O9 0.302195 0.125537 0.043038
O O10 0.976616 0.326890 0.016863
O O11 0.131521 0.071144 0.266166
O O12 0.365151 0.813162 0.157489
O O13 0.503666 0.011180 0.227526
O O14 0.375551 0.657427 0.982347
O O15 0.823938 0.081302 0.123730
O O16 0.792953 0.284707 0.245839
#
# Coordination Sequence:
#
# PCOD9095466 Si02
#       8
#     2   2   2   2   2   2   2   2
#     4   9  21  43  61  81 125 168 200 252 301 355
#     4   9  21  41  61  83 124 164 210 246 290 373
#     4  10  20  35  57  99 123 145 208 249 299 374
#     4  10  20  37  60  96 126 145 208 259 295 366
#     4  11  20  38  66  90 122 162 199 253 308 360
#     4  11  19  35  64  92 122 163 196 252 311 349
#     4   9  22  39  58  90 127 156 206 249 297 370
#     4  11  21  34  65  95 122 159 197 255 319 346
#
# _framework density 24.304276999999999
#
# number of rings (size 3 to 8) (size 9 to 14) (size 15 to 20)
#    0.750    1.250    2.500    1.875    5.250    1.500 
#    0.000    5.000    8.250    0.000    0.000    0.000 
#    0.000    0.000    0.000    0.000    0.000    0.000 
#
# Total GULP energy -89424.676786 kJ/mol
# GULP energy per Si atom -5589.042299 kJ/mol
# Density = 2.424896 g / cm^3
# Si number density = 24.304277 Si / 1000 Ang^3
#
#
#
# Elastic Constant Matrix: (Units=GPa)
#
#
# Indices 1 2 3 4 5 6 
#
# 1 123.8238 45.3276 79.6150 2.0382 16.5581 8.1063
# 2 45.3276 65.6801 21.8158 8.2019 5.4101 -9.8993
# 3 79.6150 21.8158 136.3937 -13.8737 17.7185 -9.9343
# 4 2.0382 8.2019 -13.8737 40.6665 9.5845 2.2025
# 5 16.5581 5.4101 17.7185 9.5845 46.7056 -7.7719
# 6 8.1063 -9.8993 -9.9343 2.2025 -7.7719 40.5215
#
#
#
# Elastic Compliance Matrix: (Units=1/GPa)
#
#
# Indices 1 2 3 4 5 6 
#
# 1 0.019920 -0.011483 -0.010158 -0.000823 -0.003353 -0.009879
# 2 -0.011483 0.024023 0.002742 -0.004509 0.002773 0.009615
# 3 -0.010158 0.002742 0.014000 0.004939 -0.002133 0.005457
# 4 -0.000823 -0.004509 0.004939 0.029142 -0.007497 -0.002748
# 5 -0.003353 0.002773 -0.002133 -0.007497 0.025650 0.006152
# 6 -0.009879 0.009615 0.005457 -0.002748 0.006152 0.031671
#
#
# Mechanical properties :
#
#
# Convention : Reuss Voigt Hill
#
# Bulk Modulus (GPa) = 49.64415 68.82383 59.23399
# Shear Modulus (GPa) = 26.46645 37.52132 31.99388
#
# Velocity S-wave (km/s) = 3.30352 3.93340 3.63214
# Velocity P-wave (km/s) = 5.91789 7.00057 6.48188
#
# Compressibility (1/GPa) = 0.02014336
#
# Stress axis : x y z
#
# Youngs Moduli (GPa) = 50.20139 41.62655 71.42999
#
# Poissons Ratio (x) = 0.47800 0.72561
# Poissons Ratio (y) = 0.57647 -0.19585
# Poissons Ratio (z) = 0.50997 -0.11413
#
# Static dielectric constant tensor:
#      x y z
#    x 1.921280 0.022650 -0.005820 
#    y 0.022650 2.032990 -0.020080 
#    z -0.005820 -0.020080 1.911910 
# 
# From -- ./inp_files/381685.got.cif
#   From: 2010.05.17/outbox.cif.g08.bks.cpg/sg2_191_cif.got.tgz:381685.got - 2010.06.03 11:33:40.
