data_PCOD9095113
_publ_section_title
;
Structure prediction by ZEFSAII (Michael W. Deem and Ramdas Pophale) SiO2 
 PCOD9095113
Probable space group: P -1
;
_chemical_formula_sum "Si O2"
_cell_formula_units_Z 16
_cell_length_a 21.464103
_cell_length_b 9.979611
_cell_length_c 11.621069
_cell_angle_alpha 28.176661
_cell_angle_beta 38.261886
_cell_angle_gamma 32.456836
_cell_volume 622.333071
_symmetry_space_group_name_H-M "P -1"
_symmetry_group_IT_number 2
_symmetry_cell_setting 'triclinic'
loop_
_space_group_symop_operation_xyz
x,y,z
-x,-y,-z
loop_
_atom_site_type_symbol
_atom_site_label
_atom_site_fract_x
_atom_site_fract_y
_atom_site_fract_z
Si Si1 0.286841 0.928805 0.139874
Si Si2 0.920470 0.334421 0.159626
Si Si3 0.543848 0.673346 0.530632
Si Si4 0.171332 0.746426 0.866653
Si Si5 0.005884 0.440915 0.669605
Si Si6 0.117718 0.445723 0.711788
Si Si7 0.375627 0.880943 0.810981
Si Si8 0.422551 0.250419 0.821956
O O1 0.325318 0.634484 0.397745
O O2 0.162369 0.260719 0.046380
O O3 0.332204 0.761820 0.073990
O O4 0.359345 0.086304 0.968640
O O5 0.873395 0.166397 0.267179
O O6 0.906909 0.303929 0.337598
O O7 0.047254 0.263308 0.990711
O O8 0.548596 0.988238 0.331656
O O9 0.518451 0.680933 0.426331
O O10 0.452763 0.654881 0.764315
O O11 0.310230 0.571549 0.796880
O O12 0.106466 0.046277 0.822645
O O13 0.118681 0.512738 0.149828
O O14 0.057814 0.598676 0.560682
O O15 0.000000 0.500000 0.500000
O O16 0.256034 0.186965 0.700834
O O17 0.500000 0.000000 0.000000
#
# Coordination Sequence:
#
# PCOD9095113 Si02
#       8
#     2   2   2   2   2   2   2   2
#     4   9  18  35  56  77 107 143 178 229 284 325
#     4   8  16  34  57  79 107 140 177 223 277 323
#     4  10  20  35  55  77 108 146 180 225 282 325
#     4   9  20  39  56  76 113 146 177 228 277 322
#     4  10  21  37  58  82 110 147 181 219 279 336
#     4   9  17  33  55  80 107 135 177 227 264 319
#     4   9  19  35  53  79 108 136 181 232 276 326
#     4  10  22  36  53  80 110 145 190 228 264 326
#
# _framework density 25.709706000000001
#
# number of rings (size 3 to 8) (size 9 to 14) (size 15 to 20)
#    0.000    2.750    0.000    1.125    0.000    5.500 
#    0.000   12.500    0.000    0.000    0.000    0.000 
#    0.000    0.000    0.000    0.000    0.000    0.000 
#
# Total GULP energy -89302.613689 kJ/mol
# GULP energy per Si atom -5581.413356 kJ/mol
# Density = 2.565119 g / cm^3
# Si number density = 25.709706 Si / 1000 Ang^3
#
#
#
# Elastic Constant Matrix: (Units=GPa)
#
#
# Indices 1 2 3 4 5 6 
#
# 1 132.7499 41.5717 30.2120 16.6625 39.6298 0.4241
# 2 41.5717 131.1997 29.2880 25.6578 13.6307 2.2630
# 3 30.2120 29.2880 62.5952 12.2677 37.5925 2.1887
# 4 16.6625 25.6578 12.2677 34.0166 6.8306 3.0519
# 5 39.6298 13.6307 37.5925 6.8306 53.7363 2.8189
# 6 0.4241 2.2630 2.1887 3.0519 2.8189 42.1470
#
#
#
# Elastic Compliance Matrix: (Units=1/GPa)
#
#
# Indices 1 2 3 4 5 6 
#
# 1 0.010622 -0.002355 0.001026 -0.002310 -0.007694 0.000648
# 2 -0.002355 0.010089 -0.004193 -0.005501 0.002815 -0.000090
# 3 0.001026 -0.004193 0.030644 -0.004282 -0.020603 0.000311
# 4 -0.002310 -0.005501 -0.004282 0.036093 0.001621 -0.002181
# 5 -0.007694 0.002815 -0.020603 0.001621 0.037864 -0.001654
# 6 0.000648 -0.000090 0.000311 -0.002181 -0.001654 0.023977
#
#
# Mechanical properties :
#
#
# Convention : Reuss Voigt Hill
#
# Bulk Modulus (GPa) = 24.80714 58.74313 41.77514
# Shear Modulus (GPa) = 28.77375 41.01153 34.89264
#
# Velocity S-wave (km/s) = 3.34904 3.99830 3.68799
# Velocity P-wave (km/s) = 4.96232 6.64932 5.86677
#
# Compressibility (1/GPa) = 0.04031097
#
# Stress axis : x y z
#
# Youngs Moduli (GPa) = 94.14730 99.11652 32.63267
#
# Poissons Ratio (x) = 0.23339 -0.03348
# Poissons Ratio (y) = 0.22169 0.13684
# Poissons Ratio (z) = -0.09660 0.41563
#
# Static dielectric constant tensor:
#      x y z
#    x 2.025650 0.013460 0.017020 
#    y 0.013460 2.068140 -0.031940 
#    z 0.017020 -0.031940 2.266640 
# 
# From -- ./inp_files/474830.got.cif
#   From: 2010.05.17/outbox.cif.g08.bks.cpg/sg2_238_cif.got.tgz:474830.got - 2010.06.03 11:33:40.
