data_PCOD9095778
_publ_section_title
;
Structure prediction by ZEFSAII (Michael W. Deem and Ramdas Pophale) SiO2 
 PCOD9095778
Probable space group: P -1
;
_chemical_formula_sum "Si O2"
_cell_formula_units_Z 16
_cell_length_a 11.657020
_cell_length_b 11.850378
_cell_length_c 23.933849
_cell_angle_alpha 29.693151
_cell_angle_beta 149.285811
_cell_angle_gamma 154.985162
_cell_volume 649.698902
_symmetry_space_group_name_H-M "P -1"
_symmetry_group_IT_number 2
_symmetry_cell_setting 'triclinic'
loop_
_space_group_symop_operation_xyz
x,y,z
-x,-y,-z
loop_
_atom_site_type_symbol
_atom_site_label
_atom_site_fract_x
_atom_site_fract_y
_atom_site_fract_z
Si Si1 0.333590 0.165184 0.827370
Si Si2 0.092830 0.800628 0.658880
Si Si3 0.922137 0.202275 0.573137
Si Si4 0.569562 0.972740 0.412456
Si Si5 0.663030 0.418230 0.066099
Si Si6 0.712440 0.794205 0.759395
Si Si7 0.734439 0.197691 0.897527
Si Si8 0.505882 0.586062 0.380152
O O1 0.487455 0.447384 0.809983
O O2 0.567293 0.142185 0.909577
O O3 0.197002 0.214624 0.695096
O O4 0.036730 0.903334 0.845957
O O5 0.181639 0.630139 0.800674
O O6 0.747698 0.584941 0.605280
O O7 0.252719 0.908827 0.620838
O O8 0.227357 0.089250 0.628674
O O9 0.000000 0.500000 0.500000
O O10 0.792552 0.135454 0.486836
O O11 0.694828 0.929598 0.636062
O O12 0.423312 0.632739 0.506555
O O13 0.356469 0.054580 0.289682
O O14 0.923710 0.636661 0.037295
O O15 0.432968 0.114115 0.068634
O O16 0.500000 0.500000 0.000000
O O17 0.667109 0.388017 0.752348
#
# Coordination Sequence:
#
# PCOD9095778 Si02
#       8
#     2   2   2   2   2   2   2   2
#     4  10  21  34  49  78 112 138 188 223 257 322
#     4  10  24  39  52  83 109 148 195 225 277 338
#     4  10  22  32  49  75 113 149 199 217 260 301
#     4  12  21  35  55  76 118 165 183 230 266 309
#     4  10  21  40  62  84 106 132 181 239 283 337
#     4  10  22  33  47  76 107 153 189 219 256 309
#     4  10  20  35  60  83 107 142 172 228 286 324
#     4  10  23  36  52  77 117 149 191 220 268 330
#
# _framework density 24.626792999999999
#
# number of rings (size 3 to 8) (size 9 to 14) (size 15 to 20)
#    0.750    1.000    1.250    3.000    7.000    3.000 
#    0.000    0.000    0.000    0.000    0.000    5.250 
#    0.000    0.000    0.000    1.500    0.000    0.000 
#
# Total GULP energy -89475.559666 kJ/mol
# GULP energy per Si atom -5592.222479 kJ/mol
# Density = 2.457074 g / cm^3
# Si number density = 24.626793 Si / 1000 Ang^3
#
#
#
# Elastic Constant Matrix: (Units=GPa)
#
#
# Indices 1 2 3 4 5 6 
#
# 1 97.7390 11.6032 33.7295 4.6781 27.7084 12.9741
# 2 11.6032 89.9455 20.5689 16.0772 15.7805 15.2424
# 3 33.7295 20.5689 93.2784 17.5867 36.1172 -4.6439
# 4 4.6781 16.0772 17.5867 20.2095 1.1089 11.5169
# 5 27.7084 15.7805 36.1172 1.1089 47.3065 1.5117
# 6 12.9741 15.2424 -4.6439 11.5169 1.5117 35.9836
#
#
#
# Elastic Compliance Matrix: (Units=1/GPa)
#
#
# Indices 1 2 3 4 5 6 
#
# 1 0.013759 0.000429 -0.004486 0.004625 -0.004662 -0.007006
# 2 0.000429 0.014046 0.000335 -0.009735 -0.004877 -0.002741
# 3 -0.004486 0.000335 0.024290 -0.027523 -0.015834 0.014085
# 4 0.004625 -0.009735 -0.027523 0.097973 0.020319 -0.033307
# 5 -0.004662 -0.004877 -0.015834 0.020319 0.037312 -0.006368
# 6 -0.007006 -0.002741 0.014085 -0.033307 -0.006368 0.044223
#
#
# Mechanical properties :
#
#
# Convention : Reuss Voigt Hill
#
# Bulk Modulus (GPa) = 22.39557 45.86289 34.12923
# Shear Modulus (GPa) = 19.69051 35.03733 27.36392
#
# Velocity S-wave (km/s) = 2.83071 3.77600 3.33700
# Velocity P-wave (km/s) = 4.44945 6.13796 5.36060
#
# Compressibility (1/GPa) = 0.04465169
#
# Stress axis : x y z
#
# Youngs Moduli (GPa) = 72.68220 71.19431 41.16889
#
# Poissons Ratio (x) = -0.03056 0.18467
# Poissons Ratio (y) = -0.03120 -0.01378
# Poissons Ratio (z) = 0.32602 -0.02383
#
# Static dielectric constant tensor:
#      x y z
#    x 2.059560 0.047710 -0.024670 
#    y 0.047710 1.889770 0.024420 
#    z -0.024670 0.024420 2.025920 
# 
# From -- ./inp_files/623064.got.cif
#   From: 2010.05.17/outbox.cif.g08.bks.cpg/sg2_312_cif.got.tgz:623064.got - 2010.06.03 11:33:40.
