data_PCOD9095980
_publ_section_title
;
Structure prediction by ZEFSAII (Michael W. Deem and Ramdas Pophale) SiO2 
 PCOD9095980
Probable space group: P -1
;
_chemical_formula_sum "Si O2"
_cell_formula_units_Z 16
_cell_length_a 9.230150
_cell_length_b 14.890334
_cell_length_c 9.076461
_cell_angle_alpha 114.850501
_cell_angle_beta 115.191387
_cell_angle_gamma 50.422472
_cell_volume 849.951548
_symmetry_space_group_name_H-M "P -1"
_symmetry_group_IT_number 2
_symmetry_cell_setting 'triclinic'
loop_
_space_group_symop_operation_xyz
x,y,z
-x,-y,-z
loop_
_atom_site_type_symbol
_atom_site_label
_atom_site_fract_x
_atom_site_fract_y
_atom_site_fract_z
Si Si1 0.665772 0.377528 0.414235
Si Si2 0.026089 0.382661 0.497477
Si Si3 0.610488 0.052369 0.839494
Si Si4 0.777988 0.049010 0.606717
Si Si5 0.387463 0.174542 0.335428
Si Si6 0.057567 0.818911 0.369361
Si Si7 0.803094 0.726738 0.195365
Si Si8 0.523416 0.744233 0.865884
O O1 0.500000 0.500000 0.500000
O O2 0.771208 0.280885 0.523711
O O3 0.572150 0.329412 0.232601
O O4 0.827228 0.390145 0.417398
O O5 0.192697 0.269522 0.401035
O O6 0.097253 0.358955 0.681919
O O7 0.000000 0.500000 0.500000
O O8 0.752272 0.028343 0.750687
O O9 0.391963 0.148386 0.752675
O O10 0.626358 0.932570 0.805213
O O11 0.618621 0.125847 0.029737
O O12 0.569772 0.117289 0.484480
O O13 0.866121 0.127891 0.677236
O O14 0.914892 0.926578 0.492811
O O15 0.426447 0.235705 0.260984
O O16 0.944309 0.762891 0.220158
O O17 0.717453 0.683073 0.005819
#
# Coordination Sequence:
#
# PCOD9095980 Si02
#       8
#     2   2   2   2   2   2   2   2
#     4  11  23  43  64  89 123 162 207 257 303 366
#     4  11  24  41  66  93 117 164 217 250 295 377
#     4  10  20  35  61  89 127 160 195 252 315 354
#     4  11  19  35  64  89 127 159 212 252 301 359
#     4  12  19  38  64  91 125 169 204 249 311 365
#     4  10  21  36  61  94 116 167 212 248 296 373
#     4   9  20  40  61  86 125 153 204 246 312 358
#     4  10  22  40  62  92 126 163 197 256 317 367
#
# _framework density 18.824603
#
# number of rings (size 3 to 8) (size 9 to 14) (size 15 to 20)
#    0.750    0.750    3.750    3.000    0.000    0.000 
#    2.250    7.500    0.000    0.000    0.000    0.000 
#    0.000    0.000    0.000    0.000    0.000    0.000 
#
# Total GULP energy -89282.575771 kJ/mol
# GULP energy per Si atom -5580.160986 kJ/mol
# Density = 1.878176 g / cm^3
# Si number density = 18.824603 Si / 1000 Ang^3
#
#
#
# Elastic Constant Matrix: (Units=GPa)
#
#
# Indices 1 2 3 4 5 6 
#
# 1 116.0373 44.6852 34.5784 4.3437 7.9856 1.4908
# 2 44.6852 90.0532 19.5321 5.1744 18.3285 -3.3111
# 3 34.5784 19.5321 60.1661 4.2302 14.8948 -3.5601
# 4 4.3437 5.1744 4.2302 15.2699 0.8003 -5.1017
# 5 7.9856 18.3285 14.8948 0.8003 29.7282 3.9252
# 6 1.4908 -3.3111 -3.5601 -5.1017 3.9252 32.1572
#
#
#
# Elastic Compliance Matrix: (Units=1/GPa)
#
#
# Indices 1 2 3 4 5 6 
#
# 1 0.012473 -0.005590 -0.006329 -0.000905 0.003613 -0.002439
# 2 -0.005590 0.015785 0.000606 -0.002591 -0.008810 0.002616
# 3 -0.006329 0.000606 0.023138 -0.003004 -0.010680 0.003744
# 4 -0.000905 -0.002591 -0.003004 0.071033 0.000020 0.010709
# 5 0.003613 -0.008810 -0.010680 0.000020 0.044464 -0.007681
# 6 -0.002439 0.002616 0.003744 0.010709 -0.007681 0.034531
#
#
# Mechanical properties :
#
#
# Convention : Reuss Voigt Hill
#
# Bulk Modulus (GPa) = 34.75771 51.53868 43.14820
# Shear Modulus (GPa) = 21.40059 26.59513 23.99786
#
# Velocity S-wave (km/s) = 3.37537 3.76278 3.57433
# Velocity P-wave (km/s) = 5.80473 6.80557 6.32498
#
# Compressibility (1/GPa) = 0.02877060
#
# Stress axis : x y z
#
# Youngs Moduli (GPa) = 80.17336 63.35216 43.21893
#
# Poissons Ratio (x) = 0.35411 0.27353
# Poissons Ratio (y) = 0.44813 -0.02619
# Poissons Ratio (z) = 0.50742 -0.03839
#
# Static dielectric constant tensor:
#      x y z
#    x 1.649610 -0.011190 0.022190 
#    y -0.011190 1.639930 0.002870 
#    z 0.022190 0.002870 1.646960 
# 
# From -- ./inp_files/208488.got.cif
#   From: 2010.05.17/outbox.cif.g08.bks.cpg/sg2_105_cif.got.tgz:208488.got - 2010.06.03 11:33:40.
