data_PCOD9095030
_publ_section_title
;
Structure prediction by ZEFSAII (Michael W. Deem and Ramdas Pophale) SiO2 
 PCOD9095030
Probable space group: P -1
;
_chemical_formula_sum "Si O2"
_cell_formula_units_Z 16
_cell_length_a 9.309362
_cell_length_b 7.141765
_cell_length_c 11.942283
_cell_angle_alpha 83.432410
_cell_angle_beta 95.852741
_cell_angle_gamma 76.534978
_cell_volume 760.267408
_symmetry_space_group_name_H-M "P -1"
_symmetry_group_IT_number 2
_symmetry_cell_setting 'triclinic'
loop_
_space_group_symop_operation_xyz
x,y,z
-x,-y,-z
loop_
_atom_site_type_symbol
_atom_site_label
_atom_site_fract_x
_atom_site_fract_y
_atom_site_fract_z
Si Si1 0.283213 0.946883 0.697099
Si Si2 0.609342 0.456953 0.864764
Si Si3 0.817014 0.584304 0.695653
Si Si4 0.564853 0.164639 0.050362
Si Si5 0.397635 0.526002 0.644690
Si Si6 0.405757 0.201560 0.526668
Si Si7 0.887280 0.305279 0.532693
Si Si8 0.950747 0.902993 0.641504
O O1 0.312949 0.132984 0.624565
O O2 0.337697 0.928411 0.829642
O O3 0.381240 0.755490 0.652770
O O4 0.111872 0.934346 0.683023
O O5 0.739965 0.485600 0.791534
O O6 0.559896 0.651903 0.922346
O O7 0.466115 0.446424 0.776447
O O8 0.648215 0.268561 0.959048
O O9 0.687527 0.691835 0.592860
O O10 0.919400 0.422770 0.634349
O O11 0.893823 0.754881 0.726374
O O12 0.500000 0.000000 0.000000
O O13 0.487452 0.353746 0.581105
O O14 0.235659 0.561338 0.567791
O O15 0.500000 0.000000 0.500000
O O16 0.021903 0.210096 0.467567
O O17 0.843470 0.113802 0.593154
#
# Coordination Sequence:
#
# PCOD9095030 Si02
#       8
#     2   2   2   2   2   2   2   2
#     4  10  21  37  57  80 107 148 191 227 276 331
#     4  10  22  37  57  85 109 143 186 229 287 336
#     4  11  22  34  53  83 119 149 180 224 274 330
#     4  10  21  41  63  80 104 139 187 240 286 333
#     4   9  19  34  52  79 114 142 176 227 275 327
#     4  11  21  32  53  86 117 147 181 223 281 336
#     4   9  19  34  54  79 115 155 185 216 265 328
#     4  10  20  35  53  79 115 153 189 220 261 328
#
# _framework density 21.045227000000001
#
# number of rings (size 3 to 8) (size 9 to 14) (size 15 to 20)
#    0.000    2.000    0.000    4.875    0.000    9.500 
#    0.000    0.625    0.000    1.500    0.000    0.000 
#    0.000    0.000    0.000    0.000    0.000    0.000 
#
# Total GULP energy -89089.440776 kJ/mol
# GULP energy per Si atom -5568.090049 kJ/mol
# Density = 2.099733 g / cm^3
# Si number density = 21.045227 Si / 1000 Ang^3
#
#
#
# Elastic Constant Matrix: (Units=GPa)
#
#
# Indices 1 2 3 4 5 6 
#
# 1 61.5097 31.5774 51.4188 -7.7329 1.1121 16.3022
# 2 31.5774 130.5959 65.0303 4.0600 -3.3187 14.3538
# 3 51.4188 65.0303 118.2084 -18.5014 -2.5259 32.3013
# 4 -7.7329 4.0600 -18.5014 37.4405 10.9361 -6.5614
# 5 1.1121 -3.3187 -2.5259 10.9361 18.9363 -10.8595
# 6 16.3022 14.3538 32.3013 -6.5614 -10.8595 32.8010
#
#
#
# Elastic Compliance Matrix: (Units=1/GPa)
#
#
# Indices 1 2 3 4 5 6 
#
# 1 0.026455 -0.001684 -0.008725 0.002610 -0.007913 -0.005917
# 2 -0.001684 0.012020 -0.008151 -0.007180 0.008033 0.004827
# 3 -0.008725 -0.008151 0.022924 0.011611 -0.014375 -0.017108
# 4 0.002610 -0.007180 0.011611 0.040462 -0.029733 -0.011339
# 5 -0.007913 0.008033 -0.014375 -0.029733 0.092431 0.039227
# 6 -0.005917 0.004827 -0.017108 -0.011339 0.039227 0.058882
#
#
# Mechanical properties :
#
#
# Convention : Reuss Voigt Hill
#
# Bulk Modulus (GPa) = 41.18808 67.37410 54.28109
# Shear Modulus (GPa) = 16.75679 28.65472 22.70575
#
# Velocity S-wave (km/s) = 2.82481 3.69396 3.28823
# Velocity P-wave (km/s) = 5.50028 7.09064 6.34549
#
# Compressibility (1/GPa) = 0.02427887
#
# Stress axis : x y z
#
# Youngs Moduli (GPa) = 37.80004 83.19390 43.62224
#
# Poissons Ratio (x) = 0.14010 0.38060
# Poissons Ratio (y) = 0.06366 0.35558
# Poissons Ratio (z) = 0.32980 0.67814
#
# Static dielectric constant tensor:
#      x y z
#    x 1.850110 0.020890 -0.044150 
#    y 0.020890 1.844570 -0.010080 
#    z -0.044150 -0.010080 1.768930 
# 
# From -- ./inp_files/409179.got.cif
#   From: 2010.05.17/outbox.cif.g08.bks.cpg/sg2_205_cif.got.tgz:409179.got - 2010.06.03 11:33:40.
