data_PCOD9095637
_publ_section_title
;
Structure prediction by ZEFSAII (Michael W. Deem and Ramdas Pophale) SiO2 
 PCOD9095637
Probable space group: P -1
;
_chemical_formula_sum "Si O2"
_cell_formula_units_Z 16
_cell_length_a 8.467946
_cell_length_b 20.291448
_cell_length_c 5.644589
_cell_angle_alpha 135.182714
_cell_angle_beta 66.232427
_cell_angle_gamma 109.287614
_cell_volume 624.161883
_symmetry_space_group_name_H-M "P -1"
_symmetry_group_IT_number 2
_symmetry_cell_setting 'triclinic'
loop_
_space_group_symop_operation_xyz
x,y,z
-x,-y,-z
loop_
_atom_site_type_symbol
_atom_site_label
_atom_site_fract_x
_atom_site_fract_y
_atom_site_fract_z
Si Si1 0.528439 0.057855 0.881216
Si Si2 0.096203 0.937089 0.466782
Si Si3 0.265765 0.684504 0.982352
Si Si4 0.969255 0.414623 0.481199
Si Si5 0.425012 0.345724 0.555284
Si Si6 0.931467 0.717966 0.548758
Si Si7 0.819629 0.882805 0.836276
Si Si8 0.349657 0.545928 0.934017
O O1 0.728838 0.097304 0.841335
O O2 0.500000 0.000000 0.500000
O O3 0.378964 0.130801 0.158684
O O4 0.500000 0.000000 0.000000
O O5 0.955754 0.867766 0.506230
O O6 0.000000 0.000000 0.500000
O O7 0.159946 0.008651 0.821990
O O8 0.141338 0.668634 0.796114
O O9 0.455237 0.716849 0.845591
O O10 0.303141 0.582393 0.799835
O O11 0.132454 0.722889 0.354366
O O12 0.000000 0.500000 0.500000
O O13 0.097678 0.357024 0.414127
O O14 0.837080 0.458645 0.848285
O O15 0.222904 0.313075 0.624309
O O16 0.419535 0.446825 0.688385
O O17 0.525474 0.373296 0.807970
O O18 0.876841 0.823451 0.876373
#
# Coordination Sequence:
#
# PCOD9095637 Si02
#       8
#     2   2   2   2   2   2   2   2
#     4  10  20  39  69 102 134 169 225 272 325 407
#     4  10  20  40  70  92 126 169 213 259 325 399
#     4  10  21  37  56  80 119 159 201 259 315 378
#     4  10  20  36  59  85 120 164 214 267 321 378
#     4  10  20  35  59  83 115 156 205 260 315 377
#     4  11  24  39  57  91 128 162 213 261 326 383
#     4  10  23  40  61  96 129 169 213 267 328 399
#     4   9  19  36  58  84 111 155 214 262 315 383
#
# _framework density 25.634377000000001
#
# number of rings (size 3 to 8) (size 9 to 14) (size 15 to 20)
#    0.000    2.000    1.250    1.875    0.000    7.000 
#    0.000    2.500    0.000    0.000    0.000    0.000 
#    0.000    0.000    0.000    0.000    0.000    0.000 
#
# Total GULP energy -89101.083576 kJ/mol
# GULP energy per Si atom -5568.817724 kJ/mol
# Density = 2.557603 g / cm^3
# Si number density = 25.634377 Si / 1000 Ang^3
#
#
#
# Elastic Constant Matrix: (Units=GPa)
#
#
# Indices 1 2 3 4 5 6 
#
# 1 134.6668 51.6965 32.8311 -17.9816 -26.2230 -10.1176
# 2 51.6965 124.5893 40.6425 -19.8545 -30.7023 -11.4689
# 3 32.8311 40.6425 59.6019 -17.3105 -27.3821 3.1188
# 4 -17.9816 -19.8545 -17.3105 32.0189 4.4284 -8.4114
# 5 -26.2230 -30.7023 -27.3821 4.4284 50.5925 -4.4078
# 6 -10.1176 -11.4689 3.1188 -8.4114 -4.4078 47.1682
#
#
#
# Elastic Compliance Matrix: (Units=1/GPa)
#
#
# Indices 1 2 3 4 5 6 
#
# 1 0.009873 -0.001961 -0.001897 0.003616 0.002817 0.002674
# 2 -0.001961 0.012400 -0.004317 0.004766 0.004114 0.004114
# 3 -0.001897 -0.004317 0.028835 0.010182 0.011068 -0.000513
# 4 0.003616 0.004766 0.010182 0.043245 0.007333 0.009658
# 5 0.002817 0.004114 0.011068 0.007333 0.029501 0.004937
# 6 0.002674 0.004114 -0.000513 0.009658 0.004937 0.024992
#
#
# Mechanical properties :
#
#
# Convention : Reuss Voigt Hill
#
# Bulk Modulus (GPa) = 28.76909 63.24427 46.00668
# Shear Modulus (GPa) = 28.28329 38.86844 33.57587
#
# Velocity S-wave (km/s) = 3.32525 3.89815 3.62304
# Velocity P-wave (km/s) = 5.09807 6.70716 5.95719
#
# Compressibility (1/GPa) = 0.03475953
#
# Stress axis : x y z
#
# Youngs Moduli (GPa) = 101.28153 80.64363 34.68016
#
# Poissons Ratio (x) = 0.15818 0.06577
# Poissons Ratio (y) = 0.19866 0.14970
# Poissons Ratio (z) = 0.19209 0.34810
#
# Static dielectric constant tensor:
#      x y z
#    x 2.055630 0.097270 0.021750 
#    y 0.097270 2.140570 0.003930 
#    z 0.021750 0.003930 2.161020 
# 
# From -- ./inp_files/48812.got.cif
#   From: 2010.05.17/outbox.cif.g08.bks.cpg/sg2_25_cif.got.tgz:48812.got - 2010.06.03 11:33:40.
