data_PCOD9095178
_publ_section_title
;
Structure prediction by ZEFSAII (Michael W. Deem and Ramdas Pophale) SiO2 
 PCOD9095178
Probable space group: P -1
;
_chemical_formula_sum "Si O2"
_cell_formula_units_Z 14
_cell_length_a 12.734582
_cell_length_b 10.343026
_cell_length_c 12.911786
_cell_angle_alpha 84.905225
_cell_angle_beta 145.019009
_cell_angle_gamma 70.027302
_cell_volume 668.286665
_symmetry_space_group_name_H-M "P -1"
_symmetry_group_IT_number 2
_symmetry_cell_setting 'triclinic'
loop_
_space_group_symop_operation_xyz
x,y,z
-x,-y,-z
loop_
_atom_site_type_symbol
_atom_site_label
_atom_site_fract_x
_atom_site_fract_y
_atom_site_fract_z
Si Si1 0.406833 0.012828 0.259746
Si Si2 0.532930 0.343984 0.866257
Si Si3 0.909643 0.427672 0.358170
Si Si4 0.120648 0.612739 0.112093
Si Si5 0.961587 0.337342 0.187445
Si Si6 0.481900 0.066034 0.867952
Si Si7 0.522172 0.319174 0.625890
O O1 0.723152 0.856579 0.550499
O O2 0.368018 0.061830 0.102643
O O3 0.353987 0.887497 0.249473
O O4 0.191160 0.209477 0.129549
O O5 0.338069 0.501447 0.784862
O O6 0.558330 0.179146 0.925313
O O7 0.417349 0.405884 0.651228
O O8 0.803100 0.285285 0.084615
O O9 0.000000 0.500000 0.500000
O O10 0.880366 0.470943 0.209452
O O11 0.170486 0.206032 0.581228
O O12 0.287956 0.445385 0.342932
O O13 0.260577 0.683324 0.225370
O O14 0.141588 0.558159 0.013783
O O15 0.500000 0.000000 0.000000
#
# Coordination Sequence:
#
# PCOD9095178 Si02
#       7
#     2   2   2   2   2   2   2
#     4  10  20  36  56  80 119 151 184 235 287 335
#     4   9  18  35  59  81 115 146 183 243 280 331
#     4   9  18  34  57  78 106 147 187 232 284 333
#     4  10  20  36  60  82 114 152 188 237 280 340
#     4  10  20  35  55  85 117 145 188 231 289 342
#     4   9  19  34  55  84 107 146 197 229 276 342
#     4   9  20  36  58  88 108 147 201 226 278 345
#
# _framework density 20.949093999999999
#
# number of rings (size 3 to 8) (size 9 to 14) (size 15 to 20)
#    0.000    2.571    0.000    2.143    2.000    0.571 
#    0.000    2.857    9.429    0.000    0.000    0.000 
#    0.000    0.000    0.000    0.000    0.000    0.000 
#
# Total GULP energy -77984.738046 kJ/mol
# GULP energy per Si atom -5570.338432 kJ/mol
# Density = 2.090141 g / cm^3
# Si number density = 20.949094 Si / 1000 Ang^3
#
#
#
# Elastic Constant Matrix: (Units=GPa)
#
#
# Indices 1 2 3 4 5 6 
#
# 1 129.5263 47.0612 50.0965 5.2768 -22.6422 -14.4871
# 2 47.0612 41.0410 27.4196 11.0672 -8.7781 -15.7981
# 3 50.0965 27.4196 73.1125 17.4050 -15.5631 -8.0738
# 4 5.2768 11.0672 17.4050 24.3983 -2.9228 2.6737
# 5 -22.6422 -8.7781 -15.5631 -2.9228 49.0122 13.0503
# 6 -14.4871 -15.7981 -8.0738 2.6737 13.0503 40.4019
#
#
#
# Elastic Compliance Matrix: (Units=1/GPa)
#
#
# Indices 1 2 3 4 5 6 
#
# 1 0.016848 -0.018563 -0.006719 0.010576 0.004184 -0.004611
# 2 -0.018563 0.060822 -0.003348 -0.024009 -0.005451 0.019807
# 3 -0.006719 -0.003348 0.023438 -0.013538 0.002665 0.001000
# 4 0.010576 -0.024009 -0.013538 0.061148 0.003524 -0.013486
# 5 0.004184 -0.005451 0.002665 0.003524 0.024622 -0.008285
# 6 -0.004611 0.019807 0.001000 -0.013486 -0.008285 0.034611
#
#
# Mechanical properties :
#
#
# Convention : Reuss Voigt Hill
#
# Bulk Modulus (GPa) = 22.80655 54.75939 38.78297
# Shear Modulus (GPa) = 17.04359 30.70265 23.87312
#
# Velocity S-wave (km/s) = 2.85541 3.83245 3.37943
# Velocity P-wave (km/s) = 4.66706 6.76606 5.81210
#
# Compressibility (1/GPa) = 0.04384706
#
# Stress axis : x y z
#
# Youngs Moduli (GPa) = 59.35257 16.44154 42.66610
#
# Poissons Ratio (x) = 0.30520 0.28668
# Poissons Ratio (y) = 1.10176 0.14286
# Poissons Ratio (z) = 0.39880 0.05505
#
# Static dielectric constant tensor:
#      x y z
#    x 1.841290 -0.031990 -0.034240 
#    y -0.031990 1.791890 0.043420 
#    z -0.034240 0.043420 1.807480 
# 
# From -- ./inp_files/276048.got.cif
#   From: 2010.05.17/outbox.cif.g08.bks.cpg/sg2_139_cif.got.tgz:276048.got - 2010.06.03 11:33:40.
