data_PCOD9095858
_publ_section_title
;
Structure prediction by ZEFSAII (Michael W. Deem and Ramdas Pophale) SiO2 
 PCOD9095858
Probable space group: P -1
;
_chemical_formula_sum "Si O2"
_cell_formula_units_Z 16
_cell_length_a 14.009852
_cell_length_b 10.604569
_cell_length_c 9.473117
_cell_angle_alpha 105.076126
_cell_angle_beta 58.894623
_cell_angle_gamma 55.821636
_cell_volume 627.673976
_symmetry_space_group_name_H-M "P -1"
_symmetry_group_IT_number 2
_symmetry_cell_setting 'triclinic'
loop_
_space_group_symop_operation_xyz
x,y,z
-x,-y,-z
loop_
_atom_site_type_symbol
_atom_site_label
_atom_site_fract_x
_atom_site_fract_y
_atom_site_fract_z
Si Si1 0.202350 0.632013 0.961937
Si Si2 0.952784 0.889785 0.490538
Si Si3 0.925740 0.430074 0.475578
Si Si4 0.255470 0.063488 0.900304
Si Si5 0.380386 0.501490 0.511135
Si Si6 0.421645 0.945320 0.465598
Si Si7 0.560701 0.927800 0.771544
Si Si8 0.433805 0.633661 0.945471
O O1 0.190557 0.659605 0.808794
O O2 0.297222 0.671137 0.966061
O O3 0.385884 0.344694 0.763740
O O4 0.003621 0.807417 0.264439
O O5 0.096659 0.647609 0.399461
O O6 0.000000 0.000000 0.500000
O O7 0.724020 0.100423 0.797463
O O8 0.000000 0.500000 0.500000
O O9 0.738795 0.646337 0.575518
O O10 0.078285 0.207493 0.185457
O O11 0.449308 0.779016 0.691094
O O12 0.347266 0.106525 0.907492
O O13 0.235742 0.088039 0.754878
O O14 0.500000 0.500000 0.500000
O O15 0.372984 0.532592 0.357128
O O16 0.352805 0.046266 0.389485
O O17 0.500000 0.000000 0.500000
O O18 0.500000 0.000000 0.000000
O O19 0.500000 0.500000 0.000000
#
# Coordination Sequence:
#
# PCOD9095858 Si02
#       8
#     2   2   2   2   2   2   2   2
#     4   9  19  36  62  81 117 169 197 253 320 377
#     4  10  22  40  59  92 125 161 207 264 321 375
#     4  12  24  39  66  98 130 169 214 275 325 381
#     4  10  21  40  63  90 129 170 210 270 325 386
#     4   9  18  37  63  82 118 168 213 253 324 385
#     4   9  20  37  60  87 124 164 210 255 321 376
#     4  11  22  38  63  94 127 169 216 262 325 396
#     4  10  20  35  60  90 117 156 211 262 310 381
#
# _framework density 25.490940999999999
#
# number of rings (size 3 to 8) (size 9 to 14) (size 15 to 20)
#    0.000    2.000    2.500    0.750    1.750    4.500 
#    0.000    0.625   24.750    0.000    0.000    0.000 
#    0.000    0.000    0.000    0.000    0.000    0.000 
#
# Total GULP energy -89132.007638 kJ/mol
# GULP energy per Si atom -5570.750477 kJ/mol
# Density = 2.543292 g / cm^3
# Si number density = 25.490941 Si / 1000 Ang^3
#
#
#
# Elastic Constant Matrix: (Units=GPa)
#
#
# Indices 1 2 3 4 5 6 
#
# 1 78.4580 20.5798 27.6950 -15.7300 19.1402 -1.3335
# 2 20.5798 126.8368 58.3740 -49.6263 17.2671 -8.8609
# 3 27.6950 58.3740 221.4692 -55.9813 35.3071 -12.4317
# 4 -15.7300 -49.6263 -55.9813 61.2577 -5.7361 12.8121
# 5 19.1402 17.2671 35.3071 -5.7361 29.2197 -5.7795
# 6 -1.3335 -8.8609 -12.4317 12.8121 -5.7795 29.8968
#
#
#
# Elastic Compliance Matrix: (Units=1/GPa)
#
#
# Indices 1 2 3 4 5 6 
#
# 1 0.016022 0.000121 0.000689 0.004429 -0.011125 -0.003012
# 2 0.000121 0.012407 0.000073 0.009951 -0.005879 -0.001688
# 3 0.000689 0.000073 0.007268 0.006364 -0.008274 -0.001253
# 4 0.004429 0.009951 0.006364 0.032382 -0.012180 -0.010439
# 5 -0.011125 -0.005879 -0.008274 -0.012180 0.054588 0.010093
# 6 -0.003012 -0.001688 -0.001253 -0.010439 0.010093 0.038717
#
#
# Mechanical properties :
#
#
# Convention : Reuss Voigt Hill
#
# Bulk Modulus (GPa) = 26.69512 71.11797 48.90654
# Shear Modulus (GPa) = 29.05171 45.41585 37.23378
#
# Velocity S-wave (km/s) = 3.37959 4.22553 3.82601
# Velocity P-wave (km/s) = 5.07188 7.19491 6.22458
#
# Compressibility (1/GPa) = 0.03746003
#
# Stress axis : x y z
#
# Youngs Moduli (GPa) = 62.41538 80.59924 137.59811
#
# Poissons Ratio (x) = -0.00972 -0.09478
# Poissons Ratio (y) = -0.00752 -0.00998
# Poissons Ratio (z) = -0.04299 -0.00585
#
# Static dielectric constant tensor:
#      x y z
#    x 2.277630 0.210150 -0.014790 
#    y 0.210150 2.019030 -0.173450 
#    z -0.014790 -0.173450 2.008990 
# 
# From -- ./inp_files/332143.got.cif
#   From: 2010.05.17/outbox.cif.g08.bks.cpg/sg2_167_cif.got.tgz:332143.got - 2010.06.03 11:33:40.
