data_PCOD9095092
_publ_section_title
;
Structure prediction by ZEFSAII (Michael W. Deem and Ramdas Pophale) SiO2 
 PCOD9095092
Probable space group: P -1
;
_chemical_formula_sum "Si O2"
_cell_formula_units_Z 14
_cell_length_a 16.104941
_cell_length_b 5.673919
_cell_length_c 20.682716
_cell_angle_alpha 72.628318
_cell_angle_beta 19.625856
_cell_angle_gamma 82.263203
_cell_volume 538.766394
_symmetry_space_group_name_H-M "P -1"
_symmetry_group_IT_number 2
_symmetry_cell_setting 'triclinic'
loop_
_space_group_symop_operation_xyz
x,y,z
-x,-y,-z
loop_
_atom_site_type_symbol
_atom_site_label
_atom_site_fract_x
_atom_site_fract_y
_atom_site_fract_z
Si Si1 0.847423 0.123584 0.835715
Si Si2 0.207826 0.310875 0.670622
Si Si3 0.626836 0.484924 0.673992
Si Si4 0.306363 0.579266 0.794520
Si Si5 0.797798 0.008072 0.590421
Si Si6 0.281723 0.386477 0.111589
Si Si7 0.505113 0.872570 0.436200
O O1 0.715779 0.326588 0.934577
O O2 0.985802 0.100268 0.802869
O O3 0.100678 0.322578 0.585724
O O4 0.682429 0.829943 0.944951
O O5 0.491488 0.433028 0.408960
O O6 0.215002 0.603120 0.658375
O O7 0.243865 0.194907 0.722096
O O8 0.366001 0.437857 0.823637
O O9 0.649051 0.204350 0.699103
O O10 0.643732 0.693862 0.701818
O O11 0.432138 0.912223 0.684515
O O12 0.000000 0.500000 0.000000
O O13 0.990609 0.186009 0.374994
O O14 0.000000 0.000000 0.500000
O O15 0.500000 0.500000 0.000000
O O16 0.500000 0.000000 0.500000
#
# Coordination Sequence:
#
# PCOD9095092 Si02
#       7
#     2   2   2   2   2   2   2
#     4   9  19  32  59  80 109 145 187 231 272 344
#     4   9  19  35  56  83 106 156 201 232 282 339
#     4   9  20  35  58  85 108 149 197 224 277 354
#     4  10  21  35  55  84 119 154 191 242 291 338
#     4  10  20  38  60  81 108 147 188 237 284 340
#     4  10  20  35  54  84 110 139 180 233 292 337
#     4   9  19  34  56  78 113 145 198 235 281 341
#
# _framework density 25.985287
#
# number of rings (size 3 to 8) (size 9 to 14) (size 15 to 20)
#    0.000    2.571    0.000    0.857   12.000    0.571 
#    0.000    2.857    0.000    0.000    0.000    0.000 
#    0.000    0.000    0.000    0.000    0.000    0.000 
#
# Total GULP energy -78073.890529 kJ/mol
# GULP energy per Si atom -5576.706466 kJ/mol
# Density = 2.592614 g / cm^3
# Si number density = 25.985287 Si / 1000 Ang^3
#
#
#
# Elastic Constant Matrix: (Units=GPa)
#
#
# Indices 1 2 3 4 5 6 
#
# 1 119.8300 91.6978 31.5916 2.3231 -27.3816 -5.4770
# 2 91.6978 205.9780 51.1735 -15.4152 -10.1795 -20.0837
# 3 31.5916 51.1735 54.0867 3.9500 -6.8539 -3.2593
# 4 2.3231 -15.4152 3.9500 46.1527 -2.0868 8.0749
# 5 -27.3816 -10.1795 -6.8539 -2.0868 50.6867 -3.2023
# 6 -5.4770 -20.0837 -3.2593 8.0749 -3.2023 51.3436
#
#
#
# Elastic Compliance Matrix: (Units=1/GPa)
#
#
# Indices 1 2 3 4 5 6 
#
# 1 0.015050 -0.006041 -0.002088 -0.002279 0.006533 -0.000124
# 2 -0.006041 0.009306 -0.005650 0.003465 -0.001891 0.001974
# 3 -0.002088 -0.005650 0.025458 -0.003890 0.001011 -0.000142
# 4 -0.002279 0.003465 -0.003890 0.023766 -0.000266 -0.002889
# 5 0.006533 -0.001891 0.001011 -0.000266 0.023099 0.001504
# 6 -0.000124 0.001974 -0.000142 -0.002889 0.001504 0.020775
#
#
# Mechanical properties :
#
#
# Convention : Reuss Voigt Hill
#
# Bulk Modulus (GPa) = 44.93276 80.98008 62.95642
# Shear Modulus (GPa) = 32.80178 43.33205 38.06691
#
# Velocity S-wave (km/s) = 3.55677 4.08801 3.83161
# Velocity P-wave (km/s) = 5.84779 7.31532 6.62233
#
# Compressibility (1/GPa) = 0.02225547
#
# Stress axis : x y z
#
# Youngs Moduli (GPa) = 66.44685 107.45328 39.28026
#
# Poissons Ratio (x) = 0.64912 0.08202
# Poissons Ratio (y) = 0.40140 0.22195
# Poissons Ratio (z) = 0.13874 0.60715
#
# Static dielectric constant tensor:
#      x y z
#    x 2.009690 -0.061010 -0.024580 
#    y -0.061010 2.531020 0.176800 
#    z -0.024580 0.176800 2.301070 
# 
# From -- ./inp_files/106972.got.cif
#   From: 2010.05.17/outbox.cif.g08.bks.cpg/sg2_54_cif.got.tgz:106972.got - 2010.06.03 11:33:40.
