data_PCOD9095139
_publ_section_title
;
Structure prediction by ZEFSAII (Michael W. Deem and Ramdas Pophale) SiO2 
 PCOD9095139
Probable space group: P -1
;
_chemical_formula_sum "Si O2"
_cell_formula_units_Z 16
_cell_length_a 7.332387
_cell_length_b 7.801330
_cell_length_c 15.779562
_cell_angle_alpha 113.486909
_cell_angle_beta 59.322104
_cell_angle_gamma 117.362010
_cell_volume 673.364690
_symmetry_space_group_name_H-M "P -1"
_symmetry_group_IT_number 2
_symmetry_cell_setting 'triclinic'
loop_
_space_group_symop_operation_xyz
x,y,z
-x,-y,-z
loop_
_atom_site_type_symbol
_atom_site_label
_atom_site_fract_x
_atom_site_fract_y
_atom_site_fract_z
Si Si1 0.713522 0.512128 0.065132
Si Si2 0.784429 0.097192 0.662960
Si Si3 0.954794 0.860356 0.855189
Si Si4 0.676013 0.992114 0.335408
Si Si5 0.713047 0.408594 0.848700
Si Si6 0.544217 0.299254 0.536019
Si Si7 0.823344 0.168845 0.027400
Si Si8 0.839700 0.718950 0.517235
O O1 0.528909 0.618460 0.139188
O O2 0.684282 0.321712 0.093438
O O3 0.693681 0.424693 0.957137
O O4 0.951541 0.684702 0.042667
O O5 0.524571 0.015318 0.683014
O O6 0.807446 0.237074 0.765230
O O7 0.929404 0.233042 0.579645
O O8 0.864244 0.906559 0.608229
O O9 0.117908 0.885566 0.903479
O O10 0.855822 0.625082 0.824642
O O11 0.095334 0.954391 0.758740
O O12 0.773448 0.967201 0.946065
O O13 0.592461 0.786649 0.364258
O O14 0.670806 0.155515 0.438880
O O15 0.730683 0.510311 0.546129
O O16 0.350585 0.291891 0.511711
#
# Coordination Sequence:
#
# PCOD9095139 Si02
#       8
#     2   2   2   2   2   2   2   2
#     4   9  19  37  58  79 111 150 188 234 282 328
#     4  10  20  35  55  81 113 144 179 227 282 333
#     4  10  20  35  57  83 114 149 187 230 278 334
#     4  10  20  35  56  80 111 148 184 226 275 333
#     4  10  20  35  56  83 116 149 184 232 282 335
#     4   9  19  37  58  79 108 146 186 228 275 328
#     4   9  19  37  58  80 110 149 189 233 280 330
#     4   9  19  37  58  80 109 144 183 232 280 328
#
# _framework density 23.761268000000001
#
# number of rings (size 3 to 8) (size 9 to 14) (size 15 to 20)
#    0.000    2.500    0.000    1.500    0.000    3.000 
#    0.000   16.250    0.000    0.000    0.000    0.000 
#    0.000    0.000    0.000    0.000    0.000    0.000 
#
# Total GULP energy -89401.034849 kJ/mol
# GULP energy per Si atom -5587.564678 kJ/mol
# Density = 2.370719 g / cm^3
# Si number density = 23.761268 Si / 1000 Ang^3
#
#
#
# Elastic Constant Matrix: (Units=GPa)
#
#
# Indices 1 2 3 4 5 6 
#
# 1 38.7142 -6.0685 -4.1857 -0.4500 -5.1830 -8.2603
# 2 -6.0685 117.7882 34.1190 -4.0988 7.3973 -4.6881
# 3 -4.1857 34.1190 79.2269 6.2469 -1.2804 -3.2540
# 4 -0.4500 -4.0988 6.2469 33.7015 -0.2710 1.8166
# 5 -5.1830 7.3973 -1.2804 -0.2710 17.0671 -4.3866
# 6 -8.2603 -4.6881 -3.2540 1.8166 -4.3866 29.0980
#
#
#
# Elastic Compliance Matrix: (Units=1/GPa)
#
#
# Indices 1 2 3 4 5 6 
#
# 1 0.029970 0.000654 0.001955 -0.000361 0.011688 0.010616
# 2 0.000654 0.010217 -0.004576 0.002036 -0.004405 0.000529
# 3 0.001955 -0.004576 0.015132 -0.003429 0.004266 0.002367
# 4 -0.000361 0.002036 -0.003429 0.030662 -0.001347 -0.002275
# 5 0.011688 -0.004405 0.004266 -0.001347 0.067791 0.013389
# 6 0.010616 0.000529 0.002367 -0.002275 0.013389 0.039891
#
#
# Mechanical properties :
#
#
# Convention : Reuss Voigt Hill
#
# Bulk Modulus (GPa) = 19.46050 31.49545 25.47798
# Shear Modulus (GPa) = 23.28558 30.09762 26.69160
#
# Velocity S-wave (km/s) = 3.13386 3.56289 3.35524
# Velocity P-wave (km/s) = 4.61547 5.49630 5.07503
#
# Compressibility (1/GPa) = 0.05138613
#
# Stress axis : x y z
#
# Youngs Moduli (GPa) = 33.36694 97.87242 66.08408
#
# Poissons Ratio (x) = -0.06397 -0.12921
# Poissons Ratio (y) = -0.02181 0.30237
# Poissons Ratio (z) = -0.06524 0.44782
#
# Static dielectric constant tensor:
#      x y z
#    x 1.986820 -0.013060 -0.015420 
#    y -0.013060 1.912720 0.033830 
#    z -0.015420 0.033830 1.858590 
# 
# From -- ./inp_files/556366.got.cif
#   From: 2010.05.17/outbox.cif.g08.bks.cpg/sg2_279_cif.got.tgz:556366.got - 2010.06.03 11:33:40.
