data_PCOD9095252
_publ_section_title
;
Structure prediction by ZEFSAII (Michael W. Deem and Ramdas Pophale) SiO2 
 PCOD9095252
Probable space group: P -1
;
_chemical_formula_sum "Si O2"
_cell_formula_units_Z 16
_cell_length_a 21.388398
_cell_length_b 13.622508
_cell_length_c 7.377406
_cell_angle_alpha 31.282607
_cell_angle_beta 36.598109
_cell_angle_gamma 38.498626
_cell_volume 632.290157
_symmetry_space_group_name_H-M "P -1"
_symmetry_group_IT_number 2
_symmetry_cell_setting 'triclinic'
loop_
_space_group_symop_operation_xyz
x,y,z
-x,-y,-z
loop_
_atom_site_type_symbol
_atom_site_label
_atom_site_fract_x
_atom_site_fract_y
_atom_site_fract_z
Si Si1 0.626701 0.875046 0.814326
Si Si2 0.538591 0.681504 0.001045
Si Si3 0.766721 0.854443 0.831837
Si Si4 0.435584 0.729416 0.816558
Si Si5 0.192201 0.750729 0.481014
Si Si6 0.829044 0.814411 0.166644
Si Si7 0.041985 0.498301 0.109139
Si Si8 0.695518 0.317378 0.312192
O O1 0.564844 0.775575 0.975239
O O2 0.673587 0.795793 0.026797
O O3 0.737857 0.848098 0.479151
O O4 0.567148 0.112957 0.582887
O O5 0.498004 0.802169 0.721459
O O6 0.650164 0.496611 0.994088
O O7 0.421699 0.644769 0.372402
O O8 0.884405 0.728249 0.672693
O O9 0.739431 0.091856 0.497867
O O10 0.774505 0.811632 0.097417
O O11 0.310909 0.736542 0.141493
O O12 0.500000 0.500000 0.000000
O O13 0.219256 0.667676 0.754794
O O14 0.125053 0.627870 0.730553
O O15 0.132530 0.988375 0.247854
O O16 0.930424 0.618447 0.281282
O O17 0.000000 0.500000 0.000000
#
# Coordination Sequence:
#
# PCOD9095252 Si02
#       8
#     2   2   2   2   2   2   2   2
#     4  11  22  37  59  85 115 150 188 233 280 329
#     4  10  20  35  56  82 115 154 190 226 276 334
#     4  10  21  37  56  83 115 145 186 233 279 332
#     4  10  21  34  53  83 118 150 188 231 278 336
#     4   9  18  35  57  79 111 155 187 226 286 336
#     4   9  21  39  58  82 114 148 189 234 280 337
#     4  10  20  35  59  85 109 145 191 236 285 336
#     4   9  19  36  55  81 114 150 190 227 274 339
#
# _framework density 25.304836999999999
#
# number of rings (size 3 to 8) (size 9 to 14) (size 15 to 20)
#    0.000    2.250    0.000    3.000    0.000    4.000 
#    0.000    0.000    0.000   24.750    0.000    0.000 
#    0.000    0.000    0.000    0.000    0.000    0.000 
#
# Total GULP energy -89373.779028 kJ/mol
# GULP energy per Si atom -5585.861189 kJ/mol
# Density = 2.524724 g / cm^3
# Si number density = 25.304837 Si / 1000 Ang^3
#
#
#
# Elastic Constant Matrix: (Units=GPa)
#
#
# Indices 1 2 3 4 5 6 
#
# 1 181.2339 26.9053 36.7490 -7.0727 -26.0997 -4.6710
# 2 26.9053 152.9114 20.6653 -30.8589 -1.4894 -11.6713
# 3 36.7490 20.6653 64.5414 -16.4626 -13.6042 -2.2847
# 4 -7.0727 -30.8589 -16.4626 30.3441 -0.0164 3.0195
# 5 -26.0997 -1.4894 -13.6042 -0.0164 34.2741 -2.2859
# 6 -4.6710 -11.6713 -2.2847 3.0195 -2.2859 31.3989
#
#
#
# Elastic Compliance Matrix: (Units=1/GPa)
#
#
# Indices 1 2 3 4 5 6 
#
# 1 0.006817 -0.000899 -0.002975 -0.001023 0.004027 0.000855
# 2 -0.000899 0.008533 -0.000092 0.008196 -0.000198 0.002229
# 3 -0.002975 -0.000092 0.021276 0.010710 0.006214 0.000494
# 4 -0.001023 0.008196 0.010710 0.046920 0.003814 -0.000561
# 5 0.004027 -0.000198 0.006214 0.003814 0.034913 0.003153
# 6 0.000855 0.002229 0.000494 -0.000561 0.003153 0.033123
#
#
# Mechanical properties :
#
#
# Convention : Reuss Voigt Hill
#
# Bulk Modulus (GPa) = 34.85246 63.03619 48.94433
# Shear Modulus (GPa) = 29.57189 40.16125 34.86657
#
# Velocity S-wave (km/s) = 3.42223 3.98816 3.71598
# Velocity P-wave (km/s) = 5.42388 6.79500 6.14778
#
# Compressibility (1/GPa) = 0.02869238
#
# Stress axis : x y z
#
# Youngs Moduli (GPa) = 146.70081 117.19767 47.00034
#
# Poissons Ratio (x) = 0.10539 0.13983
# Poissons Ratio (y) = 0.13192 0.00434
# Poissons Ratio (z) = 0.43644 0.01083
#
# Static dielectric constant tensor:
#      x y z
#    x 2.016050 0.003740 0.051810 
#    y 0.003740 2.059350 -0.047060 
#    z 0.051810 -0.047060 2.095180 
# 
# From -- ./inp_files/347090.got.cif
#   From: 2010.05.17/outbox.cif.g08.bks.cpg/sg2_174_cif.got.tgz:347090.got - 2010.06.03 11:33:40.
