data_PCOD9095110
_publ_section_title
;
Structure prediction by ZEFSAII (Michael W. Deem and Ramdas Pophale) SiO2 
 PCOD9095110
Probable space group: P -1
;
_chemical_formula_sum "Si O2"
_cell_formula_units_Z 16
_cell_length_a 25.055168
_cell_length_b 10.237047
_cell_length_c 7.954290
_cell_angle_alpha 135.288827
_cell_angle_beta 127.652120
_cell_angle_gamma 32.478299
_cell_volume 770.406724
_symmetry_space_group_name_H-M "P -1"
_symmetry_group_IT_number 2
_symmetry_cell_setting 'triclinic'
loop_
_space_group_symop_operation_xyz
x,y,z
-x,-y,-z
loop_
_atom_site_type_symbol
_atom_site_label
_atom_site_fract_x
_atom_site_fract_y
_atom_site_fract_z
Si Si1 0.743508 0.181328 0.323152
Si Si2 0.276830 0.604118 0.055404
Si Si3 0.903961 0.936663 0.671162
Si Si4 0.390951 0.263811 0.304738
Si Si5 0.611624 0.947164 0.394261
Si Si6 0.257352 0.021148 0.205420
Si Si7 0.324274 0.040198 0.819705
Si Si8 0.876200 0.566187 0.391455
O O1 0.666800 0.505919 0.452787
O O2 0.840321 0.069115 0.498310
O O3 0.688786 0.139559 0.299124
O O4 0.770770 0.014650 0.056397
O O5 0.344979 0.434344 0.195614
O O6 0.288656 0.785118 0.168261
O O7 0.162614 0.824468 0.099419
O O8 0.311626 0.376677 0.785731
O O9 0.897486 0.733380 0.524829
O O10 0.019377 0.750800 0.705356
O O11 0.506383 0.075486 0.355802
O O12 0.364879 0.100231 0.091013
O O13 0.609964 0.059389 0.312526
O O14 0.653139 0.014131 0.664210
O O15 0.170610 0.308489 0.399126
O O16 0.212837 0.320545 0.797934
#
# Coordination Sequence:
#
# PCOD9095110 Si02
#       8
#     2   2   2   2   2   2   2   2
#     4  10  21  34  49  75 109 137 162 200 251 304
#     4   9  18  34  54  76 100 128 168 215 250 288
#     4   8  15  31  55  77  98 130 169 207 247 292
#     4  10  20  35  55  75  96 130 175 214 249 289
#     4  10  20  35  55  75  96 130 175 214 249 289
#     4  10  21  34  49  75 109 137 162 200 251 304
#     4   9  18  34  54  76 100 128 168 215 250 288
#     4   8  15  31  55  77  98 130 169 207 247 292
#
# _framework density 20.768249999999998
#
# number of rings (size 3 to 8) (size 9 to 14) (size 15 to 20)
#    0.000    2.750    0.000    3.750    0.000    5.000 
#    0.000   11.250    0.000    0.000    0.000   22.750 
#    0.000    0.000    0.000    0.000    0.000    0.000 
#
# Total GULP energy -89218.615204 kJ/mol
# GULP energy per Si atom -5576.163450 kJ/mol
# Density = 2.072098 g / cm^3
# Si number density = 20.768250 Si / 1000 Ang^3
#
#
#
# Elastic Constant Matrix: (Units=GPa)
#
#
# Indices 1 2 3 4 5 6 
#
# 1 38.9613 8.3555 16.0555 -11.1835 2.4699 -8.4299
# 2 8.3555 40.0804 14.3184 0.2387 -4.0614 -21.0616
# 3 16.0555 14.3184 70.2195 -4.1812 0.6549 -8.0349
# 4 -11.1835 0.2387 -4.1812 20.3104 -0.7745 8.4334
# 5 2.4699 -4.0614 0.6549 -0.7745 30.0145 -4.0014
# 6 -8.4299 -21.0616 -8.0349 8.4334 -4.0014 29.0263
#
#
#
# Elastic Compliance Matrix: (Units=1/GPa)
#
#
# Indices 1 2 3 4 5 6 
#
# 1 0.034578 -0.007044 -0.005609 0.018915 -0.003535 -0.002605
# 2 -0.007044 0.052417 -0.005660 -0.022971 0.012919 0.042877
# 3 -0.005609 -0.005660 0.016567 0.001003 -0.000848 -0.001558
# 4 0.018915 -0.022971 0.001003 0.073679 -0.007225 -0.033300
# 5 -0.003535 0.012919 -0.000848 -0.007225 0.037234 0.015345
# 6 -0.002605 0.042877 -0.001558 -0.033300 0.015345 0.076166
#
#
# Mechanical properties :
#
#
# Convention : Reuss Voigt Hill
#
# Bulk Modulus (GPa) = 14.93941 25.19110 20.06526
# Shear Modulus (GPa) = 14.30292 23.23903 18.77097
#
# Velocity S-wave (km/s) = 2.62714 3.34873 3.00964
# Velocity P-wave (km/s) = 4.05111 5.20653 4.66473
#
# Compressibility (1/GPa) = 0.06693703
#
# Stress axis : x y z
#
# Youngs Moduli (GPa) = 28.91985 19.07767 60.36140
#
# Poissons Ratio (x) = 0.13439 0.33854
# Poissons Ratio (y) = 0.20372 0.34163
# Poissons Ratio (z) = 0.16220 0.10797
#
# Static dielectric constant tensor:
#      x y z
#    x 1.773350 0.015130 -0.006350 
#    y 0.015130 1.749150 0.010680 
#    z -0.006350 0.010680 1.781560 
# 
# From -- ./inp_files/277526.got.cif
#   From: 2010.05.17/outbox.cif.g08.bks.cpg/sg2_139_cif.got.tgz:277526.got - 2010.06.03 11:33:40.
