data_PCOD9095512
_publ_section_title
;
Structure prediction by ZEFSAII (Michael W. Deem and Ramdas Pophale) SiO2 
 PCOD9095512
Probable space group: P -1
;
_chemical_formula_sum "Si O2"
_cell_formula_units_Z 16
_cell_length_a 8.060255
_cell_length_b 14.654392
_cell_length_c 7.935229
_cell_angle_alpha 50.546596
_cell_angle_beta 75.384937
_cell_angle_gamma 69.811500
_cell_volume 678.554529
_symmetry_space_group_name_H-M "P -1"
_symmetry_group_IT_number 2
_symmetry_cell_setting 'triclinic'
loop_
_space_group_symop_operation_xyz
x,y,z
-x,-y,-z
loop_
_atom_site_type_symbol
_atom_site_label
_atom_site_fract_x
_atom_site_fract_y
_atom_site_fract_z
Si Si1 0.216294 0.270713 0.544758
Si Si2 0.352047 0.160155 0.998311
Si Si3 0.880310 0.196882 0.736404
Si Si4 0.031039 0.044695 0.216983
Si Si5 0.448585 0.055698 0.628236
Si Si6 0.447715 0.673304 0.127818
Si Si7 0.495268 0.576021 0.742297
Si Si8 0.721752 0.202641 0.325417
O O1 0.264136 0.153497 0.546632
O O2 0.329297 0.369153 0.364999
O O3 0.005298 0.293275 0.581008
O O4 0.304616 0.206760 0.768870
O O5 0.196082 0.099244 0.161278
O O6 0.528537 0.052170 0.116035
O O7 0.377909 0.276131 0.957542
O O8 0.682210 0.268907 0.753495
O O9 0.907559 0.097261 0.693725
O O10 0.952058 0.115452 0.981053
O O11 0.885998 0.098562 0.335568
O O12 0.586465 0.136304 0.525020
O O13 0.500000 0.000000 0.500000
O O14 0.485915 0.528224 0.279691
O O15 0.357680 0.733207 0.906776
O O16 0.308604 0.679174 0.682696
O O17 0.500000 0.500000 0.000000
#
# Coordination Sequence:
#
# PCOD9095512 Si02
#       8
#     2   2   2   2   2   2   2   2
#     4  10  22  37  58  87 115 152 197 241 291 334
#     4  11  23  34  58  89 121 150 189 246 291 344
#     4   9  19  33  56  85 119 149 186 240 290 348
#     4   9  19  34  54  86 121 150 185 235 297 344
#     4  11  20  33  58  84 117 154 192 233 293 356
#     4  10  20  35  58  84 113 155 198 235 282 335
#     4   9  20  39  62  81 110 156 203 235 277 348
#     4   9  18  37  57  79 112 156 196 234 280 346
#
# _framework density 23.579536000000001
#
# number of rings (size 3 to 8) (size 9 to 14) (size 15 to 20)
#    0.000    2.250    1.250    1.125    7.000    1.500 
#    0.000    0.625    0.000    0.000    0.000    0.000 
#    0.000    0.000    0.000    0.000    0.000    0.000 
#
# Total GULP energy -89194.603726 kJ/mol
# GULP energy per Si atom -5574.662733 kJ/mol
# Density = 2.352587 g / cm^3
# Si number density = 23.579536 Si / 1000 Ang^3
#
#
#
# Elastic Constant Matrix: (Units=GPa)
#
#
# Indices 1 2 3 4 5 6 
#
# 1 82.9795 57.9241 20.8953 -12.1284 -29.8583 2.9855
# 2 57.9241 177.1281 32.7691 -14.1863 -11.0579 4.2224
# 3 20.8953 32.7691 94.1631 -2.8911 -20.3274 -0.8594
# 4 -12.1284 -14.1863 -2.8911 37.2407 6.8868 -1.9877
# 5 -29.8583 -11.0579 -20.3274 6.8868 39.2813 -1.3041
# 6 2.9855 4.2224 -0.8594 -1.9877 -1.3041 29.2955
#
#
#
# Elastic Compliance Matrix: (Units=1/GPa)
#
#
# Indices 1 2 3 4 5 6 
#
# 1 0.021837 -0.006141 0.000538 0.002054 0.014770 -0.000528
# 2 -0.006141 0.007959 -0.002198 0.001539 -0.003857 -0.000653
# 3 0.000538 -0.002198 0.012654 -0.000838 0.006514 0.000866
# 4 0.002054 0.001539 -0.000838 0.028750 -0.003435 0.001342
# 5 0.014770 -0.003857 0.006514 -0.003435 0.039598 0.000771
# 6 -0.000528 -0.000653 0.000866 0.001342 0.000771 0.034434
#
#
# Mechanical properties :
#
#
# Convention : Reuss Voigt Hill
#
# Bulk Modulus (GPa) = 37.24823 64.16085 50.70454
# Shear Modulus (GPa) = 29.44964 37.34231 33.39598
#
# Velocity S-wave (km/s) = 3.53788 3.98386 3.76747
# Velocity P-wave (km/s) = 5.70263 6.95924 6.36203
#
# Compressibility (1/GPa) = 0.02684692
#
# Stress axis : x y z
#
# Youngs Moduli (GPa) = 45.79447 125.64843 79.02771
#
# Poissons Ratio (x) = 0.77165 -0.04255
# Poissons Ratio (y) = 0.28124 0.17371
# Poissons Ratio (z) = -0.02465 0.27619
#
# Static dielectric constant tensor:
#      x y z
#    x 1.990440 -0.012610 0.060960 
#    y -0.012610 2.055040 0.023410 
#    z 0.060960 0.023410 1.944780 
# 
# From -- ./inp_files/205463.got.cif
#   From: 2010.05.17/outbox.cif.g08.bks.cpg/sg2_103_cif.got.tgz:205463.got - 2010.06.03 11:33:40.
