data_PCOD9095130
_publ_section_title
;
Structure prediction by ZEFSAII (Michael W. Deem and Ramdas Pophale) SiO2 
 PCOD9095130
Probable space group: P -1
;
_chemical_formula_sum "Si O2"
_cell_formula_units_Z 16
_cell_length_a 7.930122
_cell_length_b 8.886499
_cell_length_c 16.088957
_cell_angle_alpha 41.259165
_cell_angle_beta 69.167593
_cell_angle_gamma 56.532402
_cell_volume 620.147053
_symmetry_space_group_name_H-M "P -1"
_symmetry_group_IT_number 2
_symmetry_cell_setting 'triclinic'
loop_
_space_group_symop_operation_xyz
x,y,z
-x,-y,-z
loop_
_atom_site_type_symbol
_atom_site_label
_atom_site_fract_x
_atom_site_fract_y
_atom_site_fract_z
Si Si1 0.599728 0.292168 0.187764
Si Si2 0.095132 0.718371 0.325955
Si Si3 0.698074 0.164347 0.534206
Si Si4 0.040050 0.175179 0.216538
Si Si5 0.731793 0.712626 0.645954
Si Si6 0.019415 0.330538 0.894738
Si Si7 0.682624 0.151991 0.044662
Si Si8 0.246046 0.416389 0.586096
O O1 0.477438 0.198576 0.307172
O O2 0.586271 0.202621 0.132874
O O3 0.818691 0.203762 0.224543
O O4 0.479482 0.602975 0.079052
O O5 0.258616 0.460024 0.361200
O O6 0.107401 0.635257 0.453722
O O7 0.881003 0.743525 0.317546
O O8 0.150544 0.954978 0.216702
O O9 0.471498 0.275184 0.567154
O O10 0.739057 0.409944 0.413533
O O11 0.842315 0.968119 0.661288
O O12 0.746317 0.975852 0.525365
O O13 0.003327 0.466517 0.113338
O O14 0.900567 0.508715 0.763064
O O15 0.234447 0.112891 0.911734
O O16 0.883430 0.193548 0.002862
#
# Coordination Sequence:
#
# PCOD9095130 Si02
#       8
#     2   2   2   2   2   2   2   2
#     4  10  20  35  56  81 111 145 180 219 270 324
#     4  10  20  35  58  81 108 145 181 224 271 318
#     4   9  19  36  55  79 109 140 180 225 271 322
#     4  10  20  35  55  82 112 141 179 225 270 320
#     4  10  20  35  55  80 111 146 182 220 265 322
#     4   9  19  36  56  79 108 142 183 224 270 322
#     4   9  19  37  58  78 106 145 181 224 274 319
#     4   9  19  37  57  78 107 143 182 225 273 318
#
# _framework density 25.800332999999998
#
# number of rings (size 3 to 8) (size 9 to 14) (size 15 to 20)
#    0.000    2.500    0.000    1.500    0.000    2.000 
#    0.000   13.750    0.000    0.000    0.000    0.000 
#    0.000    0.000    0.000    0.000    0.000    0.000 
#
# Total GULP energy -89234.526029 kJ/mol
# GULP energy per Si atom -5577.157877 kJ/mol
# Density = 2.574161 g / cm^3
# Si number density = 25.800333 Si / 1000 Ang^3
#
#
#
# Elastic Constant Matrix: (Units=GPa)
#
#
# Indices 1 2 3 4 5 6 
#
# 1 61.6299 40.6380 13.3911 -3.7759 0.1045 7.4008
# 2 40.6380 168.3723 22.5033 -29.3574 -26.5296 47.7542
# 3 13.3911 22.5033 35.1347 -16.6493 0.8848 19.7791
# 4 -3.7759 -29.3574 -16.6493 38.7049 0.6694 -15.4613
# 5 0.1045 -26.5296 0.8848 0.6694 41.4628 -20.7009
# 6 7.4008 47.7542 19.7791 -15.4613 -20.7009 49.1006
#
#
#
# Elastic Compliance Matrix: (Units=1/GPa)
#
#
# Indices 1 2 3 4 5 6 
#
# 1 0.021486 -0.006307 -0.008698 -0.004732 -0.001744 0.004174
# 2 -0.006307 0.010674 0.002183 0.005450 0.003066 -0.007301
# 3 -0.008698 0.002183 0.048539 0.013785 -0.009930 -0.020211
# 4 -0.004732 0.005450 0.013785 0.036629 0.004192 0.003161
# 5 -0.001744 0.003066 -0.009930 0.004192 0.034866 0.017301
# 6 0.004174 -0.007301 -0.020211 0.003161 0.017301 0.043269
#
#
# Mechanical properties :
#
#
# Convention : Reuss Voigt Hill
#
# Bulk Modulus (GPa) = 18.16346 46.46686 32.31516
# Shear Modulus (GPa) = 20.88050 38.42729 29.65389
#
# Velocity S-wave (km/s) = 2.84793 3.86347 3.39390
# Velocity P-wave (km/s) = 4.22724 6.16045 5.28303
#
# Compressibility (1/GPa) = 0.05505559
#
# Stress axis : x y z
#
# Youngs Moduli (GPa) = 46.54105 93.68711 20.60211
#
# Poissons Ratio (x) = 0.59089 0.17919
# Poissons Ratio (y) = 0.29354 -0.04498
# Poissons Ratio (z) = 0.40480 -0.20453
#
# Static dielectric constant tensor:
#      x y z
#    x 2.071600 0.063250 -0.036080 
#    y 0.063250 2.221570 -0.045970 
#    z -0.036080 -0.045970 2.031010 
# 
# From -- ./inp_files/215643.got.cif
#   From: 2010.05.17/outbox.cif.g08.bks.cpg/sg2_108_cif.got.tgz:215643.got - 2010.06.03 11:33:40.
