data_PCOD9095186
_publ_section_title
;
Structure prediction by ZEFSAII (Michael W. Deem and Ramdas Pophale) SiO2 
 PCOD9095186
Probable space group: P -1
;
_chemical_formula_sum "Si O2"
_cell_formula_units_Z 16
_cell_length_a 14.645154
_cell_length_b 11.753833
_cell_length_c 14.730506
_cell_angle_alpha 60.507336
_cell_angle_beta 19.693657
_cell_angle_gamma 55.177544
_cell_volume 691.998883
_symmetry_space_group_name_H-M "P -1"
_symmetry_group_IT_number 2
_symmetry_cell_setting 'triclinic'
loop_
_space_group_symop_operation_xyz
x,y,z
-x,-y,-z
loop_
_atom_site_type_symbol
_atom_site_label
_atom_site_fract_x
_atom_site_fract_y
_atom_site_fract_z
Si Si1 0.177598 0.542649 0.601410
Si Si2 0.315487 0.722209 0.943327
Si Si3 0.155092 0.649000 0.945801
Si Si4 0.676626 0.102376 0.787882
Si Si5 0.697570 0.337786 0.394083
Si Si6 0.023893 0.460997 0.598811
Si Si7 0.510911 0.864270 0.236515
Si Si8 0.870108 0.061682 0.808488
O O1 0.526319 0.474938 0.291814
O O2 0.113879 0.659123 0.694060
O O3 0.037799 0.572739 0.619501
O O4 0.075725 0.421577 0.785899
O O5 0.163519 0.755981 0.974185
O O6 0.663947 0.666358 0.631539
O O7 0.195223 0.848479 0.075707
O O8 0.227724 0.595194 0.115215
O O9 0.138205 0.705934 0.837654
O O10 0.539714 0.193852 0.792453
O O11 0.700146 0.157324 0.844353
O O12 0.000000 0.000000 0.500000
O O13 0.500000 0.000000 0.000000
O O14 0.500000 0.500000 0.500000
O O15 0.492710 0.252381 0.642953
O O16 0.000000 0.500000 0.500000
O O17 0.208992 0.993493 0.493082
O O18 0.749553 0.935435 0.981464
#
# Coordination Sequence:
#
# PCOD9095186 Si02
#       8
#     2   2   2   2   2   2   2   2
#     4   9  19  34  54  77 107 144 180 219 278 331
#     4  10  20  36  57  78 112 153 182 222 280 329
#     4   9  19  35  54  77 105 141 182 223 269 328
#     4   8  16  32  51  72 104 138 173 220 266 311
#     4  10  21  38  59  82 111 147 185 236 288 327
#     4  10  20  35  55  86 115 141 184 232 273 334
#     4  10  21  35  55  83 109 140 189 231 270 334
#     4  10  20  37  56  79 111 148 182 225 276 328
#
# _framework density 23.121424999999999
#
# number of rings (size 3 to 8) (size 9 to 14) (size 15 to 20)
#    0.000    2.500    0.000    1.500    0.000    5.000 
#    0.000    7.500    0.000    0.000    0.000    0.000 
#    0.000    0.000    0.000    0.000    0.000    0.000 
#
# Total GULP energy -89362.781829 kJ/mol
# GULP energy per Si atom -5585.173864 kJ/mol
# Density = 2.306880 g / cm^3
# Si number density = 23.121425 Si / 1000 Ang^3
#
#
#
# Elastic Constant Matrix: (Units=GPa)
#
#
# Indices 1 2 3 4 5 6 
#
# 1 173.2448 46.7294 16.6130 2.2247 34.6975 39.8714
# 2 46.7294 44.8977 4.1118 3.7720 4.9375 24.2945
# 3 16.6130 4.1118 91.2059 -3.0046 1.3138 -2.7795
# 4 2.2247 3.7720 -3.0046 21.6715 -1.9616 10.2476
# 5 34.6975 4.9375 1.3138 -1.9616 42.5505 4.7472
# 6 39.8714 24.2945 -2.7795 10.2476 4.7472 44.2928
#
#
#
# Elastic Compliance Matrix: (Units=1/GPa)
#
#
# Indices 1 2 3 4 5 6 
#
# 1 0.010464 -0.007338 -0.001573 0.001794 -0.006974 -0.005161
# 2 -0.007338 0.037425 -0.000801 0.001359 0.003362 -0.014647
# 3 -0.001573 -0.000801 0.011373 0.000873 0.000810 0.002280
# 4 0.001794 0.001359 0.000873 0.053089 0.002457 -0.014851
# 5 -0.006974 0.003362 0.000810 0.002457 0.028794 0.000830
# 6 -0.005161 -0.014647 0.002280 -0.014851 0.000830 0.038747
#
#
# Mechanical properties :
#
#
# Convention : Reuss Voigt Hill
#
# Bulk Modulus (GPa) = 25.10072 49.36186 37.23129
# Shear Modulus (GPa) = 23.51900 37.82925 30.67412
#
# Velocity S-wave (km/s) = 3.19281 4.04928 3.64628
# Velocity P-wave (km/s) = 4.94688 6.57704 5.81933
#
# Compressibility (1/GPa) = 0.03983949
#
# Stress axis : x y z
#
# Youngs Moduli (GPa) = 95.56900 26.72004 87.92481
#
# Poissons Ratio (x) = 0.19607 0.13829
# Poissons Ratio (y) = 0.70126 0.07040
# Poissons Ratio (z) = 0.15031 0.02139
#
# Static dielectric constant tensor:
#      x y z
#    x 1.975750 -0.012500 -0.000270 
#    y -0.012500 1.873950 0.035850 
#    z -0.000270 0.035850 1.860040 
# 
# From -- ./inp_files/365098.got.cif
#   From: 2010.05.17/outbox.cif.g08.bks.cpg/sg2_183_cif.got.tgz:365098.got - 2010.06.03 11:33:40.
