data_PCOD9096833
_publ_section_title
;
Structure prediction by ZEFSAII (Michael W. Deem and Ramdas Pophale) SiO2 
 PCOD9096833
Probable space group: P -1
;
_chemical_formula_sum "Si O2"
_cell_formula_units_Z 14
_cell_length_a 11.966044
_cell_length_b 8.374738
_cell_length_c 10.581614
_cell_angle_alpha 110.700208
_cell_angle_beta 51.800920
_cell_angle_gamma 75.473057
_cell_volume 599.916115
_symmetry_space_group_name_H-M "P -1"
_symmetry_group_IT_number 2
_symmetry_cell_setting 'triclinic'
loop_
_space_group_symop_operation_xyz
x,y,z
-x,-y,-z
loop_
_atom_site_type_symbol
_atom_site_label
_atom_site_fract_x
_atom_site_fract_y
_atom_site_fract_z
Si Si1 0.800576 0.233238 0.344025
Si Si2 0.189877 0.725909 0.936130
Si Si3 0.617946 0.129207 0.022506
Si Si4 0.997647 0.369799 0.351817
Si Si5 0.166744 0.390291 0.002230
Si Si6 0.445518 0.950168 0.220314
Si Si7 0.318801 0.033897 0.596674
O O1 0.830264 0.362515 0.458972
O O2 0.664230 0.179575 0.445713
O O3 0.765375 0.337332 0.259708
O O4 0.999956 0.982107 0.137797
O O5 0.349039 0.718919 0.887671
O O6 0.160606 0.579038 0.996085
O O7 0.812651 0.881448 0.835058
O O8 0.585768 0.155597 0.902401
O O9 0.467408 0.120381 0.189843
O O10 0.000000 0.500000 0.500000
O O11 0.016505 0.451903 0.227962
O O12 0.360066 0.236967 0.900728
O O13 0.173260 0.238954 0.847415
O O14 0.299076 0.059992 0.466981
O O15 0.500000 0.000000 0.500000
#
# Coordination Sequence:
#
# PCOD9096833 Si02
#       7
#     2   2   2   2   2   2   2
#     4  10  21  37  58  81 114 153 184 231 291 334
#     4  10  20  36  58  84 113 148 190 234 283 335
#     4   9  19  38  59  80 116 154 186 230 285 337
#     4  10  22  39  58  86 115 146 191 235 281 339
#     4  10  21  36  58  85 112 145 192 238 273 332
#     4   9  19  37  58  80 112 156 189 229 284 330
#     4  10  20  38  59  83 115 150 190 230 278 338
#
# _framework density 23.336594999999999
#
# number of rings (size 3 to 8) (size 9 to 14) (size 15 to 20)
#    0.000    2.286    0.000    4.286    0.000    6.286 
#    0.000   16.429    0.000    0.000    0.000    0.000 
#    0.000    0.000    0.000    0.000    0.000    0.000 
#
# Total GULP energy -78264.176275 kJ/mol
# GULP energy per Si atom -5590.298305 kJ/mol
# Density = 2.328348 g / cm^3
# Si number density = 23.336595 Si / 1000 Ang^3
#
#
#
# Elastic Constant Matrix: (Units=GPa)
#
#
# Indices 1 2 3 4 5 6 
#
# 1 146.3405 52.7884 35.3841 -11.5999 37.5934 29.9432
# 2 52.7884 88.6858 44.5179 -11.8418 24.4563 14.4149
# 3 35.3841 44.5179 86.8486 -25.8884 38.2834 12.8651
# 4 -11.5999 -11.8418 -25.8884 36.6331 -6.5772 0.0985
# 5 37.5934 24.4563 38.2834 -6.5772 44.7365 4.9945
# 6 29.9432 14.4149 12.8651 0.0985 4.9945 47.7771
#
#
#
# Elastic Compliance Matrix: (Units=1/GPa)
#
#
# Indices 1 2 3 4 5 6 
#
# 1 0.011380 -0.004727 0.003375 0.002895 -0.008806 -0.005701
# 2 -0.004727 0.017673 -0.007797 -0.001139 0.000855 -0.000357
# 3 0.003375 -0.007797 0.028091 0.014853 -0.019840 -0.005284
# 4 0.002895 -0.001139 0.014853 0.036813 -0.008589 -0.004648
# 5 -0.008806 0.000855 -0.019840 -0.008589 0.044332 0.005986
# 6 -0.005701 -0.000357 -0.005284 -0.004648 0.005986 0.025418
#
#
# Mechanical properties :
#
#
# Convention : Reuss Voigt Hill
#
# Bulk Modulus (GPa) = 25.74147 65.25065 45.49606
# Shear Modulus (GPa) = 25.64708 38.44163 32.04435
#
# Velocity S-wave (km/s) = 3.31872 4.06306 3.70961
# Velocity P-wave (km/s) = 5.07343 7.07337 6.15517
#
# Compressibility (1/GPa) = 0.03884782
#
# Stress axis : x y z
#
# Youngs Moduli (GPa) = 87.87119 56.58241 35.59809
#
# Poissons Ratio (x) = 0.26746 -0.12016
# Poissons Ratio (y) = 0.41535 0.27756
# Poissons Ratio (z) = -0.29660 0.44118
#
# Static dielectric constant tensor:
#      x y z
#    x 1.910470 -0.011410 -0.077930 
#    y -0.011410 1.874100 0.032910 
#    z -0.077930 0.032910 1.953840 
# 
# From -- ./inp_files/237633.got.cif
#   From: 2010.05.17/outbox.cif.g08.bks.cpg/sg2_119_cif.got.tgz:237633.got - 2010.06.03 11:33:40.
