data_PCOD9096709
_publ_section_title
;
Structure prediction by ZEFSAII (Michael W. Deem and Ramdas Pophale) SiO2 
 PCOD9096709
Probable space group: P -1
;
_chemical_formula_sum "Si O2"
_cell_formula_units_Z 16
_cell_length_a 11.950726
_cell_length_b 8.545407
_cell_length_c 17.987296
_cell_angle_alpha 115.016050
_cell_angle_beta 30.893701
_cell_angle_gamma 108.009812
_cell_volume 848.977062
_symmetry_space_group_name_H-M "P -1"
_symmetry_group_IT_number 2
_symmetry_cell_setting 'triclinic'
loop_
_space_group_symop_operation_xyz
x,y,z
-x,-y,-z
loop_
_atom_site_type_symbol
_atom_site_label
_atom_site_fract_x
_atom_site_fract_y
_atom_site_fract_z
Si Si1 0.832406 0.600356 0.782801
Si Si2 0.789461 0.999787 0.928680
Si Si3 0.194348 0.530143 0.452971
Si Si4 0.514825 0.341495 0.132910
Si Si5 0.813426 0.889454 0.057148
Si Si6 0.546086 0.138378 0.615767
Si Si7 0.219654 0.172247 0.671741
Si Si8 0.908762 0.503209 0.883433
O O1 0.644387 0.576841 0.825422
O O2 0.809264 0.518315 0.860030
O O3 0.071216 0.527942 0.600857
O O4 0.820888 0.809005 0.837391
O O5 0.019316 0.080554 0.803914
O O6 0.601204 0.140139 0.031153
O O7 0.730676 0.970023 0.041867
O O8 0.387146 0.382127 0.290723
O O9 0.295576 0.713921 0.426263
O O10 0.000000 0.500000 0.500000
O O11 0.730097 0.438304 0.027311
O O12 0.619221 0.881750 0.225778
O O13 0.933859 0.697204 0.932605
O O14 0.000000 0.000000 0.000000
O O15 0.398723 0.192087 0.637435
O O16 0.680653 0.956580 0.476262
O O17 0.117761 0.360291 0.738691
#
# Coordination Sequence:
#
# PCOD9096709 Si02
#       8
#     2   2   2   2   2   2   2   2
#     4  10  20  37  59  80 121 149 192 240 286 341
#     4  10  20  36  57  87 116 149 197 235 284 349
#     4  10  21  37  60  84 116 154 195 232 290 344
#     4  10  20  36  59  85 112 156 195 234 290 339
#     4  11  22  37  58  85 119 149 188 241 290 339
#     4  11  21  40  61  83 120 157 188 241 295 339
#     4  10  22  37  61  87 114 155 196 234 293 349
#     4  10  22  37  58  88 115 148 199 239 286 345
#
# _framework density 18.846209999999999
#
# number of rings (size 3 to 8) (size 9 to 14) (size 15 to 20)
#    0.000    1.750    3.750    0.750    0.000    2.500 
#    0.000    1.250    0.000    3.000    0.000    0.000 
#    0.000    0.000    0.000    0.000    0.000    0.000 
#
# Total GULP energy -89182.282533 kJ/mol
# GULP energy per Si atom -5573.892658 kJ/mol
# Density = 1.880332 g / cm^3
# Si number density = 18.846210 Si / 1000 Ang^3
#
#
#
# Elastic Constant Matrix: (Units=GPa)
#
#
# Indices 1 2 3 4 5 6 
#
# 1 47.0727 19.3677 23.7646 10.0065 -4.4072 6.7897
# 2 19.3677 52.9083 27.0604 8.8994 -8.6043 0.3840
# 3 23.7646 27.0604 118.9403 11.7050 2.3562 -2.7374
# 4 10.0065 8.8994 11.7050 31.9571 -4.3793 -7.6786
# 5 -4.4072 -8.6043 2.3562 -4.3793 26.9520 2.9736
# 6 6.7897 0.3840 -2.7374 -7.6786 2.9736 27.4945
#
#
#
# Elastic Compliance Matrix: (Units=1/GPa)
#
#
# Indices 1 2 3 4 5 6 
#
# 1 0.029422 -0.006978 -0.003797 -0.007919 0.002738 -0.010054
# 2 -0.006978 0.025161 -0.004239 -0.002436 0.006919 -0.000479
# 3 -0.003797 -0.004239 0.010381 -0.001410 -0.003331 0.001997
# 4 -0.007919 -0.002436 -0.001410 0.038306 0.002925 0.012231
# 5 0.002738 0.006919 -0.003331 0.002925 0.041048 -0.004727
# 6 -0.010054 -0.000479 0.001997 0.012231 -0.004727 0.042986
#
#
# Mechanical properties :
#
#
# Convention : Reuss Voigt Hill
#
# Bulk Modulus (GPa) = 28.62299 39.92297 34.27298
# Shear Modulus (GPa) = 21.83620 27.19596 24.51608
#
# Velocity S-wave (km/s) = 3.40759 3.80287 3.61064
# Velocity P-wave (km/s) = 5.54102 6.36490 5.96719
#
# Compressibility (1/GPa) = 0.03493695
#
# Stress axis : x y z
#
# Youngs Moduli (GPa) = 33.98855 39.74349 96.32692
#
# Poissons Ratio (x) = 0.27732 0.36578
# Poissons Ratio (y) = 0.23716 0.40830
# Poissons Ratio (z) = 0.12906 0.16846
#
# Static dielectric constant tensor:
#      x y z
#    x 1.657540 0.014930 0.007480 
#    y 0.014930 1.626350 0.013880 
#    z 0.007480 0.013880 1.672720 
# 
# From -- ./inp_files/179337.got.cif
#   From: 2010.05.17/outbox.cif.g08.bks.cpg/sg2_90_cif.got.tgz:179337.got - 2010.06.03 11:33:40.
