data_PCOD9096335
_publ_section_title
;
Structure prediction by ZEFSAII (Michael W. Deem and Ramdas Pophale) SiO2 
 PCOD9096335
Probable space group: P -1
;
_chemical_formula_sum "Si O2"
_cell_formula_units_Z 16
_cell_length_a 6.937862
_cell_length_b 11.461892
_cell_length_c 14.742132
_cell_angle_alpha 45.582258
_cell_angle_beta 65.178973
_cell_angle_gamma 51.144863
_cell_volume 651.664863
_symmetry_space_group_name_H-M "P -1"
_symmetry_group_IT_number 2
_symmetry_cell_setting 'triclinic'
loop_
_space_group_symop_operation_xyz
x,y,z
-x,-y,-z
loop_
_atom_site_type_symbol
_atom_site_label
_atom_site_fract_x
_atom_site_fract_y
_atom_site_fract_z
Si Si1 0.900005 0.126976 0.612451
Si Si2 0.305301 0.524205 0.652906
Si Si3 0.622823 0.260786 0.323131
Si Si4 0.441854 0.876178 0.962400
Si Si5 0.872703 0.936801 0.896636
Si Si6 0.305760 0.593796 0.103640
Si Si7 0.123054 0.274649 0.744669
Si Si8 0.387760 0.317589 0.516486
O O1 0.141478 0.943922 0.624947
O O2 0.911456 0.068437 0.746880
O O3 0.885434 0.311780 0.467920
O O4 0.638328 0.160610 0.605598
O O5 0.281771 0.614182 0.707974
O O6 0.269198 0.347179 0.742533
O O7 0.569688 0.501417 0.584757
O O8 0.479817 0.366888 0.201636
O O9 0.434160 0.256938 0.436061
O O10 0.689577 0.878697 0.919526
O O11 0.257033 0.048697 0.840793
O O12 0.483715 0.677772 0.030934
O O13 0.282405 0.940131 0.052367
O O14 0.107395 0.735259 0.992512
O O15 0.139864 0.640647 0.202470
O O16 0.160482 0.335392 0.605777
#
# Coordination Sequence:
#
# PCOD9096335 Si02
#       8
#     2   2   2   2   2   2   2   2
#     4   9  18  38  61  85 112 160 196 231 285 347
#     4   8  19  33  63  87 112 152 190 237 297 340
#     4   9  21  37  56  82 128 149 192 242 277 341
#     4  10  22  39  57  88 123 148 192 242 294 339
#     4  10  20  35  67  80 117 157 189 238 294 340
#     4  11  25  36  57  92 119 152 194 237 291 344
#     4  11  18  36  59  93 116 145 195 238 303 347
#     4   8  18  32  63  86 114 150 189 237 297 343
#
# _framework density 24.552498
#
# number of rings (size 3 to 8) (size 9 to 14) (size 15 to 20)
#    1.500    0.750    1.250    3.375    5.250    2.000 
#    0.000    2.500    2.750    0.000    0.000    0.000 
#    0.000    0.000    0.000    0.000    0.000    0.000 
#
# Total GULP energy -89190.308817 kJ/mol
# GULP energy per Si atom -5574.394301 kJ/mol
# Density = 2.449662 g / cm^3
# Si number density = 24.552498 Si / 1000 Ang^3
#
#
#
# Elastic Constant Matrix: (Units=GPa)
#
#
# Indices 1 2 3 4 5 6 
#
# 1 65.7844 1.0884 26.3842 -1.7730 1.4763 -8.3409
# 2 1.0884 36.3731 24.2930 -1.6513 2.9081 -7.7213
# 3 26.3842 24.2930 145.6602 -6.0972 29.0332 -7.8285
# 4 -1.7730 -1.6513 -6.0972 28.8984 -9.9445 4.3900
# 5 1.4763 2.9081 29.0332 -9.9445 47.8826 -3.7701
# 6 -8.3409 -7.7213 -7.8285 4.3900 -3.7701 5.0684
#
#
#
# Elastic Compliance Matrix: (Units=1/GPa)
#
#
# Indices 1 2 3 4 5 6 
#
# 1 0.025447 0.016614 -0.004974 -0.007346 0.005187 0.069724
# 2 0.016614 0.056008 -0.008117 -0.012612 0.007576 0.116685
# 3 -0.004974 -0.008117 0.009768 0.000864 -0.005933 -0.010626
# 4 -0.007346 -0.012612 0.000864 0.045198 0.004688 -0.065628
# 5 0.005187 0.007576 -0.005933 0.004688 0.026954 0.026900
# 6 0.069724 0.116685 -0.010626 -0.065628 0.026900 0.550240
#
#
# Mechanical properties :
#
#
# Convention : Reuss Voigt Hill
#
# Bulk Modulus (GPa) = 10.17622 39.03875 24.60749
# Shear Modulus (GPa) = 6.76291 29.44004 18.10148
#
# Velocity S-wave (km/s) = 1.66146 3.46651 2.71819
# Velocity P-wave (km/s) = 2.79898 5.65304 4.46045
#
# Compressibility (1/GPa) = 0.09826832
#
# Stress axis : x y z
#
# Youngs Moduli (GPa) = 39.29687 17.85448 102.37790
#
# Poissons Ratio (x) = -0.29663 0.50924
# Poissons Ratio (y) = -0.65286 0.83100
# Poissons Ratio (z) = 0.19547 0.14492
#
# Static dielectric constant tensor:
#      x y z
#    x 1.964860 0.025590 0.025430 
#    y 0.025590 1.950240 0.026430 
#    z 0.025430 0.026430 1.974060 
# 
# From -- ./inp_files/560769.got.cif
#   From: 2010.05.17/outbox.cif.g08.bks.cpg/sg2_281_cif.got.tgz:560769.got - 2010.06.03 11:33:40.
