data_PCOD9096822
_publ_section_title
;
Structure prediction by ZEFSAII (Michael W. Deem and Ramdas Pophale) SiO2 
 PCOD9096822
Probable space group: P -1
;
_chemical_formula_sum "Si O2"
_cell_formula_units_Z 16
_cell_length_a 5.290927
_cell_length_b 19.549013
_cell_length_c 23.219271
_cell_angle_alpha 17.204564
_cell_angle_beta 100.274938
_cell_angle_gamma 92.925551
_cell_volume 637.493379
_symmetry_space_group_name_H-M "P -1"
_symmetry_group_IT_number 2
_symmetry_cell_setting 'triclinic'
loop_
_space_group_symop_operation_xyz
x,y,z
-x,-y,-z
loop_
_atom_site_type_symbol
_atom_site_label
_atom_site_fract_x
_atom_site_fract_y
_atom_site_fract_z
Si Si1 0.016371 0.813009 0.482962
Si Si2 0.725342 0.274875 0.010402
Si Si3 0.072629 0.830220 0.708897
Si Si4 0.247405 0.766318 0.264593
Si Si5 0.382043 0.359909 0.187856
Si Si6 0.439181 0.374988 0.413918
Si Si7 0.311033 0.897295 0.038924
Si Si8 0.717636 0.928472 0.877191
O O1 0.338585 0.732723 0.542128
O O2 0.861676 0.629404 0.609207
O O3 0.851467 0.051455 0.242564
O O4 0.967291 0.915773 0.463100
O O5 0.447768 0.246584 0.000047
O O6 0.661894 0.530528 0.837583
O O7 0.968698 0.204181 0.029385
O O8 0.295435 0.760014 0.722834
O O9 0.782961 0.814485 0.692057
O O10 0.223398 0.603131 0.943924
O O11 0.500000 0.500000 0.500000
O O12 0.201919 0.781991 0.181573
O O13 0.308106 0.979472 0.131520
O O14 0.924173 0.857467 0.199000
O O15 0.434979 0.648771 0.206067
O O16 0.567884 0.186326 0.625388
O O17 0.500000 0.000000 0.000000
#
# Coordination Sequence:
#
# PCOD9096822 Si02
#       8
#     2   2   2   2   2   2   2   2
#     4   9  18  30  51  78 116 161 209 253 314 379
#     4   9  18  30  49  81 114 161 208 255 315 374
#     4   9  15  24  41  70 108 160 198 245 311 366
#     4  11  25  45  67  94 129 170 219 268 329 394
#     4   9  15  24  41  68 114 153 199 252 303 368
#     4  10  20  37  57  83 121 161 206 265 314 376
#     4  11  27  43  67  96 129 169 219 275 325 389
#     4  10  20  36  58  83 118 163 210 256 319 384
#
# _framework density 25.098296999999999
#
# number of rings (size 3 to 8) (size 9 to 14) (size 15 to 20)
#    0.000    2.250    1.250    1.500    5.250    7.500 
#    0.000    0.000    0.000    0.000    0.000    0.000 
#    0.000   20.000    0.000    0.000    0.000    0.000 
#
# Total GULP energy -89440.774137 kJ/mol
# GULP energy per Si atom -5590.048384 kJ/mol
# Density = 2.504117 g / cm^3
# Si number density = 25.098297 Si / 1000 Ang^3
#
#
#
# Elastic Constant Matrix: (Units=GPa)
#
#
# Indices 1 2 3 4 5 6 
#
# 1 121.1696 29.1193 -0.2626 -18.1451 11.5071 17.4603
# 2 29.1193 125.9109 22.7547 -27.1192 1.2456 -0.0488
# 3 -0.2626 22.7547 57.0098 4.6167 -10.2261 -4.2345
# 4 -18.1451 -27.1192 4.6167 54.2528 -1.5816 -2.3376
# 5 11.5071 1.2456 -10.2261 -1.5816 37.0069 -5.2003
# 6 17.4603 -0.0488 -4.2345 -2.3376 -5.2003 34.5907
#
#
#
# Elastic Compliance Matrix: (Units=1/GPa)
#
#
# Indices 1 2 3 4 5 6 
#
# 1 0.010197 -0.001737 -0.000574 0.002231 -0.003972 -0.005666
# 2 -0.001737 0.010245 -0.004598 0.004932 -0.000788 0.000543
# 3 -0.000574 -0.004598 0.021125 -0.003944 0.006505 0.003581
# 4 0.002231 0.004932 -0.003944 0.021937 -0.001051 -0.000278
# 5 -0.003972 -0.000788 0.006505 -0.001051 0.031076 0.007401
# 6 -0.005666 0.000543 0.003581 -0.000278 0.007401 0.033302
#
#
# Mechanical properties :
#
#
# Convention : Reuss Voigt Hill
#
# Bulk Modulus (GPa) = 36.03482 45.25703 40.64592
# Shear Modulus (GPa) = 33.12373 42.00200 37.56286
#
# Velocity S-wave (km/s) = 3.63679 4.09528 3.87283
# Velocity P-wave (km/s) = 5.65894 6.35868 6.01899
#
# Compressibility (1/GPa) = 0.02775094
#
# Stress axis : x y z
#
# Youngs Moduli (GPa) = 98.07016 97.60912 47.33619
#
# Poissons Ratio (x) = 0.16954 0.02716
# Poissons Ratio (y) = 0.17034 0.21763
# Poissons Ratio (z) = 0.05626 0.44876
#
# Static dielectric constant tensor:
#      x y z
#    x 2.056400 -0.070000 0.020890 
#    y -0.070000 1.994960 0.059150 
#    z 0.020890 0.059150 2.092980 
# 
# From -- ./inp_files/469714.got.cif
#   From: 2010.05.17/outbox.cif.g08.bks.cpg/sg2_235_cif.got.tgz:469714.got - 2010.06.03 11:33:40.
