data_PCOD9096313
_publ_section_title
;
Structure prediction by ZEFSAII (Michael W. Deem and Ramdas Pophale) SiO2 
 PCOD9096313
Probable space group: P -1
;
_chemical_formula_sum "Si O2"
_cell_formula_units_Z 14
_cell_length_a 9.254013
_cell_length_b 8.952682
_cell_length_c 12.374385
_cell_angle_alpha 127.634723
_cell_angle_beta 134.663980
_cell_angle_gamma 54.607687
_cell_volume 556.603066
_symmetry_space_group_name_H-M "P -1"
_symmetry_group_IT_number 2
_symmetry_cell_setting 'triclinic'
loop_
_space_group_symop_operation_xyz
x,y,z
-x,-y,-z
loop_
_atom_site_type_symbol
_atom_site_label
_atom_site_fract_x
_atom_site_fract_y
_atom_site_fract_z
Si Si1 0.711331 0.407785 0.801026
Si Si2 0.361571 0.710063 0.067683
Si Si3 0.439796 0.836154 0.830840
Si Si4 0.914596 0.286450 0.645928
Si Si5 0.733999 0.593472 0.489594
Si Si6 0.103405 0.746612 0.736878
Si Si7 0.330151 0.031665 0.654787
O O1 0.770684 0.315050 0.907524
O O2 0.587495 0.632038 0.854449
O O3 0.884717 0.386781 0.791341
O O4 0.516552 0.333721 0.614418
O O5 0.509183 0.846817 0.245438
O O6 0.500000 0.500000 0.000000
O O7 0.210102 0.788673 0.921468
O O8 0.195144 0.856611 0.740058
O O9 0.469898 0.871146 0.738015
O O10 0.500000 0.000000 0.000000
O O11 0.805613 0.443200 0.562984
O O12 0.154589 0.199624 0.699119
O O13 0.812775 0.102074 0.526816
O O14 0.803097 0.474385 0.360101
O O15 0.859645 0.758850 0.629737
#
# Coordination Sequence:
#
# PCOD9096313 Si02
#       7
#     2   2   2   2   2   2   2
#     4  11  24  41  72  93 134 172 225 267 326 385
#     4  12  21  41  65  98 130 176 215 268 331 397
#     4  11  20  40  66  97 124 171 215 270 318 391
#     4  11  24  42  64 101 130 174 220 274 327 388
#     4  10  20  37  66  96 125 167 219 272 311 391
#     4  10  20  35  65  97 126 167 222 259 324 386
#     4  11  24  39  69  94 134 168 223 271 330 386
#
# _framework density 25.152574999999999
#
# number of rings (size 3 to 8) (size 9 to 14) (size 15 to 20)
#    0.000    1.143    7.143    1.286    2.000    0.571 
#    0.000    6.429    0.000    2.571    0.000    0.000 
#    0.000    0.000    0.000    0.000    0.000    0.000 
#
# Total GULP energy -78149.256380 kJ/mol
# GULP energy per Si atom -5582.089741 kJ/mol
# Density = 2.509533 g / cm^3
# Si number density = 25.152575 Si / 1000 Ang^3
#
#
#
# Elastic Constant Matrix: (Units=GPa)
#
#
# Indices 1 2 3 4 5 6 
#
# 1 96.8627 22.4648 18.9835 10.0397 -15.9774 8.6217
# 2 22.4648 47.0674 16.2792 0.0871 -1.3030 26.3220
# 3 18.9835 16.2792 60.1708 15.4081 4.5304 8.8149
# 4 10.0397 0.0871 15.4081 31.8861 23.9138 4.0738
# 5 -15.9774 -1.3030 4.5304 23.9138 41.0337 -4.6831
# 6 8.6217 26.3220 8.8149 4.0738 -4.6831 31.6380
#
#
#
# Elastic Compliance Matrix: (Units=1/GPa)
#
#
# Indices 1 2 3 4 5 6 
#
# 1 0.020087 -0.019196 0.001676 -0.028579 0.025681 0.017511
# 2 -0.019196 0.066449 -0.012932 0.048950 -0.039146 -0.058547
# 3 0.001676 -0.012932 0.022856 -0.020544 0.010622 0.008152
# 4 -0.028579 0.048950 -0.020544 0.119656 -0.083311 -0.054952
# 5 0.025681 -0.039146 0.010622 -0.083311 0.085760 0.046032
# 6 0.017511 -0.058547 0.008152 -0.054952 0.046032 0.087163
#
#
# Mechanical properties :
#
#
# Convention : Reuss Voigt Hill
#
# Bulk Modulus (GPa) = 20.62396 35.50622 28.06509
# Shear Modulus (GPa) = 10.43759 30.66978 20.55368
#
# Velocity S-wave (km/s) = 2.03929 3.49571 2.86170
# Velocity P-wave (km/s) = 3.70976 5.51727 4.70120
#
# Compressibility (1/GPa) = 0.04848729
#
# Stress axis : x y z
#
# Youngs Moduli (GPa) = 49.78310 15.04925 43.75158
#
# Poissons Ratio (x) = 0.28889 -0.07331
# Poissons Ratio (y) = 0.95564 0.56579
# Poissons Ratio (z) = -0.08342 0.19461
#
# Static dielectric constant tensor:
#      x y z
#    x 2.008380 0.021330 -0.016020 
#    y 0.021330 1.997590 0.044760 
#    z -0.016020 0.044760 2.154940 
# 
# From -- ./inp_files/159549.got.cif
#   From: 2010.05.17/outbox.cif.g08.bks.cpg/sg2_80_cif.got.tgz:159549.got - 2010.06.03 11:33:40.
