data_PCOD9096121
_publ_section_title
;
Structure prediction by ZEFSAII (Michael W. Deem and Ramdas Pophale) SiO2 
 PCOD9096121
Probable space group: P -1
;
_chemical_formula_sum "Si O2"
_cell_formula_units_Z 16
_cell_length_a 18.120979
_cell_length_b 14.766290
_cell_length_c 15.436136
_cell_angle_alpha 160.983379
_cell_angle_beta 38.918621
_cell_angle_gamma 131.757191
_cell_volume 795.114285
_symmetry_space_group_name_H-M "P -1"
_symmetry_group_IT_number 2
_symmetry_cell_setting 'triclinic'
loop_
_space_group_symop_operation_xyz
x,y,z
-x,-y,-z
loop_
_atom_site_type_symbol
_atom_site_label
_atom_site_fract_x
_atom_site_fract_y
_atom_site_fract_z
Si Si1 0.572239 0.811563 0.377139
Si Si2 0.838792 0.848598 0.783062
Si Si3 0.380716 0.149171 0.305602
Si Si4 0.553519 0.479671 0.268336
Si Si5 0.267336 0.505176 0.573804
Si Si6 0.711284 0.018696 0.240398
Si Si7 0.702745 0.285047 0.652245
Si Si8 0.921851 0.479188 0.637569
O O1 0.580919 0.639621 0.303748
O O2 0.426566 0.986939 0.652357
O O3 0.649424 0.033818 0.506058
O O4 0.622355 0.566982 0.035778
O O5 0.765722 0.680083 0.640798
O O6 0.976369 0.614884 0.464778
O O7 0.776866 0.964937 0.038904
O O8 0.827110 0.159576 0.030751
O O9 0.413447 0.366301 0.538419
O O10 0.275457 0.330874 0.498930
O O11 0.500000 0.000000 0.000000
O O12 0.368494 0.869271 0.114353
O O13 0.405876 0.521112 0.443639
O O14 0.688980 0.313186 0.585019
O O15 0.807304 0.783029 0.003439
O O16 0.848296 0.246094 0.497740
O O17 0.000000 0.500000 0.500000
#
# Coordination Sequence:
#
# PCOD9096121 Si02
#       8
#     2   2   2   2   2   2   2   2
#     4  12  26  38  66  92 128 165 212 251 313 375
#     4  11  25  37  64  92 125 169 210 252 308 367
#     4  10  20  35  62  90 131 163 192 246 321 386
#     4  11  21  38  60  94 131 163 195 248 319 381
#     4  11  21  38  60  95 126 160 203 251 310 380
#     4  11  25  42  63  88 131 166 213 254 312 360
#     4  12  26  44  60  90 122 176 212 263 300 366
#     4  10  26  44  63  87 122 171 217 265 306 349
#
# _framework density 20.122893999999999
#
# number of rings (size 3 to 8) (size 9 to 14) (size 15 to 20)
#    0.000    1.000    2.500    5.250    8.750    1.000 
#    0.000    0.000    0.000    0.000    0.000   17.500 
#    0.000    0.000    0.000    0.000    0.000    0.000 
#
# Total GULP energy -89235.401212 kJ/mol
# GULP energy per Si atom -5577.212576 kJ/mol
# Density = 2.007709 g / cm^3
# Si number density = 20.122894 Si / 1000 Ang^3
#
#
#
# Elastic Constant Matrix: (Units=GPa)
#
#
# Indices 1 2 3 4 5 6 
#
# 1 144.0223 42.8993 50.7806 14.2682 0.2540 -4.0899
# 2 42.8993 76.4580 40.5183 11.9862 -11.8817 4.5965
# 3 50.7806 40.5183 83.5091 23.6779 -5.2119 -0.3280
# 4 14.2682 11.9862 23.6779 36.6638 0.4433 -4.7131
# 5 0.2540 -11.8817 -5.2119 0.4433 39.3706 8.0866
# 6 -4.0899 4.5965 -0.3280 -4.7131 8.0866 29.9517
#
#
#
# Elastic Compliance Matrix: (Units=1/GPa)
#
#
# Indices 1 2 3 4 5 6 
#
# 1 0.009589 -0.003676 -0.004361 0.000641 -0.002278 0.002542
# 2 -0.003676 0.020342 -0.006787 -0.001647 0.006454 -0.005700
# 3 -0.004361 -0.006787 0.020708 -0.009615 0.001061 -0.001127
# 4 0.000641 -0.001647 -0.009615 0.034670 -0.003529 0.006643
# 5 -0.002278 0.006454 0.001061 -0.003529 0.029560 -0.009826
# 6 0.002542 -0.005700 -0.001127 0.006643 -0.009826 0.038295
#
#
# Mechanical properties :
#
#
# Convention : Reuss Voigt Hill
#
# Bulk Modulus (GPa) = 47.64170 63.59843 55.62006
# Shear Modulus (GPa) = 26.34223 32.51663 29.42943
#
# Velocity S-wave (km/s) = 3.62203 4.02419 3.82839
# Velocity P-wave (km/s) = 6.42019 7.29834 6.87331
#
# Compressibility (1/GPa) = 0.02099002
#
# Stress axis : x y z
#
# Youngs Moduli (GPa) = 104.28907 49.15858 48.29149
#
# Poissons Ratio (x) = 0.18072 0.21060
# Poissons Ratio (y) = 0.38340 0.32776
# Poissons Ratio (z) = 0.45480 0.33364
#
# Static dielectric constant tensor:
#      x y z
#    x 1.735510 -0.012110 -0.001990 
#    y -0.012110 1.757410 0.059040 
#    z -0.001990 0.059040 1.800500 
# 
# From -- ./inp_files/538912.got.cif
#   From: 2010.05.17/outbox.cif.g08.bks.cpg/sg2_270_cif.got.tgz:538912.got - 2010.06.03 11:33:40.
