data_PCOD9096952
_publ_section_title
;
Structure prediction by ZEFSAII (Michael W. Deem and Ramdas Pophale) SiO2 
 PCOD9096952
Probable space group: P -1
;
_chemical_formula_sum "Si O2"
_cell_formula_units_Z 16
_cell_length_a 15.938195
_cell_length_b 9.120709
_cell_length_c 8.678127
_cell_angle_alpha 96.783429
_cell_angle_beta 106.801462
_cell_angle_gamma 138.587128
_cell_volume 677.988831
_symmetry_space_group_name_H-M "P -1"
_symmetry_group_IT_number 2
_symmetry_cell_setting 'triclinic'
loop_
_space_group_symop_operation_xyz
x,y,z
-x,-y,-z
loop_
_atom_site_type_symbol
_atom_site_label
_atom_site_fract_x
_atom_site_fract_y
_atom_site_fract_z
Si Si1 0.443854 0.588806 0.474435
Si Si2 0.272010 0.904382 0.151074
Si Si3 0.138768 0.286248 0.176311
Si Si4 0.662655 0.579797 0.151223
Si Si5 0.895679 0.139882 0.181322
Si Si6 0.812455 0.504002 0.099547
Si Si7 0.602699 0.777849 0.277904
Si Si8 0.912355 0.311767 0.652215
O O1 0.500000 0.500000 0.500000
O O2 0.263731 0.368347 0.347105
O O3 0.498966 0.705195 0.345199
O O4 0.551766 0.833491 0.672317
O O5 0.165067 0.744956 0.230356
O O6 0.203309 0.951444 0.033338
O O7 0.265599 0.762692 0.007701
O O8 0.055432 0.282056 0.244507
O O9 0.199730 0.445754 0.072550
O O10 0.000000 0.000000 0.000000
O O11 0.741043 0.527617 0.179087
O O12 0.622276 0.625822 0.282657
O O13 0.784634 0.866207 0.172200
O O14 0.498588 0.337999 0.943642
O O15 0.967683 0.396938 0.305622
O O16 0.986559 0.695920 0.262882
O O17 0.771241 0.080997 0.433820
#
# Coordination Sequence:
#
# PCOD9096952 Si02
#       8
#     2   2   2   2   2   2   2   2
#     4  11  23  37  61  89 118 148 192 247 291 342
#     4  10  20  36  58  90 120 147 187 242 303 335
#     4  12  20  32  56  91 116 145 191 240 292 337
#     4  11  23  39  60  81 118 162 200 228 283 354
#     4  11  20  37  60  90 118 151 188 243 296 344
#     4  11  20  35  58  88 114 153 185 242 288 344
#     4  10  23  40  57  83 115 162 197 235 281 351
#     4  10  21  36  60  85 121 149 192 246 293 336
#
# _framework density 23.599208999999998
#
# number of rings (size 3 to 8) (size 9 to 14) (size 15 to 20)
#    0.000    1.250    5.000    2.250    1.750    2.500 
#    0.000    0.000    0.000   18.750    0.000    0.000 
#    0.000    0.000    0.000    0.000    0.000    0.000 
#
# Total GULP energy -89231.885720 kJ/mol
# GULP energy per Si atom -5576.992857 kJ/mol
# Density = 2.354550 g / cm^3
# Si number density = 23.599209 Si / 1000 Ang^3
#
#
#
# Elastic Constant Matrix: (Units=GPa)
#
#
# Indices 1 2 3 4 5 6 
#
# 1 148.2175 31.0348 44.3689 19.4394 25.1609 -10.7231
# 2 31.0348 55.4729 34.1310 12.3926 5.0773 -1.8208
# 3 44.3689 34.1310 108.1293 46.6644 23.2408 -3.1780
# 4 19.4394 12.3926 46.6644 28.6682 3.3807 -2.9985
# 5 25.1609 5.0773 23.2408 3.3807 49.0402 3.5570
# 6 -10.7231 -1.8208 -3.1780 -2.9985 3.5570 24.0378
#
#
#
# Elastic Compliance Matrix: (Units=1/GPa)
#
#
# Indices 1 2 3 4 5 6 
#
# 1 0.009006 -0.003790 0.000284 -0.004007 -0.004371 0.003915
# 2 -0.003790 0.024535 -0.011411 0.009971 0.004177 -0.000715
# 3 0.000284 -0.011411 0.044477 -0.065919 -0.015441 -0.000795
# 4 -0.004007 0.009971 -0.065919 0.138383 0.022419 0.004197
# 5 -0.004371 0.004177 -0.015441 0.022419 0.028341 -0.005072
# 6 0.003915 -0.000715 -0.000795 0.004197 -0.005072 0.044462
#
#
# Mechanical properties :
#
#
# Convention : Reuss Voigt Hill
#
# Bulk Modulus (GPa) = 20.75350 58.98768 39.87059
# Shear Modulus (GPa) = 14.92095 33.83491 24.37793
#
# Velocity S-wave (km/s) = 2.51722 3.79057 3.21752
# Velocity P-wave (km/s) = 4.15472 6.64889 5.54389
#
# Compressibility (1/GPa) = 0.04818465
#
# Stress axis : x y z
#
# Youngs Moduli (GPa) = 111.03799 40.75847 22.48351
#
# Poissons Ratio (x) = 0.15447 -0.00639
# Poissons Ratio (y) = 0.42081 0.25656
# Poissons Ratio (z) = -0.03158 0.46510
#
# Static dielectric constant tensor:
#      x y z
#    x 2.010300 -0.048880 -0.065440 
#    y -0.048880 2.048280 -0.023010 
#    z -0.065440 -0.023010 1.899680 
# 
# From -- ./inp_files/298901.got.cif
#   From: 2010.05.17/outbox.cif.g08.bks.cpg/sg2_150_cif.got.tgz:298901.got - 2010.06.03 11:33:40.
