data_PCOD9096616
_publ_section_title
;
Structure prediction by ZEFSAII (Michael W. Deem and Ramdas Pophale) SiO2 
 PCOD9096616
Probable space group: P -1
;
_chemical_formula_sum "Si O2"
_cell_formula_units_Z 14
_cell_length_a 17.878875
_cell_length_b 7.721124
_cell_length_c 5.501919
_cell_angle_alpha 79.617952
_cell_angle_beta 102.830959
_cell_angle_gamma 133.163843
_cell_volume 539.727791
_symmetry_space_group_name_H-M "P -1"
_symmetry_group_IT_number 2
_symmetry_cell_setting 'triclinic'
loop_
_space_group_symop_operation_xyz
x,y,z
-x,-y,-z
loop_
_atom_site_type_symbol
_atom_site_label
_atom_site_fract_x
_atom_site_fract_y
_atom_site_fract_z
Si Si1 0.303658 0.631114 0.877715
Si Si2 0.954503 0.628799 0.632098
Si Si3 0.115687 0.206351 0.132062
Si Si4 0.915747 0.206114 0.812602
Si Si5 0.623408 0.663306 0.042605
Si Si6 0.616353 0.222516 0.603273
Si Si7 0.375631 0.339707 0.454495
O O1 0.187974 0.426861 0.949183
O O2 0.351571 0.507003 0.912687
O O3 0.360995 0.812619 0.100096
O O4 0.317658 0.733119 0.595920
O O5 0.897667 0.721279 0.637568
O O6 0.881265 0.350254 0.702716
O O7 0.002790 0.693332 0.382734
O O8 0.038613 0.735872 0.891454
O O9 0.156972 0.072770 0.211115
O O10 0.000000 0.000000 0.000000
O O11 0.659847 0.802249 0.784033
O O12 0.500000 0.500000 0.000000
O O13 0.669050 0.802045 0.291385
O O14 0.634203 0.461954 0.589244
O O15 0.500000 0.000000 0.500000
O O16 0.500000 0.500000 0.500000
#
# Coordination Sequence:
#
# PCOD9096616 Si02
#       7
#     2   2   2   2   2   2   2
#     4  10  21  34  56  85 113 148 193 240 280 360
#     4   9  18  33  55  81 113 153 198 245 286 343
#     4  10  21  37  61  88 123 163 201 240 304 355
#     4   9  18  33  55  82 109 156 199 238 295 342
#     4   8  14  27  47  72  97 135 167 222 278 313
#     4  10  20  36  57  77 109 148 186 237 298 337
#     4   8  14  26  48  71  95 128 167 212 274 323
#
# _framework density 25.939001999999999
#
# number of rings (size 3 to 8) (size 9 to 14) (size 15 to 20)
#    0.000    2.857    0.000    0.857    0.000    4.571 
#    0.000    0.000   25.143    0.000    0.000    0.000 
#    0.000    0.000    0.000    0.000    0.000    0.000 
#
# Total GULP energy -78082.680992 kJ/mol
# GULP energy per Si atom -5577.334357 kJ/mol
# Density = 2.587996 g / cm^3
# Si number density = 25.939002 Si / 1000 Ang^3
#
#
#
# Elastic Constant Matrix: (Units=GPa)
#
#
# Indices 1 2 3 4 5 6 
#
# 1 71.1517 8.5392 12.9136 11.4334 -6.6305 11.2690
# 2 8.5392 82.4713 9.6054 9.4925 -4.1296 6.2951
# 3 12.9136 9.6054 247.4869 6.2371 -32.3589 8.4148
# 4 11.4334 9.4925 6.2371 21.9525 -2.2662 -7.5889
# 5 -6.6305 -4.1296 -32.3589 -2.2662 26.1895 -4.4272
# 6 11.2690 6.2951 8.4148 -7.5889 -4.4272 40.2624
#
#
#
# Elastic Compliance Matrix: (Units=1/GPa)
#
#
# Indices 1 2 3 4 5 6 
#
# 1 0.017069 0.000120 -0.000115 -0.010973 0.002132 -0.006606
# 2 0.000120 0.013197 -0.000131 -0.006774 0.000813 -0.003257
# 3 -0.000115 -0.000131 0.004845 -0.000829 0.005784 -0.000480
# 4 -0.010973 -0.006774 -0.000829 0.060278 0.003050 0.016001
# 5 0.002132 0.000813 0.005784 0.003050 0.046904 0.003800
# 6 -0.006606 -0.003257 -0.000480 0.016001 0.003800 0.030729
#
#
# Mechanical properties :
#
#
# Convention : Reuss Voigt Hill
#
# Bulk Modulus (GPa) = 28.68683 51.46960 40.07822
# Shear Modulus (GPa) = 27.04236 42.35100 34.69668
#
# Velocity S-wave (km/s) = 3.23234 4.04507 3.66132
# Velocity P-wave (km/s) = 5.00140 6.45774 5.77566
#
# Compressibility (1/GPa) = 0.03485920
#
# Stress axis : x y z
#
# Youngs Moduli (GPa) = 58.58539 75.77338 206.39156
#
# Poissons Ratio (x) = -0.00909 0.02383
# Poissons Ratio (y) = -0.00703 0.02697
# Poissons Ratio (z) = 0.00676 0.00990
#
# Static dielectric constant tensor:
#      x y z
#    x 2.146820 -0.004490 0.121840 
#    y -0.004490 1.996020 0.029520 
#    z 0.121840 0.029520 2.209970 
# 
# From -- ./inp_files/34529.got.cif
#   From: 2010.05.17/outbox.cif.g08.bks.cpg/sg2_18_cif.got.tgz:34529.got - 2010.06.03 11:33:40.
