data_PCOD9096481
_publ_section_title
;
Structure prediction by ZEFSAII (Michael W. Deem and Ramdas Pophale) SiO2 
 PCOD9096481
Probable space group: P -1
;
_chemical_formula_sum "Si O2"
_cell_formula_units_Z 10
_cell_length_a 17.099666
_cell_length_b 5.429509
_cell_length_c 8.613567
_cell_angle_alpha 50.923948
_cell_angle_beta 139.721491
_cell_angle_gamma 118.444952
_cell_volume 401.346257
_symmetry_space_group_name_H-M "P -1"
_symmetry_group_IT_number 2
_symmetry_cell_setting 'triclinic'
loop_
_space_group_symop_operation_xyz
x,y,z
-x,-y,-z
loop_
_atom_site_type_symbol
_atom_site_label
_atom_site_fract_x
_atom_site_fract_y
_atom_site_fract_z
Si Si1 0.036479 0.863203 0.441516
Si Si2 0.749367 0.880731 0.493485
Si Si3 0.176811 0.848461 0.166594
Si Si4 0.476673 0.742835 0.222192
Si Si5 0.611943 0.840176 0.827733
O O1 0.000000 0.500000 0.500000
O O2 0.000000 0.000000 0.500000
O O3 0.177598 0.913203 0.603193
O O4 0.959434 0.069512 0.119652
O O5 0.793257 0.519946 0.668090
O O6 0.605506 0.846716 0.311595
O O7 0.793199 0.024484 0.667717
O O8 0.264951 0.039697 0.107721
O O9 0.500000 0.500000 0.500000
O O10 0.405950 0.530569 0.075937
O O11 0.405952 0.035433 0.075936
O O12 0.500000 0.000000 0.500000
#
# Coordination Sequence:
#
# PCOD9096481 Si02
#       5
#     2   2   2   2   2
#     4  12  28  46  58  84 132 172 200 248 310 362
#     4  12  21  38  68  95 116 156 213 259 292 356
#     4  12  21  38  68  95 116 156 213 259 292 356
#     4  10  16  30  54  96 123 138 179 261 316 332
#     4  10  16  30  54  96 123 138 179 261 316 332
#
# _framework density 24.916142000000001
#
# number of rings (size 3 to 8) (size 9 to 14) (size 15 to 20)
#    0.000    0.800    8.000    3.600    0.000    0.000 
#    0.000    0.000    0.000    7.200    0.000    0.000 
#    0.000    0.000    0.000    0.000    0.000    0.000 
#
# Total GULP energy -56049.969427 kJ/mol
# GULP energy per Si atom -5604.996943 kJ/mol
# Density = 2.485943 g / cm^3
# Si number density = 24.916142 Si / 1000 Ang^3
#
#
#
# Elastic Constant Matrix: (Units=GPa)
#
#
# Indices 1 2 3 4 5 6 
#
# 1 222.6471 120.3062 36.4570 21.0855 2.2456 -1.7894
# 2 120.3062 246.9109 30.3381 6.9134 3.8414 -26.2846
# 3 36.4570 30.3381 64.4337 16.4278 16.7758 -1.9741
# 4 21.0855 6.9134 16.4278 41.5833 0.3363 -2.2005
# 5 2.2456 3.8414 16.7758 0.3363 47.7364 11.1535
# 6 -1.7894 -26.2846 -1.9741 -2.2005 11.1535 75.1991
#
#
#
# Elastic Compliance Matrix: (Units=1/GPa)
#
#
# Indices 1 2 3 4 5 6 
#
# 1 0.006676 -0.003079 -0.002069 -0.002126 0.000950 -0.001175
# 2 -0.003079 0.005884 -0.001152 0.001150 -0.000410 0.002048
# 3 -0.002069 -0.001152 0.020941 -0.006921 -0.007351 0.000986
# 4 -0.002126 0.001150 -0.006921 0.027688 0.002088 0.000670
# 5 0.000950 -0.000410 -0.007351 0.002088 0.024410 -0.003873
# 6 -0.001175 0.002048 0.000986 0.000670 -0.003873 0.014606
#
#
# Mechanical properties :
#
#
# Convention : Reuss Voigt Hill
#
# Bulk Modulus (GPa) = 47.84320 100.91049 74.37685
# Shear Modulus (GPa) = 41.74574 56.02978 48.88776
#
# Velocity S-wave (km/s) = 4.09767 4.74723 4.43436
# Velocity P-wave (km/s) = 6.45222 8.40453 7.49224
#
# Compressibility (1/GPa) = 0.02090161
#
# Stress axis : x y z
#
# Youngs Moduli (GPa) = 149.78389 169.95204 47.75220
#
# Poissons Ratio (x) = 0.52330 0.09881
# Poissons Ratio (y) = 0.46120 0.05500
# Poissons Ratio (z) = 0.30993 0.19576
#
# Static dielectric constant tensor:
#      x y z
#    x 1.985070 0.036020 -0.026940 
#    y 0.036020 1.959510 -0.024360 
#    z -0.026940 -0.024360 2.001160 
# 
# From -- ./inp_files/18793.got.cif
#   From: 2010.05.17/outbox.cif.g08.bks.cpg/sg2_10_cif.got.tgz:18793.got - 2010.06.03 11:33:40.
