data_PCOD9096299
_publ_section_title
;
Structure prediction by ZEFSAII (Michael W. Deem and Ramdas Pophale) SiO2 
 PCOD9096299
Probable space group: P -1
;
_chemical_formula_sum "Si O2"
_cell_formula_units_Z 12
_cell_length_a 10.190319
_cell_length_b 9.380371
_cell_length_c 8.892569
_cell_angle_alpha 121.176414
_cell_angle_beta 60.601066
_cell_angle_gamma 79.752019
_cell_volume 516.333917
_symmetry_space_group_name_H-M "P -1"
_symmetry_group_IT_number 2
_symmetry_cell_setting 'triclinic'
loop_
_space_group_symop_operation_xyz
x,y,z
-x,-y,-z
loop_
_atom_site_type_symbol
_atom_site_label
_atom_site_fract_x
_atom_site_fract_y
_atom_site_fract_z
Si Si1 0.614967 0.346410 0.486344
Si Si2 0.816501 0.097961 0.971824
Si Si3 0.410004 0.304325 0.174221
Si Si4 0.098959 0.295201 0.430277
Si Si5 0.481196 0.701864 0.191431
Si Si6 0.067291 0.108963 0.624744
O O1 0.500000 0.500000 0.500000
O O2 0.767974 0.146151 0.200813
O O3 0.687758 0.457615 0.599830
O O4 0.482792 0.335927 0.672200
O O5 0.622228 0.202955 0.045884
O O6 0.936771 0.173468 0.878859
O O7 0.913381 0.864938 0.746492
O O8 0.311601 0.222555 0.276025
O O9 0.400387 0.275692 0.986030
O O10 0.043125 0.284929 0.626937
O O11 0.000000 0.500000 0.500000
O O12 0.280103 0.919981 0.427459
O O13 0.500000 0.500000 0.000000
O O14 0.000000 0.000000 0.500000
#
# Coordination Sequence:
#
# PCOD9096299 Si02
#       6
#     2   2   2   2   2   2
#     4   9  21  37  62  93 118 156 205 250 301 360
#     4  10  21  41  64  87 125 156 205 255 296 362
#     4  10  20  39  65  88 118 161 204 249 302 358
#     4  11  24  37  61  92 126 158 206 250 302 352
#     4  10  20  35  65  89 117 158 207 242 301 361
#     4  10  21  38  59  91 121 158 207 247 293 363
#
# _framework density 23.240776
#
# number of rings (size 3 to 8) (size 9 to 14) (size 15 to 20)
#    0.000    2.000    3.333    0.500    9.333    0.667 
#    0.000    1.667    0.000    0.000    0.000    0.000 
#    0.000    0.000    0.000    0.000    0.000    0.000 
#
# Total GULP energy -66856.114739 kJ/mol
# GULP energy per Si atom -5571.342895 kJ/mol
# Density = 2.318788 g / cm^3
# Si number density = 23.240776 Si / 1000 Ang^3
#
#
#
# Elastic Constant Matrix: (Units=GPa)
#
#
# Indices 1 2 3 4 5 6 
#
# 1 27.8895 24.8148 31.4486 -10.8003 -12.1429 -8.5605
# 2 24.8148 137.5390 55.8085 -20.6475 -6.1576 -9.5984
# 3 31.4486 55.8085 133.8501 -33.3002 13.8221 -3.5316
# 4 -10.8003 -20.6475 -33.3002 61.2095 -9.7438 -8.4412
# 5 -12.1429 -6.1576 13.8221 -9.7438 36.6425 -3.4589
# 6 -8.5605 -9.5984 -3.5316 -8.4412 -3.4589 33.2644
#
#
#
# Elastic Compliance Matrix: (Units=1/GPa)
#
#
# Indices 1 2 3 4 5 6 
#
# 1 0.102399 -0.001896 -0.023273 0.017283 0.050099 0.032929
# 2 -0.001896 0.009568 -0.003296 0.001954 0.003000 0.002731
# 3 -0.023273 -0.003296 0.015665 0.000005 -0.014817 -0.006817
# 4 0.017283 0.001954 0.000005 0.023938 0.013600 0.012501
# 5 0.050099 0.003000 -0.014817 0.013600 0.055625 0.021420
# 6 0.032929 0.002731 -0.006817 0.012501 0.021420 0.044000
#
#
# Mechanical properties :
#
#
# Convention : Reuss Voigt Hill
#
# Bulk Modulus (GPa) = 14.14372 58.15804 36.15088
# Shear Modulus (GPa) = 15.07423 38.70373 26.88898
#
# Velocity S-wave (km/s) = 2.54955 4.08528 3.40512
# Velocity P-wave (km/s) = 3.84264 6.87976 5.57212
#
# Compressibility (1/GPa) = 0.07070275
#
# Stress axis : x y z
#
# Youngs Moduli (GPa) = 9.76573 104.51226 63.83714
#
# Poissons Ratio (x) = 0.19813 1.48570
# Poissons Ratio (y) = 0.01851 0.21038
# Poissons Ratio (z) = 0.22728 0.34443
#
# Static dielectric constant tensor:
#      x y z
#    x 1.952230 -0.048440 -0.075610 
#    y -0.048440 1.975360 0.012560 
#    z -0.075610 0.012560 2.029090 
# 
# From -- ./inp_files/145817.got.cif
#   From: 2010.05.17/outbox.cif.g08.bks.cpg/sg2_73_cif.got.tgz:145817.got - 2010.06.03 11:33:40.
