data_PCOD9096376
_publ_section_title
;
Structure prediction by ZEFSAII (Michael W. Deem and Ramdas Pophale) SiO2 
 PCOD9096376
Probable space group: P -1
;
_chemical_formula_sum "Si O2"
_cell_formula_units_Z 15
_cell_length_a 12.072640
_cell_length_b 7.595810
_cell_length_c 12.334266
_cell_angle_alpha 115.818745
_cell_angle_beta 145.411638
_cell_angle_gamma 78.264557
_cell_volume 550.701638
_symmetry_space_group_name_H-M "P -1"
_symmetry_group_IT_number 2
_symmetry_cell_setting 'triclinic'
loop_
_space_group_symop_operation_xyz
x,y,z
-x,-y,-z
loop_
_atom_site_type_symbol
_atom_site_label
_atom_site_fract_x
_atom_site_fract_y
_atom_site_fract_z
Si Si1 0.500000 0.000000 0.500000
Si Si2 0.229021 0.094584 0.121968
Si Si3 0.087620 0.341673 0.221019
Si Si4 0.606244 0.130138 0.284401
Si Si5 0.885026 0.888593 0.492748
Si Si6 0.824725 0.586105 0.173545
Si Si7 0.436427 0.383822 0.674567
Si Si8 0.728115 0.232484 0.181112
O O1 0.327923 0.061167 0.306823
O O2 0.525354 0.203800 0.654765
O O3 0.130047 0.275893 0.115919
O O4 0.422781 0.159693 0.216164
O O5 0.057037 0.876339 0.904573
O O6 0.303753 0.429114 0.480428
O O7 0.974247 0.510629 0.194350
O O8 0.701569 0.273406 0.297629
O O9 0.787460 0.074753 0.479637
O O10 0.486295 0.911607 0.073552
O O11 0.876182 0.799621 0.338528
O O12 0.726701 0.715534 0.390544
O O13 0.105536 0.891341 0.716255
O O14 0.794477 0.423489 0.205405
O O15 0.621581 0.549925 0.928651
#
# Coordination Sequence:
#
# PCOD9096376 Si02
#       8
#     1   2   2   2   2   2   2   2
#     4  10  16  30  54  80 114 140 188 240 286 314
#     4  10  18  34  54  83 116 149 186 243 287 329
#     4  10  20  33  54  86 116 146 192 240 286 335
#     4  11  22  40  56  85 123 147 196 234 289 349
#     4  12  22  36  59  84 122 150 190 239 287 347
#     4  12  22  37  56  91 120 147 193 236 291 345
#     4  11  20  31  55  85 116 148 182 245 292 326
#     4  11  23  37  57  84 117 161 188 232 289 345
#
# _framework density 27.237978999999999
#
# number of rings (size 3 to 8) (size 9 to 14) (size 15 to 20)
#    0.000    1.067    6.667    1.200    0.000    0.000 
#    0.000    0.000    0.000    0.800    0.000    7.467 
#    0.000    0.000    0.000    0.000    0.000    0.000 
#
# Total GULP energy -83706.380220 kJ/mol
# GULP energy per Si atom -5580.425348 kJ/mol
# Density = 2.717598 g / cm^3
# Si number density = 27.237979 Si / 1000 Ang^3
#
#
#
# Elastic Constant Matrix: (Units=GPa)
#
#
# Indices 1 2 3 4 5 6 
#
# 1 123.8813 46.4171 18.6936 6.7221 21.2038 -32.1388
# 2 46.4171 102.8799 42.8830 -4.7449 14.2359 -6.6301
# 3 18.6936 42.8830 128.6174 4.4563 1.0218 -7.7587
# 4 6.7221 -4.7449 4.4563 53.2447 -16.1120 -5.3395
# 5 21.2038 14.2359 1.0218 -16.1120 39.9646 -3.7732
# 6 -32.1388 -6.6301 -7.7587 -5.3395 -3.7732 38.5861
#
#
#
# Elastic Compliance Matrix: (Units=1/GPa)
#
#
# Indices 1 2 3 4 5 6 
#
# 1 0.013471 -0.004996 0.000427 -0.002946 -0.005671 0.009485
# 2 -0.004996 0.013825 -0.004073 0.001381 -0.001858 -0.002595
# 3 0.000427 -0.004073 0.009181 -0.000793 0.000809 0.001471
# 4 -0.002946 0.001381 -0.000793 0.022667 0.010398 0.001777
# 5 -0.005671 -0.001858 0.000809 0.010398 0.032843 -0.000230
# 6 0.009485 -0.002595 0.001471 0.001777 -0.000230 0.033890
#
#
# Mechanical properties :
#
#
# Convention : Reuss Voigt Hill
#
# Bulk Modulus (GPa) = 52.10065 63.48511 57.79288
# Shear Modulus (GPa) = 33.43173 42.85140 38.14157
#
# Velocity S-wave (km/s) = 3.50722 3.97069 3.74613
# Velocity P-wave (km/s) = 5.96408 6.66183 6.32259
#
# Compressibility (1/GPa) = 0.01919362
#
# Stress axis : x y z
#
# Youngs Moduli (GPa) = 74.23346 72.33047 108.92323
#
# Poissons Ratio (x) = 0.36134 -0.04652
# Poissons Ratio (y) = 0.37085 0.44366
# Poissons Ratio (z) = -0.03170 0.29461
#
# Static dielectric constant tensor:
#      x y z
#    x 2.183510 -0.009650 0.006810 
#    y -0.009650 2.222770 0.099660 
#    z 0.006810 0.099660 2.087540 
# 
# From -- ./inp_files/529005.got.cif
#   From: 2010.05.17/outbox.cif.g08.bks.cpg/sg2_265_cif.got.tgz:529005.got - 2010.06.03 11:33:40.
