data_PCOD9096985
_publ_section_title
;
Structure prediction by ZEFSAII (Michael W. Deem and Ramdas Pophale) SiO2 
 PCOD9096985
Probable space group: P -1
;
_chemical_formula_sum "Si O2"
_cell_formula_units_Z 16
_cell_length_a 8.828788
_cell_length_b 14.432627
_cell_length_c 20.266652
_cell_angle_alpha 19.226563
_cell_angle_beta 53.940096
_cell_angle_gamma 52.615917
_cell_volume 674.555754
_symmetry_space_group_name_H-M "P -1"
_symmetry_group_IT_number 2
_symmetry_cell_setting 'triclinic'
loop_
_space_group_symop_operation_xyz
x,y,z
-x,-y,-z
loop_
_atom_site_type_symbol
_atom_site_label
_atom_site_fract_x
_atom_site_fract_y
_atom_site_fract_z
Si Si1 0.715979 0.407622 0.930006
Si Si2 0.488697 0.117540 0.672569
Si Si3 0.778639 0.982556 0.574924
Si Si4 0.485209 0.340252 0.322464
Si Si5 0.894124 0.658267 0.523555
Si Si6 0.797288 0.288701 0.681665
Si Si7 0.069230 0.244321 0.861522
Si Si8 0.501505 0.981156 0.914313
O O1 0.742716 0.656556 0.805676
O O2 0.587723 0.571589 0.791764
O O3 0.930287 0.282918 0.933386
O O4 0.617064 0.139324 0.151410
O O5 0.333334 0.413479 0.511640
O O6 0.544826 0.050498 0.779757
O O7 0.662318 0.131331 0.568542
O O8 0.678659 0.133748 0.432453
O O9 0.000000 0.000000 0.500000
O O10 0.318103 0.209698 0.488613
O O11 0.493404 0.648441 0.144539
O O12 0.872267 0.386568 0.665543
O O13 0.022568 0.820781 0.337666
O O14 0.009324 0.538808 0.638750
O O15 0.659992 0.065810 0.863387
O O16 0.294565 0.164500 0.860390
O O17 0.000000 0.000000 0.000000
#
# Coordination Sequence:
#
# PCOD9096985 Si02
#       8
#     2   2   2   2   2   2   2   2
#     4  10  23  42  71  88 126 174 214 252 314 381
#     4  11  22  42  65  93 127 167 215 255 313 377
#     4  12  27  46  63  93 125 168 223 269 305 364
#     4  10  22  45  64  92 125 170 212 258 315 384
#     4  10  20  36  58  96 130 164 204 256 318 388
#     4  11  22  36  60  99 139 162 203 261 329 377
#     4  11  18  38  67  98 128 163 210 253 323 391
#     4  11  23  39  67  99 133 165 204 265 326 379
#
# _framework density 23.719315000000002
#
# number of rings (size 3 to 8) (size 9 to 14) (size 15 to 20)
#    0.000    1.250    6.250    1.125    1.750    1.500 
#    6.750    2.500    0.000    0.000    0.000    0.000 
#    0.000    0.000    0.000    0.000    0.000    0.000 
#
# Total GULP energy -89502.084887 kJ/mol
# GULP energy per Si atom -5593.880305 kJ/mol
# Density = 2.366533 g / cm^3
# Si number density = 23.719315 Si / 1000 Ang^3
#
#
#
# Elastic Constant Matrix: (Units=GPa)
#
#
# Indices 1 2 3 4 5 6 
#
# 1 98.6048 29.9824 33.3431 10.8031 -18.2487 -28.3567
# 2 29.9824 82.9721 21.6610 13.7847 -7.5415 -20.6211
# 3 33.3431 21.6610 63.4964 9.0949 2.5014 -4.8037
# 4 10.8031 13.7847 9.0949 40.6989 -1.0244 -4.9411
# 5 -18.2487 -7.5415 2.5014 -1.0244 35.6483 5.5803
# 6 -28.3567 -20.6211 -4.8037 -4.9411 5.5803 33.7537
#
#
#
# Elastic Compliance Matrix: (Units=1/GPa)
#
#
# Indices 1 2 3 4 5 6 
#
# 1 0.018405 -0.000346 -0.008757 -0.001090 0.007971 0.012527
# 2 -0.000346 0.016054 -0.004290 -0.003354 0.002163 0.008058
# 3 -0.008757 -0.004290 0.021869 -0.002009 -0.006018 -0.006165
# 4 -0.001090 -0.003354 -0.002009 0.026519 -0.000476 0.000710
# 5 0.007971 0.002163 -0.006018 -0.000476 0.032735 0.001679
# 6 0.012527 0.008058 -0.006165 0.000710 0.001679 0.044023
#
#
# Mechanical properties :
#
#
# Convention : Reuss Voigt Hill
#
# Bulk Modulus (GPa) = 33.84957 46.11626 39.98292
# Shear Modulus (GPa) = 25.47926 32.69264 29.08595
#
# Velocity S-wave (km/s) = 3.28105 3.71659 3.50559
# Velocity P-wave (km/s) = 5.35309 6.15647 5.76878
#
# Compressibility (1/GPa) = 0.02954247
#
# Stress axis : x y z
#
# Youngs Moduli (GPa) = 54.33338 62.29110 45.72599
#
# Poissons Ratio (x) = 0.02153 0.40042
# Poissons Ratio (y) = 0.01878 0.19617
# Poissons Ratio (z) = 0.47580 0.26724
#
# Static dielectric constant tensor:
#      x y z
#    x 1.882300 0.026820 0.023970 
#    y 0.026820 1.936630 0.003610 
#    z 0.023970 0.003610 1.905410 
# 
# From -- ./inp_files/379238.got.cif
#   From: 2010.05.17/outbox.cif.g08.bks.cpg/sg2_190_cif.got.tgz:379238.got - 2010.06.03 11:33:40.
