data_PCOD9096819
_publ_section_title
;
Structure prediction by ZEFSAII (Michael W. Deem and Ramdas Pophale) SiO2 
 PCOD9096819
Probable space group: P -1
;
_chemical_formula_sum "Si O2"
_cell_formula_units_Z 16
_cell_length_a 10.287769
_cell_length_b 12.516117
_cell_length_c 14.321053
_cell_angle_alpha 47.005288
_cell_angle_beta 38.988011
_cell_angle_gamma 66.283570
_cell_volume 815.172860
_symmetry_space_group_name_H-M "P -1"
_symmetry_group_IT_number 2
_symmetry_cell_setting 'triclinic'
loop_
_space_group_symop_operation_xyz
x,y,z
-x,-y,-z
loop_
_atom_site_type_symbol
_atom_site_label
_atom_site_fract_x
_atom_site_fract_y
_atom_site_fract_z
Si Si1 0.263393 0.970216 0.689430
Si Si2 0.127537 0.198557 0.767509
Si Si3 0.300806 0.018085 0.918826
Si Si4 0.107191 0.629021 0.977857
Si Si5 0.225592 0.828214 0.436253
Si Si6 0.727640 0.496311 0.414826
Si Si7 0.842008 0.958515 0.814080
Si Si8 0.895871 0.679510 0.871653
O O1 0.242214 0.101624 0.694493
O O2 0.079867 0.972804 0.714164
O O3 0.500000 0.000000 0.500000
O O4 0.214886 0.796645 0.856844
O O5 0.208790 0.379343 0.612598
O O6 0.191782 0.145928 0.864482
O O7 0.874185 0.134432 0.926225
O O8 0.545186 0.062777 0.721626
O O9 0.296286 0.020863 0.031588
O O10 0.040170 0.657579 0.892676
O O11 0.222082 0.493083 0.990898
O O12 0.900442 0.554981 0.200867
O O13 0.272649 0.675191 0.461530
O O14 0.147230 0.919150 0.344659
O O15 0.051809 0.771965 0.648562
O O16 0.500000 0.500000 0.500000
O O17 0.758702 0.789092 0.919166
#
# Coordination Sequence:
#
# PCOD9096819 Si02
#       8
#     2   2   2   2   2   2   2   2
#     4  10  22  37  61  83 116 155 194 242 289 347
#     4  10  20  36  58  85 114 148 196 244 292 334
#     4  10  20  36  58  83 117 151 193 246 286 338
#     4   9  19  35  54  86 114 143 194 246 282 330
#     4  11  22  35  59  87 117 158 195 236 294 346
#     4  11  21  35  59  88 117 150 193 246 287 339
#     4  10  21  38  55  85 121 152 195 242 285 349
#     4   9  19  34  58  81 117 148 187 243 285 335
#
# _framework density 19.627737
#
# number of rings (size 3 to 8) (size 9 to 14) (size 15 to 20)
#    0.000    2.000    1.250    3.750    3.500    1.000 
#    0.000    2.500    2.750    1.500    0.000    0.000 
#    0.000    0.000    0.000    0.000    0.000    0.000 
#
# Total GULP energy -89171.745362 kJ/mol
# GULP energy per Si atom -5573.234085 kJ/mol
# Density = 1.958306 g / cm^3
# Si number density = 19.627737 Si / 1000 Ang^3
#
#
#
# Elastic Constant Matrix: (Units=GPa)
#
#
# Indices 1 2 3 4 5 6 
#
# 1 49.6965 26.9695 27.1177 -9.1202 4.5138 1.3164
# 2 26.9695 88.8174 20.6160 -28.9402 10.5131 21.0247
# 3 27.1177 20.6160 71.2584 -9.4175 6.7893 1.0197
# 4 -9.1202 -28.9402 -9.4175 30.4317 0.5672 1.1636
# 5 4.5138 10.5131 6.7893 0.5672 35.6311 -3.5888
# 6 1.3164 21.0247 1.0197 1.1636 -3.5888 21.7013
#
#
#
# Elastic Compliance Matrix: (Units=1/GPa)
#
#
# Indices 1 2 3 4 5 6 
#
# 1 0.029807 -0.011287 -0.009122 -0.005059 0.002403 0.010224
# 2 -0.011287 0.035827 0.000042 0.032406 -0.013492 -0.037996
# 3 -0.009122 0.000042 0.018135 0.002999 -0.002451 -0.000906
# 4 -0.005059 0.032406 0.002999 0.064772 -0.014256 -0.037060
# 5 0.002403 -0.013492 -0.002451 -0.014256 0.034399 0.019494
# 6 0.010224 -0.037996 -0.000906 -0.037060 0.019494 0.087524
#
#
# Mechanical properties :
#
#
# Convention : Reuss Voigt Hill
#
# Bulk Modulus (GPa) = 23.23606 39.90874 31.57240
# Shear Modulus (GPa) = 15.35893 26.55742 20.95817
#
# Velocity S-wave (km/s) = 2.80038 3.68238 3.27124
# Velocity P-wave (km/s) = 4.72443 6.20136 5.51258
#
# Compressibility (1/GPa) = 0.04303656
#
# Stress axis : x y z
#
# Youngs Moduli (GPa) = 33.54897 27.91210 55.14069
#
# Poissons Ratio (x) = 0.31503 0.50298
# Poissons Ratio (y) = 0.37866 -0.00231
# Poissons Ratio (z) = 0.30602 -0.00117
#
# Static dielectric constant tensor:
#      x y z
#    x 1.692450 0.045850 -0.007310 
#    y 0.045850 1.773400 0.006500 
#    z -0.007310 0.006500 1.711750 
# 
# From -- ./inp_files/519524.got.cif
#   From: 2010.05.17/outbox.cif.g08.bks.cpg/sg2_260_cif.got.tgz:519524.got - 2010.06.03 11:33:40.
