data_PCOD9096659
_publ_section_title
;
Structure prediction by ZEFSAII (Michael W. Deem and Ramdas Pophale) SiO2 
 PCOD9096659
Probable space group: P -1
;
_chemical_formula_sum "Si O2"
_cell_formula_units_Z 16
_cell_length_a 8.811332
_cell_length_b 6.005149
_cell_length_c 20.946781
_cell_angle_alpha 108.440364
_cell_angle_beta 65.189439
_cell_angle_gamma 136.284788
_cell_volume 695.114258
_symmetry_space_group_name_H-M "P -1"
_symmetry_group_IT_number 2
_symmetry_cell_setting 'triclinic'
loop_
_space_group_symop_operation_xyz
x,y,z
-x,-y,-z
loop_
_atom_site_type_symbol
_atom_site_label
_atom_site_fract_x
_atom_site_fract_y
_atom_site_fract_z
Si Si1 0.744701 0.032702 0.668388
Si Si2 0.424137 0.681133 0.954870
Si Si3 0.072789 0.651281 0.208144
Si Si4 0.157753 0.686784 0.581630
Si Si5 0.344994 0.011310 0.707180
Si Si6 0.160061 0.307031 0.452997
Si Si7 0.221520 0.324571 0.834638
Si Si8 0.816054 0.679337 0.915247
O O1 0.795040 0.066041 0.737644
O O2 0.974157 0.353507 0.623247
O O3 0.553548 0.044104 0.691572
O O4 0.689641 0.734014 0.616716
O O5 0.361019 0.618355 0.886024
O O6 0.625865 0.686645 0.930084
O O7 0.213224 0.400673 0.012185
O O8 0.500000 0.000000 0.000000
O O9 0.223675 0.600081 0.141814
O O10 0.880792 0.322205 0.251535
O O11 0.943385 0.682049 0.181671
O O12 0.308522 0.961782 0.633015
O O13 0.275142 0.616503 0.505321
O O14 0.008115 0.722609 0.569393
O O15 0.362263 0.284044 0.760486
O O16 0.000000 0.000000 0.500000
O O17 0.061377 0.010831 0.880071
#
# Coordination Sequence:
#
# PCOD9096659 Si02
#       8
#     2   2   2   2   2   2   2   2
#     4  10  20  36  57  83 114 151 191 236 284 336
#     4  11  24  40  62  89 116 150 194 241 293 351
#     4  10  22  38  59  85 115 151 194 237 285 342
#     4   9  19  37  56  82 115 151 190 233 285 338
#     4  10  22  37  58  85 115 151 195 238 282 342
#     4   9  18  35  58  81 116 152 185 235 287 334
#     4  11  23  40  61  85 117 156 193 239 294 347
#     4  10  23  41  60  85 118 153 191 240 290 349
#
# _framework density 23.017800999999999
#
# number of rings (size 3 to 8) (size 9 to 14) (size 15 to 20)
#    0.000    2.000    0.000    2.625    0.000    9.500 
#    0.000    5.625    0.000    0.000    0.000    0.000 
#    0.000    0.000    0.000    0.000    0.000    0.000 
#
# Total GULP energy -89481.452770 kJ/mol
# GULP energy per Si atom -5592.590798 kJ/mol
# Density = 2.296541 g / cm^3
# Si number density = 23.017801 Si / 1000 Ang^3
#
#
#
# Elastic Constant Matrix: (Units=GPa)
#
#
# Indices 1 2 3 4 5 6 
#
# 1 101.3138 15.1214 97.3298 38.1446 4.6891 -17.8711
# 2 15.1214 76.3439 58.6812 19.9682 4.5537 -4.2875
# 3 97.3298 58.6812 229.2995 47.2729 1.0790 -5.0686
# 4 38.1446 19.9682 47.2729 39.0297 -3.5861 -1.8480
# 5 4.6891 4.5537 1.0790 -3.5861 55.9791 3.4213
# 6 -17.8711 -4.2875 -5.0686 -1.8480 3.4213 24.4015
#
#
#
# Elastic Compliance Matrix: (Units=1/GPa)
#
#
# Indices 1 2 3 4 5 6 
#
# 1 0.030490 0.009038 -0.010348 -0.021425 -0.005743 0.020952
# 2 0.009038 0.019829 -0.006414 -0.011130 -0.003474 0.008415
# 3 -0.010348 -0.006414 0.010009 0.001105 0.001681 -0.006778
# 4 -0.021425 -0.011130 0.001105 0.050856 0.006824 -0.014523
# 5 -0.005743 -0.003474 0.001681 0.006824 0.019440 -0.006676
# 6 0.020952 0.008415 -0.006778 -0.014523 -0.006676 0.056232
#
#
# Mechanical properties :
#
#
# Convention : Reuss Voigt Hill
#
# Bulk Modulus (GPa) = 22.28118 83.24689 52.76403
# Shear Modulus (GPa) = 23.01322 39.60373 31.30848
#
# Velocity S-wave (km/s) = 3.16539 4.15247 3.69207
# Velocity P-wave (km/s) = 4.80215 7.69646 6.41468
#
# Compressibility (1/GPa) = 0.04488093
#
# Stress axis : x y z
#
# Youngs Moduli (GPa) = 32.79729 50.43021 99.90728
#
# Poissons Ratio (x) = -0.45577 1.03382
# Poissons Ratio (y) = -0.29641 0.64079
# Poissons Ratio (z) = 0.33938 0.32345
#
# Static dielectric constant tensor:
#      x y z
#    x 1.778300 0.010470 0.000760 
#    y 0.010470 1.893070 -0.005110 
#    z 0.000760 -0.005110 1.884750 
# 
# From -- ./inp_files/13673.got.cif
#   From: 2010.05.17/outbox.cif.g08.bks.cpg/sg2_7_cif.got.tgz:13673.got - 2010.06.03 11:33:40.
