data_PCOD9096161
_publ_section_title
;
Structure prediction by ZEFSAII (Michael W. Deem and Ramdas Pophale) SiO2 
 PCOD9096161
Probable space group: P -1
;
_chemical_formula_sum "Si O2"
_cell_formula_units_Z 14
_cell_length_a 7.969426
_cell_length_b 7.883582
_cell_length_c 16.162554
_cell_angle_alpha 112.634896
_cell_angle_beta 67.712964
_cell_angle_gamma 144.905501
_cell_volume 534.867233
_symmetry_space_group_name_H-M "P -1"
_symmetry_group_IT_number 2
_symmetry_cell_setting 'triclinic'
loop_
_space_group_symop_operation_xyz
x,y,z
-x,-y,-z
loop_
_atom_site_type_symbol
_atom_site_label
_atom_site_fract_x
_atom_site_fract_y
_atom_site_fract_z
Si Si1 0.602676 0.335759 0.500028
Si Si2 0.949837 0.692444 0.220995
Si Si3 0.237395 0.758601 0.391055
Si Si4 0.398265 0.318248 0.328284
Si Si5 0.576513 0.129599 0.100995
Si Si6 0.844916 0.991048 0.098673
Si Si7 0.670617 0.498899 0.785034
O O1 0.578921 0.209079 0.568620
O O2 0.608936 0.550231 0.568624
O O3 0.908346 0.512874 0.437911
O O4 0.361771 0.063564 0.430872
O O5 0.695317 0.432016 0.286912
O O6 0.753151 0.463362 0.135071
O O7 0.087443 0.976832 0.300149
O O8 0.270323 0.887650 0.162943
O O9 0.264388 0.659034 0.284996
O O10 0.453137 0.495824 0.270744
O O11 0.791516 0.152869 0.106274
O O12 0.500000 0.000000 0.000000
O O13 0.538068 0.667975 0.127845
O O14 0.040577 0.163362 0.176744
O O15 0.000000 0.000000 0.000000
#
# Coordination Sequence:
#
# PCOD9096161 Si02
#       7
#     2   2   2   2   2   2   2
#     4   9  16  29  52  88 127 158 204 237 310 351
#     4  10  22  38  62  88 121 162 205 250 310 364
#     4   9  17  30  52  83 126 169 190 249 298 384
#     4  10  20  35  62  98 129 163 199 265 301 374
#     4  11  25  44  66  86 117 163 219 261 310 367
#     4  12  27  43  65  90 124 164 208 265 317 373
#     4  11  23  39  60  92 132 161 208 250 334 364
#
# _framework density 26.174717000000001
#
# number of rings (size 3 to 8) (size 9 to 14) (size 15 to 20)
#    0.000    1.714    0.000    4.286    6.000    4.571 
#    0.000    0.000    0.000    0.000    0.000   70.000 
#    0.000    0.000    0.000    0.000    0.000    0.000 
#
# Total GULP energy -78112.479967 kJ/mol
# GULP energy per Si atom -5579.462855 kJ/mol
# Density = 2.611514 g / cm^3
# Si number density = 26.174717 Si / 1000 Ang^3
#
#
#
# Elastic Constant Matrix: (Units=GPa)
#
#
# Indices 1 2 3 4 5 6 
#
# 1 55.3293 -0.6511 35.8819 11.0559 -4.0166 -0.4629
# 2 -0.6511 141.2029 35.5669 32.2554 -3.1564 11.9033
# 3 35.8819 35.5669 156.6936 35.9234 -6.3204 8.4032
# 4 11.0559 32.2554 35.9234 47.4101 -1.8387 -3.4111
# 5 -4.0166 -3.1564 -6.3204 -1.8387 38.7851 -1.0836
# 6 -0.4629 11.9033 8.4032 -3.4111 -1.0836 27.2634
#
#
#
# Elastic Compliance Matrix: (Units=1/GPa)
#
#
# Indices 1 2 3 4 5 6 
#
# 1 0.021856 0.001880 -0.004811 -0.002615 0.001530 0.000767
# 2 0.001880 0.009129 -0.000788 -0.006361 0.000382 -0.004492
# 3 -0.004811 -0.000788 0.009107 -0.005451 0.000574 -0.003204
# 4 -0.002615 -0.006361 -0.005451 0.030755 0.000012 0.008261
# 5 0.001530 0.000382 0.000574 0.000012 0.026087 0.000721
# 6 0.000767 -0.004492 -0.003204 0.008261 0.000721 0.040703
#
#
# Mechanical properties :
#
#
# Convention : Reuss Voigt Hill
#
# Bulk Modulus (GPa) = 30.62511 54.98014 42.80263
# Shear Modulus (GPa) = 32.05926 41.52026 36.78976
#
# Velocity S-wave (km/s) = 3.50354 3.98713 3.75313
# Velocity P-wave (km/s) = 5.30019 6.49976 5.93038
#
# Compressibility (1/GPa) = 0.03265294
#
# Stress axis : x y z
#
# Youngs Moduli (GPa) = 45.75390 109.53647 109.80428
#
# Poissons Ratio (x) = -0.20589 0.52831
# Poissons Ratio (y) = -0.08600 0.08654
# Poissons Ratio (z) = 0.22014 0.08633
#
# Static dielectric constant tensor:
#      x y z
#    x 2.410620 0.010010 0.022650 
#    y 0.010010 1.998930 0.019290 
#    z 0.022650 0.019290 2.066560 
# 
# From -- ./inp_files/557445.got.cif
#   From: 2010.05.17/outbox.cif.g08.bks.cpg/sg2_279_cif.got.tgz:557445.got - 2010.06.03 11:33:40.
