data_PCOD9096641
_publ_section_title
;
Structure prediction by ZEFSAII (Michael W. Deem and Ramdas Pophale) SiO2 
 PCOD9096641
Probable space group: P -1
;
_chemical_formula_sum "Si O2"
_cell_formula_units_Z 16
_cell_length_a 16.908217
_cell_length_b 15.061698
_cell_length_c 14.237101
_cell_angle_alpha 19.620552
_cell_angle_beta 43.787754
_cell_angle_gamma 53.169017
_cell_volume 790.258838
_symmetry_space_group_name_H-M "P -1"
_symmetry_group_IT_number 2
_symmetry_cell_setting 'triclinic'
loop_
_space_group_symop_operation_xyz
x,y,z
-x,-y,-z
loop_
_atom_site_type_symbol
_atom_site_label
_atom_site_fract_x
_atom_site_fract_y
_atom_site_fract_z
Si Si1 0.479660 0.445047 0.796275
Si Si2 0.727360 0.629882 0.487321
Si Si3 0.033282 0.438690 0.377676
Si Si4 0.629606 0.011397 0.411547
Si Si5 0.137374 0.903734 0.965825
Si Si6 0.707871 0.562423 0.896636
Si Si7 0.205171 0.816047 0.244714
Si Si8 0.448316 0.999742 0.941468
O O1 0.580714 0.551454 0.688545
O O2 0.513230 0.692739 0.444127
O O3 0.345262 0.379889 0.017091
O O4 0.500358 0.183007 0.990112
O O5 0.751641 0.362503 0.691876
O O6 0.808002 0.772301 0.366930
O O7 0.774887 0.878260 0.120916
O O8 0.074169 0.756454 0.069228
O O9 0.149823 0.363050 0.321464
O O10 0.958349 0.251073 0.716626
O O11 0.937429 0.363654 0.449185
O O12 0.650196 0.727614 0.708695
O O13 0.500000 0.000000 0.500000
O O14 0.733127 0.143856 0.112060
O O15 0.657603 0.227640 0.258128
O O16 0.300597 0.863183 0.200025
O O17 0.500000 0.000000 0.000000
#
# Coordination Sequence:
#
# PCOD9096641 Si02
#       8
#     2   2   2   2   2   2   2   2
#     4  10  20  36  57  82 113 140 173 222 281 337
#     4   9  18  31  50  74 102 139 177 221 273 308
#     4   9  20  35  52  76 108 151 193 226 268 313
#     4  11  23  36  52  76 107 148 196 238 272 304
#     4   9  19  33  52  74 106 145 192 236 259 297
#     4  11  23  36  52  75 109 149 183 222 275 331
#     4   9  19  33  52  78 106 136 173 222 271 327
#     4  10  20  37  63  89 108 132 172 226 284 340
#
# _framework density 20.246531000000001
#
# number of rings (size 3 to 8) (size 9 to 14) (size 15 to 20)
#    0.000    2.250    0.000    2.250    0.000   14.000 
#    0.000    0.000    0.000    1.500    0.000    0.000 
#    0.000    0.000    0.000    0.000    0.000    0.000 
#
# Total GULP energy -89168.219371 kJ/mol
# GULP energy per Si atom -5573.013711 kJ/mol
# Density = 2.020045 g / cm^3
# Si number density = 20.246531 Si / 1000 Ang^3
#
#
#
# Elastic Constant Matrix: (Units=GPa)
#
#
# Indices 1 2 3 4 5 6 
#
# 1 112.8960 18.3014 15.2429 19.4811 -29.4298 -10.5834
# 2 18.3014 56.3184 -1.3932 20.1081 -14.4042 -22.1726
# 3 15.2429 -1.3932 32.2238 5.7439 -8.3915 2.2364
# 4 19.4811 20.1081 5.7439 31.5330 -12.6876 -10.8113
# 5 -29.4298 -14.4042 -8.3915 -12.6876 30.9630 -0.5280
# 6 -10.5834 -22.1726 2.2364 -10.8113 -0.5280 26.0620
#
#
#
# Elastic Compliance Matrix: (Units=1/GPa)
#
#
# Indices 1 2 3 4 5 6 
#
# 1 0.012965 0.001994 -0.003145 -0.001604 0.011857 0.006806
# 2 0.001994 0.035149 0.004497 -0.008565 0.016418 0.027106
# 3 -0.003145 0.004497 0.035592 -0.005825 0.006314 -0.002794
# 4 -0.001604 -0.008565 -0.005825 0.049079 0.013248 0.013189
# 5 0.011857 0.016418 0.006314 0.013248 0.058768 0.024927
# 6 0.006806 0.027106 -0.002794 0.013189 0.024927 0.070411
#
#
# Mechanical properties :
#
#
# Convention : Reuss Voigt Hill
#
# Bulk Modulus (GPa) = 11.06235 29.52672 20.29453
# Shear Modulus (GPa) = 17.51900 28.99740 23.25820
#
# Velocity S-wave (km/s) = 2.94476 3.78857 3.39300
# Velocity P-wave (km/s) = 4.12769 5.80973 5.03938
#
# Compressibility (1/GPa) = 0.09039673
#
# Stress axis : x y z
#
# Youngs Moduli (GPa) = 77.13221 28.45062 28.09641
#
# Poissons Ratio (x) = -0.05672 0.08837
# Poissons Ratio (y) = -0.15378 -0.12636
# Poissons Ratio (z) = 0.24261 -0.12795
#
# Static dielectric constant tensor:
#      x y z
#    x 1.795630 -0.053520 -0.009280 
#    y -0.053520 1.722700 0.000540 
#    z -0.009280 0.000540 1.792070 
# 
# From -- ./inp_files/118268.got.cif
#   From: 2010.05.17/outbox.cif.g08.bks.cpg/sg2_60_cif.got.tgz:118268.got - 2010.06.03 11:33:40.
