data_PCOD9096239
_publ_section_title
;
Structure prediction by ZEFSAII (Michael W. Deem and Ramdas Pophale) SiO2 
 PCOD9096239
Probable space group: P -1
;
_chemical_formula_sum "Si O2"
_cell_formula_units_Z 16
_cell_length_a 5.466045
_cell_length_b 10.770996
_cell_length_c 17.472601
_cell_angle_alpha 52.949903
_cell_angle_beta 91.351744
_cell_angle_gamma 114.189826
_cell_volume 712.823694
_symmetry_space_group_name_H-M "P -1"
_symmetry_group_IT_number 2
_symmetry_cell_setting 'triclinic'
loop_
_space_group_symop_operation_xyz
x,y,z
-x,-y,-z
loop_
_atom_site_type_symbol
_atom_site_label
_atom_site_fract_x
_atom_site_fract_y
_atom_site_fract_z
Si Si1 0.324978 0.906428 0.318878
Si Si2 0.105103 0.128105 0.764833
Si Si3 0.660254 0.428685 0.582968
Si Si4 0.761320 0.704249 0.597486
Si Si5 0.379567 0.959363 0.892259
Si Si6 0.366996 0.708823 0.109643
Si Si7 0.787264 0.586599 0.219131
Si Si8 0.295698 0.974932 0.578829
O O1 0.219744 0.692570 0.407092
O O2 0.043272 0.915624 0.302132
O O3 0.460322 0.995235 0.204428
O O4 0.536433 0.010500 0.348816
O O5 0.423323 0.272178 0.691679
O O6 0.052749 0.250035 0.779332
O O7 0.090138 0.957746 0.868906
O O8 0.500000 0.500000 0.500000
O O9 0.834445 0.582717 0.588128
O O10 0.447199 0.586285 0.673024
O O11 0.998149 0.798381 0.628442
O O12 0.762956 0.859849 0.489178
O O13 0.512840 0.122609 0.893352
O O14 0.362661 0.790493 0.996977
O O15 0.586035 0.635616 0.147795
O O16 0.041445 0.579668 0.180600
O O17 0.500000 0.000000 0.500000
#
# Coordination Sequence:
#
# PCOD9096239 Si02
#       8
#     2   2   2   2   2   2   2   2
#     4  11  21  38  60  91 127 165 213 262 322 381
#     4   9  20  31  53  89 123 162 201 256 319 375
#     4  10  20  36  58  87 119 160 206 271 316 382
#     4  10  24  43  60  88 128 165 221 265 324 387
#     4   9  20  34  58  89 134 160 206 259 324 392
#     4  10  20  35  63  98 130 168 207 266 337 386
#     4  10  21  37  61  94 128 164 212 267 323 385
#     4  11  26  41  62  88 123 179 216 263 321 391
#
# _framework density 22.445944999999998
#
# number of rings (size 3 to 8) (size 9 to 14) (size 15 to 20)
#    0.000    2.000    2.500    0.750    5.250    4.000 
#    0.000    0.000    0.000    1.500    0.000    0.000 
#    0.000    0.000    0.000    0.000    0.000    0.000 
#
# Total GULP energy -89231.232220 kJ/mol
# GULP energy per Si atom -5576.952014 kJ/mol
# Density = 2.239486 g / cm^3
# Si number density = 22.445945 Si / 1000 Ang^3
#
#
#
# Elastic Constant Matrix: (Units=GPa)
#
#
# Indices 1 2 3 4 5 6 
#
# 1 77.6372 36.7744 27.4959 7.5558 14.3670 23.3349
# 2 36.7744 89.8105 42.3392 20.8100 16.0359 34.6741
# 3 27.4959 42.3392 119.2225 23.3071 22.1056 9.9064
# 4 7.5558 20.8100 23.3071 22.4020 4.7073 6.3945
# 5 14.3670 16.0359 22.1056 4.7073 29.6689 12.9888
# 6 23.3349 34.6741 9.9064 6.3945 12.9888 27.2998
#
#
#
# Elastic Compliance Matrix: (Units=1/GPa)
#
#
# Indices 1 2 3 4 5 6 
#
# 1 0.018449 -0.001557 -0.002927 0.002085 -0.000575 -0.012944
# 2 -0.001557 0.029445 -0.006039 -0.012141 0.006127 -0.033948
# 3 -0.002927 -0.006039 0.013721 -0.009082 -0.009228 0.011712
# 4 0.002085 -0.012141 -0.009082 0.063983 0.001661 0.001157
# 5 -0.000575 0.006127 -0.009228 0.001661 0.049488 -0.027877
# 6 -0.012944 -0.033948 0.011712 0.001157 -0.027877 0.099555
#
#
# Mechanical properties :
#
#
# Convention : Reuss Voigt Hill
#
# Bulk Modulus (GPa) = 24.65068 55.54324 40.09696
# Shear Modulus (GPa) = 16.17019 27.87819 22.02419
#
# Velocity S-wave (km/s) = 2.68695 3.52805 3.13583
# Velocity P-wave (km/s) = 4.54228 6.43391 5.56900
#
# Compressibility (1/GPa) = 0.04056684
#
# Stress axis : x y z
#
# Youngs Moduli (GPa) = 54.20430 33.96155 72.88262
#
# Poissons Ratio (x) = 0.05288 0.21335
# Poissons Ratio (y) = 0.08440 0.44017
# Poissons Ratio (z) = 0.15867 0.20511
#
# Static dielectric constant tensor:
#      x y z
#    x 2.322150 -0.055170 -0.013820 
#    y -0.055170 1.851660 0.019160 
#    z -0.013820 0.019160 1.870870 
# 
# From -- ./inp_files/83385.got.cif
#   From: 2010.05.17/outbox.cif.g08.bks.cpg/sg2_42_cif.got.tgz:83385.got - 2010.06.03 11:33:40.
