data_PCOD9096739
_publ_section_title
;
Structure prediction by ZEFSAII (Michael W. Deem and Ramdas Pophale) SiO2 
 PCOD9096739
Probable space group: P -1
;
_chemical_formula_sum "Si O2"
_cell_formula_units_Z 14
_cell_length_a 5.416180
_cell_length_b 13.413743
_cell_length_c 10.749961
_cell_angle_alpha 109.623213
_cell_angle_beta 64.587927
_cell_angle_gamma 123.330039
_cell_volume 584.200510
_symmetry_space_group_name_H-M "P -1"
_symmetry_group_IT_number 2
_symmetry_cell_setting 'triclinic'
loop_
_space_group_symop_operation_xyz
x,y,z
-x,-y,-z
loop_
_atom_site_type_symbol
_atom_site_label
_atom_site_fract_x
_atom_site_fract_y
_atom_site_fract_z
Si Si1 0.413993 0.087344 0.829090
Si Si2 0.737661 0.658318 0.260128
Si Si3 0.789222 0.830549 0.858960
Si Si4 0.688900 0.581200 0.803161
Si Si5 0.675633 0.926730 0.696101
Si Si6 0.663400 0.882543 0.418474
Si Si7 0.717298 0.406737 0.889990
O O1 0.492001 0.132957 0.689499
O O2 0.650825 0.040890 0.803050
O O3 0.375873 0.170260 0.975510
O O4 0.090859 0.961481 0.846427
O O5 0.470388 0.526136 0.308120
O O6 0.746185 0.773499 0.371443
O O7 0.598796 0.660063 0.153442
O O8 0.056629 0.651920 0.185829
O O9 0.857544 0.719128 0.787688
O O10 0.592970 0.831001 0.781929
O O11 0.871243 0.534957 0.835860
O O12 0.394530 0.571341 0.943903
O O13 0.504210 0.885705 0.583496
O O14 0.037453 0.985976 0.606063
#
# Coordination Sequence:
#
# PCOD9096739 Si02
#       7
#     2   2   2   2   2   2   2
#     4  10  21  38  59  85 117 157 199 243 303 355
#     4  10  20  36  57  90 115 154 202 249 300 352
#     4  10  21  38  55  91 118 154 192 248 304 362
#     4   9  20  33  56  85 121 154 194 246 302 360
#     4  10  22  39  57  86 115 159 198 248 300 355
#     4  10  22  37  61  83 117 154 208 244 296 357
#     4   9  20  35  55  89 120 154 199 246 302 354
#
# _framework density 23.964378
#
# number of rings (size 3 to 8) (size 9 to 14) (size 15 to 20)
#    0.857    1.429    0.000    2.143    4.000    1.143 
#    0.000    0.714    0.000    1.714    0.000    0.000 
#    0.000    0.000    0.000    0.000    0.000    0.000 
#
# Total GULP energy -77979.640293 kJ/mol
# GULP energy per Si atom -5569.974307 kJ/mol
# Density = 2.390983 g / cm^3
# Si number density = 23.964378 Si / 1000 Ang^3
#
#
#
# Elastic Constant Matrix: (Units=GPa)
#
#
# Indices 1 2 3 4 5 6 
#
# 1 100.8323 30.3890 28.2880 0.2376 0.7199 -27.0896
# 2 30.3890 108.7770 38.2238 19.0793 4.5580 -24.9480
# 3 28.2880 38.2238 84.0593 5.0291 10.0487 -8.6499
# 4 0.2376 19.0793 5.0291 30.0910 -11.3721 -4.6883
# 5 0.7199 4.5580 10.0487 -11.3721 28.3441 7.3776
# 6 -27.0896 -24.9480 -8.6499 -4.6883 7.3776 41.1276
#
#
#
# Elastic Compliance Matrix: (Units=1/GPa)
#
#
# Indices 1 2 3 4 5 6 
#
# 1 0.013227 -0.001245 -0.003256 0.002414 0.000024 0.007543
# 2 -0.001245 0.014713 -0.004099 -0.010074 -0.006828 0.007319
# 3 -0.003256 -0.004099 0.015576 -0.002146 -0.005481 -0.000617
# 4 0.002414 -0.010074 -0.002146 0.047895 0.022457 -0.003541
# 5 0.000024 -0.006828 -0.005481 0.022457 0.050392 -0.011758
# 6 0.007543 0.007319 -0.000617 -0.003541 -0.011758 0.035298
#
#
# Mechanical properties :
#
#
# Convention : Reuss Voigt Hill
#
# Bulk Modulus (GPa) = 38.00101 54.16334 46.08217
# Shear Modulus (GPa) = 24.62153 33.03040 28.82596
#
# Velocity S-wave (km/s) = 3.20882 3.71659 3.47200
# Velocity P-wave (km/s) = 5.44246 6.40844 5.94510
#
# Compressibility (1/GPa) = 0.02631509
#
# Stress axis : x y z
#
# Youngs Moduli (GPa) = 75.60404 67.96609 64.20074
#
# Poissons Ratio (x) = 0.08465 0.20903
# Poissons Ratio (y) = 0.09416 0.26317
# Poissons Ratio (z) = 0.24616 0.27861
#
# Static dielectric constant tensor:
#      x y z
#    x 1.997010 0.025570 0.021550 
#    y 0.025570 2.040860 0.023380 
#    z 0.021550 0.023380 1.907740 
# 
# From -- ./inp_files/366996.got.cif
#   From: 2010.05.17/outbox.cif.g08.bks.cpg/sg2_184_cif.got.tgz:366996.got - 2010.06.03 11:33:40.
