data_PCOD9096627
_publ_section_title
;
Structure prediction by ZEFSAII (Michael W. Deem and Ramdas Pophale) SiO2 
 PCOD9096627
Probable space group: P -1
;
_chemical_formula_sum "Si O2"
_cell_formula_units_Z 16
_cell_length_a 7.013861
_cell_length_b 7.611346
_cell_length_c 18.502599
_cell_angle_alpha 65.016148
_cell_angle_beta 129.003187
_cell_angle_gamma 124.543893
_cell_volume 628.947246
_symmetry_space_group_name_H-M "P -1"
_symmetry_group_IT_number 2
_symmetry_cell_setting 'triclinic'
loop_
_space_group_symop_operation_xyz
x,y,z
-x,-y,-z
loop_
_atom_site_type_symbol
_atom_site_label
_atom_site_fract_x
_atom_site_fract_y
_atom_site_fract_z
Si Si1 0.025190 0.145284 0.850205
Si Si2 0.750475 0.006927 0.322232
Si Si3 0.117664 0.821828 0.425249
Si Si4 0.346945 0.724443 0.371293
Si Si5 0.425090 0.085102 0.119385
Si Si6 0.101116 0.617150 0.610737
Si Si7 0.390473 0.725726 0.092031
Si Si8 0.870344 0.488483 0.083368
O O1 0.285062 0.175969 0.859595
O O2 0.135251 0.301009 0.919211
O O3 0.849460 0.229430 0.741153
O O4 0.805562 0.931018 0.875320
O O5 0.629799 0.811673 0.383906
O O6 0.040827 0.019329 0.371221
O O7 0.568815 0.954204 0.217995
O O8 0.728091 0.207767 0.320399
O O9 0.365601 0.858398 0.425181
O O10 0.132161 0.736506 0.522333
O O11 0.885519 0.607204 0.366284
O O12 0.197536 0.483028 0.405552
O O13 0.679149 0.305484 0.124163
O O14 0.326298 0.935037 0.050878
O O15 0.191317 0.556650 0.133953
O O16 0.270946 0.595670 0.012153
#
# Coordination Sequence:
#
# PCOD9096627 Si02
#       8
#     2   2   2   2   2   2   2   2
#     4  10  20  36  57  80 115 148 185 239 283 335
#     4  11  20  37  60  79 114 156 184 237 296 337
#     4   9  20  39  54  84 117 143 193 240 278 345
#     4   9  20  37  54  82 114 145 193 239 278 351
#     4  10  22  36  55  84 113 147 191 235 282 346
#     4   9  20  39  54  84 116 144 193 239 278 349
#     4  10  21  37  58  81 114 150 186 237 285 335
#     4  10  21  37  56  84 113 147 192 232 283 346
#
# _framework density 25.439335
#
# number of rings (size 3 to 8) (size 9 to 14) (size 15 to 20)
#    0.750    1.500    0.000    2.625    0.000    2.500 
#    2.250    1.250    0.000    0.000    0.000    0.000 
#    0.000    0.000    0.000    0.000    0.000    0.000 
#
# Total GULP energy -89086.800667 kJ/mol
# GULP energy per Si atom -5567.925042 kJ/mol
# Density = 2.538143 g / cm^3
# Si number density = 25.439335 Si / 1000 Ang^3
#
#
#
# Elastic Constant Matrix: (Units=GPa)
#
#
# Indices 1 2 3 4 5 6 
#
# 1 145.0533 47.9522 26.3045 2.0375 -3.9492 31.9750
# 2 47.9522 125.7134 11.8640 4.0616 -11.3008 32.2279
# 3 26.3045 11.8640 35.8740 0.7140 -4.3994 9.1499
# 4 2.0375 4.0616 0.7140 25.4676 0.8072 -13.2246
# 5 -3.9492 -11.3008 -4.3994 0.8072 24.9722 1.0375
# 6 31.9750 32.2279 9.1499 -13.2246 1.0375 58.6304
#
#
#
# Elastic Compliance Matrix: (Units=1/GPa)
#
#
# Indices 1 2 3 4 5 6 
#
# 1 0.009356 -0.002095 -0.005224 -0.002140 -0.000169 -0.003615
# 2 -0.002095 0.010904 0.000196 -0.004891 0.005048 -0.006074
# 3 -0.005224 0.000196 0.033110 -0.002286 0.005296 -0.003035
# 4 -0.002140 -0.004891 -0.002286 0.048341 -0.005149 0.015207
# 5 -0.000169 0.005048 0.005296 -0.005149 0.043628 -0.005442
# 6 -0.003615 -0.006074 -0.003035 0.015207 -0.005442 0.026367
#
#
# Mechanical properties :
#
#
# Convention : Reuss Voigt Hill
#
# Bulk Modulus (GPa) = 25.55938 53.20912 39.38425
# Shear Modulus (GPa) = 25.12651 36.51540 30.82095
#
# Velocity S-wave (km/s) = 3.14618 3.79277 3.48450
# Velocity P-wave (km/s) = 4.82358 6.33574 5.63065
#
# Compressibility (1/GPa) = 0.03912459
#
# Stress axis : x y z
#
# Youngs Moduli (GPa) = 106.87940 91.70655 30.20244
#
# Poissons Ratio (x) = 0.19214 0.15777
# Poissons Ratio (y) = 0.22393 -0.00591
# Poissons Ratio (z) = 0.55830 -0.01796
#
# Static dielectric constant tensor:
#      x y z
#    x 1.984770 0.026430 -0.019710 
#    y 0.026430 2.043530 0.058440 
#    z -0.019710 0.058440 2.158570 
# 
# From -- ./inp_files/582398.got.cif
#   From: 2010.05.17/outbox.cif.g08.bks.cpg/sg2_292_cif.got.tgz:582398.got - 2010.06.03 11:33:40.
