data_PCOD9096395
_publ_section_title
;
Structure prediction by ZEFSAII (Michael W. Deem and Ramdas Pophale) SiO2 
 PCOD9096395
Probable space group: P -1
;
_chemical_formula_sum "Si O2"
_cell_formula_units_Z 16
_cell_length_a 15.442861
_cell_length_b 8.834310
_cell_length_c 9.072071
_cell_angle_alpha 48.287791
_cell_angle_beta 101.964034
_cell_angle_gamma 73.290319
_cell_volume 734.618043
_symmetry_space_group_name_H-M "P -1"
_symmetry_group_IT_number 2
_symmetry_cell_setting 'triclinic'
loop_
_space_group_symop_operation_xyz
x,y,z
-x,-y,-z
loop_
_atom_site_type_symbol
_atom_site_label
_atom_site_fract_x
_atom_site_fract_y
_atom_site_fract_z
Si Si1 0.962719 0.221808 0.168538
Si Si2 0.884811 0.917733 0.438307
Si Si3 0.250649 0.538794 0.896327
Si Si4 0.678807 0.645005 0.290464
Si Si5 0.362565 0.130511 0.438064
Si Si6 0.509972 0.280398 0.455183
Si Si7 0.158105 0.453626 0.356231
Si Si8 0.437674 0.785451 0.161879
O O1 0.962025 0.978097 0.342961
O O2 0.861902 0.414420 0.116909
O O3 0.931406 0.325208 0.925317
O O4 0.067222 0.170679 0.321228
O O5 0.773833 0.195560 0.238975
O O6 0.883164 0.706100 0.493993
O O7 0.277539 0.471108 0.780133
O O8 0.340037 0.307445 0.175832
O O9 0.777489 0.491470 0.541423
O O10 0.564724 0.679836 0.252640
O O11 0.641135 0.931325 0.100227
O O12 0.445958 0.156250 0.542699
O O13 0.253560 0.252204 0.409772
O O14 0.416182 0.857695 0.570784
O O15 0.429615 0.577064 0.219556
O O16 0.579519 0.222680 0.664275
#
# Coordination Sequence:
#
# PCOD9096395 Si02
#       8
#     2   2   2   2   2   2   2   2
#     4   8  19  39  61  81 111 137 183 230 277 331
#     4   9  19  37  64  82 105 145 181 227 287 321
#     4   9  19  36  57  76 114 142 178 230 268 332
#     4  11  22  37  48  85 114 146 183 228 272 322
#     4  10  20  36  54  84 103 142 198 232 257 326
#     4  10  20  36  54  73 109 152 187 228 278 315
#     4  11  21  34  60  83 110 142 186 230 267 336
#     4  10  22  35  52  73 119 152 174 231 280 319
#
# _framework density 21.780025999999999
#
# number of rings (size 3 to 8) (size 9 to 14) (size 15 to 20)
#    0.750    1.500    2.500    0.375    3.500    0.000 
#    0.000    2.500    0.000    0.000    0.000    0.000 
#    0.000    0.000    0.000    0.000    0.000    0.000 
#
# Total GULP energy -89127.546019 kJ/mol
# GULP energy per Si atom -5570.471626 kJ/mol
# Density = 2.173045 g / cm^3
# Si number density = 21.780026 Si / 1000 Ang^3
#
#
#
# Elastic Constant Matrix: (Units=GPa)
#
#
# Indices 1 2 3 4 5 6 
#
# 1 23.6733 -5.1135 -3.2422 5.3618 2.2837 6.8855
# 2 -5.1135 55.3901 12.3527 6.0834 -7.1912 5.1022
# 3 -3.2422 12.3527 77.0597 1.7859 8.6743 7.9261
# 4 5.3618 6.0834 1.7859 26.7445 3.1656 -2.7853
# 5 2.2837 -7.1912 8.6743 3.1656 23.0123 2.3877
# 6 6.8855 5.1022 7.9261 -2.7853 2.3877 18.3591
#
#
#
# Elastic Compliance Matrix: (Units=1/GPa)
#
#
# Indices 1 2 3 4 5 6 
#
# 1 0.056578 0.008813 0.004155 -0.016642 0.000777 -0.028088
# 2 0.008813 0.022825 -0.003051 -0.009058 0.009794 -0.010979
# 3 0.004155 -0.003051 0.015040 -0.001092 -0.006204 -0.006562
# 4 -0.016642 -0.009058 -0.001092 0.045712 -0.008852 0.017317
# 5 0.000777 0.009794 -0.006204 -0.008852 0.050855 -0.008292
# 6 -0.028088 -0.010979 -0.006562 0.017317 -0.008292 0.074593
#
#
# Mechanical properties :
#
#
# Convention : Reuss Voigt Hill
#
# Bulk Modulus (GPa) = 8.75075 18.23524 13.49300
# Shear Modulus (GPa) = 17.61414 23.76491 20.68952
#
# Velocity S-wave (km/s) = 2.84690 3.30681 3.08544
# Velocity P-wave (km/s) = 3.85136 4.79277 4.34762
#
# Compressibility (1/GPa) = 0.11427589
#
# Stress axis : x y z
#
# Youngs Moduli (GPa) = 17.67460 43.81083 66.49138
#
# Poissons Ratio (x) = -0.38608 -0.27628
# Poissons Ratio (y) = -0.15576 0.20289
# Poissons Ratio (z) = -0.07344 0.13368
#
# Static dielectric constant tensor:
#      x y z
#    x 1.845470 0.036440 -0.007280 
#    y 0.036440 1.805190 0.000020 
#    z -0.007280 0.000020 1.840270 
# 
# From -- ./inp_files/215432.got.cif
#   From: 2010.05.17/outbox.cif.g08.bks.cpg/sg2_108_cif.got.tgz:215432.got - 2010.06.03 11:33:40.
