data_PCOD9096103
_publ_section_title
;
Structure prediction by ZEFSAII (Michael W. Deem and Ramdas Pophale) SiO2 
 PCOD9096103
Probable space group: P -1
;
_chemical_formula_sum "Si O2"
_cell_formula_units_Z 12
_cell_length_a 7.550167
_cell_length_b 9.972392
_cell_length_c 17.153064
_cell_angle_alpha 145.209476
_cell_angle_beta 39.780376
_cell_angle_gamma 136.750145
_cell_volume 454.472744
_symmetry_space_group_name_H-M "P -1"
_symmetry_group_IT_number 2
_symmetry_cell_setting 'triclinic'
loop_
_space_group_symop_operation_xyz
x,y,z
-x,-y,-z
loop_
_atom_site_type_symbol
_atom_site_label
_atom_site_fract_x
_atom_site_fract_y
_atom_site_fract_z
Si Si1 0.806200 0.717783 0.233116
Si Si2 0.846275 0.719371 0.643804
Si Si3 0.911517 0.634063 0.413915
Si Si4 0.787590 0.599539 0.002794
Si Si5 0.010361 0.853644 0.804375
Si Si6 0.411461 0.104991 0.468765
O O1 0.725270 0.614453 0.124557
O O2 0.560028 0.758537 0.393122
O O3 0.004643 0.994107 0.287430
O O4 0.994149 0.570036 0.146742
O O5 0.730011 0.641660 0.558790
O O6 0.750882 0.757574 0.783709
O O7 0.000000 0.500000 0.500000
O O8 0.967798 0.370943 0.256629
O O9 0.765542 0.751916 0.453705
O O10 0.218072 0.831058 0.412867
O O11 0.957083 0.873306 0.047827
O O12 0.500000 0.500000 0.000000
O O13 0.301603 0.893253 0.672747
#
# Coordination Sequence:
#
# PCOD9096103 Si02
#       6
#     2   2   2   2   2   2
#     4   9  20  39  56  87 123 155 195 254 296 351
#     4   8  16  32  56  85 116 144 189 244 299 342
#     4   9  19  33  56  88 121 147 185 250 305 344
#     4  10  22  37  61  84 119 168 202 232 304 363
#     4  10  20  36  58  89 114 154 200 242 294 359
#     4  10  20  35  62  89 117 147 197 253 301 342
#
# _framework density 26.404226000000001
#
# number of rings (size 3 to 8) (size 9 to 14) (size 15 to 20)
#    0.000    2.667    0.000    0.500    7.000    6.000 
#    0.000    0.833    0.000    1.000    0.000    0.000 
#    0.000    0.000    0.000    0.000    0.000    0.000 
#
# Total GULP energy -66919.339098 kJ/mol
# GULP energy per Si atom -5576.611592 kJ/mol
# Density = 2.634413 g / cm^3
# Si number density = 26.404226 Si / 1000 Ang^3
#
#
#
# Elastic Constant Matrix: (Units=GPa)
#
#
# Indices 1 2 3 4 5 6 
#
# 1 141.5861 44.9451 58.1605 31.2597 0.7352 -30.6526
# 2 44.9451 108.3761 60.3344 55.2769 -21.7020 -4.3980
# 3 58.1605 60.3344 137.8399 33.8162 0.2732 -15.2232
# 4 31.2597 55.2769 33.8162 68.3403 -6.2730 -11.6956
# 5 0.7352 -21.7020 0.2732 -6.2730 40.6528 15.4698
# 6 -30.6526 -4.3980 -15.2232 -11.6956 15.4698 53.5648
#
#
#
# Elastic Compliance Matrix: (Units=1/GPa)
#
#
# Indices 1 2 3 4 5 6 
#
# 1 0.010586 -0.004015 -0.001993 0.000074 -0.004809 0.006567
# 2 -0.004015 0.024981 -0.006560 -0.015435 0.014781 -0.009750
# 3 -0.001993 -0.006560 0.011104 0.000813 -0.004544 0.002967
# 4 0.000074 -0.015435 0.000813 0.027247 -0.006660 0.006879
# 5 -0.004809 0.014781 -0.004544 -0.006660 0.037310 -0.015059
# 6 0.006567 -0.009750 0.002967 0.006879 -0.015059 0.028321
#
#
# Mechanical properties :
#
#
# Convention : Reuss Voigt Hill
#
# Bulk Modulus (GPa) = 46.43321 79.40912 62.92117
# Shear Modulus (GPa) = 29.09306 47.46906 38.28106
#
# Velocity S-wave (km/s) = 3.32299 4.24463 3.81177
# Velocity P-wave (km/s) = 5.68742 7.35949 6.57681
#
# Compressibility (1/GPa) = 0.02153631
#
# Stress axis : x y z
#
# Youngs Moduli (GPa) = 94.46115 40.03048 90.05790
#
# Poissons Ratio (x) = 0.16073 0.17945
# Poissons Ratio (y) = 0.37927 0.59076
# Poissons Ratio (z) = 0.18823 0.26259
#
# Static dielectric constant tensor:
#      x y z
#    x 2.208520 0.065750 0.077940 
#    y 0.065750 2.195030 -0.033650 
#    z 0.077940 -0.033650 2.060850 
# 
# From -- ./inp_files/192930.got.cif
#   From: 2010.05.17/outbox.cif.g08.bks.cpg/sg2_97_cif.got.tgz:192930.got - 2010.06.03 11:33:40.
