data_PCOD9096171
_publ_section_title
;
Structure prediction by ZEFSAII (Michael W. Deem and Ramdas Pophale) SiO2 
 PCOD9096171
Probable space group: P -1
;
_chemical_formula_sum "Si O2"
_cell_formula_units_Z 15
_cell_length_a 8.163240
_cell_length_b 12.325248
_cell_length_c 7.667083
_cell_angle_alpha 103.570938
_cell_angle_beta 49.585525
_cell_angle_gamma 106.327084
_cell_volume 562.199336
_symmetry_space_group_name_H-M "P -1"
_symmetry_group_IT_number 2
_symmetry_cell_setting 'triclinic'
loop_
_space_group_symop_operation_xyz
x,y,z
-x,-y,-z
loop_
_atom_site_type_symbol
_atom_site_label
_atom_site_fract_x
_atom_site_fract_y
_atom_site_fract_z
Si Si1 0.415957 0.048773 0.753688
Si Si2 0.500000 0.000000 0.000000
Si Si3 0.672622 0.530100 0.166892
Si Si4 0.883689 0.789436 0.119739
Si Si5 0.760860 0.821802 0.589665
Si Si6 0.748386 0.463619 0.691047
Si Si7 0.798045 0.233938 0.683120
Si Si8 0.725204 0.302371 0.155100
O O1 0.351315 0.954090 0.907147
O O2 0.248263 0.133760 0.875951
O O3 0.626511 0.115778 0.745891
O O4 0.500000 0.000000 0.500000
O O5 0.684631 0.920627 0.787691
O O6 0.756666 0.661086 0.194268
O O7 0.409312 0.499147 0.330222
O O8 0.715610 0.510281 0.924302
O O9 0.766622 0.438978 0.184354
O O10 0.876245 0.852997 0.335353
O O11 0.106701 0.757525 0.873485
O O12 0.953993 0.773348 0.537940
O O13 0.532602 0.740134 0.672552
O O14 0.701062 0.326593 0.674434
O O15 0.000000 0.500000 0.500000
O O16 0.790797 0.277112 0.901436
#
# Coordination Sequence:
#
# PCOD9096171 Si02
#       8
#     2   1   2   2   2   2   2   2
#     4  12  25  48  73 104 141 183 248 305 357 424
#     4  12  26  46  76 100 138 190 242 302 372 418
#     4  10  21  38  63 102 144 184 234 291 349 426
#     4  11  24  43  68 103 146 183 235 305 352 422
#     4  11  24  44  69 100 135 191 240 288 368 423
#     4  10  20  35  63 101 141 187 231 279 354 426
#     4  10  22  42  70  96 144 184 228 304 350 421
#     4  10  22  42  69 100 145 187 234 286 362 433
#
# _framework density 26.680928000000002
#
# number of rings (size 3 to 8) (size 9 to 14) (size 15 to 20)
#    0.000    1.333    4.000    1.200    0.000    4.267 
#    2.400    1.333    0.000    0.000    0.000    0.000 
#    0.000    0.000    0.000    0.000    0.000    0.000 
#
# Total GULP energy -83706.731399 kJ/mol
# GULP energy per Si atom -5580.448760 kJ/mol
# Density = 2.662020 g / cm^3
# Si number density = 26.680928 Si / 1000 Ang^3
#
#
#
# Elastic Constant Matrix: (Units=GPa)
#
#
# Indices 1 2 3 4 5 6 
#
# 1 104.6733 26.1505 51.3133 20.7619 -20.1050 -26.7952
# 2 26.1505 87.1245 27.0243 24.5325 -15.7066 -8.0208
# 3 51.3133 27.0243 164.0545 29.9415 -7.9000 -4.0297
# 4 20.7619 24.5325 29.9415 35.9459 5.1097 -16.4580
# 5 -20.1050 -15.7066 -7.9000 5.1097 58.9437 8.4768
# 6 -26.7952 -8.0208 -4.0297 -16.4580 8.4768 53.7257
#
#
#
# Elastic Compliance Matrix: (Units=1/GPa)
#
#
# Indices 1 2 3 4 5 6 
#
# 1 0.014068 -0.001382 -0.003444 -0.002380 0.003415 0.005284
# 2 -0.001382 0.016006 0.000249 -0.012432 0.005326 -0.002930
# 3 -0.003444 0.000249 0.008343 -0.006796 0.001074 -0.003306
# 4 -0.002380 -0.012432 -0.006796 0.051387 -0.011504 0.014004
# 5 0.003415 0.005326 0.001074 -0.011504 0.021310 -0.004307
# 6 0.005284 -0.002930 -0.003306 0.014004 -0.004307 0.025532
#
#
# Mechanical properties :
#
#
# Convention : Reuss Voigt Hill
#
# Bulk Modulus (GPa) = 34.17314 62.75871 48.46593
# Shear Modulus (GPa) = 32.14324 46.48070 39.31197
#
# Velocity S-wave (km/s) = 3.47468 4.17837 3.84267
# Velocity P-wave (km/s) = 5.37901 6.84480 6.15569
#
# Compressibility (1/GPa) = 0.02926275
#
# Stress axis : x y z
#
# Youngs Moduli (GPa) = 71.08563 62.47503 119.86631
#
# Poissons Ratio (x) = 0.08634 0.41280
# Poissons Ratio (y) = 0.09824 -0.02985
# Poissons Ratio (z) = 0.24481 -0.01556
#
# Static dielectric constant tensor:
#      x y z
#    x 2.091310 0.117930 -0.151780 
#    y 0.117930 1.794930 0.152790 
#    z -0.151780 0.152790 2.027140 
# 
# From -- ./inp_files/88579.got.cif
#   From: 2010.05.17/outbox.cif.g08.bks.cpg/sg2_45_cif.got.tgz:88579.got - 2010.06.03 11:33:40.
