data_PCOD9096955
_publ_section_title
;
Structure prediction by ZEFSAII (Michael W. Deem and Ramdas Pophale) SiO2 
 PCOD9096955
Probable space group: P -1
;
_chemical_formula_sum "Si O2"
_cell_formula_units_Z 13
_cell_length_a 8.164054
_cell_length_b 12.162822
_cell_length_c 7.209272
_cell_angle_alpha 64.087267
_cell_angle_beta 53.290825
_cell_angle_gamma 75.849420
_cell_volume 516.056976
_symmetry_space_group_name_H-M "P -1"
_symmetry_group_IT_number 2
_symmetry_cell_setting 'triclinic'
loop_
_space_group_symop_operation_xyz
x,y,z
-x,-y,-z
loop_
_atom_site_type_symbol
_atom_site_label
_atom_site_fract_x
_atom_site_fract_y
_atom_site_fract_z
Si Si1 0.517469 0.646267 0.100079
Si Si2 0.825788 0.651755 0.393887
Si Si3 0.827846 0.866569 0.784108
Si Si4 0.288614 0.081035 0.774226
Si Si5 0.773115 0.464862 0.905498
Si Si6 0.500000 0.500000 0.500000
Si Si7 0.234102 0.915388 0.609916
O O1 0.398147 0.623844 0.007613
O O2 0.366746 0.608520 0.393282
O O3 0.660729 0.761749 0.933673
O O4 0.667264 0.525456 0.113631
O O5 0.822355 0.797320 0.310452
O O6 0.813855 0.579061 0.651771
O O7 0.635782 0.610207 0.428854
O O8 0.023344 0.608690 0.178973
O O9 0.817733 0.959669 0.554603
O O10 0.757351 0.934453 0.967678
O O11 0.056998 0.826633 0.713120
O O12 0.226279 0.957993 0.797251
O O13 0.530350 0.110120 0.565974
#
# Coordination Sequence:
#
# PCOD9096955 Si02
#       7
#     2   2   2   2   2   1   2
#     4  10  20  40  61  90 124 163 208 251 321 369
#     4  10  20  39  60  91 123 164 205 254 322 367
#     4  11  22  45  66  99 122 172 212 269 316 382
#     4  11  22  45  65  96 128 170 209 274 317 380
#     4   9  21  39  61  88 127 165 204 257 308 390
#     4  10  20  36  58  90 124 152 204 258 292 394
#     4  10  25  43  68  92 131 163 222 265 322 372
#
# _framework density 25.191013999999999
#
# number of rings (size 3 to 8) (size 9 to 14) (size 15 to 20)
#    0.000    1.846    1.538    1.846    0.000    1.846 
#   24.923    0.000    0.000    0.000    0.000    0.000 
#    0.000    0.000    0.000    0.000    0.000    0.000 
#
# Total GULP energy -72480.874588 kJ/mol
# GULP energy per Si atom -5575.451891 kJ/mol
# Density = 2.513368 g / cm^3
# Si number density = 25.191014 Si / 1000 Ang^3
#
#
#
# Elastic Constant Matrix: (Units=GPa)
#
#
# Indices 1 2 3 4 5 6 
#
# 1 62.6796 23.6790 12.3040 -1.3984 -2.5732 11.8360
# 2 23.6790 41.0561 11.5200 10.6453 -9.3236 0.7201
# 3 12.3040 11.5200 63.8840 -5.7689 -6.8484 7.6828
# 4 -1.3984 10.6453 -5.7689 41.4772 2.8383 -11.6065
# 5 -2.5732 -9.3236 -6.8484 2.8383 32.6049 7.6486
# 6 11.8360 0.7201 7.6828 -11.6065 7.6486 37.6546
#
#
#
# Elastic Compliance Matrix: (Units=1/GPa)
#
#
# Indices 1 2 3 4 5 6 
#
# 1 0.022270 -0.013390 -0.001118 0.002588 -0.001250 -0.005464
# 2 -0.013390 0.038850 -0.004199 -0.012175 0.010602 -0.001584
# 3 -0.001118 -0.004199 0.017512 0.002448 0.002873 -0.002970
# 4 0.002588 -0.012175 0.002448 0.031015 -0.007825 0.010069
# 5 -0.001250 0.010602 0.002873 -0.007825 0.037325 -0.010390
# 6 -0.005464 -0.001584 -0.002970 0.010069 -0.010390 0.034125
#
#
# Mechanical properties :
#
#
# Convention : Reuss Voigt Hill
#
# Bulk Modulus (GPa) = 24.26072 29.18065 26.72068
# Shear Modulus (GPa) = 21.52838 30.35513 25.94175
#
# Velocity S-wave (km/s) = 2.92653 3.47507 3.21253
# Velocity P-wave (km/s) = 4.59033 5.26407 4.93870
#
# Compressibility (1/GPa) = 0.04121890
#
# Stress axis : x y z
#
# Youngs Moduli (GPa) = 44.90299 25.74004 57.10312
#
# Poissons Ratio (x) = 0.34465 0.06383
# Poissons Ratio (y) = 0.60124 0.23979
# Poissons Ratio (z) = 0.05019 0.10809
#
# Static dielectric constant tensor:
#      x y z
#    x 1.974630 -0.019280 -0.165740 
#    y -0.019280 2.012730 -0.075830 
#    z -0.165740 -0.075830 1.355180 
# 
# From -- ./inp_files/184673.got.cif
#   From: 2010.05.17/outbox.cif.g08.bks.cpg/sg2_93_cif.got.tgz:184673.got - 2010.06.03 11:33:40.
