data_PCOD9096082
_publ_section_title
;
Structure prediction by ZEFSAII (Michael W. Deem and Ramdas Pophale) SiO2 
 PCOD9096082
Probable space group: P -1
;
_chemical_formula_sum "Si O2"
_cell_formula_units_Z 16
_cell_length_a 15.481539
_cell_length_b 8.430884
_cell_length_c 11.187569
_cell_angle_alpha 142.730505
_cell_angle_beta 65.662079
_cell_angle_gamma 127.492066
_cell_volume 693.634518
_symmetry_space_group_name_H-M "P -1"
_symmetry_group_IT_number 2
_symmetry_cell_setting 'triclinic'
loop_
_space_group_symop_operation_xyz
x,y,z
-x,-y,-z
loop_
_atom_site_type_symbol
_atom_site_label
_atom_site_fract_x
_atom_site_fract_y
_atom_site_fract_z
Si Si1 0.449493 0.154225 0.285287
Si Si2 0.999189 0.791815 0.978121
Si Si3 0.916088 0.147859 0.552931
Si Si4 0.541554 0.189927 0.710348
Si Si5 0.062055 0.862181 0.217037
Si Si6 0.794115 0.793198 0.203295
Si Si7 0.664238 0.193178 0.074454
Si Si8 0.677333 0.866127 0.081546
O O1 0.500000 0.500000 0.500000
O O2 0.550518 0.129165 0.158828
O O3 0.410021 0.944285 0.299725
O O4 0.362848 0.042674 0.159836
O O5 0.883495 0.704551 0.055544
O O6 0.093597 0.983653 0.137780
O O7 0.997169 0.503308 0.746769
O O8 0.000000 0.000000 0.000000
O O9 0.860950 0.049367 0.657484
O O10 0.842762 0.082168 0.438468
O O11 0.977930 0.966158 0.374199
O O12 0.431502 0.158229 0.812123
O O13 0.500000 0.000000 0.500000
O O14 0.629694 0.541693 0.848754
O O15 0.000000 0.500000 0.000000
O O16 0.716219 0.514913 0.169390
O O17 0.747637 0.864086 0.153298
O O18 0.724252 0.135220 0.117021
#
# Coordination Sequence:
#
# PCOD9096082 Si02
#       8
#     2   2   2   2   2   2   2   2
#     4  10  20  35  62  88 115 166 210 249 303 368
#     4  10  22  41  62  92 120 157 206 253 317 375
#     4   9  19  38  62  88 117 154 196 246 313 372
#     4  10  20  35  62  86 119 162 208 252 303 365
#     4   8  16  36  63  87 112 149 194 241 300 373
#     4  11  23  40  60  89 127 162 197 266 311 364
#     4  10  22  40  57  86 123 159 208 253 306 363
#     4  10  22  40  56  88 123 160 204 256 305 360
#
# _framework density 23.066901999999999
#
# number of rings (size 3 to 8) (size 9 to 14) (size 15 to 20)
#    0.000    2.250    1.250    0.750    3.500    4.000 
#   15.750    0.000    0.000    0.000    0.000    0.000 
#    0.000    0.000    0.000    0.000    0.000    0.000 
#
# Total GULP energy -89111.019212 kJ/mol
# GULP energy per Si atom -5569.438701 kJ/mol
# Density = 2.301440 g / cm^3
# Si number density = 23.066902 Si / 1000 Ang^3
#
#
#
# Elastic Constant Matrix: (Units=GPa)
#
#
# Indices 1 2 3 4 5 6 
#
# 1 87.4660 31.3407 31.4760 -20.8269 9.4974 -36.9025
# 2 31.3407 83.3686 28.7975 -15.3430 5.6578 -38.1129
# 3 31.4760 28.7975 160.6508 -22.4846 22.3319 -33.0000
# 4 -20.8269 -15.3430 -22.4846 22.6471 -14.8485 5.8857
# 5 9.4974 5.6578 22.3319 -14.8485 34.6616 -11.4822
# 6 -36.9025 -38.1129 -33.0000 5.8857 -11.4822 45.3323
#
#
#
# Elastic Compliance Matrix: (Units=1/GPa)
#
#
# Indices 1 2 3 4 5 6 
#
# 1 0.026423 0.007585 0.002045 0.033131 0.013867 0.028586
# 2 0.007585 0.026259 0.001847 0.028345 0.014380 0.029558
# 3 0.002045 0.001847 0.008479 0.009803 0.000615 0.008272
# 4 0.033131 0.028345 0.009803 0.122496 0.050627 0.054856
# 5 0.013867 0.014380 0.000615 0.050627 0.054263 0.030997
# 6 0.028586 0.029558 0.008272 0.054856 0.030997 0.076931
#
#
# Mechanical properties :
#
#
# Convention : Reuss Voigt Hill
#
# Bulk Modulus (GPa) = 11.88863 57.19044 34.53954
# Shear Modulus (GPa) = 15.62809 36.51961 26.07385
#
# Velocity S-wave (km/s) = 2.60573 3.98327 3.36573
# Velocity P-wave (km/s) = 3.77071 6.78250 5.48728
#
# Compressibility (1/GPa) = 0.08411396
#
# Stress axis : x y z
#
# Youngs Moduli (GPa) = 37.84569 38.08191 117.94146
#
# Poissons Ratio (x) = -0.28885 -0.24114
# Poissons Ratio (y) = -0.28706 -0.21781
# Poissons Ratio (z) = -0.07738 -0.07033
#
# Static dielectric constant tensor:
#      x y z
#    x 1.988590 -0.077930 0.019550 
#    y -0.077930 1.992880 0.017790 
#    z 0.019550 0.017790 1.839780 
# 
# From -- ./inp_files/461728.got.cif
#   From: 2010.05.17/outbox.cif.g08.bks.cpg/sg2_231_cif.got.tgz:461728.got - 2010.06.03 11:33:40.
