data_PCOD9096993
_publ_section_title
;
Structure prediction by ZEFSAII (Michael W. Deem and Ramdas Pophale) SiO2 
 PCOD9096993
Probable space group: P -1
;
_chemical_formula_sum "Si O2"
_cell_formula_units_Z 16
_cell_length_a 8.133760
_cell_length_b 8.846552
_cell_length_c 17.784243
_cell_angle_alpha 54.264230
_cell_angle_beta 71.859043
_cell_angle_gamma 49.747190
_cell_volume 788.250143
_symmetry_space_group_name_H-M "P -1"
_symmetry_group_IT_number 2
_symmetry_cell_setting 'triclinic'
loop_
_space_group_symop_operation_xyz
x,y,z
-x,-y,-z
loop_
_atom_site_type_symbol
_atom_site_label
_atom_site_fract_x
_atom_site_fract_y
_atom_site_fract_z
Si Si1 0.464549 0.343971 0.706681
Si Si2 0.634464 0.936518 0.710604
Si Si3 0.271850 0.412545 0.566573
Si Si4 0.240440 0.246650 0.884611
Si Si5 0.188211 0.169757 0.435794
Si Si6 0.259023 0.523809 0.100899
Si Si7 0.455187 0.306227 0.976419
Si Si8 0.481332 0.301301 0.407574
O O1 0.378889 0.468387 0.600928
O O2 0.285973 0.344475 0.776904
O O3 0.525658 0.497011 0.691449
O O4 0.649020 0.075166 0.737084
O O5 0.811802 0.872387 0.640705
O O6 0.652292 0.716778 0.799809
O O7 0.394640 0.141532 0.651571
O O8 0.339932 0.404338 0.474533
O O9 0.021527 0.606657 0.561286
O O10 0.304582 0.335510 0.920645
O O11 0.999529 0.321559 0.898805
O O12 0.405037 0.966339 0.942302
O O13 0.370245 0.211685 0.401936
O O14 0.282637 0.930544 0.535656
O O15 0.376781 0.634184 0.081348
O O16 0.317425 0.462400 0.022339
#
# Coordination Sequence:
#
# PCOD9096993 Si02
#       8
#     2   2   2   2   2   2   2   2
#     4  10  21  39  54  81 121 147 186 244 287 335
#     4   9  21  36  56  82 118 147 187 241 282 346
#     4   9  19  37  57  78 113 153 188 237 285 336
#     4  11  22  41  61  91 121 153 197 241 295 354
#     4  10  20  36  59  80 112 153 197 236 284 345
#     4  11  21  41  65  88 120 157 193 241 299 347
#     4  10  23  40  65  89 119 153 196 244 292 356
#     4  10  21  36  55  83 115 148 195 242 284 339
#
# _framework density 20.298124999999999
#
# number of rings (size 3 to 8) (size 9 to 14) (size 15 to 20)
#    0.750    1.250    1.250    2.250    1.750    0.500 
#    2.250    1.250    0.000    0.000    0.000    0.000 
#    0.000    0.000    0.000    0.000    0.000    0.000 
#
# Total GULP energy -89103.782281 kJ/mol
# GULP energy per Si atom -5568.986393 kJ/mol
# Density = 2.025193 g / cm^3
# Si number density = 20.298125 Si / 1000 Ang^3
#
#
#
# Elastic Constant Matrix: (Units=GPa)
#
#
# Indices 1 2 3 4 5 6 
#
# 1 41.0080 10.8211 12.6253 -3.1430 -8.4076 4.2807
# 2 10.8211 81.1399 20.0997 1.1479 2.6101 -13.9024
# 3 12.6253 20.0997 44.8156 -6.1458 -11.6712 1.2510
# 4 -3.1430 1.1479 -6.1458 30.5025 7.6298 -5.2949
# 5 -8.4076 2.6101 -11.6712 7.6298 17.4459 -7.8949
# 6 4.2807 -13.9024 1.2510 -5.2949 -7.8949 26.7958
#
#
#
# Elastic Compliance Matrix: (Units=1/GPa)
#
#
# Indices 1 2 3 4 5 6 
#
# 1 0.029078 -0.003921 -0.003587 -0.000942 0.011055 -0.003441
# 2 -0.003921 0.016362 -0.008074 0.000283 -0.006395 0.007665
# 3 -0.003587 -0.008074 0.032662 0.001422 0.021356 0.001432
# 4 -0.000942 0.000283 0.001422 0.037112 -0.014253 0.003365
# 5 0.011055 -0.006395 0.021356 -0.014253 0.092421 0.018333
# 6 -0.003441 0.007665 0.001432 0.003365 0.018333 0.047845
#
#
# Mechanical properties :
#
#
# Convention : Reuss Voigt Hill
#
# Bulk Modulus (GPa) = 21.30500 28.22841 24.76670
# Shear Modulus (GPa) = 16.54028 23.17668 19.85848
#
# Velocity S-wave (km/s) = 2.85769 3.38274 3.13124
# Velocity P-wave (km/s) = 4.62680 5.40318 5.02999
#
# Compressibility (1/GPa) = 0.04693735
#
# Stress axis : x y z
#
# Youngs Moduli (GPa) = 34.39003 61.11574 30.61640
#
# Poissons Ratio (x) = 0.23965 0.10983
# Poissons Ratio (y) = 0.13485 0.24720
# Poissons Ratio (z) = 0.12336 0.49346
#
# Static dielectric constant tensor:
#      x y z
#    x 1.779690 0.031280 0.019260 
#    y 0.031280 1.728290 0.013630 
#    z 0.019260 0.013630 1.714950 
# 
# From -- ./inp_files/587831.got.cif
#   From: 2010.05.17/outbox.cif.g08.bks.cpg/sg2_294_cif.got.tgz:587831.got - 2010.06.03 11:33:40.
