data_PCOD9097592
_publ_section_title
;
Structure prediction by ZEFSAII (Michael W. Deem and Ramdas Pophale) SiO2 
 PCOD9097592
Probable space group: P -1
;
_chemical_formula_sum "Si O2"
_cell_formula_units_Z 14
_cell_length_a 14.403951
_cell_length_b 6.355846
_cell_length_c 11.460683
_cell_angle_alpha 94.516366
_cell_angle_beta 140.337289
_cell_angle_gamma 66.031652
_cell_volume 560.531429
_symmetry_space_group_name_H-M "P -1"
_symmetry_group_IT_number 2
_symmetry_cell_setting 'triclinic'
loop_
_space_group_symop_operation_xyz
x,y,z
-x,-y,-z
loop_
_atom_site_type_symbol
_atom_site_label
_atom_site_fract_x
_atom_site_fract_y
_atom_site_fract_z
Si Si1 0.861415 0.059888 0.179579
Si Si2 0.633200 0.857713 0.922284
Si Si3 0.340697 0.462995 0.848995
Si Si4 0.552782 0.138880 0.467320
Si Si5 0.179442 0.498581 0.453515
Si Si6 0.047273 0.657449 0.896243
Si Si7 0.247150 0.646731 0.286903
O O1 0.181650 0.729903 0.756624
O O2 0.013375 0.774814 0.339879
O O3 0.688871 0.056592 0.993691
O O4 0.916331 0.148144 0.122830
O O5 0.622078 0.749053 0.030189
O O6 0.795473 0.621776 0.002310
O O7 0.469605 0.934724 0.686498
O O8 0.290681 0.403669 0.674119
O O9 0.500000 0.500000 0.000000
O O10 0.402967 0.433190 0.350105
O O11 0.727423 0.122100 0.671785
O O12 0.500000 0.000000 0.500000
O O13 0.269777 0.549642 0.436362
O O14 0.110494 0.340188 0.318040
O O15 0.077099 0.681543 0.063499
#
# Coordination Sequence:
#
# PCOD9097592 Si02
#       7
#     2   2   2   2   2   2   2
#     4  10  22  40  62  85 117 156 199 243 292 346
#     4   9  20  38  59  86 117 154 196 240 291 347
#     4  11  24  41  60  85 120 157 197 245 293 347
#     4  10  20  36  61  89 121 158 194 238 296 353
#     4  11  23  38  61  89 118 157 199 240 292 352
#     4   9  20  38  60  86 118 151 192 246 294 344
#     4  10  21  37  58  89 123 153 194 245 294 348
#
# _framework density 24.976299000000001
#
# number of rings (size 3 to 8) (size 9 to 14) (size 15 to 20)
#    0.000    2.000    0.000    2.571    0.000   12.000 
#    0.000    0.000    0.000    0.000    0.000    0.000 
#    0.000    0.000    0.000    0.000    0.000    0.000 
#
# Total GULP energy -78330.302588 kJ/mol
# GULP energy per Si atom -5595.021613 kJ/mol
# Density = 2.491945 g / cm^3
# Si number density = 24.976299 Si / 1000 Ang^3
#
#
#
# Elastic Constant Matrix: (Units=GPa)
#
#
# Indices 1 2 3 4 5 6 
#
# 1 75.4768 24.9917 46.9650 13.1094 -22.1525 0.7696
# 2 24.9917 116.5247 59.1764 34.7790 -16.0343 10.5930
# 3 46.9650 59.1764 196.9540 23.5899 -37.7844 15.2356
# 4 13.1094 34.7790 23.5899 37.4430 -4.1305 7.4357
# 5 -22.1525 -16.0343 -37.7844 -4.1305 50.8766 -1.7096
# 6 0.7696 10.5930 15.2356 7.4357 -1.7096 58.4775
#
#
#
# Elastic Compliance Matrix: (Units=1/GPa)
#
#
# Indices 1 2 3 4 5 6 
#
# 1 0.017170 -0.000788 -0.002573 -0.003327 0.005086 0.001159
# 2 -0.000788 0.013199 -0.002260 -0.010331 0.001285 -0.000441
# 3 -0.002573 -0.002260 0.007233 -0.000937 0.003422 -0.001222
# 4 -0.003327 -0.010331 -0.000937 0.038349 -0.002381 -0.002787
# 5 0.005086 0.001285 0.003422 -0.002381 0.024617 -0.000169
# 6 0.001159 -0.000441 -0.001222 -0.002787 -0.000169 0.017833
#
#
# Mechanical properties :
#
#
# Convention : Reuss Voigt Hill
#
# Bulk Modulus (GPa) = 37.93664 72.35797 55.14731
# Shear Modulus (GPa) = 36.11943 46.54759 41.33351
#
# Velocity S-wave (km/s) = 3.80695 4.32171 4.07247
# Velocity P-wave (km/s) = 5.87757 7.34414 6.65140
#
# Compressibility (1/GPa) = 0.02635974
#
# Stress axis : x y z
#
# Youngs Moduli (GPa) = 58.24169 75.76417 138.25306
#
# Poissons Ratio (x) = 0.05973 0.35571
# Poissons Ratio (y) = 0.04591 0.31243
# Poissons Ratio (z) = 0.14985 0.17121
#
# Static dielectric constant tensor:
#      x y z
#    x 1.997850 -0.074220 0.064000 
#    y -0.074220 1.996400 -0.010320 
#    z 0.064000 -0.010320 1.988960 
# 
# From -- ./inp_files/328091.got.cif
#   From: 2010.05.17/outbox.cif.g08.bks.cpg/sg2_165_cif.got.tgz:328091.got - 2010.06.03 11:33:40.
