data_PCOD9097451
_publ_section_title
;
Structure prediction by ZEFSAII (Michael W. Deem and Ramdas Pophale) SiO2 
 PCOD9097451
Probable space group: P -1
;
_chemical_formula_sum "Si O2"
_cell_formula_units_Z 14
_cell_length_a 15.160194
_cell_length_b 7.129837
_cell_length_c 15.582006
_cell_angle_alpha 79.546608
_cell_angle_beta 28.886952
_cell_angle_gamma 62.146660
_cell_volume 608.683859
_symmetry_space_group_name_H-M "P -1"
_symmetry_group_IT_number 2
_symmetry_cell_setting 'triclinic'
loop_
_space_group_symop_operation_xyz
x,y,z
-x,-y,-z
loop_
_atom_site_type_symbol
_atom_site_label
_atom_site_fract_x
_atom_site_fract_y
_atom_site_fract_z
Si Si1 0.177885 0.851543 0.941205
Si Si2 0.317456 0.953153 0.077035
Si Si3 0.983771 0.173721 0.746454
Si Si4 0.497764 0.181469 0.612573
Si Si5 0.829816 0.750156 0.979983
Si Si6 0.147637 0.395100 0.295679
Si Si7 0.377594 0.334445 0.512593
O O1 0.448011 0.650137 0.692712
O O2 0.106839 0.750436 0.084003
O O3 0.155873 0.064547 0.993671
O O4 0.000000 0.000000 0.000000
O O5 0.176093 0.870221 0.165644
O O6 0.346506 0.084741 0.962676
O O7 0.169097 0.168554 0.257144
O O8 0.578379 0.726888 0.909228
O O9 0.967412 0.382282 0.692703
O O10 0.257283 0.919599 0.543577
O O11 0.441451 0.319124 0.559529
O O12 0.551052 0.926171 0.558435
O O13 0.276847 0.326571 0.854672
O O14 0.092765 0.542790 0.734646
O O15 0.000000 0.500000 0.500000
#
# Coordination Sequence:
#
# PCOD9097451 Si02
#       7
#     2   2   2   2   2   2   2
#     4  10  21  40  59  91 137 173 219 268 311 390
#     4  10  24  44  65 101 131 162 227 277 322 413
#     4  11  22  42  71  98 135 177 219 273 338 386
#     4  10  20  36  60  92 131 173 221 266 314 385
#     4  10  21  38  61  91 133 172 217 268 320 384
#     4  11  24  46  73  93 131 172 215 280 349 392
#     4  10  20  37  60  87 132 182 220 261 318 374
#
# _framework density 23.000446
#
# number of rings (size 3 to 8) (size 9 to 14) (size 15 to 20)
#    0.000    1.714    1.429    2.571    0.000    3.429 
#    2.571    8.571    0.000    0.000    0.000    0.000 
#    0.000    0.000    0.000    0.000    0.000    0.000 
#
# Total GULP energy -78336.216385 kJ/mol
# GULP energy per Si atom -5595.444027 kJ/mol
# Density = 2.294810 g / cm^3
# Si number density = 23.000446 Si / 1000 Ang^3
#
#
#
# Elastic Constant Matrix: (Units=GPa)
#
#
# Indices 1 2 3 4 5 6 
#
# 1 116.1700 30.0895 39.4584 12.8559 12.2707 -10.3341
# 2 30.0895 62.9241 44.4934 -6.0517 14.3048 -11.6271
# 3 39.4584 44.4934 157.3210 -3.5572 26.4948 -8.1421
# 4 12.8559 -6.0517 -3.5572 31.2130 -7.5963 7.0110
# 5 12.2707 14.3048 26.4948 -7.5963 45.9896 2.0267
# 6 -10.3341 -11.6271 -8.1421 7.0110 2.0267 35.8195
#
#
#
# Elastic Compliance Matrix: (Units=1/GPa)
#
#
# Indices 1 2 3 4 5 6 
#
# 1 0.011397 -0.004084 -0.001310 -0.006900 -0.002294 0.003145
# 2 -0.004084 0.023050 -0.004668 0.003853 -0.002959 0.004656
# 3 -0.001310 -0.004668 0.008549 -0.000225 -0.003172 0.000273
# 4 -0.006900 0.003853 -0.000225 0.039484 0.007688 -0.008954
# 5 -0.002294 -0.002959 -0.003172 0.007688 0.026610 -0.005354
# 6 0.003145 0.004656 0.000273 -0.008954 -0.005354 0.032454
#
#
# Mechanical properties :
#
#
# Convention : Reuss Voigt Hill
#
# Bulk Modulus (GPa) = 43.72611 62.72196 53.22403
# Shear Modulus (GPa) = 29.53503 37.42935 33.48219
#
# Velocity S-wave (km/s) = 3.58733 4.03840 3.81953
# Velocity P-wave (km/s) = 6.01754 7.00528 6.53011
#
# Compressibility (1/GPa) = 0.02286963
#
# Stress axis : x y z
#
# Youngs Moduli (GPa) = 87.74559 43.38487 116.97789
#
# Poissons Ratio (x) = 0.17719 0.15327
# Poissons Ratio (y) = 0.35838 0.54605
# Poissons Ratio (z) = 0.11497 0.20252
#
# Static dielectric constant tensor:
#      x y z
#    x 1.851640 0.039910 -0.002690 
#    y 0.039910 1.941420 -0.048670 
#    z -0.002690 -0.048670 1.858160 
# 
# From -- ./inp_files/322922.got.cif
#   From: 2010.05.17/outbox.cif.g08.bks.cpg/sg2_162_cif.got.tgz:322922.got - 2010.06.03 11:33:40.
