data_PCOD9097993
_publ_section_title
;
Structure prediction by ZEFSAII (Michael W. Deem and Ramdas Pophale) SiO2 
 PCOD9097993
Probable space group: P -1
;
_chemical_formula_sum "Si O2"
_cell_formula_units_Z 12
_cell_length_a 9.572892
_cell_length_b 8.990143
_cell_length_c 11.163136
_cell_angle_alpha 109.758014
_cell_angle_beta 67.887890
_cell_angle_gamma 148.473124
_cell_volume 465.116036
_symmetry_space_group_name_H-M "P -1"
_symmetry_group_IT_number 2
_symmetry_cell_setting 'triclinic'
loop_
_space_group_symop_operation_xyz
x,y,z
-x,-y,-z
loop_
_atom_site_type_symbol
_atom_site_label
_atom_site_fract_x
_atom_site_fract_y
_atom_site_fract_z
Si Si1 0.476658 0.800603 0.490657
Si Si2 0.214201 0.474031 0.256454
Si Si3 0.928874 0.953248 0.300290
Si Si4 0.380885 0.218534 0.971496
Si Si5 0.079182 0.426438 0.039475
Si Si6 0.482485 0.356933 0.357811
O O1 0.242463 0.534938 0.403809
O O2 0.749889 0.939546 0.411528
O O3 0.434045 0.730260 0.625804
O O4 0.500000 0.000000 0.500000
O O5 0.063409 0.443503 0.194535
O O6 0.705971 0.621903 0.267235
O O7 0.902006 0.111216 0.995231
O O8 0.092581 0.190459 0.210004
O O9 0.524578 0.754448 0.185328
O O10 0.177617 0.097741 0.336389
O O11 0.601702 0.326029 0.013873
O O12 0.500000 0.500000 0.000000
O O13 0.000000 0.500000 0.000000
O O14 0.500000 0.500000 0.500000
#
# Coordination Sequence:
#
# PCOD9097993 Si02
#       6
#     2   2   2   2   2   2
#     4  11  23  40  63  92 131 172 213 256 307 377
#     4  10  23  37  70  87 133 164 216 252 331 365
#     4  11  20  41  61  86 119 169 210 256 308 365
#     4  10  22  42  71  95 122 163 218 266 323 384
#     4  10  22  41  70  92 131 167 206 266 337 383
#     4  10  20  36  63  83 119 167 209 256 306 356
#
# _framework density 25.800013
#
# number of rings (size 3 to 8) (size 9 to 14) (size 15 to 20)
#    1.000    0.667    3.333    4.000    0.000    0.667 
#    0.000    1.667    7.333    0.000    0.000    0.000 
#    0.000    0.000    0.000    0.000    0.000    0.000 
#
# Total GULP energy -66830.422116 kJ/mol
# GULP energy per Si atom -5569.201843 kJ/mol
# Density = 2.574129 g / cm^3
# Si number density = 25.800013 Si / 1000 Ang^3
#
#
#
# Elastic Constant Matrix: (Units=GPa)
#
#
# Indices 1 2 3 4 5 6 
#
# 1 114.8945 51.0385 61.2487 3.8367 53.0279 -30.6281
# 2 51.0385 168.2288 34.3033 2.7503 15.7495 -3.6477
# 3 61.2487 34.3033 74.9050 2.0926 42.0865 -4.7355
# 4 3.8367 2.7503 2.0926 43.1355 -1.8119 14.7291
# 5 53.0279 15.7495 42.0865 -1.8119 44.1937 -10.7866
# 6 -30.6281 -3.6477 -4.7355 14.7291 -10.7866 54.5977
#
#
#
# Elastic Compliance Matrix: (Units=1/GPa)
#
#
# Indices 1 2 3 4 5 6 
#
# 1 0.029388 -0.004760 -0.007673 -0.007309 -0.023423 0.012846
# 2 -0.004760 0.007365 -0.002448 0.000837 0.005058 -0.001617
# 3 -0.007673 -0.002448 0.033395 0.000382 -0.023236 -0.006265
# 4 -0.007309 0.000837 0.000382 0.027490 0.006772 -0.010089
# 5 -0.023423 0.005058 -0.023236 0.006772 0.070682 -0.002680
# 6 0.012846 -0.001617 -0.006265 -0.010089 -0.002680 0.027063
#
#
# Mechanical properties :
#
#
# Convention : Reuss Voigt Hill
#
# Bulk Modulus (GPa) = 24.76222 72.35660 48.55941
# Shear Modulus (GPa) = 20.95488 42.48125 31.71806
#
# Velocity S-wave (km/s) = 2.85301 4.06218 3.51006
# Velocity P-wave (km/s) = 4.52454 7.07869 5.94051
#
# Compressibility (1/GPa) = 0.04038410
#
# Stress axis : x y z
#
# Youngs Moduli (GPa) = 34.02781 135.76926 29.94501
#
# Poissons Ratio (x) = 0.64632 0.22977
# Poissons Ratio (y) = 0.16199 0.07331
# Poissons Ratio (z) = 0.26110 0.33239
#
# Static dielectric constant tensor:
#      x y z
#    x 2.165490 0.059390 -0.190790 
#    y 0.059390 2.173560 -0.147780 
#    z -0.190790 -0.147780 2.350430 
# 
# From -- ./inp_files/374594.got.cif
#   From: 2010.05.17/outbox.cif.g08.bks.cpg/sg2_188_cif.got.tgz:374594.got - 2010.06.03 11:33:40.
