data_PCOD9097397
_publ_section_title
;
Structure prediction by ZEFSAII (Michael W. Deem and Ramdas Pophale) SiO2 
 PCOD9097397
Probable space group: P -1
;
_chemical_formula_sum "Si O2"
_cell_formula_units_Z 14
_cell_length_a 27.339823
_cell_length_b 9.540936
_cell_length_c 8.920916
_cell_angle_alpha 72.353624
_cell_angle_beta 134.841361
_cell_angle_gamma 145.651280
_cell_volume 667.140886
_symmetry_space_group_name_H-M "P -1"
_symmetry_group_IT_number 2
_symmetry_cell_setting 'triclinic'
loop_
_space_group_symop_operation_xyz
x,y,z
-x,-y,-z
loop_
_atom_site_type_symbol
_atom_site_label
_atom_site_fract_x
_atom_site_fract_y
_atom_site_fract_z
Si Si1 0.680097 0.881965 0.335358
Si Si2 0.657450 0.166813 0.243340
Si Si3 0.363340 0.592739 0.304177
Si Si4 0.402657 0.791488 0.611920
Si Si5 0.484477 0.412400 0.329046
Si Si6 0.853402 0.115358 0.364425
Si Si7 0.851043 0.806840 0.300352
O O1 0.641513 0.767525 0.459289
O O2 0.724583 0.140273 0.345681
O O3 0.814534 0.054146 0.477175
O O4 0.500000 0.500000 0.000000
O O5 0.647624 0.171255 0.400516
O O6 0.747084 0.483386 0.270352
O O7 0.479439 0.828699 0.887829
O O8 0.288100 0.502086 0.329538
O O9 0.496817 0.726915 0.586895
O O10 0.454147 0.885530 0.298144
O O11 0.232142 0.285667 0.999143
O O12 0.500000 0.500000 0.500000
O O13 0.315264 0.146911 0.985143
O O14 0.000000 0.500000 0.500000
O O15 0.883722 0.007548 0.413140
O O16 0.000000 0.000000 0.500000
#
# Coordination Sequence:
#
# PCOD9097397 Si02
#       7
#     2   2   2   2   2   2   2
#     4  10  22  36  63  96 126 169 217 259 318 385
#     4  10  20  36  60  90 124 157 212 256 311 376
#     4  10  20  37  59  92 122 160 213 258 315 370
#     4   9  19  31  60  88 121 155 198 263 308 362
#     4  11  21  38  67  95 130 164 214 267 320 384
#     4  11  24  42  65  95 132 173 214 265 327 384
#     4  11  24  41  64  86 126 172 215 262 323 386
#
# _framework density 20.985073
#
# number of rings (size 3 to 8) (size 9 to 14) (size 15 to 20)
#    0.000    1.714    1.429    3.429   12.000    2.286 
#    0.000    1.429    3.143    0.000    0.000    0.000 
#    0.000    0.000    0.000    0.000    0.000    0.000 
#
# Total GULP energy -77946.561873 kJ/mol
# GULP energy per Si atom -5567.611562 kJ/mol
# Density = 2.093731 g / cm^3
# Si number density = 20.985073 Si / 1000 Ang^3
#
#
#
# Elastic Constant Matrix: (Units=GPa)
#
#
# Indices 1 2 3 4 5 6 
#
# 1 208.0272 67.3510 32.5154 -1.3699 -9.7389 3.2252
# 2 67.3510 98.6344 14.9606 3.9275 -4.9221 -1.5507
# 3 32.5154 14.9606 18.9318 -3.5734 6.0828 8.9049
# 4 -1.3699 3.9275 -3.5734 20.4520 1.5801 3.3060
# 5 -9.7389 -4.9221 6.0828 1.5801 34.4027 -8.8208
# 6 3.2252 -1.5507 8.9049 3.3060 -8.8208 50.4307
#
#
#
# Elastic Compliance Matrix: (Units=1/GPa)
#
#
# Indices 1 2 3 4 5 6 
#
# 1 0.008501 -0.002856 -0.016405 -0.002769 0.005918 0.003482
# 2 -0.002856 0.014151 -0.010366 -0.005620 0.004218 0.003554
# 3 -0.016405 -0.010366 0.119722 0.029215 -0.035974 -0.028617
# 4 -0.002769 -0.005620 0.029215 0.057629 -0.012239 -0.011073
# 5 0.005918 0.004218 -0.035974 -0.012239 0.041920 0.014238
# 6 0.003482 0.003554 -0.028617 -0.011073 0.014238 0.027985
#
#
# Mechanical properties :
#
#
# Convention : Reuss Voigt Hill
#
# Bulk Modulus (GPa) = 12.03076 61.69414 36.86245
# Shear Modulus (GPa) = 14.01080 35.10818 24.55949
#
# Velocity S-wave (km/s) = 2.58671 4.09468 3.42472
# Velocity P-wave (km/s) = 3.82973 7.19848 5.76563
#
# Compressibility (1/GPa) = 0.08312028
#
# Stress axis : x y z
#
# Youngs Moduli (GPa) = 117.63671 70.66626 8.35270
#
# Poissons Ratio (x) = 0.20182 0.13703
# Poissons Ratio (y) = 0.33597 0.08658
# Poissons Ratio (z) = 1.92984 0.73250
#
# Static dielectric constant tensor:
#      x y z
#    x 1.844010 -0.011330 -0.062230 
#    y -0.011330 1.822560 0.021580 
#    z -0.062230 0.021580 1.844300 
# 
# From -- ./inp_files/351747.got.cif
#   From: 2010.05.17/outbox.cif.g08.bks.cpg/sg2_176_cif.got.tgz:351747.got - 2010.06.03 11:33:40.
