data_PCOD9097298
_publ_section_title
;
Structure prediction by ZEFSAII (Michael W. Deem and Ramdas Pophale) SiO2 
 PCOD9097298
Probable space group: P -1
;
_chemical_formula_sum "Si O2"
_cell_formula_units_Z 14
_cell_length_a 11.440782
_cell_length_b 12.009152
_cell_length_c 6.330634
_cell_angle_alpha 63.204198
_cell_angle_beta 85.198149
_cell_angle_gamma 53.275910
_cell_volume 600.933191
_symmetry_space_group_name_H-M "P -1"
_symmetry_group_IT_number 2
_symmetry_cell_setting 'triclinic'
loop_
_space_group_symop_operation_xyz
x,y,z
-x,-y,-z
loop_
_atom_site_type_symbol
_atom_site_label
_atom_site_fract_x
_atom_site_fract_y
_atom_site_fract_z
Si Si1 0.832656 0.043911 0.234222
Si Si2 0.155196 0.118142 0.012817
Si Si3 0.366847 0.161819 0.757707
Si Si4 0.411212 0.869495 0.517506
Si Si5 0.912273 0.247716 0.254430
Si Si6 0.317335 0.474996 0.627545
Si Si7 0.538425 0.512553 0.746631
O O1 0.965540 0.890835 0.481333
O O2 0.671115 0.089658 0.281321
O O3 0.832490 0.184657 0.202107
O O4 0.863425 0.994274 0.027932
O O5 0.008483 0.251240 0.055191
O O6 0.284507 0.005763 0.261693
O O7 0.216234 0.181782 0.788909
O O8 0.437975 0.150350 0.528300
O O9 0.331713 0.318508 0.736018
O O10 0.500000 0.000000 0.000000
O O11 0.450008 0.703472 0.581748
O O12 0.800379 0.403655 0.280721
O O13 0.474359 0.433384 0.709194
O O14 0.303617 0.552240 0.333241
O O15 0.500000 0.500000 0.000000
#
# Coordination Sequence:
#
# PCOD9097298 Si02
#       7
#     2   2   2   2   2   2   2
#     4  10  20  36  60  86 118 158 196 248 287 353
#     4  10  21  37  61  87 118 164 200 230 289 361
#     4   9  20  39  60  84 118 162 195 238 298 348
#     4   9  19  38  59  88 119 148 200 244 295 345
#     4  10  21  38  56  90 119 155 198 242 302 335
#     4  10  21  39  59  84 126 150 191 258 282 354
#     4  10  21  37  59  90 115 153 195 245 307 343
#
# _framework density 23.2971
#
# number of rings (size 3 to 8) (size 9 to 14) (size 15 to 20)
#    0.000    2.286    1.429    0.429    0.000    6.857 
#    0.000    7.857    0.000    0.000    0.000    0.000 
#    0.000    0.000    0.000    0.000    0.000    0.000 
#
# Total GULP energy -78068.512539 kJ/mol
# GULP energy per Si atom -5576.322324 kJ/mol
# Density = 2.324408 g / cm^3
# Si number density = 23.297100 Si / 1000 Ang^3
#
#
#
# Elastic Constant Matrix: (Units=GPa)
#
#
# Indices 1 2 3 4 5 6 
#
# 1 89.1090 44.0337 32.6854 8.7639 -43.6491 -10.0932
# 2 44.0337 165.8030 44.9975 32.8288 -35.5687 -3.0896
# 3 32.6854 44.9975 61.5699 19.3104 -26.1882 -10.9144
# 4 8.7639 32.8288 19.3104 41.7772 -8.8751 -12.4394
# 5 -43.6491 -35.5687 -26.1882 -8.8751 36.2400 7.0542
# 6 -10.0932 -3.0896 -10.9144 -12.4394 7.0542 28.5054
#
#
#
# Elastic Compliance Matrix: (Units=1/GPa)
#
#
# Indices 1 2 3 4 5 6 
#
# 1 0.027684 -0.000709 -0.000904 0.002785 0.032163 0.002635
# 2 -0.000709 0.009300 -0.002997 -0.005892 0.005507 -0.004325
# 3 -0.000904 -0.002997 0.027175 -0.006037 0.013387 0.003813
# 4 0.002785 -0.005892 -0.006037 0.034549 -0.000927 0.013342
# 5 0.032163 0.005507 0.013387 -0.000927 0.081876 -0.003556
# 6 0.002635 -0.004325 0.003813 0.013342 -0.003556 0.043707
#
#
# Mechanical properties :
#
#
# Convention : Reuss Voigt Hill
#
# Bulk Modulus (GPa) = 18.20216 62.21278 40.20747
# Shear Modulus (GPa) = 19.85510 34.28886 27.07198
#
# Velocity S-wave (km/s) = 2.92251 3.84058 3.41256
# Velocity P-wave (km/s) = 4.38385 6.81387 5.72917
#
# Compressibility (1/GPa) = 0.05493854
#
# Stress axis : x y z
#
# Youngs Moduli (GPa) = 36.12241 107.52256 36.79834
#
# Poissons Ratio (x) = 0.07629 0.03327
# Poissons Ratio (y) = 0.02563 0.11028
# Poissons Ratio (z) = 0.03266 0.32222
#
# Static dielectric constant tensor:
#      x y z
#    x 1.953120 -0.039420 0.034070 
#    y -0.039420 1.852560 0.032980 
#    z 0.034070 0.032980 2.109390 
# 
# From -- ./inp_files/65824.got.cif
#   From: 2010.05.17/outbox.cif.g08.bks.cpg/sg2_33_cif.got.tgz:65824.got - 2010.06.03 11:33:40.
