data_PCOD9097173
_publ_section_title
;
Structure prediction by ZEFSAII (Michael W. Deem and Ramdas Pophale) SiO2 
 PCOD9097173
Probable space group: P -1
;
_chemical_formula_sum "Si O2"
_cell_formula_units_Z 12
_cell_length_a 5.401794
_cell_length_b 11.905818
_cell_length_c 7.596475
_cell_angle_alpha 81.278640
_cell_angle_beta 106.104707
_cell_angle_gamma 71.704355
_cell_volume 430.120778
_symmetry_space_group_name_H-M "P -1"
_symmetry_group_IT_number 2
_symmetry_cell_setting 'triclinic'
loop_
_space_group_symop_operation_xyz
x,y,z
-x,-y,-z
loop_
_atom_site_type_symbol
_atom_site_label
_atom_site_fract_x
_atom_site_fract_y
_atom_site_fract_z
Si Si1 0.721018 0.105400 0.631368
Si Si2 0.376224 0.944875 0.731052
Si Si3 0.820868 0.141273 0.987299
Si Si4 0.120119 0.604833 0.482637
Si Si5 0.292314 0.512989 0.180507
Si Si6 0.014476 0.315594 0.194482
O O1 0.593492 0.146162 0.404949
O O2 0.544149 0.028585 0.691774
O O3 0.704102 0.198846 0.761606
O O4 0.048634 0.031804 0.668787
O O5 0.425033 0.867367 0.937318
O O6 0.012877 0.194412 0.124636
O O7 0.000000 0.000000 0.000000
O O8 0.423605 0.547572 0.642899
O O9 0.974483 0.702766 0.586589
O O10 0.000000 0.500000 0.500000
O O11 0.892873 0.386416 0.733709
O O12 0.191586 0.399129 0.163540
O O13 0.269543 0.591403 0.980220
#
# Coordination Sequence:
#
# PCOD9097173 Si02
#       6
#     2   2   2   2   2   2
#     4   9  18  35  58  79 110 156 205 256 295 351
#     4   9  18  35  58  78 111 156 208 253 296 352
#     4  10  21  37  56  85 124 162 206 248 302 369
#     4   9  18  36  63  86 117 151 197 254 311 369
#     4   9  19  37  62  90 118 151 200 255 311 368
#     4  10  20  36  59  90 121 158 199 252 307 367
#
# _framework density 27.899141
#
# number of rings (size 3 to 8) (size 9 to 14) (size 15 to 20)
#    0.000    2.667    0.000    1.000    0.000    1.333 
#   12.000    0.000   33.000    0.000    0.000    0.000 
#    0.000    0.000    0.000    0.000    0.000    0.000 
#
# Total GULP energy -66863.831488 kJ/mol
# GULP energy per Si atom -5571.985957 kJ/mol
# Density = 2.783564 g / cm^3
# Si number density = 27.899141 Si / 1000 Ang^3
#
#
#
# Elastic Constant Matrix: (Units=GPa)
#
#
# Indices 1 2 3 4 5 6 
#
# 1 100.4489 45.4349 8.7214 16.1061 -1.4647 13.9495
# 2 45.4349 146.4599 39.6899 36.6335 -3.1078 29.0362
# 3 8.7214 39.6899 161.3860 56.9152 -19.3449 -3.9278
# 4 16.1061 36.6335 56.9152 47.7815 3.2949 11.9069
# 5 -1.4647 -3.1078 -19.3449 3.2949 40.6751 13.7158
# 6 13.9495 29.0362 -3.9278 11.9069 13.7158 28.7601
#
#
#
# Elastic Compliance Matrix: (Units=1/GPa)
#
#
# Indices 1 2 3 4 5 6 
#
# 1 0.011941 -0.002779 0.001189 -0.002802 0.001872 -0.002556
# 2 -0.002779 0.011096 -0.000767 -0.004425 0.004149 -0.010106
# 3 0.001189 -0.000767 0.013487 -0.017962 0.005551 0.006829
# 4 -0.002802 -0.004425 -0.017962 0.050618 -0.008524 -0.013518
# 5 0.001872 0.004149 0.005551 -0.008524 0.034049 -0.017048
# 6 -0.002556 -0.010106 0.006829 -0.013518 -0.017048 0.060873
#
#
# Mechanical properties :
#
#
# Convention : Reuss Voigt Hill
#
# Bulk Modulus (GPa) = 31.43736 66.22081 48.82908
# Shear Modulus (GPa) = 25.33178 44.40658 34.86918
#
# Velocity S-wave (km/s) = 3.01653 3.99392 3.53913
# Velocity P-wave (km/s) = 4.83997 6.71236 5.85154
#
# Compressibility (1/GPa) = 0.03180929
#
# Stress axis : x y z
#
# Youngs Moduli (GPa) = 83.74746 90.12137 74.14605
#
# Poissons Ratio (x) = 0.25044 -0.08813
# Poissons Ratio (y) = 0.23273 0.05686
# Poissons Ratio (z) = -0.09954 0.06911
#
# Static dielectric constant tensor:
#      x y z
#    x 2.530790 -0.194000 0.022310 
#    y -0.194000 2.266260 -0.001720 
#    z 0.022310 -0.001720 2.465450 
# 
# From -- ./inp_files/129886.got.cif
#   From: 2010.05.17/outbox.cif.g08.bks.cpg/sg2_65_cif.got.tgz:129886.got - 2010.06.03 11:33:40.
