data_PCOD9097099
_publ_section_title
;
Structure prediction by ZEFSAII (Michael W. Deem and Ramdas Pophale) SiO2 
 PCOD9097099
Probable space group: P -1
;
_chemical_formula_sum "Si O2"
_cell_formula_units_Z 12
_cell_length_a 9.645367
_cell_length_b 7.723440
_cell_length_c 13.106602
_cell_angle_alpha 38.135460
_cell_angle_beta 60.669843
_cell_angle_gamma 51.731014
_cell_volume 473.366409
_symmetry_space_group_name_H-M "P -1"
_symmetry_group_IT_number 2
_symmetry_cell_setting 'triclinic'
loop_
_space_group_symop_operation_xyz
x,y,z
-x,-y,-z
loop_
_atom_site_type_symbol
_atom_site_label
_atom_site_fract_x
_atom_site_fract_y
_atom_site_fract_z
Si Si1 0.971978 0.393648 0.210543
Si Si2 0.088217 0.855093 0.845877
Si Si3 0.523530 0.564078 0.077803
Si Si4 0.138787 0.409627 0.631642
Si Si5 0.384811 0.369946 0.393015
Si Si6 0.581636 0.750462 0.230611
O O1 0.010256 0.130516 0.232910
O O2 0.976713 0.337235 0.357426
O O3 0.764577 0.615822 0.165244
O O4 0.065574 0.604739 0.043361
O O5 0.297964 0.709842 0.818701
O O6 0.053493 0.169503 0.769814
O O7 0.369586 0.551416 0.208107
O O8 0.500000 0.500000 0.000000
O O9 0.529998 0.895260 0.924915
O O10 0.199470 0.441574 0.481115
O O11 0.334592 0.260423 0.683204
O O12 0.486585 0.528710 0.350909
O O13 0.500000 0.000000 0.500000
#
# Coordination Sequence:
#
# PCOD9097099 Si02
#       6
#     2   2   2   2   2   2
#     4   9  21  35  60  86 113 160 196 236 278 358
#     4  11  19  37  60  87 118 152 200 234 285 355
#     4  12  21  36  58  92 116 152 193 246 295 341
#     4  10  20  36  59  87 115 151 199 240 289 341
#     4  12  21  36  58  88 121 152 194 248 291 345
#     4  10  21  36  59  89 113 151 197 241 295 334
#
# _framework density 25.350342000000001
#
# number of rings (size 3 to 8) (size 9 to 14) (size 15 to 20)
#    1.000    0.333    5.000    1.500    0.000    0.000 
#    0.000    0.000    0.000    5.000    4.333    0.000 
#    0.000    0.000    0.000    0.000    0.000    0.000 
#
# Total GULP energy -66931.518252 kJ/mol
# GULP energy per Si atom -5577.626521 kJ/mol
# Density = 2.529264 g / cm^3
# Si number density = 25.350342 Si / 1000 Ang^3
#
#
#
# Elastic Constant Matrix: (Units=GPa)
#
#
# Indices 1 2 3 4 5 6 
#
# 1 58.8228 28.9510 28.6960 -8.2725 -22.9678 19.9672
# 2 28.9510 121.2701 64.9054 -0.9461 -15.1979 42.8123
# 3 28.6960 64.9054 123.5701 6.6609 -30.8947 17.6683
# 4 -8.2725 -0.9461 6.6609 66.9368 5.2526 -3.6279
# 5 -22.9678 -15.1979 -30.8947 5.2526 43.1475 1.2301
# 6 19.9672 42.8123 17.6683 -3.6279 1.2301 50.2933
#
#
#
# Elastic Compliance Matrix: (Units=1/GPa)
#
#
# Indices 1 2 3 4 5 6 
#
# 1 0.026617 -0.000507 -0.001333 0.001854 0.013091 -0.009854
# 2 -0.000507 0.015786 -0.006340 0.000111 0.001051 -0.011027
# 3 -0.001333 -0.006340 0.013448 -0.002087 0.006915 0.000882
# 4 0.001854 0.000111 -0.002087 0.015625 -0.002402 0.001089
# 5 0.013091 0.001051 0.006915 -0.002402 0.036032 -0.009576
# 6 -0.009854 -0.011027 0.000882 0.001089 -0.009576 0.033185
#
#
# Mechanical properties :
#
#
# Convention : Reuss Voigt Hill
#
# Bulk Modulus (GPa) = 25.32301 60.97420 43.14861
# Shear Modulus (GPa) = 29.37440 44.14957 36.76199
#
# Velocity S-wave (km/s) = 3.40772 4.17775 3.81222
# Velocity P-wave (km/s) = 5.04919 6.88304 6.03616
#
# Compressibility (1/GPa) = 0.03948977
#
# Stress axis : x y z
#
# Youngs Moduli (GPa) = 37.57004 63.34715 74.36295
#
# Poissons Ratio (x) = 0.03213 0.09911
# Poissons Ratio (y) = 0.01906 0.47149
# Poissons Ratio (z) = 0.05007 0.40164
#
# Static dielectric constant tensor:
#      x y z
#    x 2.007170 0.072550 0.033940 
#    y 0.072550 2.061540 0.045840 
#    z 0.033940 0.045840 2.000500 
# 
# From -- ./inp_files/513904.got.cif
#   From: 2010.05.17/outbox.cif.g08.bks.cpg/sg2_257_cif.got.tgz:513904.got - 2010.06.03 11:33:40.
