data_PCOD9097091
_publ_section_title
;
Structure prediction by ZEFSAII (Michael W. Deem and Ramdas Pophale) SiO2 
 PCOD9097091
Probable space group: P -1
;
_chemical_formula_sum "Si O2"
_cell_formula_units_Z 13
_cell_length_a 11.316367
_cell_length_b 9.151906
_cell_length_c 9.937590
_cell_angle_alpha 136.964426
_cell_angle_beta 51.746791
_cell_angle_gamma 104.125260
_cell_volume 508.109814
_symmetry_space_group_name_H-M "P -1"
_symmetry_group_IT_number 2
_symmetry_cell_setting 'triclinic'
loop_
_space_group_symop_operation_xyz
x,y,z
-x,-y,-z
loop_
_atom_site_type_symbol
_atom_site_label
_atom_site_fract_x
_atom_site_fract_y
_atom_site_fract_z
Si Si1 0.323364 0.502669 0.666439
Si Si2 0.861247 0.089604 0.267268
Si Si3 0.090626 0.360915 0.554391
Si Si4 0.783684 0.609005 0.780966
Si Si5 0.500000 0.500000 0.000000
Si Si6 0.005081 0.756410 0.189366
Si Si7 0.508345 0.205781 0.548047
O O1 0.500000 0.500000 0.500000
O O2 0.215861 0.464499 0.597237
O O3 0.380576 0.274853 0.566008
O O4 0.192798 0.709775 0.986304
O O5 0.834504 0.341918 0.513753
O O6 0.698513 0.117032 0.319194
O O7 0.894758 0.934055 0.274654
O O8 0.000000 0.000000 0.000000
O O9 0.173645 0.259250 0.284039
O O10 0.913624 0.563760 0.780098
O O11 0.053094 0.200664 0.584910
O O12 0.599753 0.664735 0.989685
O O13 0.476118 0.430789 0.815298
O O14 0.000000 0.500000 0.000000
O O15 0.500000 0.000000 0.500000
#
# Coordination Sequence:
#
# PCOD9097091 Si02
#       7
#     2   2   2   2   1   2   2
#     4  11  21  38  61  91 127 167 213 264 325 384
#     4  11  22  39  63  93 123 165 219 264 319 390
#     4  10  21  37  58  88 120 164 212 256 324 385
#     4  10  22  40  64  89 128 171 214 270 322 389
#     4  10  22  42  64  96 128 166 218 266 322 380
#     4  10  20  36  59  86 123 159 203 262 315 376
#     4  11  23  40  67  94 127 170 212 265 322 386
#
# _framework density 25.58502
#
# number of rings (size 3 to 8) (size 9 to 14) (size 15 to 20)
#    0.000    1.538    0.000    7.385    0.000    4.308 
#    0.000    1.538    0.000   11.077    0.000    0.000 
#    0.000    0.000    0.000    0.000    0.000    0.000 
#
# Total GULP energy -72379.353702 kJ/mol
# GULP energy per Si atom -5567.642592 kJ/mol
# Density = 2.552679 g / cm^3
# Si number density = 25.585020 Si / 1000 Ang^3
#
#
#
# Elastic Constant Matrix: (Units=GPa)
#
#
# Indices 1 2 3 4 5 6 
#
# 1 142.7950 39.3994 18.2371 -6.5443 -14.7616 -13.4989
# 2 39.3994 140.5903 27.7387 -22.2495 4.5649 -23.3206
# 3 18.2371 27.7387 73.6437 -23.7479 2.8511 -3.4041
# 4 -6.5443 -22.2495 -23.7479 48.8464 5.0279 -3.4374
# 5 -14.7616 4.5649 2.8511 5.0279 31.3197 -11.2803
# 6 -13.4989 -23.3206 -3.4041 -3.4374 -11.2803 51.9856
#
#
#
# Elastic Compliance Matrix: (Units=1/GPa)
#
#
# Indices 1 2 3 4 5 6 
#
# 1 0.008519 -0.001990 -0.001800 -0.001040 0.005472 0.002320
# 2 -0.001990 0.009155 -0.001610 0.003511 -0.001465 0.003399
# 3 -0.001800 -0.001610 0.017255 0.007757 -0.003544 -0.000316
# 4 -0.001040 0.003511 0.007757 0.026398 -0.005060 0.002460
# 5 0.005472 -0.001465 -0.003544 -0.005060 0.038973 0.008654
# 6 0.002320 0.003399 -0.000316 0.002460 0.008654 0.023383
#
#
# Mechanical properties :
#
#
# Convention : Reuss Voigt Hill
#
# Bulk Modulus (GPa) = 41.44167 58.64219 50.04193
# Shear Modulus (GPa) = 35.08141 44.54061 39.81101
#
# Velocity S-wave (km/s) = 3.70695 4.17692 3.94893
# Velocity P-wave (km/s) = 5.87833 6.79945 6.35560
#
# Compressibility (1/GPa) = 0.02413030
#
# Stress axis : x y z
#
# Youngs Moduli (GPa) = 117.38075 109.22889 57.95409
#
# Poissons Ratio (x) = 0.21733 0.10433
# Poissons Ratio (y) = 0.23355 0.09328
# Poissons Ratio (z) = 0.21132 0.17582
#
# Static dielectric constant tensor:
#      x y z
#    x 1.952840 0.112930 0.036020 
#    y 0.112930 2.127930 -0.071060 
#    z 0.036020 -0.071060 2.173820 
# 
# From -- ./inp_files/240834.got.cif
#   From: 2010.05.17/outbox.cif.g08.bks.cpg/sg2_121_cif.got.tgz:240834.got - 2010.06.03 11:33:40.
