data_PCOD9097817
_publ_section_title
;
Structure prediction by ZEFSAII (Michael W. Deem and Ramdas Pophale) SiO2 
 PCOD9097817
Probable space group: P -1
;
_chemical_formula_sum "Si O2"
_cell_formula_units_Z 16
_cell_length_a 14.600310
_cell_length_b 7.841597
_cell_length_c 9.212309
_cell_angle_alpha 47.831931
_cell_angle_beta 103.378957
_cell_angle_gamma 107.670210
_cell_volume 744.279774
_symmetry_space_group_name_H-M "P -1"
_symmetry_group_IT_number 2
_symmetry_cell_setting 'triclinic'
loop_
_space_group_symop_operation_xyz
x,y,z
-x,-y,-z
loop_
_atom_site_type_symbol
_atom_site_label
_atom_site_fract_x
_atom_site_fract_y
_atom_site_fract_z
Si Si1 0.314536 0.830495 0.684193
Si Si2 0.121340 0.654929 0.865968
Si Si3 0.076340 0.420031 0.276950
Si Si4 0.951330 0.731666 0.161059
Si Si5 0.202071 0.361679 0.585570
Si Si6 0.694133 0.103763 0.681142
Si Si7 0.332070 0.309917 0.895651
Si Si8 0.508267 0.938515 0.870887
O O1 0.216146 0.814188 0.745246
O O2 0.316364 0.960604 0.455855
O O3 0.317288 0.562299 0.793681
O O4 0.408238 0.914443 0.767122
O O5 0.105272 0.401554 0.922568
O O6 0.020380 0.730429 0.747075
O O7 0.124956 0.601182 0.067392
O O8 0.151292 0.290352 0.454562
O O9 0.032467 0.573205 0.293597
O O10 0.879266 0.705545 0.283317
O O11 0.000000 0.000000 0.000000
O O12 0.237725 0.643279 0.425914
O O13 0.292627 0.271504 0.738553
O O14 0.590575 0.113907 0.709257
O O15 0.724858 0.900311 0.904176
O O16 0.442318 0.289905 0.972146
O O17 0.500000 0.000000 0.000000
#
# Coordination Sequence:
#
# PCOD9097817 Si02
#       8
#     2   2   2   2   2   2   2   2
#     4  11  19  42  64  87 123 166 206 248 303 369
#     4   9  20  37  60  87 122 163 197 247 311 351
#     4   9  20  37  60  86 123 165 189 249 313 350
#     4  10  20  36  62  89 119 156 208 249 292 358
#     4  11  20  38  63  93 122 163 203 250 304 368
#     4   9  21  37  65  87 122 158 207 243 309 363
#     4   9  21  37  63  89 119 158 209 249 293 372
#     4  10  23  39  63  94 125 158 199 262 314 352
#
# _framework density 21.497294
#
# number of rings (size 3 to 8) (size 9 to 14) (size 15 to 20)
#    1.500    0.750    2.500    1.125    3.500    0.000 
#    0.000    4.375    0.000    0.000    0.000    0.000 
#    0.000    0.000    0.000    0.000    0.000    0.000 
#
# Total GULP energy -89119.079363 kJ/mol
# GULP energy per Si atom -5569.942460 kJ/mol
# Density = 2.144837 g / cm^3
# Si number density = 21.497294 Si / 1000 Ang^3
#
#
#
# Elastic Constant Matrix: (Units=GPa)
#
#
# Indices 1 2 3 4 5 6 
#
# 1 86.0447 16.6323 32.3417 16.4321 -12.4038 24.7518
# 2 16.6323 44.0054 27.3156 0.4343 1.4095 17.3814
# 3 32.3417 27.3156 108.1678 24.1917 3.7658 20.7340
# 4 16.4321 0.4343 24.1917 36.2616 1.9776 6.3139
# 5 -12.4038 1.4095 3.7658 1.9776 44.6619 -1.8191
# 6 24.7518 17.3814 20.7340 6.3139 -1.8191 27.3223
#
#
#
# Elastic Compliance Matrix: (Units=1/GPa)
#
#
# Indices 1 2 3 4 5 6 
#
# 1 0.017729 -0.000631 -0.001747 -0.004878 0.004782 -0.012888
# 2 -0.000631 0.034154 -0.006606 0.007513 -0.001762 -0.017997
# 3 -0.001747 -0.006606 0.013776 -0.007738 -0.001216 -0.002962
# 4 -0.004878 0.007513 -0.007738 0.035503 -0.002628 -0.002868
# 5 0.004782 -0.001762 -0.001216 -0.002628 0.023990 -0.000084
# 6 -0.012888 -0.017997 -0.002962 -0.002868 -0.000084 0.062630
#
#
# Mechanical properties :
#
#
# Convention : Reuss Voigt Hill
#
# Bulk Modulus (GPa) = 20.96773 43.42191 32.19482
# Shear Modulus (GPa) = 22.55863 32.44438 27.50151
#
# Velocity S-wave (km/s) = 3.24291 3.88910 3.58061
# Velocity P-wave (km/s) = 4.87820 6.35684 5.66596
#
# Compressibility (1/GPa) = 0.04769233
#
# Stress axis : x y z
#
# Youngs Moduli (GPa) = 56.40594 29.27923 72.59008
#
# Poissons Ratio (x) = 0.01847 0.12678
# Poissons Ratio (y) = 0.03559 0.47950
# Poissons Ratio (z) = 0.09852 0.19341
#
# Static dielectric constant tensor:
#      x y z
#    x 1.838800 -0.003560 0.042330 
#    y -0.003560 1.817960 0.015460 
#    z 0.042330 0.015460 1.776340 
# 
# From -- ./inp_files/297509.got.cif
#   From: 2010.05.17/outbox.cif.g08.bks.cpg/sg2_149_cif.got.tgz:297509.got - 2010.06.03 11:33:40.
