data_PCOD9097200
_publ_section_title
;
Structure prediction by ZEFSAII (Michael W. Deem and Ramdas Pophale) SiO2 
 PCOD9097200
Probable space group: P -1
;
_chemical_formula_sum "Si O2"
_cell_formula_units_Z 16
_cell_length_a 15.506725
_cell_length_b 25.658409
_cell_length_c 8.523634
_cell_angle_alpha 136.142166
_cell_angle_beta 136.084331
_cell_angle_gamma 18.687445
_cell_volume 742.170997
_symmetry_space_group_name_H-M "P -1"
_symmetry_group_IT_number 2
_symmetry_cell_setting 'triclinic'
loop_
_space_group_symop_operation_xyz
x,y,z
-x,-y,-z
loop_
_atom_site_type_symbol
_atom_site_label
_atom_site_fract_x
_atom_site_fract_y
_atom_site_fract_z
Si Si1 0.840765 0.736874 0.881160
Si Si2 0.901825 0.130657 0.579667
Si Si3 0.154273 0.376481 0.630629
Si Si4 0.049392 0.887567 0.766693
Si Si5 0.712230 0.950636 0.975510
Si Si6 0.331936 0.437186 0.077374
Si Si7 0.631411 0.649263 0.734206
Si Si8 0.431417 0.906471 0.208880
O O1 0.883688 0.640672 0.622663
O O2 0.096867 0.609718 0.056914
O O3 0.558437 0.880328 0.915648
O O4 0.810636 0.821542 0.904845
O O5 0.984629 0.096486 0.431176
O O6 0.575746 0.295041 0.503981
O O7 0.043636 0.120971 0.839065
O O8 0.000000 0.000000 0.500000
O O9 0.337502 0.352564 0.815955
O O10 0.310143 0.234861 0.644311
O O11 0.869342 0.548300 0.714151
O O12 0.360845 0.697784 0.805342
O O13 0.829413 0.958465 0.726900
O O14 0.000000 0.000000 0.000000
O O15 0.615913 0.003385 0.784097
O O16 0.252816 0.458084 0.197194
O O17 0.471995 0.806877 0.942650
#
# Coordination Sequence:
#
# PCOD9097200 Si02
#       8
#     2   2   2   2   2   2   2   2
#     4  11  25  41  59  89 122 164 203 248 300 362
#     4  11  21  37  63  92 122 154 201 251 299 354
#     4  11  21  36  62  89 117 157 206 251 302 349
#     4  11  19  36  61  97 120 154 202 247 306 353
#     4  11  24  42  61  85 126 162 201 248 304 356
#     4  10  21  37  61  87 127 152 198 253 299 356
#     4  10  20  36  59  93 118 153 198 253 306 352
#     4  11  20  38  61  90 123 156 202 252 298 360
#
# _framework density 21.558373
#
# number of rings (size 3 to 8) (size 9 to 14) (size 15 to 20)
#    0.000    1.250    5.000    4.125    0.000    2.500 
#    0.000    6.250    0.000    0.000    0.000    0.000 
#    0.000    0.000    0.000    0.000    0.000    0.000 
#
# Total GULP energy -89423.088238 kJ/mol
# GULP energy per Si atom -5588.943015 kJ/mol
# Density = 2.150931 g / cm^3
# Si number density = 21.558373 Si / 1000 Ang^3
#
#
#
# Elastic Constant Matrix: (Units=GPa)
#
#
# Indices 1 2 3 4 5 6 
#
# 1 96.5256 45.4703 7.0166 -5.3203 -10.9572 5.3491
# 2 45.4703 105.7354 24.2448 -18.1233 -11.0113 12.4112
# 3 7.0166 24.2448 43.8188 -18.8915 -5.9666 -2.0903
# 4 -5.3203 -18.1233 -18.8915 27.8058 3.7095 -7.4981
# 5 -10.9572 -11.0113 -5.9666 3.7095 20.5802 -5.3413
# 6 5.3491 12.4112 -2.0903 -7.4981 -5.3413 45.2360
#
#
#
# Elastic Compliance Matrix: (Units=1/GPa)
#
#
# Indices 1 2 3 4 5 6 
#
# 1 0.013460 -0.005804 0.001399 -0.000754 0.004732 0.000499
# 2 -0.005804 0.014282 -0.005298 0.003656 0.001662 -0.002675
# 3 0.001399 -0.005298 0.036612 0.022870 0.006355 0.007521
# 4 -0.000754 0.003656 0.022870 0.056240 0.000521 0.009526
# 5 0.004732 0.001662 0.006355 0.000521 0.055277 0.005891
# 6 0.000499 -0.002675 0.007521 0.009526 0.005891 0.025403
#
#
# Mechanical properties :
#
#
# Convention : Reuss Voigt Hill
#
# Bulk Modulus (GPa) = 22.24739 44.39371 33.32055
# Shear Modulus (GPa) = 21.21670 30.01428 25.61549
#
# Velocity S-wave (km/s) = 3.14052 3.73531 3.45076
# Velocity P-wave (km/s) = 4.84691 6.26422 5.60058
#
# Compressibility (1/GPa) = 0.04494909
#
# Stress axis : x y z
#
# Youngs Moduli (GPa) = 74.29178 70.01746 27.31312
#
# Poissons Ratio (x) = 0.40641 -0.03822
# Poissons Ratio (y) = 0.43122 0.14471
# Poissons Ratio (z) = -0.10397 0.37096
#
# Static dielectric constant tensor:
#      x y z
#    x 1.774810 0.040620 0.005170 
#    y 0.040620 1.811490 -0.013550 
#    z 0.005170 -0.013550 1.788140 
# 
# From -- ./inp_files/320186.got.cif
#   From: 2010.05.17/outbox.cif.g08.bks.cpg/sg2_161_cif.got.tgz:320186.got - 2010.06.03 11:33:40.
