data_PCOD9097005
_publ_section_title
;
Structure prediction by ZEFSAII (Michael W. Deem and Ramdas Pophale) SiO2 
 PCOD9097005
Probable space group: P -1
;
_chemical_formula_sum "Si O2"
_cell_formula_units_Z 14
_cell_length_a 7.024076
_cell_length_b 14.403555
_cell_length_c 13.695840
_cell_angle_alpha 151.926311
_cell_angle_beta 91.101003
_cell_angle_gamma 102.919048
_cell_volume 560.341783
_symmetry_space_group_name_H-M "P -1"
_symmetry_group_IT_number 2
_symmetry_cell_setting 'triclinic'
loop_
_space_group_symop_operation_xyz
x,y,z
-x,-y,-z
loop_
_atom_site_type_symbol
_atom_site_label
_atom_site_fract_x
_atom_site_fract_y
_atom_site_fract_z
Si Si1 0.549176 0.327996 0.056642
Si Si2 0.898538 0.753757 0.093998
Si Si3 0.599307 0.260851 0.201287
Si Si4 0.302392 0.741412 0.382337
Si Si5 0.615514 0.817071 0.278341
Si Si6 0.799184 0.752788 0.731277
Si Si7 0.331546 0.177707 0.419020
O O1 0.639986 0.251996 0.078028
O O2 0.648724 0.595276 0.323508
O O3 0.280318 0.225192 0.957051
O O4 0.570720 0.275861 0.895910
O O5 0.780349 0.726402 0.172432
O O6 0.887302 0.517850 0.853136
O O7 0.136038 0.963467 0.273169
O O8 0.787739 0.506308 0.481120
O O9 0.393729 0.303872 0.246193
O O10 0.500000 0.000000 0.000000
O O11 0.491558 0.767840 0.332318
O O12 0.435152 0.809878 0.548956
O O13 0.238399 0.914812 0.498338
O O14 0.729147 0.815550 0.686755
O O15 0.000000 0.000000 0.000000
#
# Coordination Sequence:
#
# PCOD9097005 Si02
#       7
#     2   2   2   2   2   2   2
#     4   8  19  37  55  78 114 142 179 229 274 321
#     4   9  19  36  56  79 109 145 178 222 272 323
#     4  10  21  38  61  83 108 153 192 226 282 339
#     4  10  20  38  55  83 109 145 186 222 273 325
#     4   9  20  38  56  77 117 143 176 234 271 320
#     4  10  22  39  57  84 119 145 183 241 280 325
#     4  10  20  36  59  82 111 146 184 222 276 332
#
# _framework density 24.984750999999999
#
# number of rings (size 3 to 8) (size 9 to 14) (size 15 to 20)
#    0.857    1.714    0.000    1.286    2.000    2.286 
#    2.571    1.429    0.000    0.000    0.000    0.000 
#    0.000    0.000    0.000    0.000    0.000    0.000 
#
# Total GULP energy -78001.396538 kJ/mol
# GULP energy per Si atom -5571.528324 kJ/mol
# Density = 2.492788 g / cm^3
# Si number density = 24.984751 Si / 1000 Ang^3
#
#
#
# Elastic Constant Matrix: (Units=GPa)
#
#
# Indices 1 2 3 4 5 6 
#
# 1 30.7469 4.8232 35.0160 1.7921 6.4210 -6.3507
# 2 4.8232 86.5466 38.3461 -12.9603 -3.2795 -18.8834
# 3 35.0160 38.3461 173.2100 15.9463 15.2557 -7.3584
# 4 1.7921 -12.9603 15.9463 47.6396 -1.8788 -8.6271
# 5 6.4210 -3.2795 15.2557 -1.8788 32.6053 5.4300
# 6 -6.3507 -18.8834 -7.3584 -8.6271 5.4300 27.4127
#
#
#
# Elastic Compliance Matrix: (Units=1/GPa)
#
#
# Indices 1 2 3 4 5 6 
#
# 1 0.047333 0.005842 -0.010198 0.005746 -0.006177 0.015284
# 2 0.005842 0.018559 -0.005635 0.009551 0.001344 0.015365
# 3 -0.010198 -0.005635 0.009592 -0.005338 -0.002547 -0.004844
# 4 0.005746 0.009551 -0.005338 0.027930 0.001441 0.014982
# 5 -0.006177 0.001344 -0.002547 0.001441 0.034559 -0.007581
# 6 0.015284 0.015365 -0.004844 0.014982 -0.007581 0.055521
#
#
# Mechanical properties :
#
#
# Convention : Reuss Voigt Hill
#
# Bulk Modulus (GPa) = 18.01699 49.65266 33.83483
# Shear Modulus (GPa) = 21.55399 35.68606 28.62003
#
# Velocity S-wave (km/s) = 2.94034 3.78340 3.38820
# Velocity P-wave (km/s) = 4.33062 6.24515 5.37383
#
# Compressibility (1/GPa) = 0.05550315
#
# Stress axis : x y z
#
# Youngs Moduli (GPa) = 21.12698 53.88225 104.25032
#
# Poissons Ratio (x) = -0.31477 1.06312
# Poissons Ratio (y) = -0.12342 0.58741
# Poissons Ratio (z) = 0.21545 0.30360
#
# Static dielectric constant tensor:
#      x y z
#    x 1.976020 -0.011680 -0.045890 
#    y -0.011680 2.018470 -0.042920 
#    z -0.045890 -0.042920 2.094550 
# 
# From -- ./inp_files/505835.got.cif
#   From: 2010.05.17/outbox.cif.g08.bks.cpg/sg2_253_cif.got.tgz:505835.got - 2010.06.03 11:33:40.
