data_PCOD9097352
_publ_section_title
;
Structure prediction by ZEFSAII (Michael W. Deem and Ramdas Pophale) SiO2 
 PCOD9097352
Probable space group: P -1
;
_chemical_formula_sum "Si O2"
_cell_formula_units_Z 14
_cell_length_a 5.377476
_cell_length_b 10.550430
_cell_length_c 13.865393
_cell_angle_alpha 102.705771
_cell_angle_beta 56.457433
_cell_angle_gamma 124.682654
_cell_volume 534.006781
_symmetry_space_group_name_H-M "P -1"
_symmetry_group_IT_number 2
_symmetry_cell_setting 'triclinic'
loop_
_space_group_symop_operation_xyz
x,y,z
-x,-y,-z
loop_
_atom_site_type_symbol
_atom_site_label
_atom_site_fract_x
_atom_site_fract_y
_atom_site_fract_z
Si Si1 0.480133 0.200736 0.858092
Si Si2 0.112664 0.479932 0.078910
Si Si3 0.744564 0.603258 0.552755
Si Si4 0.890823 0.151521 0.128920
Si Si5 0.713257 0.883434 0.467976
Si Si6 0.497976 0.320957 0.669018
Si Si7 0.963144 0.160923 0.331929
O O1 0.822381 0.369957 0.848796
O O2 0.384240 0.242008 0.782701
O O3 0.442866 0.032634 0.833154
O O4 0.170970 0.166619 0.993353
O O5 0.858075 0.298980 0.139118
O O6 0.500000 0.500000 0.000000
O O7 0.000000 0.500000 0.000000
O O8 0.500000 0.500000 0.500000
O O9 0.629503 0.497949 0.656755
O O10 0.138076 0.665717 0.438525
O O11 0.767777 0.748115 0.622547
O O12 0.062330 0.176275 0.202718
O O13 0.772309 0.765667 0.377339
O O14 0.335745 0.798178 0.588209
O O15 0.734983 0.983639 0.387162
O O16 0.000000 0.000000 0.500000
#
# Coordination Sequence:
#
# PCOD9097352 Si02
#       7
#     2   2   2   2   2   2   2
#     4  10  21  42  68  98 141 180 227 286 350 413
#     4  10  23  46  69  97 139 184 236 287 343 415
#     4  10  21  37  61  90 121 167 222 277 345 402
#     4  10  21  42  69  98 136 183 227 282 350 421
#     4  10  20  36  60  88 123 164 210 274 336 393
#     4  10  20  39  60  88 129 166 217 280 337 410
#     4  10  20  38  60  87 126 162 217 275 328 411
#
# _framework density 26.216892999999999
#
# number of rings (size 3 to 8) (size 9 to 14) (size 15 to 20)
#    0.000    2.000    1.429    1.714    0.000    0.571 
#   15.429    0.000    0.000    0.000    0.000    0.000 
#    0.000    0.000    0.000    0.000    0.000    0.000 
#
# Total GULP energy -78010.532654 kJ/mol
# GULP energy per Si atom -5572.180904 kJ/mol
# Density = 2.615722 g / cm^3
# Si number density = 26.216893 Si / 1000 Ang^3
#
#
#
# Elastic Constant Matrix: (Units=GPa)
#
#
# Indices 1 2 3 4 5 6 
#
# 1 72.9680 33.1497 30.8895 -7.4537 15.5592 11.5150
# 2 33.1497 231.0420 52.4784 -1.4521 31.4878 -13.2078
# 3 30.8895 52.4784 152.7537 -17.7148 16.1614 3.6854
# 4 -7.4537 -1.4521 -17.7148 50.7397 0.7072 23.1580
# 5 15.5592 31.4878 16.1614 0.7072 40.9308 -7.8071
# 6 11.5150 -13.2078 3.6854 23.1580 -7.8071 38.3698
#
#
#
# Elastic Compliance Matrix: (Units=1/GPa)
#
#
# Indices 1 2 3 4 5 6 
#
# 1 0.019985 -0.002236 -0.001043 0.008875 -0.008231 -0.013698
# 2 -0.002236 0.005481 -0.001593 -0.002421 -0.001976 0.003770
# 3 -0.001043 -0.001593 0.008226 0.004711 -0.002544 -0.004386
# 4 0.008875 -0.002421 0.004711 0.035006 -0.009113 -0.026931
# 5 -0.008231 -0.001976 -0.002544 -0.009113 0.032959 0.014241
# 6 -0.013698 0.003770 -0.004386 -0.026931 0.014241 0.051044
#
#
# Mechanical properties :
#
#
# Convention : Reuss Voigt Hill
#
# Bulk Modulus (GPa) = 41.75738 76.64430 59.20084
# Shear Modulus (GPa) = 29.33805 48.69113 39.01459
#
# Velocity S-wave (km/s) = 3.34885 4.31425 3.86184
# Velocity P-wave (km/s) = 5.56015 7.35630 6.52037
#
# Compressibility (1/GPa) = 0.02394786
#
# Stress axis : x y z
#
# Youngs Moduli (GPa) = 50.03657 182.46316 121.56641
#
# Poissons Ratio (x) = 0.40802 0.12674
# Poissons Ratio (y) = 0.11189 0.19369
# Poissons Ratio (z) = 0.05217 0.29071
#
# Static dielectric constant tensor:
#      x y z
#    x 2.155270 -0.034350 0.015030 
#    y -0.034350 2.287980 0.026480 
#    z 0.015030 0.026480 1.996540 
# 
# From -- ./inp_files/72601.got.cif
#   From: 2010.05.17/outbox.cif.g08.bks.cpg/sg2_37_cif.got.tgz:72601.got - 2010.06.03 11:33:40.
