data_PCOD9097061
_publ_section_title
;
Structure prediction by ZEFSAII (Michael W. Deem and Ramdas Pophale) SiO2 
 PCOD9097061
Probable space group: P -1
;
_chemical_formula_sum "Si O2"
_cell_formula_units_Z 16
_cell_length_a 7.215433
_cell_length_b 15.787304
_cell_length_c 15.048281
_cell_angle_alpha 38.978847
_cell_angle_beta 88.938931
_cell_angle_gamma 61.025235
_cell_volume 716.315959
_symmetry_space_group_name_H-M "P -1"
_symmetry_group_IT_number 2
_symmetry_cell_setting 'triclinic'
loop_
_space_group_symop_operation_xyz
x,y,z
-x,-y,-z
loop_
_atom_site_type_symbol
_atom_site_label
_atom_site_fract_x
_atom_site_fract_y
_atom_site_fract_z
Si Si1 0.285792 0.389419 0.500932
Si Si2 0.236775 0.006978 0.073764
Si Si3 0.606830 0.524933 0.210996
Si Si4 0.185719 0.766741 0.709702
Si Si5 0.865523 0.384763 0.515398
Si Si6 0.128450 0.589327 0.169527
Si Si7 0.156797 0.534329 0.021631
Si Si8 0.739774 0.061609 0.069585
O O1 0.524412 0.167434 0.719589
O O2 0.269388 0.525720 0.457650
O O3 0.326724 0.402161 0.387706
O O4 0.003728 0.456203 0.446516
O O5 0.341553 0.941740 0.025620
O O6 0.983771 0.038659 0.064711
O O7 0.118617 0.216277 0.928690
O O8 0.802213 0.342277 0.287497
O O9 0.688780 0.456158 0.369864
O O10 0.315092 0.613411 0.118460
O O11 0.514763 0.731178 0.045084
O O12 0.500897 0.648093 0.828673
O O13 0.086527 0.719049 0.828158
O O14 0.000000 0.000000 0.500000
O O15 0.103867 0.143338 0.715266
O O16 0.055759 0.563758 0.099139
O O17 0.000000 0.500000 0.000000
#
# Coordination Sequence:
#
# PCOD9097061 Si02
#       8
#     2   2   2   2   2   2   2   2
#     4  11  23  36  53  89 130 166 203 254 307 377
#     4  10  20  36  59  85 119 163 209 251 303 375
#     4  10  22  40  65  89 120 163 207 261 315 384
#     4  10  24  47  74 100 133 173 226 283 340 399
#     4  11  23  35  55  87 129 166 205 250 311 375
#     4  10  22  40  64  88 124 164 208 257 320 381
#     4  10  24  46  72 102 134 173 224 286 338 399
#     4  10  20  36  60  86 117 166 208 250 309 372
#
# _framework density 22.336510000000001
#
# number of rings (size 3 to 8) (size 9 to 14) (size 15 to 20)
#    0.000    1.750    2.500    0.750    1.750    9.000 
#    2.250    0.000    0.000    0.000    0.000    0.000 
#    0.000    0.000    0.000    0.000    0.000    0.000 
#
# Total GULP energy -89216.437594 kJ/mol
# GULP energy per Si atom -5576.027350 kJ/mol
# Density = 2.228567 g / cm^3
# Si number density = 22.336510 Si / 1000 Ang^3
#
#
#
# Elastic Constant Matrix: (Units=GPa)
#
#
# Indices 1 2 3 4 5 6 
#
# 1 91.6221 54.8334 22.3103 4.9810 0.4971 16.3971
# 2 54.8334 392.1011 203.7206 22.1303 -39.8701 9.6894
# 3 22.3103 203.7206 239.6796 -4.3430 -24.1990 3.7113
# 4 4.9810 22.1303 -4.3430 38.0089 5.6677 5.7937
# 5 0.4971 -39.8701 -24.1990 5.6677 27.3873 7.1960
# 6 16.3971 9.6894 3.7113 5.7937 7.1960 34.8887
#
#
#
# Elastic Compliance Matrix: (Units=1/GPa)
#
#
# Indices 1 2 3 4 5 6 
#
# 1 0.013016 -0.002203 0.000588 0.000707 -0.001667 -0.005342
# 2 -0.002203 0.006013 -0.004367 -0.004511 0.006044 -0.000667
# 3 0.000588 -0.004367 0.007902 0.003437 0.000029 -0.000481
# 4 0.000707 -0.004511 0.003437 0.031026 -0.009257 -0.002688
# 5 -0.001667 0.006044 0.000029 -0.009257 0.049815 -0.009636
# 6 -0.005342 -0.000667 -0.000481 -0.002688 -0.009636 0.033844
#
#
# Mechanical properties :
#
#
# Convention : Reuss Voigt Hill
#
# Bulk Modulus (GPa) = 66.81150 142.79239 104.80194
# Shear Modulus (GPa) = 31.53188 49.55954 40.54571
#
# Velocity S-wave (km/s) = 3.76130 4.71549 4.26516
# Velocity P-wave (km/s) = 6.98852 9.68062 8.44257
#
# Compressibility (1/GPa) = 0.01496748
#
# Stress axis : x y z
#
# Youngs Moduli (GPa) = 76.82629 166.30361 126.55081
#
# Poissons Ratio (x) = 0.36644 -0.07447
# Poissons Ratio (y) = 0.16928 0.55265
# Poissons Ratio (z) = -0.04521 0.72625
#
# Static dielectric constant tensor:
#      x y z
#    x 1.888010 -0.002180 -0.015500 
#    y -0.002180 1.931300 -0.002170 
#    z -0.015500 -0.002170 1.802680 
# 
# From -- ./inp_files/405620.got.cif
#   From: 2010.05.17/outbox.cif.g08.bks.cpg/sg2_203_cif.got.tgz:405620.got - 2010.06.03 11:33:40.
