data_PCOD9097643
_publ_section_title
;
Structure prediction by ZEFSAII (Michael W. Deem and Ramdas Pophale) SiO2 
 PCOD9097643
Probable space group: P -1
;
_chemical_formula_sum "Si O2"
_cell_formula_units_Z 16
_cell_length_a 16.733924
_cell_length_b 8.914330
_cell_length_c 15.842828
_cell_angle_alpha 129.098028
_cell_angle_beta 155.038410
_cell_angle_gamma 64.994581
_cell_volume 689.218296
_symmetry_space_group_name_H-M "P -1"
_symmetry_group_IT_number 2
_symmetry_cell_setting 'triclinic'
loop_
_space_group_symop_operation_xyz
x,y,z
-x,-y,-z
loop_
_atom_site_type_symbol
_atom_site_label
_atom_site_fract_x
_atom_site_fract_y
_atom_site_fract_z
Si Si1 0.644988 0.398661 0.493506
Si Si2 0.814551 0.101779 0.623066
Si Si3 0.585582 0.113242 0.709984
Si Si4 0.505791 0.281630 0.911329
Si Si5 0.222518 0.463679 0.891315
Si Si6 0.398557 0.139301 0.003040
Si Si7 0.868355 0.300294 0.367533
Si Si8 0.761210 0.822880 0.849461
O O1 0.810348 0.315674 0.657550
O O2 0.564580 0.299868 0.288363
O O3 0.732244 0.653122 0.686017
O O4 0.438683 0.284570 0.316337
O O5 0.630727 0.996737 0.480348
O O6 0.717058 0.921702 0.391522
O O7 0.031036 0.131965 0.881879
O O8 0.500000 0.000000 0.500000
O O9 0.751829 0.034396 0.878990
O O10 0.706030 0.374713 0.904093
O O11 0.500000 0.500000 0.000000
O O12 0.649898 0.346851 0.988495
O O13 0.637457 0.268883 0.111029
O O14 0.984876 0.364763 0.592198
O O15 0.308389 0.285426 0.918329
O O16 0.500000 0.000000 0.000000
O O17 0.189133 0.953822 0.785344
O O18 0.000000 0.500000 0.500000
#
# Coordination Sequence:
#
# PCOD9097643 Si02
#       8
#     2   2   2   2   2   2   2   2
#     4  10  22  43  63  96 135 170 227 286 332 400
#     4  10  21  39  65  96 126 173 234 273 332 409
#     4  10  22  42  62  96 136 169 220 283 337 397
#     4  10  20  36  61  91 127 167 218 273 320 393
#     4  10  23  39  62  92 131 171 220 270 332 401
#     4  12  24  44  63  97 143 175 213 286 349 397
#     4  10  22  41  65  90 125 175 226 266 324 403
#     4  10  22  40  71  92 126 181 231 278 334 399
#
# _framework density 23.214706
#
# number of rings (size 3 to 8) (size 9 to 14) (size 15 to 20)
#    0.000    1.750    1.250    2.250    3.500    1.500 
#    4.500    0.000    0.000    0.000    0.000    0.000 
#    0.000    0.000    0.000    0.000    0.000    0.000 
#
# Total GULP energy -89084.150244 kJ/mol
# GULP energy per Si atom -5567.759390 kJ/mol
# Density = 2.316187 g / cm^3
# Si number density = 23.214706 Si / 1000 Ang^3
#
#
#
# Elastic Constant Matrix: (Units=GPa)
#
#
# Indices 1 2 3 4 5 6 
#
# 1 38.2737 39.1674 27.6582 -5.6007 -9.4067 -12.3501
# 2 39.1674 153.5996 63.3691 -3.3618 -5.7990 -0.1111
# 3 27.6582 63.3691 145.4208 -19.9153 -18.7770 -16.5086
# 4 -5.6007 -3.3618 -19.9153 44.9552 2.3007 -12.6382
# 5 -9.4067 -5.7990 -18.7770 2.3007 26.7804 15.3920
# 6 -12.3501 -0.1111 -16.5086 -12.6382 15.3920 25.4309
#
#
#
# Elastic Compliance Matrix: (Units=1/GPa)
#
#
# Indices 1 2 3 4 5 6 
#
# 1 0.053428 -0.014489 0.002405 0.018837 -0.008368 0.041870
# 2 -0.014489 0.012274 -0.005063 -0.008159 0.004527 -0.017064
# 3 0.002405 -0.005063 0.011204 0.008598 -0.000658 0.013090
# 4 0.018837 -0.008159 0.008598 0.042353 -0.020398 0.048087
# 5 -0.008368 0.004527 -0.000658 -0.020398 0.069110 -0.056437
# 6 0.041870 -0.017064 0.013090 0.048087 -0.056437 0.126135
#
#
# Mechanical properties :
#
#
# Convention : Reuss Voigt Hill
#
# Bulk Modulus (GPa) = 23.46812 66.40929 44.93870
# Shear Modulus (GPa) = 13.77405 33.23993 23.50699
#
# Velocity S-wave (km/s) = 2.43849 3.78808 3.18557
# Velocity P-wave (km/s) = 4.24963 6.91386 5.73850
#
# Compressibility (1/GPa) = 0.04261100
#
# Stress axis : x y z
#
# Youngs Moduli (GPa) = 18.71681 81.47416 89.25485
#
# Poissons Ratio (x) = 1.18051 -0.21463
# Poissons Ratio (y) = 0.27119 0.45187
# Poissons Ratio (z) = -0.04501 0.41248
#
# Static dielectric constant tensor:
#      x y z
#    x 0.951560 -0.465210 0.271330 
#    y -0.465210 1.669580 0.169940 
#    z 0.271330 0.169940 1.831180 
# 
# From -- ./inp_files/577449.got.cif
#   From: 2010.05.17/outbox.cif.g08.bks.cpg/sg2_289_cif.got.tgz:577449.got - 2010.06.03 11:33:40.
