data_PCOD9097866
_publ_section_title
;
Structure prediction by ZEFSAII (Michael W. Deem and Ramdas Pophale) SiO2 
 PCOD9097866
Probable space group: P -1
;
_chemical_formula_sum "Si O2"
_cell_formula_units_Z 16
_cell_length_a 5.049938
_cell_length_b 8.169970
_cell_length_c 27.110743
_cell_angle_alpha 55.557013
_cell_angle_beta 128.324841
_cell_angle_gamma 91.575131
_cell_volume 626.867155
_symmetry_space_group_name_H-M "P -1"
_symmetry_group_IT_number 2
_symmetry_cell_setting 'triclinic'
loop_
_space_group_symop_operation_xyz
x,y,z
-x,-y,-z
loop_
_atom_site_type_symbol
_atom_site_label
_atom_site_fract_x
_atom_site_fract_y
_atom_site_fract_z
Si Si1 0.375855 0.311713 0.104579
Si Si2 0.580943 0.937494 0.936801
Si Si3 0.489729 0.712382 0.061588
Si Si4 0.450454 0.983495 0.242393
Si Si5 0.158723 0.056788 0.411480
Si Si6 0.590240 0.418584 0.451907
Si Si7 0.735044 0.487639 0.345863
Si Si8 0.684926 0.083486 0.650708
O O1 0.580445 0.453501 0.121634
O O2 0.219236 0.214221 0.145540
O O3 0.599772 0.111094 0.124226
O O4 0.000000 0.500000 0.000000
O O5 0.618426 0.769462 0.014817
O O6 0.017197 0.871219 0.981869
O O7 0.373113 0.188644 0.894340
O O8 0.463386 0.758310 0.259426
O O9 0.372611 0.991976 0.289646
O O10 0.881100 0.951462 0.291487
O O11 0.801158 0.301873 0.343573
O O12 0.500000 0.000000 0.500000
O O13 0.109756 0.833153 0.450130
O O14 0.311279 0.048185 0.375597
O O15 0.620614 0.423931 0.395428
O O16 0.590872 0.641764 0.434326
O O17 0.162136 0.459390 0.407607
#
# Coordination Sequence:
#
# PCOD9097866 Si02
#       8
#     2   2   2   2   2   2   2   2
#     4  10  21  39  66  88 115 162 217 255 309 366
#     4   9  18  33  55  85 115 138 184 251 303 349
#     4   9  18  33  55  85 115 139 183 251 303 353
#     4  10  23  41  57  82 122 161 199 248 308 369
#     4  10  20  36  62  91 118 155 204 244 290 356
#     4   9  18  34  57  85 112 153 193 240 281 351
#     4   9  19  35  55  82 120 149 191 240 298 350
#     4  10  22  39  58  84 124 160 194 244 308 361
#
# _framework density 25.523751000000001
#
# number of rings (size 3 to 8) (size 9 to 14) (size 15 to 20)
#    0.000    2.500    0.000    1.125    0.000    8.000 
#    2.250    7.500    0.000    0.000    0.000    0.000 
#    0.000    0.000    0.000    0.000    0.000    0.000 
#
# Total GULP energy -89516.636146 kJ/mol
# GULP energy per Si atom -5594.789759 kJ/mol
# Density = 2.546566 g / cm^3
# Si number density = 25.523751 Si / 1000 Ang^3
#
#
#
# Elastic Constant Matrix: (Units=GPa)
#
#
# Indices 1 2 3 4 5 6 
#
# 1 108.9651 19.8279 40.7207 1.1326 -34.1158 -8.3142
# 2 19.8279 196.3774 55.9969 -7.7794 -32.0738 -23.4626
# 3 40.7207 55.9969 105.7018 -21.8033 -30.8224 -6.7117
# 4 1.1326 -7.7794 -21.8033 36.3953 0.5947 -4.4667
# 5 -34.1158 -32.0738 -30.8224 0.5947 49.3002 1.7511
# 6 -8.3142 -23.4626 -6.7117 -4.4667 1.7511 40.5510
#
#
#
# Elastic Compliance Matrix: (Units=1/GPa)
#
#
# Indices 1 2 3 4 5 6 
#
# 1 0.012818 0.001114 -0.003769 -0.002280 0.007192 0.002087
# 2 0.001114 0.006740 -0.002795 0.000112 0.003281 0.003536
# 3 -0.003769 -0.002795 0.015894 0.009078 0.005365 0.001009
# 4 -0.002280 0.000112 0.009078 0.033519 0.003601 0.004636
# 5 0.007192 0.003281 0.005365 0.003601 0.030588 0.003337
# 6 0.002087 0.003536 0.001009 0.004636 0.003337 0.027668
#
#
# Mechanical properties :
#
#
# Convention : Reuss Voigt Hill
#
# Bulk Modulus (GPa) = 40.73032 71.57059 56.15045
# Shear Modulus (GPa) = 34.17412 44.88254 39.52833
#
# Velocity S-wave (km/s) = 3.66309 4.19795 3.93961
# Velocity P-wave (km/s) = 5.82095 7.18322 6.53766
#
# Compressibility (1/GPa) = 0.02455174
#
# Stress axis : x y z
#
# Youngs Moduli (GPa) = 78.01832 148.37691 62.91558
#
# Poissons Ratio (x) = -0.16531 0.23711
# Poissons Ratio (y) = -0.08692 0.17587
# Poissons Ratio (z) = 0.29403 0.41476
#
# Static dielectric constant tensor:
#      x y z
#    x 2.089650 0.060680 0.057760 
#    y 0.060680 2.144920 -0.032750 
#    z 0.057760 -0.032750 2.033920 
# 
# From -- ./inp_files/615249.got.cif
#   From: 2010.05.17/outbox.cif.g08.bks.cpg/sg2_308_cif.got.tgz:615249.got - 2010.06.03 11:33:40.
