data_PCOD9097521
_publ_section_title
;
Structure prediction by ZEFSAII (Michael W. Deem and Ramdas Pophale) SiO2 
 PCOD9097521
Probable space group: P -1
;
_chemical_formula_sum "Si O2"
_cell_formula_units_Z 12
_cell_length_a 13.866069
_cell_length_b 26.995965
_cell_length_c 5.214772
_cell_angle_alpha 46.016748
_cell_angle_beta 55.683721
_cell_angle_gamma 21.546739
_cell_volume 490.279688
_symmetry_space_group_name_H-M "P -1"
_symmetry_group_IT_number 2
_symmetry_cell_setting 'triclinic'
loop_
_space_group_symop_operation_xyz
x,y,z
-x,-y,-z
loop_
_atom_site_type_symbol
_atom_site_label
_atom_site_fract_x
_atom_site_fract_y
_atom_site_fract_z
Si Si1 0.135668 0.226400 0.480525
Si Si2 0.638345 0.029919 0.654227
Si Si3 0.730561 0.581547 0.371693
Si Si4 0.355993 0.284957 0.496105
Si Si5 0.068751 0.764729 0.625315
Si Si6 0.396633 0.486147 0.455151
O O1 0.353753 0.169341 0.423206
O O2 0.114133 0.201714 0.325713
O O3 0.827008 0.413633 0.353021
O O4 0.248366 0.102533 0.927712
O O5 0.577763 0.111299 0.690686
O O6 0.872396 0.924868 0.476460
O O7 0.592042 0.696432 0.400112
O O8 0.625874 0.560993 0.555007
O O9 0.061177 0.405132 0.554922
O O10 0.681618 0.647145 0.941946
O O11 0.276930 0.678469 0.400101
O O12 0.272578 0.623217 0.038473
#
# Coordination Sequence:
#
# PCOD9097521 Si02
#       6
#     2   2   2   2   2   2
#     4  10  20  36  61  85 117 157 193 256 304 356
#     4  10  21  37  56  92 116 152 204 250 305 357
#     4  10  22  39  62  89 117 165 203 253 298 362
#     4  10  22  39  62  88 121 158 208 253 299 357
#     4  10  22  36  61  86 122 158 192 257 306 360
#     4  10  21  39  57  90 118 155 209 240 306 369
#
# _framework density 24.475826999999999
#
# number of rings (size 3 to 8) (size 9 to 14) (size 15 to 20)
#    0.000    2.000    1.667    1.000    4.667    1.333 
#    0.000    1.667    0.000    0.000    0.000    0.000 
#    0.000    0.000    0.000    0.000    0.000    0.000 
#
# Total GULP energy -67077.861811 kJ/mol
# GULP energy per Si atom -5589.821818 kJ/mol
# Density = 2.442012 g / cm^3
# Si number density = 24.475827 Si / 1000 Ang^3
#
#
#
# Elastic Constant Matrix: (Units=GPa)
#
#
# Indices 1 2 3 4 5 6 
#
# 1 130.3652 68.1404 17.1329 -3.7059 -7.5053 38.1661
# 2 68.1404 181.2421 23.0903 -22.3833 -1.9580 38.7455
# 3 17.1329 23.0903 46.4614 2.8771 2.7387 4.8371
# 4 -3.7059 -22.3833 2.8771 18.9795 12.4262 -0.9516
# 5 -7.5053 -1.9580 2.7387 12.4262 25.3653 3.3266
# 6 38.1661 38.7455 4.8371 -0.9516 3.3266 46.5272
#
#
#
# Elastic Compliance Matrix: (Units=1/GPa)
#
#
# Indices 1 2 3 4 5 6 
#
# 1 0.012275 -0.003510 -0.002020 -0.007098 0.008061 -0.007658
# 2 -0.003510 0.010245 -0.003935 0.016611 -0.007386 -0.004376
# 3 -0.002020 -0.003935 0.024524 -0.009033 0.000593 0.002158
# 4 -0.007098 0.016611 -0.009033 0.105987 -0.051606 -0.001213
# 5 0.008061 -0.007386 0.000593 -0.051606 0.067294 -0.006390
# 6 -0.007658 -0.004376 0.002158 -0.001213 -0.006390 0.031626
#
#
# Mechanical properties :
#
#
# Convention : Reuss Voigt Hill
#
# Bulk Modulus (GPa) = 35.57056 63.86621 49.71839
# Shear Modulus (GPa) = 17.84097 34.82143 26.33120
#
# Velocity S-wave (km/s) = 2.70278 3.77594 3.28350
# Velocity P-wave (km/s) = 4.92996 6.72016 5.89343
#
# Compressibility (1/GPa) = 0.02811314
#
# Stress axis : x y z
#
# Youngs Moduli (GPa) = 81.46548 97.60403 40.77682
#
# Poissons Ratio (x) = 0.34259 0.08239
# Poissons Ratio (y) = 0.28595 0.16046
# Poissons Ratio (z) = 0.16460 0.38408
#
# Static dielectric constant tensor:
#      x y z
#    x 1.931050 -0.019680 -0.000160 
#    y -0.019680 2.003620 0.032900 
#    z -0.000160 0.032900 1.984490 
# 
# From -- ./inp_files/18862.got.cif
#   From: 2010.05.17/outbox.cif.g08.bks.cpg/sg2_10_cif.got.tgz:18862.got - 2010.06.03 11:33:40.
