data_PCOD9097151
_publ_section_title
;
Structure prediction by ZEFSAII (Michael W. Deem and Ramdas Pophale) SiO2 
 PCOD9097151
Probable space group: P -1
;
_chemical_formula_sum "Si O2"
_cell_formula_units_Z 12
_cell_length_a 7.860587
_cell_length_b 5.624422
_cell_length_c 13.584183
_cell_angle_alpha 127.941492
_cell_angle_beta 100.878969
_cell_angle_gamma 66.591691
_cell_volume 433.372730
_symmetry_space_group_name_H-M "P -1"
_symmetry_group_IT_number 2
_symmetry_cell_setting 'triclinic'
loop_
_space_group_symop_operation_xyz
x,y,z
-x,-y,-z
loop_
_atom_site_type_symbol
_atom_site_label
_atom_site_fract_x
_atom_site_fract_y
_atom_site_fract_z
Si Si1 0.047187 0.140383 0.366049
Si Si2 0.351516 0.909192 0.178637
Si Si3 0.316227 0.491690 0.604126
Si Si4 0.716506 0.209421 0.545341
Si Si5 0.879471 0.777670 0.936790
Si Si6 0.262269 0.315563 0.915797
O O1 0.000000 0.500000 0.500000
O O2 0.864270 0.228171 0.300775
O O3 0.235911 0.022372 0.293992
O O4 0.096794 0.875947 0.391088
O O5 0.572363 0.821983 0.179180
O O6 0.247595 0.191538 0.162467
O O7 0.307345 0.607714 0.050416
O O8 0.527796 0.440450 0.636603
O O9 0.293207 0.630695 0.522373
O O10 0.304450 0.145122 0.546067
O O11 0.050271 0.440482 0.885269
O O12 0.740618 0.895285 0.043326
O O13 0.000000 0.000000 0.000000
#
# Coordination Sequence:
#
# PCOD9097151 Si02
#       6
#     2   2   2   2   2   2
#     4  10  21  37  56  84 121 162 203 243 297 365
#     4  10  20  36  59  89 120 154 197 248 304 363
#     4   9  18  35  58  78 111 156 207 252 293 347
#     4   9  18  35  58  79 110 156 205 254 293 347
#     4   9  18  36  64  85 118 150 193 251 308 367
#     4   9  19  37  61  91 115 149 196 253 310 362
#
# _framework density 27.689788
#
# number of rings (size 3 to 8) (size 9 to 14) (size 15 to 20)
#    0.000    2.667    0.000    1.000    0.000    1.333 
#   12.000    0.000   40.333    0.000    0.000    0.000 
#    0.000    0.000    0.000    0.000    0.000    0.000 
#
# Total GULP energy -66962.786298 kJ/mol
# GULP energy per Si atom -5580.232191 kJ/mol
# Density = 2.762676 g / cm^3
# Si number density = 27.689788 Si / 1000 Ang^3
#
#
#
# Elastic Constant Matrix: (Units=GPa)
#
#
# Indices 1 2 3 4 5 6 
#
# 1 126.9800 45.3166 40.0356 0.7425 -37.4874 -16.1678
# 2 45.3166 119.4483 44.3794 -2.1174 -3.1126 -5.4377
# 3 40.0356 44.3794 122.0588 13.8230 -27.1206 10.4412
# 4 0.7425 -2.1174 13.8230 50.4823 5.2685 3.0762
# 5 -37.4874 -3.1126 -27.1206 5.2685 59.5795 9.0407
# 6 -16.1678 -5.4377 10.4412 3.0762 9.0407 56.6637
#
#
#
# Elastic Compliance Matrix: (Units=1/GPa)
#
#
# Indices 1 2 3 4 5 6 
#
# 1 0.011774 -0.003782 -0.001159 -0.000820 0.006417 0.002231
# 2 -0.003782 0.011323 -0.004110 0.001998 -0.004033 0.001300
# 3 -0.001159 -0.004110 0.012003 -0.003787 0.005400 -0.003593
# 4 -0.000820 0.001998 -0.003787 0.021355 -0.004045 0.000142
# 5 0.006417 -0.004033 0.005400 -0.004045 0.023904 -0.003145
# 6 0.002231 0.001300 -0.003593 0.000142 -0.003145 0.019565
#
#
# Mechanical properties :
#
#
# Convention : Reuss Voigt Hill
#
# Bulk Modulus (GPa) = 58.82881 69.77227 64.30054
# Shear Modulus (GPa) = 40.42288 49.26212 44.84250
#
# Velocity S-wave (km/s) = 3.82494 4.22248 4.02862
# Velocity P-wave (km/s) = 6.38739 7.00178 6.70163
#
# Compressibility (1/GPa) = 0.01699848
#
# Stress axis : x y z
#
# Youngs Moduli (GPa) = 84.93625 88.31499 83.31072
#
# Poissons Ratio (x) = 0.33400 0.09654
# Poissons Ratio (y) = 0.32122 0.34240
# Poissons Ratio (z) = 0.09843 0.36297
#
# Static dielectric constant tensor:
#      x y z
#    x 2.340840 -0.028540 0.093960 
#    y -0.028540 2.217240 0.012500 
#    z 0.093960 0.012500 2.285830 
# 
# From -- ./inp_files/487895.got.cif
#   From: 2010.05.17/outbox.cif.g08.bks.cpg/sg2_244_cif.got.tgz:487895.got - 2010.06.03 11:33:40.
