data_PCOD9097790
_publ_section_title
;
Structure prediction by ZEFSAII (Michael W. Deem and Ramdas Pophale) SiO2 
 PCOD9097790
Probable space group: P -1
;
_chemical_formula_sum "Si O2"
_cell_formula_units_Z 12
_cell_length_a 27.320670
_cell_length_b 9.935331
_cell_length_c 15.302801
_cell_angle_alpha 29.175406
_cell_angle_beta 162.987671
_cell_angle_gamma 151.396964
_cell_volume 564.834084
_symmetry_space_group_name_H-M "P -1"
_symmetry_group_IT_number 2
_symmetry_cell_setting 'triclinic'
loop_
_space_group_symop_operation_xyz
x,y,z
-x,-y,-z
loop_
_atom_site_type_symbol
_atom_site_label
_atom_site_fract_x
_atom_site_fract_y
_atom_site_fract_z
Si Si1 0.533623 0.528094 0.184864
Si Si2 0.784757 0.531922 0.865886
Si Si3 0.504704 0.042656 0.270511
Si Si4 0.183219 0.249272 0.022121
Si Si5 0.922947 0.692313 0.823997
Si Si6 0.453495 0.677834 0.139272
O O1 0.521652 0.243166 0.270913
O O2 0.732817 0.670175 0.474843
O O3 0.428266 0.473369 0.126492
O O4 0.479854 0.751037 0.903480
O O5 0.881245 0.696355 0.022706
O O6 0.898378 0.564604 0.953566
O O7 0.622634 0.654759 0.494256
O O8 0.682194 0.202453 0.903582
O O9 0.658290 0.893513 0.615898
O O10 0.279359 0.557132 0.967162
O O11 0.040344 0.022832 0.848727
O O12 0.000000 0.500000 0.000000
O O13 0.500000 0.000000 0.000000
#
# Coordination Sequence:
#
# PCOD9097790 Si02
#       6
#     2   2   2   2   2   2
#     4  10  21  37  59  88 117 152 193 242 283 343
#     4  10  22  37  61  84 118 154 195 235 290 340
#     4  10  20  38  62  85 115 152 199 237 286 339
#     4  11  21  38  63  87 117 152 191 239 291 343
#     4  11  23  39  57  86 122 152 192 235 293 344
#     4  10  20  36  62  88 116 147 202 236 286 340
#
# _framework density 21.245177000000002
#
# number of rings (size 3 to 8) (size 9 to 14) (size 15 to 20)
#    0.000    1.667    1.667    4.500    2.333    2.000 
#    0.000   11.667    0.000    0.000    0.000    0.000 
#    0.000    0.000    0.000    0.000    0.000    0.000 
#
# Total GULP energy -67071.382216 kJ/mol
# GULP energy per Si atom -5589.281851 kJ/mol
# Density = 2.119682 g / cm^3
# Si number density = 21.245177 Si / 1000 Ang^3
#
#
#
# Elastic Constant Matrix: (Units=GPa)
#
#
# Indices 1 2 3 4 5 6 
#
# 1 123.7882 44.9833 10.3284 7.0803 -1.5519 -21.3408
# 2 44.9833 112.2476 9.5909 3.6283 -4.1492 -14.7447
# 3 10.3284 9.5909 17.1543 -4.1712 -1.9660 -7.6371
# 4 7.0803 3.6283 -4.1712 22.8639 2.0669 -4.6289
# 5 -1.5519 -4.1492 -1.9660 2.0669 20.7100 6.1124
# 6 -21.3408 -14.7447 -7.6371 -4.6289 6.1124 35.9972
#
#
#
# Elastic Compliance Matrix: (Units=1/GPa)
#
#
# Indices 1 2 3 4 5 6 
#
# 1 0.010367 -0.003313 -0.003333 -0.002387 -0.001136 0.003968
# 2 -0.003313 0.010805 -0.003598 -0.001195 0.001304 0.001323
# 3 -0.003333 -0.003598 0.073031 0.017836 -0.000052 0.014347
# 4 -0.002387 -0.001195 0.017836 0.050431 -0.006556 0.009478
# 5 -0.001136 0.001304 -0.000052 -0.006556 0.052011 -0.009825
# 6 0.003968 0.001323 0.014347 0.009478 -0.009825 0.036605
#
#
# Mechanical properties :
#
#
# Convention : Reuss Voigt Hill
#
# Bulk Modulus (GPa) = 13.56616 42.55502 28.06059
# Shear Modulus (GPa) = 17.96555 28.46671 23.21613
#
# Velocity S-wave (km/s) = 2.91113 3.66445 3.30930
# Velocity P-wave (km/s) = 4.20701 6.16265 5.27623
#
# Compressibility (1/GPa) = 0.07371285
#
# Stress axis : x y z
#
# Youngs Moduli (GPa) = 96.46243 92.55197 13.69280
#
# Poissons Ratio (x) = 0.30666 0.04564
# Poissons Ratio (y) = 0.31961 0.04927
# Poissons Ratio (z) = 0.32155 0.33301
#
# Static dielectric constant tensor:
#      x y z
#    x 1.806240 -0.012130 0.009550 
#    y -0.012130 1.769830 -0.014850 
#    z 0.009550 -0.014850 1.747610 
# 
# From -- ./inp_files/144493.got.cif
#   From: 2010.05.17/outbox.cif.g08.bks.cpg/sg2_73_cif.got.tgz:144493.got - 2010.06.03 11:33:40.
