data_PCOD9097493
_publ_section_title
;
Structure prediction by ZEFSAII (Michael W. Deem and Ramdas Pophale) SiO2 
 PCOD9097493
Probable space group: P -1
;
_chemical_formula_sum "Si O2"
_cell_formula_units_Z 16
_cell_length_a 10.868930
_cell_length_b 8.087787
_cell_length_c 14.220619
_cell_angle_alpha 140.944671
_cell_angle_beta 55.064176
_cell_angle_gamma 121.201118
_cell_volume 639.153136
_symmetry_space_group_name_H-M "P -1"
_symmetry_group_IT_number 2
_symmetry_cell_setting 'triclinic'
loop_
_space_group_symop_operation_xyz
x,y,z
-x,-y,-z
loop_
_atom_site_type_symbol
_atom_site_label
_atom_site_fract_x
_atom_site_fract_y
_atom_site_fract_z
Si Si1 0.795397 0.420232 0.759063
Si Si2 0.424612 0.901424 0.741977
Si Si3 0.988032 0.082356 0.412809
Si Si4 0.318834 0.425455 0.935422
Si Si5 0.760164 0.716604 0.727977
Si Si6 0.322417 0.787348 0.936296
Si Si7 0.990710 0.458122 0.125298
Si Si8 0.290384 0.364690 0.484420
O O1 0.729975 0.602385 0.793037
O O2 0.846126 0.195306 0.569592
O O3 0.949600 0.572211 0.807164
O O4 0.686396 0.390944 0.886001
O O5 0.418657 0.915294 0.863462
O O6 0.304444 0.640238 0.653630
O O7 0.584793 0.804177 0.604742
O O8 0.381989 0.159974 0.822741
O O9 0.059440 0.228457 0.351536
O O10 0.024780 0.229895 0.734662
O O11 0.129611 0.178656 0.463846
O O12 0.385199 0.560777 0.870127
O O13 0.137616 0.380535 0.972524
O O14 0.681822 0.560278 0.604723
O O15 0.707017 0.001505 0.879425
O O16 0.159270 0.697508 0.920246
#
# Coordination Sequence:
#
# PCOD9097493 Si02
#       8
#     2   2   2   2   2   2   2   2
#     4  10  20  36  60  99 131 164 209 257 327 379
#     4  11  23  47  67  88 129 168 222 259 312 382
#     4  10  20  39  59  91 134 162 206 258 316 378
#     4  10  23  37  64  98 123 167 214 255 323 378
#     4  10  21  39  61  95 129 163 214 258 316 375
#     4  12  22  42  64  98 133 164 207 269 317 377
#     4  10  22  36  58  93 133 162 200 257 322 374
#     4   9  24  43  66  90 123 177 210 265 317 367
#
# _framework density 25.033124999999998
#
# number of rings (size 3 to 8) (size 9 to 14) (size 15 to 20)
#    1.500    0.250    2.500    1.875    0.000    4.500 
#    0.000    6.250    0.000    0.000    0.000    0.000 
#    0.000    0.000    0.000    0.000    0.000    0.000 
#
# Total GULP energy -89267.224041 kJ/mol
# GULP energy per Si atom -5579.201503 kJ/mol
# Density = 2.497615 g / cm^3
# Si number density = 25.033125 Si / 1000 Ang^3
#
#
#
# Elastic Constant Matrix: (Units=GPa)
#
#
# Indices 1 2 3 4 5 6 
#
# 1 112.6088 25.8121 28.4770 9.0739 4.1287 0.2960
# 2 25.8121 104.1627 33.7035 -5.6546 -9.8435 -40.2181
# 3 28.4770 33.7035 109.2300 11.9066 -0.9919 -15.3257
# 4 9.0739 -5.6546 11.9066 38.0434 -13.9035 3.5045
# 5 4.1287 -9.8435 -0.9919 -13.9035 32.6827 -0.6898
# 6 0.2960 -40.2181 -15.3257 3.5045 -0.6898 41.1234
#
#
#
# Elastic Compliance Matrix: (Units=1/GPa)
#
#
# Indices 1 2 3 4 5 6 
#
# 1 0.010922 -0.004812 -0.001687 -0.004038 -0.004707 -0.005149
# 2 -0.004812 0.020115 -0.003091 0.007078 0.009966 0.018119
# 3 -0.001687 -0.003091 0.011238 -0.004548 -0.002279 0.001527
# 4 -0.004038 0.007078 -0.004548 0.036031 0.017884 0.002486
# 5 -0.004707 0.009966 -0.002279 0.017884 0.041904 0.008110
# 6 -0.005149 0.018119 0.001527 0.002486 0.008110 0.042567
#
#
# Mechanical properties :
#
#
# Convention : Reuss Voigt Hill
#
# Bulk Modulus (GPa) = 43.30321 55.77630 49.53975
# Shear Modulus (GPa) = 26.36361 38.23717 32.30039
#
# Velocity S-wave (km/s) = 3.24875 3.91252 3.59598
# Velocity P-wave (km/s) = 5.60432 6.53756 6.08885
#
# Compressibility (1/GPa) = 0.02309298
#
# Stress axis : x y z
#
# Youngs Moduli (GPa) = 91.56146 49.71457 88.98524
#
# Poissons Ratio (x) = 0.23925 0.15016
# Poissons Ratio (y) = 0.44064 0.27503
# Poissons Ratio (z) = 0.15450 0.15366
#
# Static dielectric constant tensor:
#      x y z
#    x 1.985330 0.074840 -0.049050 
#    y 0.074840 2.087910 -0.059840 
#    z -0.049050 -0.059840 1.992410 
# 
# From -- ./inp_files/516370.got.cif
#   From: 2010.05.17/outbox.cif.g08.bks.cpg/sg2_259_cif.got.tgz:516370.got - 2010.06.03 11:33:40.
