data_PCOD9097625
_publ_section_title
;
Structure prediction by ZEFSAII (Michael W. Deem and Ramdas Pophale) SiO2 
 PCOD9097625
Probable space group: P -1
;
_chemical_formula_sum "Si O2"
_cell_formula_units_Z 12
_cell_length_a 15.536845
_cell_length_b 15.263587
_cell_length_c 12.623908
_cell_angle_alpha 25.527876
_cell_angle_beta 28.567836
_cell_angle_gamma 24.314200
_cell_volume 504.142106
_symmetry_space_group_name_H-M "P -1"
_symmetry_group_IT_number 2
_symmetry_cell_setting 'triclinic'
loop_
_space_group_symop_operation_xyz
x,y,z
-x,-y,-z
loop_
_atom_site_type_symbol
_atom_site_label
_atom_site_fract_x
_atom_site_fract_y
_atom_site_fract_z
Si Si1 0.531772 0.858453 0.762824
Si Si2 0.307441 0.681990 0.432274
Si Si3 0.181142 0.747629 0.278679
Si Si4 0.167459 0.264151 0.234841
Si Si5 0.867200 0.790637 0.897042
Si Si6 0.647213 0.602880 0.708857
O O1 0.658928 0.764231 0.838867
O O2 0.692314 0.661715 0.712776
O O3 0.479912 0.127372 0.502614
O O4 0.299631 0.884518 0.973810
O O5 0.500000 0.500000 0.500000
O O6 0.337394 0.581944 0.390066
O O7 0.090071 0.734552 0.665153
O O8 0.257821 0.953773 0.185320
O O9 0.179625 0.599680 0.341146
O O10 0.939334 0.877663 0.450762
O O11 0.256613 0.189387 0.099800
O O12 0.960775 0.553842 0.128973
O O13 0.500000 0.500000 0.000000
#
# Coordination Sequence:
#
# PCOD9097625 Si02
#       6
#     2   2   2   2   2   2
#     4  10  21  41  65  86 123 164 198 262 322 355
#     4  10  20  36  61  90 127 173 202 253 317 360
#     4  10  22  38  60  94 118 156 216 244 302 386
#     4  10  21  40  62  89 125 169 198 259 314 353
#     4   9  21  39  55  94 136 153 216 259 288 387
#     4   9  21  42  61  91 123 151 212 264 301 386
#
# _framework density 23.802813
#
# number of rings (size 3 to 8) (size 9 to 14) (size 15 to 20)
#    0.000    2.333    0.000    1.000    4.667    0.667 
#    9.000   10.833    0.000    0.000    0.000    0.000 
#    0.000    0.000    0.000    0.000    0.000    0.000 
#
# Total GULP energy -66902.073773 kJ/mol
# GULP energy per Si atom -5575.172814 kJ/mol
# Density = 2.374864 g / cm^3
# Si number density = 23.802813 Si / 1000 Ang^3
#
#
#
# Elastic Constant Matrix: (Units=GPa)
#
#
# Indices 1 2 3 4 5 6 
#
# 1 123.0355 33.1878 30.8356 1.0824 -6.7421 3.0808
# 2 33.1878 51.4852 34.8374 8.2705 -6.8152 9.0316
# 3 30.8356 34.8374 115.0279 -6.9481 -15.0752 3.2066
# 4 1.0824 8.2705 -6.9481 28.5212 9.0912 -1.0821
# 5 -6.7421 -6.8152 -15.0752 9.0912 29.1104 2.4675
# 6 3.0808 9.0316 3.2066 -1.0821 2.4675 21.4824
#
#
#
# Elastic Compliance Matrix: (Units=1/GPa)
#
#
# Indices 1 2 3 4 5 6 
#
# 1 0.009992 -0.006484 -0.000687 0.001432 -0.000132 0.001483
# 2 -0.006484 0.035391 -0.008396 -0.015299 0.008437 -0.014435
# 3 -0.000687 -0.008396 0.011976 0.004659 0.002470 0.001792
# 4 0.001432 -0.015299 0.004659 0.046060 -0.016044 0.009694
# 5 -0.000132 0.008437 0.002470 -0.016044 0.043408 -0.009691
# 6 0.001483 -0.014435 0.001792 0.009694 -0.009691 0.053740
#
#
# Mechanical properties :
#
#
# Convention : Reuss Voigt Hill
#
# Bulk Modulus (GPa) = 38.13263 54.14113 46.13688
# Shear Modulus (GPa) = 20.79507 28.53533 24.66520
#
# Velocity S-wave (km/s) = 2.95895 3.46616 3.22255
# Velocity P-wave (km/s) = 5.26582 6.23009 5.76814
#
# Compressibility (1/GPa) = 0.02622426
#
# Stress axis : x y z
#
# Youngs Moduli (GPa) = 100.08165 28.25613 83.50153
#
# Poissons Ratio (x) = 0.18320 0.05737
# Poissons Ratio (y) = 0.64889 0.70110
# Poissons Ratio (z) = 0.06877 0.23725
#
# Static dielectric constant tensor:
#      x y z
#    x 1.978120 0.035970 -0.047630 
#    y 0.035970 1.901690 0.058220 
#    z -0.047630 0.058220 2.021350 
# 
# From -- ./inp_files/453469.got.cif
#   From: 2010.05.17/outbox.cif.g08.bks.cpg/sg2_227_cif.got.tgz:453469.got - 2010.06.03 11:33:40.
