data_PCOD9097741
_publ_section_title
;
Structure prediction by ZEFSAII (Michael W. Deem and Ramdas Pophale) SiO2 
 PCOD9097741
Probable space group: P -1
;
_chemical_formula_sum "Si O2"
_cell_formula_units_Z 15
_cell_length_a 11.595747
_cell_length_b 23.756163
_cell_length_c 14.430051
_cell_angle_alpha 19.121249
_cell_angle_beta 147.477709
_cell_angle_gamma 153.425776
_cell_volume 582.458485
_symmetry_space_group_name_H-M "P -1"
_symmetry_group_IT_number 2
_symmetry_cell_setting 'triclinic'
loop_
_space_group_symop_operation_xyz
x,y,z
-x,-y,-z
loop_
_atom_site_type_symbol
_atom_site_label
_atom_site_fract_x
_atom_site_fract_y
_atom_site_fract_z
Si Si1 0.368003 0.831681 0.376409
Si Si2 0.920005 0.999890 0.583575
Si Si3 0.251562 0.462722 0.302610
Si Si4 0.764181 0.576233 0.115508
Si Si5 0.449181 0.367149 0.404944
Si Si6 0.681126 0.852221 0.041502
Si Si7 0.500000 0.000000 0.000000
Si Si8 0.212113 0.935501 0.404841
O O1 0.650070 0.919422 0.476243
O O2 0.173639 0.582550 0.637096
O O3 0.412113 0.875474 0.230613
O O4 0.270261 0.958799 0.159626
O O5 0.872559 0.003753 0.654561
O O6 0.975155 0.822208 0.873202
O O7 0.173352 0.223634 0.385984
O O8 0.398552 0.469801 0.297547
O O9 0.372431 0.691241 0.064941
O O10 0.273827 0.310580 0.626007
O O11 0.948567 0.313795 0.316530
O O12 0.668730 0.524312 0.238276
O O13 0.500000 0.500000 0.000000
O O14 0.495290 0.195675 0.739849
O O15 0.807506 0.950048 0.875987
O O16 0.500000 0.000000 0.500000
#
# Coordination Sequence:
#
# PCOD9097741 Si02
#       8
#     2   2   2   2   2   2   1   2
#     4  10  20  38  60  86 119 156 196 253 293 349
#     4  10  21  40  61  89 117 161 197 244 310 357
#     4  10  23  39  65  90 119 171 197 244 311 367
#     4   9  20  36  59  85 115 154 199 241 296 348
#     4  10  20  39  62  86 122 155 198 250 300 359
#     4  11  21  41  62  89 127 158 206 247 301 371
#     4  10  20  36  62  82 116 156 198 248 294 348
#     4  11  22  39  64  94 126 154 203 257 302 362
#
# _framework density 25.752908999999999
#
# number of rings (size 3 to 8) (size 9 to 14) (size 15 to 20)
#    0.000    1.867    2.667    1.200    0.000    5.333 
#    2.400    5.333    2.933    0.000    0.000    0.000 
#    0.000    0.000    0.000    0.000    0.000    0.000 
#
# Total GULP energy -83672.417710 kJ/mol
# GULP energy per Si atom -5578.161181 kJ/mol
# Density = 2.569429 g / cm^3
# Si number density = 25.752909 Si / 1000 Ang^3
#
#
#
# Elastic Constant Matrix: (Units=GPa)
#
#
# Indices 1 2 3 4 5 6 
#
# 1 96.5944 17.5937 33.0885 -7.9800 11.5276 -13.0888
# 2 17.5937 35.3385 7.5500 -14.9502 0.6128 -2.6486
# 3 33.0885 7.5500 78.1507 -27.5811 9.3982 -9.4364
# 4 -7.9800 -14.9502 -27.5811 55.1630 -8.3040 -3.8513
# 5 11.5276 0.6128 9.3982 -8.3040 34.8459 2.3394
# 6 -13.0888 -2.6486 -9.4364 -3.8513 2.3394 33.9973
#
#
#
# Elastic Compliance Matrix: (Units=1/GPa)
#
#
# Indices 1 2 3 4 5 6 
#
# 1 0.014155 -0.006783 -0.005475 -0.002896 -0.004002 0.003349
# 2 -0.006783 0.035711 0.003123 0.010888 0.003231 0.002049
# 3 -0.005475 0.003123 0.018927 0.009633 -0.001360 0.004574
# 4 -0.002896 0.010888 0.009633 0.026455 0.004129 0.005120
# 5 -0.004002 0.003231 -0.001360 0.004129 0.031542 -0.003369
# 6 0.003349 0.002049 0.004574 0.005120 -0.003369 0.032944
#
#
# Mechanical properties :
#
#
# Convention : Reuss Voigt Hill
#
# Bulk Modulus (GPa) = 19.79175 36.28310 28.03743
# Shear Modulus (GPa) = 25.66133 34.92469 30.29301
#
# Velocity S-wave (km/s) = 3.16007 3.68658 3.43344
# Velocity P-wave (km/s) = 4.58440 5.67809 5.16030
#
# Compressibility (1/GPa) = 0.05052611
#
# Stress axis : x y z
#
# Youngs Moduli (GPa) = 70.64430 28.00248 52.83345
#
# Poissons Ratio (x) = 0.18993 0.28924
# Poissons Ratio (y) = 0.47916 -0.16502
# Poissons Ratio (z) = 0.38675 -0.08746
#
# Static dielectric constant tensor:
#      x y z
#    x 1.973110 0.101910 0.086700 
#    y 0.101910 2.867890 0.368910 
#    z 0.086700 0.368910 2.202130 
# 
# From -- ./inp_files/303290.got.cif
#   From: 2010.05.17/outbox.cif.g08.bks.cpg/sg2_152_cif.got.tgz:303290.got - 2010.06.03 11:33:40.
