data_PCOD9097495
_publ_section_title
;
Structure prediction by ZEFSAII (Michael W. Deem and Ramdas Pophale) SiO2 
 PCOD9097495
Probable space group: P -1
;
_chemical_formula_sum "Si O2"
_cell_formula_units_Z 14
_cell_length_a 22.962972
_cell_length_b 9.641151
_cell_length_c 22.966711
_cell_angle_alpha 26.153040
_cell_angle_beta 162.211520
_cell_angle_gamma 153.149427
_cell_volume 657.616622
_symmetry_space_group_name_H-M "P -1"
_symmetry_group_IT_number 2
_symmetry_cell_setting 'triclinic'
loop_
_space_group_symop_operation_xyz
x,y,z
-x,-y,-z
loop_
_atom_site_type_symbol
_atom_site_label
_atom_site_fract_x
_atom_site_fract_y
_atom_site_fract_z
Si Si1 0.422965 0.606989 0.070436
Si Si2 0.790413 0.704588 0.773575
Si Si3 0.996549 0.818988 0.803903
Si Si4 0.601984 0.702098 0.965266
Si Si5 0.603643 0.378415 0.435593
Si Si6 0.412714 0.265145 0.605865
Si Si7 0.994920 0.254347 0.847411
O O1 0.421159 0.482442 0.048989
O O2 0.555239 0.442383 0.299396
O O3 0.206316 0.471728 0.945128
O O4 0.500000 0.000000 0.000000
O O5 0.552338 0.603498 0.584447
O O6 0.871003 0.705542 0.785558
O O7 0.879537 0.442284 0.992108
O O8 0.888566 0.041066 0.771700
O O9 0.822163 0.828339 0.590692
O O10 0.165456 0.149813 0.854142
O O11 0.499533 0.998839 0.757142
O O12 0.500000 0.500000 0.000000
O O13 0.539527 0.644443 0.314783
O O14 0.837127 0.443514 0.643552
O O15 0.500000 0.000000 0.500000
O O16 0.000000 0.000000 0.000000
#
# Coordination Sequence:
#
# PCOD9097495 Si02
#       7
#     2   2   2   2   2   2   2
#     4  12  28  49  73 103 148 193 240 301 362 429
#     4  10  20  36  61 100 134 171 221 281 348 417
#     4  10  22  38  64  97 136 175 225 287 351 406
#     4  11  26  46  70  97 139 192 242 287 353 428
#     4  12  25  42  73 110 144 188 238 293 361 427
#     4  11  23  40  67 102 137 174 229 290 351 419
#     4  12  23  42  72 103 146 187 237 293 359 425
#
# _framework density 21.289000000000001
#
# number of rings (size 3 to 8) (size 9 to 14) (size 15 to 20)
#    0.000    0.857    4.286    2.143    2.000    4.571 
#    0.000    0.000    0.000    0.000    0.000    0.000 
#    0.000    0.000    0.000    0.000    0.000    0.000 
#
# Total GULP energy -78106.430697 kJ/mol
# GULP energy per Si atom -5579.030764 kJ/mol
# Density = 2.124055 g / cm^3
# Si number density = 21.289000 Si / 1000 Ang^3
#
#
#
# Elastic Constant Matrix: (Units=GPa)
#
#
# Indices 1 2 3 4 5 6 
#
# 1 122.4282 59.6956 40.8938 11.1640 4.0888 -5.1403
# 2 59.6956 134.3881 54.2120 12.8730 -4.9233 -6.3742
# 3 40.8938 54.2120 93.7677 25.6150 3.4946 5.3765
# 4 11.1640 12.8730 25.6150 30.1294 -0.6807 1.5472
# 5 4.0888 -4.9233 3.4946 -0.6807 32.6533 -3.6490
# 6 -5.1403 -6.3742 5.3765 1.5472 -3.6490 41.5448
#
#
#
# Elastic Compliance Matrix: (Units=1/GPa)
#
#
# Indices 1 2 3 4 5 6 
#
# 1 0.011006 -0.003879 -0.002433 -0.000438 -0.001605 0.000957
# 2 -0.003879 0.011496 -0.005517 0.001171 0.003083 0.002225
# 3 -0.002433 -0.005517 0.018637 -0.012484 -0.003159 -0.003372
# 4 -0.000438 0.001171 -0.012484 0.043505 0.002513 0.000342
# 5 -0.001605 0.003083 -0.003159 0.002513 0.032062 0.003406
# 6 0.000957 0.002225 -0.003372 0.000342 0.003406 0.025253
#
#
# Mechanical properties :
#
#
# Convention : Reuss Voigt Hill
#
# Bulk Modulus (GPa) = 57.20530 73.35409 65.27969
# Shear Modulus (GPa) = 29.16438 33.91767 31.54102
#
# Velocity S-wave (km/s) = 3.70527 3.99582 3.85329
# Velocity P-wave (km/s) = 6.72566 7.47127 7.10825
#
# Compressibility (1/GPa) = 0.01748090
#
# Stress axis : x y z
#
# Youngs Moduli (GPa) = 90.86259 86.98618 53.65749
#
# Poissons Ratio (x) = 0.33741 0.13053
# Poissons Ratio (y) = 0.35245 0.29604
# Poissons Ratio (z) = 0.22103 0.47993
#
# Static dielectric constant tensor:
#      x y z
#    x 1.790920 0.005040 0.016460 
#    y 0.005040 1.843580 -0.025740 
#    z 0.016460 -0.025740 1.843600 
# 
# From -- ./inp_files/540566.got.cif
#   From: 2010.05.17/outbox.cif.g08.bks.cpg/sg2_271_cif.got.tgz:540566.got - 2010.06.03 11:33:40.
