data_PCOD9097275
_publ_section_title
;
Structure prediction by ZEFSAII (Michael W. Deem and Ramdas Pophale) SiO2 
 PCOD9097275
Probable space group: P -1
;
_chemical_formula_sum "Si O2"
_cell_formula_units_Z 15
_cell_length_a 16.448887
_cell_length_b 14.687400
_cell_length_c 8.800915
_cell_angle_alpha 68.659617
_cell_angle_beta 89.631773
_cell_angle_gamma 151.035293
_cell_volume 665.462927
_symmetry_space_group_name_H-M "P -1"
_symmetry_group_IT_number 2
_symmetry_cell_setting 'triclinic'
loop_
_space_group_symop_operation_xyz
x,y,z
-x,-y,-z
loop_
_atom_site_type_symbol
_atom_site_label
_atom_site_fract_x
_atom_site_fract_y
_atom_site_fract_z
Si Si1 0.785194 0.311349 0.030074
Si Si2 0.321652 0.612561 0.154541
Si Si3 0.182547 0.143782 0.116415
Si Si4 0.500000 0.500000 0.500000
Si Si5 0.314778 0.667708 0.480136
Si Si6 0.701433 0.555865 0.292015
Si Si7 0.312371 0.374532 0.275607
Si Si8 0.139984 0.727888 0.245208
O O1 0.808537 0.452735 0.907677
O O2 0.789324 0.261651 0.899428
O O3 0.000000 0.500000 0.000000
O O4 0.522306 0.984889 0.298592
O O5 0.293483 0.610721 0.335953
O O6 0.257606 0.427399 0.244216
O O7 0.605389 0.940992 0.907939
O O8 0.164846 0.144505 0.294053
O O9 0.243561 0.319101 0.934779
O O10 0.407782 0.328057 0.964744
O O11 0.953933 0.844619 0.208253
O O12 0.510522 0.404730 0.476743
O O13 0.322646 0.340670 0.463105
O O14 0.384773 0.651969 0.586153
O O15 0.057859 0.413661 0.699347
O O16 0.000000 0.500000 0.500000
#
# Coordination Sequence:
#
# PCOD9097275 Si02
#       8
#     2   2   2   1   2   2   2   2
#     4  11  25  42  59  97 134 157 211 275 314 376
#     4  11  21  40  65  91 127 167 214 259 315 387
#     4   9  21  39  60  90 128 155 214 263 311 375
#     4  10  20  36  60  84 126 156 200 250 316 364
#     4  11  21  41  67  92 121 173 216 253 318 393
#     4  10  20  39  61  89 120 167 207 256 314 378
#     4  10  20  39  61  91 123 164 202 265 314 376
#     4  11  20  40  67  86 119 173 209 252 316 376
#
# _framework density 22.540697000000002
#
# number of rings (size 3 to 8) (size 9 to 14) (size 15 to 20)
#    0.000    1.600    4.000    1.600    0.000    2.133 
#    4.800    1.333    0.000    0.000    0.000    0.000 
#    0.000    0.000    0.000    0.000    0.000    0.000 
#
# Total GULP energy -83503.317170 kJ/mol
# GULP energy per Si atom -5566.887811 kJ/mol
# Density = 2.248939 g / cm^3
# Si number density = 22.540697 Si / 1000 Ang^3
#
#
#
# Elastic Constant Matrix: (Units=GPa)
#
#
# Indices 1 2 3 4 5 6 
#
# 1 159.4198 22.2705 22.5396 -16.4331 19.5420 32.0034
# 2 22.2705 72.0946 18.3279 -0.2599 11.4452 18.8894
# 3 22.5396 18.3279 43.8024 -10.9848 10.8495 8.5538
# 4 -16.4331 -0.2599 -10.9848 23.1004 5.6258 -0.2005
# 5 19.5420 11.4452 10.8495 5.6258 37.1002 3.6438
# 6 32.0034 18.8894 8.5538 -0.2005 3.6438 26.7181
#
#
#
# Elastic Compliance Matrix: (Units=1/GPa)
#
#
# Indices 1 2 3 4 5 6 
#
# 1 0.010123 0.000879 0.000413 0.008732 -0.005868 -0.012012
# 2 0.000879 0.018641 -0.005318 -0.000990 -0.003321 -0.012083
# 3 0.000413 -0.005318 0.033240 0.018557 -0.010542 -0.005799
# 4 0.008732 -0.000990 0.018557 0.062576 -0.017954 -0.012782
# 5 -0.005868 -0.003321 -0.010542 -0.017954 0.036120 0.007691
# 6 -0.012012 -0.012083 -0.005799 -0.012782 0.007691 0.061071
#
#
# Mechanical properties :
#
#
# Convention : Reuss Voigt Hill
#
# Bulk Modulus (GPa) = 18.53567 44.62143 31.57855
# Shear Modulus (GPa) = 20.17705 31.52898 25.85301
#
# Velocity S-wave (km/s) = 2.99513 3.74405 3.39034
# Velocity P-wave (km/s) = 4.49468 6.20721 5.41902
#
# Compressibility (1/GPa) = 0.05395002
#
# Stress axis : x y z
#
# Youngs Moduli (GPa) = 98.78936 53.64588 30.08422
#
# Poissons Ratio (x) = -0.04713 -0.01241
# Poissons Ratio (y) = -0.08679 0.15998
# Poissons Ratio (z) = -0.04076 0.28528
#
# Static dielectric constant tensor:
#      x y z
#    x 1.847480 0.046630 -0.027400 
#    y 0.046630 1.832810 -0.021910 
#    z -0.027400 -0.021910 1.915800 
# 
# From -- ./inp_files/312807.got.cif
#   From: 2010.05.17/outbox.cif.g08.bks.cpg/sg2_157_cif.got.tgz:312807.got - 2010.06.03 11:33:40.
