data_PCOD9097984
_publ_section_title
;
Structure prediction by ZEFSAII (Michael W. Deem and Ramdas Pophale) SiO2 
 PCOD9097984
Probable space group: P -1
;
_chemical_formula_sum "Si O2"
_cell_formula_units_Z 16
_cell_length_a 8.222013
_cell_length_b 8.165752
_cell_length_c 13.070747
_cell_angle_alpha 51.420620
_cell_angle_beta 90.742442
_cell_angle_gamma 77.729301
_cell_volume 658.081038
_symmetry_space_group_name_H-M "P -1"
_symmetry_group_IT_number 2
_symmetry_cell_setting 'triclinic'
loop_
_space_group_symop_operation_xyz
x,y,z
-x,-y,-z
loop_
_atom_site_type_symbol
_atom_site_label
_atom_site_fract_x
_atom_site_fract_y
_atom_site_fract_z
Si Si1 0.448651 0.608679 0.565886
Si Si2 0.661150 0.891291 0.653581
Si Si3 0.771118 0.608285 0.113985
Si Si4 0.947413 0.176094 0.020405
Si Si5 0.981036 0.113018 0.272435
Si Si6 0.150811 0.256524 0.498044
Si Si7 0.423628 0.526788 0.161480
Si Si8 0.823071 0.611161 0.336536
O O1 0.500000 0.500000 0.500000
O O2 0.553621 0.474328 0.714017
O O3 0.261080 0.587866 0.589063
O O4 0.440461 0.860461 0.463957
O O5 0.746217 0.793396 0.585366
O O6 0.558843 0.729793 0.759316
O O7 0.822410 0.895800 0.720784
O O8 0.870708 0.351039 0.215500
O O9 0.577205 0.613160 0.084097
O O10 0.769655 0.715475 0.185202
O O11 0.899357 0.709871 0.013100
O O12 0.764547 0.341951 0.926180
O O13 0.932259 0.076657 0.169782
O O14 0.000000 0.000000 0.000000
O O15 0.940971 0.931302 0.413872
O O16 0.235004 0.263474 0.607244
O O17 0.023228 0.498938 0.388270
#
# Coordination Sequence:
#
# PCOD9097984 Si02
#       8
#     2   2   2   2   2   2   2   2
#     4  11  24  39  65 104 145 181 226 291 357 419
#     4  12  23  43  71 105 144 183 232 291 358 426
#     4  11  24  47  71 103 138 180 243 296 341 420
#     4  12  28  49  72 100 140 191 243 292 350 415
#     4  12  24  42  72 102 136 189 241 287 351 421
#     4  11  20  37  69 101 139 180 229 287 350 418
#     4  11  26  46  73 103 143 186 235 289 354 422
#     4  10  20  36  63 102 137 176 223 286 355 410
#
# _framework density 24.313115
#
# number of rings (size 3 to 8) (size 9 to 14) (size 15 to 20)
#    0.000    0.750    3.750    4.125    1.750    4.000 
#    0.000    0.000    0.000    0.000    0.000    0.000 
#    0.000    0.000    0.000    0.000    0.000    0.000 
#
# Total GULP energy -89454.853169 kJ/mol
# GULP energy per Si atom -5590.928323 kJ/mol
# Density = 2.425778 g / cm^3
# Si number density = 24.313115 Si / 1000 Ang^3
#
#
#
# Elastic Constant Matrix: (Units=GPa)
#
#
# Indices 1 2 3 4 5 6 
#
# 1 135.4929 -3.3990 45.0981 -4.2940 -5.3249 15.7387
# 2 -3.3990 52.9227 11.9219 13.3062 1.2729 -3.6082
# 3 45.0981 11.9219 67.2670 8.3489 7.9038 -2.7855
# 4 -4.2940 13.3062 8.3489 30.7667 12.9027 -1.1035
# 5 -5.3249 1.2729 7.9038 12.9027 29.9255 -3.2238
# 6 15.7387 -3.6082 -2.7855 -1.1035 -3.2238 37.7978
#
#
#
# Elastic Compliance Matrix: (Units=1/GPa)
#
#
# Indices 1 2 3 4 5 6 
#
# 1 0.010925 0.001782 -0.008377 0.001660 0.002858 -0.004704
# 2 0.001782 0.022598 -0.004461 -0.010437 0.005166 0.001222
# 3 -0.008377 -0.004461 0.022452 -0.002855 -0.005552 0.004160
# 4 0.001660 -0.010437 -0.002855 0.045675 -0.018430 -0.002136
# 5 0.002858 0.005166 -0.005552 -0.018430 0.043339 0.002052
# 6 -0.004704 0.001222 0.004160 -0.002136 0.002052 0.028951
#
#
# Mechanical properties :
#
#
# Convention : Reuss Voigt Hill
#
# Bulk Modulus (GPa) = 29.53060 40.32497 34.92778
# Shear Modulus (GPa) = 24.11521 33.16879 28.64200
#
# Velocity S-wave (km/s) = 3.15280 3.69756 3.43599
# Velocity P-wave (km/s) = 5.04240 5.90347 5.48985
#
# Compressibility (1/GPa) = 0.03386318
#
# Stress axis : x y z
#
# Youngs Moduli (GPa) = 91.53643 44.25185 44.54022
#
# Poissons Ratio (x) = -0.07885 0.37310
# Poissons Ratio (y) = -0.16311 0.19868
# Poissons Ratio (z) = 0.76677 0.19739
#
# Static dielectric constant tensor:
#      x y z
#    x 2.024280 0.036290 0.003090 
#    y 0.036290 1.930690 0.031400 
#    z 0.003090 0.031400 1.952850 
# 
# From -- ./inp_files/492074.got.cif
#   From: 2010.05.17/outbox.cif.g08.bks.cpg/sg2_247_cif.got.tgz:492074.got - 2010.06.03 11:33:40.
