data_PCOD9098645
_publ_section_title
;
Structure prediction by ZEFSAII (Michael W. Deem and Ramdas Pophale) SiO2 
 PCOD9098645
Probable space group: P -1
;
_chemical_formula_sum "Si O2"
_cell_formula_units_Z 14
_cell_length_a 12.430887
_cell_length_b 15.815544
_cell_length_c 12.811754
_cell_angle_alpha 24.904153
_cell_angle_beta 45.226896
_cell_angle_gamma 34.082121
_cell_volume 582.513296
_symmetry_space_group_name_H-M "P -1"
_symmetry_group_IT_number 2
_symmetry_cell_setting 'triclinic'
loop_
_space_group_symop_operation_xyz
x,y,z
-x,-y,-z
loop_
_atom_site_type_symbol
_atom_site_label
_atom_site_fract_x
_atom_site_fract_y
_atom_site_fract_z
Si Si1 0.298485 0.523623 0.862031
Si Si2 0.544831 0.973609 0.376873
Si Si3 0.611978 0.465451 0.855701
Si Si4 0.039283 0.341423 0.548253
Si Si5 0.106983 0.536548 0.793895
Si Si6 0.978559 0.069396 0.752832
Si Si7 0.061536 0.240769 0.011427
O O1 0.476733 0.497565 0.818170
O O2 0.249998 0.567250 0.724380
O O3 0.102365 0.722355 0.842565
O O4 0.366692 0.236994 0.152926
O O5 0.593235 0.720355 0.578266
O O6 0.745444 0.929052 0.280029
O O7 0.500000 0.000000 0.500000
O O8 0.500000 0.500000 0.000000
O O9 0.831324 0.205153 0.024052
O O10 0.905961 0.273298 0.669626
O O11 0.000000 0.500000 0.500000
O O12 0.048789 0.505300 0.270359
O O13 0.983265 0.792612 0.517503
O O14 0.000000 0.500000 0.000000
O O15 0.188945 0.286024 0.945225
O O16 0.858372 0.995335 0.858258
#
# Coordination Sequence:
#
# PCOD9098645 Si02
#       7
#     2   2   2   2   2   2   2
#     4  11  21  34  56  86 119 150 188 235 285 344
#     4  12  20  35  57  83 121 145 186 237 289 337
#     4  12  20  30  57  85 110 151 186 231 292 329
#     4  11  22  36  57  88 117 150 190 239 292 339
#     4   9  23  34  51  82 121 156 191 227 290 343
#     4  11  20  37  56  77 120 149 190 238 285 343
#     4  10  20  37  55  82 115 157 191 231 289 338
#
# _framework density 24.033785000000002
#
# number of rings (size 3 to 8) (size 9 to 14) (size 15 to 20)
#    0.000    1.143    7.143    0.000    4.000    4.000 
#    0.000    0.000    0.000    3.429    0.000    6.000 
#    0.000    0.000    0.000    0.000    0.000    0.000 
#
# Total GULP energy -77993.050170 kJ/mol
# GULP energy per Si atom -5570.932155 kJ/mol
# Density = 2.397908 g / cm^3
# Si number density = 24.033785 Si / 1000 Ang^3
#
#
#
# Elastic Constant Matrix: (Units=GPa)
#
#
# Indices 1 2 3 4 5 6 
#
# 1 179.9540 38.6607 32.9798 -8.0167 -16.6454 62.2256
# 2 38.6607 54.5522 4.0616 -7.5387 0.6420 33.4230
# 3 32.9798 4.0616 92.0008 -5.3627 -7.3166 21.4993
# 4 -8.0167 -7.5387 -5.3627 24.0878 13.8395 -10.7145
# 5 -16.6454 0.6420 -7.3166 13.8395 41.8302 -9.3178
# 6 62.2256 33.4230 21.4993 -10.7145 -9.3178 46.3338
#
#
#
# Elastic Compliance Matrix: (Units=1/GPa)
#
#
# Indices 1 2 3 4 5 6 
#
# 1 0.010869 0.001652 -0.000259 -0.004344 0.002070 -0.016256
# 2 0.001652 0.036699 0.004793 0.003144 -0.007153 -0.031627
# 3 -0.000259 0.004793 0.012874 0.000282 -0.000028 -0.009024
# 4 -0.004344 0.003144 0.000282 0.057108 -0.017708 0.013080
# 5 0.002070 -0.007153 -0.000028 -0.017708 0.031736 0.004679
# 6 -0.016256 -0.031627 -0.009024 0.013080 0.004679 0.074381
#
#
# Mechanical properties :
#
#
# Convention : Reuss Voigt Hill
#
# Bulk Modulus (GPa) = 13.73372 53.10126 33.41749
# Shear Modulus (GPa) = 21.22548 39.17069 30.19808
#
# Velocity S-wave (km/s) = 2.97501 4.04148 3.54854
# Velocity P-wave (km/s) = 4.18660 6.62725 5.54293
#
# Compressibility (1/GPa) = 0.07281350
#
# Stress axis : x y z
#
# Youngs Moduli (GPa) = 92.00769 27.24841 77.67866
#
# Poissons Ratio (x) = -0.04501 0.02010
# Poissons Ratio (y) = -0.15198 -0.37230
# Poissons Ratio (z) = 0.02381 -0.13060
#
# Static dielectric constant tensor:
#      x y z
#    x 2.046100 0.000610 -0.052460 
#    y 0.000610 1.980250 0.071110 
#    z -0.052460 0.071110 1.927470 
# 
# From -- ./inp_files/455376.got.cif
#   From: 2010.05.17/outbox.cif.g08.bks.cpg/sg2_228_cif.got.tgz:455376.got - 2010.06.03 11:33:40.
