data_PCOD9098033
_publ_section_title
;
Structure prediction by ZEFSAII (Michael W. Deem and Ramdas Pophale) SiO2 
 PCOD9098033
Probable space group: P -1
;
_chemical_formula_sum "Si O2"
_cell_formula_units_Z 16
_cell_length_a 22.680592
_cell_length_b 13.347244
_cell_length_c 7.782553
_cell_angle_alpha 57.710590
_cell_angle_beta 48.552105
_cell_angle_gamma 22.161034
_cell_volume 639.705206
_symmetry_space_group_name_H-M "P -1"
_symmetry_group_IT_number 2
_symmetry_cell_setting 'triclinic'
loop_
_space_group_symop_operation_xyz
x,y,z
-x,-y,-z
loop_
_atom_site_type_symbol
_atom_site_label
_atom_site_fract_x
_atom_site_fract_y
_atom_site_fract_z
Si Si1 0.229834 0.843395 0.420470
Si Si2 0.396518 0.875713 0.988826
Si Si3 0.094614 0.713030 0.080571
Si Si4 0.786744 0.898094 0.224414
Si Si5 0.045430 0.095733 0.192647
Si Si6 0.358141 0.303222 0.509127
Si Si7 0.125489 0.397665 0.218642
Si Si8 0.567769 0.646037 0.351267
O O1 0.337357 0.822473 0.202916
O O2 0.372429 0.557714 0.488367
O O3 0.061984 0.080800 0.661895
O O4 0.144214 0.911230 0.342551
O O5 0.311717 0.081599 0.099334
O O6 0.594658 0.657563 0.755535
O O7 0.298874 0.028909 0.852829
O O8 0.142687 0.510010 0.137890
O O9 0.018925 0.871583 0.897738
O O10 0.284148 0.525788 0.923486
O O11 0.989833 0.575413 0.154469
O O12 0.651762 0.057672 0.498460
O O13 0.808191 0.009014 0.062259
O O14 0.862221 0.411419 0.331290
O O15 0.392981 0.305908 0.629094
O O16 0.500000 0.000000 0.500000
O O17 0.000000 0.500000 0.500000
#
# Coordination Sequence:
#
# PCOD9098033 Si02
#       8
#     2   2   2   2   2   2   2   2
#     4  11  22  40  62  91 119 162 205 239 303 359
#     4  10  20  36  63  89 118 156 200 249 295 359
#     4  10  21  41  60  87 124 158 197 253 301 343
#     4   9  20  37  61  87 115 159 197 244 306 352
#     4   9  21  39  64  88 119 160 201 245 299 361
#     4  10  20  38  61  89 120 155 199 250 301 349
#     4  11  20  38  60  86 121 152 198 248 297 355
#     4  10  22  39  62  86 124 157 197 253 294 358
#
# _framework density 25.011521999999999
#
# number of rings (size 3 to 8) (size 9 to 14) (size 15 to 20)
#    0.000    2.000    1.250    3.000    0.000    9.500 
#    2.250    4.375    2.750    0.000    0.000    0.000 
#    0.000    0.000    0.000    0.000    0.000    0.000 
#
# Total GULP energy -89235.411754 kJ/mol
# GULP energy per Si atom -5577.213235 kJ/mol
# Density = 2.495460 g / cm^3
# Si number density = 25.011522 Si / 1000 Ang^3
#
#
#
# Elastic Constant Matrix: (Units=GPa)
#
#
# Indices 1 2 3 4 5 6 
#
# 1 32.5695 18.3785 34.9384 -7.9169 1.4801 6.5752
# 2 18.3785 66.9246 37.1743 10.2408 -7.2156 15.8576
# 3 34.9384 37.1743 199.7392 13.7992 -16.9046 0.6373
# 4 -7.9169 10.2408 13.7992 40.4826 -6.7057 1.2528
# 5 1.4801 -7.2156 -16.9046 -6.7057 41.0654 -7.0052
# 6 6.5752 15.8576 0.6373 1.2528 -7.0052 33.2445
#
#
#
# Elastic Compliance Matrix: (Units=1/GPa)
#
#
# Indices 1 2 3 4 5 6 
#
# 1 0.050936 -0.010624 -0.008429 0.014751 -0.005897 -0.006643
# 2 -0.010624 0.021718 -0.001607 -0.006596 0.001141 -0.007738
# 3 -0.008429 -0.001607 0.007252 -0.003314 0.002986 0.003049
# 4 0.014751 -0.006596 -0.003314 0.030711 0.001880 -0.000469
# 5 -0.005897 0.001141 0.002986 0.001880 0.027369 0.006261
# 6 -0.006643 -0.007738 0.003049 -0.000469 0.006261 0.036364
#
#
# Mechanical properties :
#
#
# Convention : Reuss Voigt Hill
#
# Bulk Modulus (GPa) = 25.91676 53.35729 39.63702
# Shear Modulus (GPa) = 21.87878 36.87464 29.37671
#
# Velocity S-wave (km/s) = 2.96082 3.84383 3.43086
# Velocity P-wave (km/s) = 4.69820 6.40933 5.61928
#
# Compressibility (1/GPa) = 0.03858507
#
# Stress axis : x y z
#
# Youngs Moduli (GPa) = 19.63247 46.04451 137.89438
#
# Poissons Ratio (x) = 0.48919 1.16236
# Poissons Ratio (y) = 0.20858 0.22156
# Poissons Ratio (z) = 0.16549 0.07398
#
# Static dielectric constant tensor:
#      x y z
#    x 2.054070 -0.074670 0.016430 
#    y -0.074670 2.044650 -0.044130 
#    z 0.016430 -0.044130 2.021500 
# 
# From -- ./inp_files/179186.got.cif
#   From: 2010.05.17/outbox.cif.g08.bks.cpg/sg2_90_cif.got.tgz:179186.got - 2010.06.03 11:33:40.
