data_PCOD9098952
_publ_section_title
;
Structure prediction by ZEFSAII (Michael W. Deem and Ramdas Pophale) SiO2 
 PCOD9098952
Probable space group: P -1
;
_chemical_formula_sum "Si O2"
_cell_formula_units_Z 16
_cell_length_a 21.552025
_cell_length_b 6.318806
_cell_length_c 6.179249
_cell_angle_alpha 72.095248
_cell_angle_beta 73.327333
_cell_angle_gamma 50.598291
_cell_volume 613.917462
_symmetry_space_group_name_H-M "P -1"
_symmetry_group_IT_number 2
_symmetry_cell_setting 'triclinic'
loop_
_space_group_symop_operation_xyz
x,y,z
-x,-y,-z
loop_
_atom_site_type_symbol
_atom_site_label
_atom_site_fract_x
_atom_site_fract_y
_atom_site_fract_z
Si Si1 0.732780 0.090817 0.276459
Si Si2 0.619434 0.161732 0.037415
Si Si3 0.737688 0.599807 0.589361
Si Si4 0.984599 0.724792 0.611152
Si Si5 0.896615 0.274349 0.254393
Si Si6 0.494154 0.768027 0.187955
Si Si7 0.853746 0.133992 0.948537
Si Si8 0.607900 0.698609 0.409669
O O1 0.670250 0.401984 0.327333
O O2 0.730873 0.879680 0.496763
O O3 0.705585 0.068070 0.067945
O O4 0.817519 0.035833 0.185338
O O5 0.589638 0.176144 0.817943
O O6 0.558369 0.467769 0.107271
O O7 0.611047 0.935153 0.223770
O O8 0.805828 0.424902 0.388289
O O9 0.779286 0.407997 0.815791
O O10 0.651507 0.657305 0.608422
O O11 0.000000 0.500000 0.500000
O O12 0.064373 0.588902 0.721781
O O13 0.957757 0.975042 0.395877
O O14 0.910240 0.888601 0.802303
O O15 0.897164 0.236867 0.010735
O O16 0.521933 0.760477 0.410506
O O17 0.500000 0.000000 0.000000
#
# Coordination Sequence:
#
# PCOD9098952 Si02
#       8
#     2   2   2   2   2   2   2   2
#     4  10  20  37  58  87 123 164 208 259 314 374
#     4   8  15  27  49  85 120 159 213 256 303 373
#     4  10  22  39  59  90 127 158 209 264 305 377
#     4  10  24  44  67  93 125 162 208 260 313 380
#     4  10  22  44  62  92 127 157 209 262 307 381
#     4   8  13  24  49  82 118 168 208 248 316 366
#     4  11  23  43  68  91 125 170 206 257 324 375
#     4   9  16  32  53  81 127 158 209 265 304 369
#
# _framework density 26.062138000000001
#
# number of rings (size 3 to 8) (size 9 to 14) (size 15 to 20)
#    0.000    2.500    1.250    0.375    1.750    0.500 
#    9.000    0.000    0.000    0.750    0.000   78.750 
#    0.000    0.000    0.000    0.000    0.000    0.250 
#
# Total GULP energy -89375.801978 kJ/mol
# GULP energy per Si atom -5585.987624 kJ/mol
# Density = 2.600282 g / cm^3
# Si number density = 26.062138 Si / 1000 Ang^3
#
#
#
# Elastic Constant Matrix: (Units=GPa)
#
#
# Indices 1 2 3 4 5 6 
#
# 1 103.4939 38.7768 49.3764 11.5134 28.8664 6.3394
# 2 38.7768 170.1132 67.7156 -3.3483 8.2059 22.4815
# 3 49.3764 67.7156 79.8013 8.4484 16.0149 -0.6921
# 4 11.5134 -3.3483 8.4484 38.4616 1.0849 13.2883
# 5 28.8664 8.2059 16.0149 1.0849 48.5650 6.3834
# 6 6.3394 22.4815 -0.6921 13.2883 6.3834 30.9725
#
#
#
# Elastic Compliance Matrix: (Units=1/GPa)
#
#
# Indices 1 2 3 4 5 6 
#
# 1 0.015685 0.000177 -0.008348 -0.002234 -0.006386 -0.001251
# 2 0.000177 0.012702 -0.012626 0.008540 0.003553 -0.013935
# 3 -0.008348 -0.012626 0.030774 -0.011239 -0.005093 0.017433
# 4 -0.002234 0.008540 -0.011239 0.037806 0.005824 -0.023413
# 5 -0.006386 0.003553 -0.005093 0.005824 0.026566 -0.009360
# 6 -0.001251 -0.013935 0.017433 -0.023413 -0.009360 0.055021
#
#
# Mechanical properties :
#
#
# Convention : Reuss Voigt Hill
#
# Bulk Modulus (GPa) = 56.92652 73.90510 65.41581
# Shear Modulus (GPa) = 22.12351 36.76913 29.44632
#
# Velocity S-wave (km/s) = 2.91671 3.76017 3.36497
# Velocity P-wave (km/s) = 5.76480 6.87537 6.34443
#
# Compressibility (1/GPa) = 0.01756651
#
# Stress axis : x y z
#
# Youngs Moduli (GPa) = 63.75454 78.72545 32.49539
#
# Poissons Ratio (x) = -0.01394 0.27128
# Poissons Ratio (y) = -0.01129 0.41029
# Poissons Ratio (z) = 0.53223 0.99401
#
# Static dielectric constant tensor:
#      x y z
#    x 2.156640 0.079200 0.073930 
#    y 0.079200 2.105980 0.035830 
#    z 0.073930 0.035830 2.062940 
# 
# From -- ./inp_files/121674.got.cif
#   From: 2010.05.17/outbox.cif.g08.bks.cpg/sg2_61_cif.got.tgz:121674.got - 2010.06.03 11:33:40.
