data_PCOD9098631
_publ_section_title
;
Structure prediction by ZEFSAII (Michael W. Deem and Ramdas Pophale) SiO2 
 PCOD9098631
Probable space group: P -1
;
_chemical_formula_sum "Si O2"
_cell_formula_units_Z 12
_cell_length_a 17.059042
_cell_length_b 7.456703
_cell_length_c 9.022312
_cell_angle_alpha 115.961704
_cell_angle_beta 109.073586
_cell_angle_gamma 121.976158
_cell_volume 595.924903
_symmetry_space_group_name_H-M "P -1"
_symmetry_group_IT_number 2
_symmetry_cell_setting 'triclinic'
loop_
_space_group_symop_operation_xyz
x,y,z
-x,-y,-z
loop_
_atom_site_type_symbol
_atom_site_label
_atom_site_fract_x
_atom_site_fract_y
_atom_site_fract_z
Si Si1 0.176320 0.233984 0.028716
Si Si2 0.657737 0.804583 0.739971
Si Si3 0.132419 0.882858 0.259013
Si Si4 0.189193 0.685708 0.742707
Si Si5 0.885492 0.058375 0.392194
Si Si6 0.132120 0.338645 0.319592
O O1 0.287844 0.293499 0.181060
O O2 0.182184 0.434609 0.215621
O O3 0.179131 0.244329 0.855511
O O4 0.019728 0.859846 0.828129
O O5 0.500000 0.500000 0.500000
O O6 0.743521 0.975542 0.703638
O O7 0.702485 0.064616 0.973778
O O8 0.157830 0.964153 0.478342
O O9 0.115613 0.076431 0.258986
O O10 0.000000 0.500000 0.000000
O O11 0.151370 0.822988 0.690558
O O12 0.225687 0.614833 0.601543
O O13 0.047871 0.338638 0.599033
#
# Coordination Sequence:
#
# PCOD9098631 Si02
#       6
#     2   2   2   2   2   2
#     4   8  17  32  51  76 102 142 172 206 264 315
#     4  10  20  37  55  76 110 147 173 208 267 329
#     4  11  21  33  52  87 107 132 178 229 262 298
#     4   9  17  32  53  79 104 144 173 211 265 320
#     4   9  17  31  52  78 109 131 177 219 264 305
#     4   9  18  31  54  81 107 133 179 223 261 305
#
# _framework density 20.136766000000001
#
# number of rings (size 3 to 8) (size 9 to 14) (size 15 to 20)
#    0.000    2.667    1.667    1.000    7.000    2.667 
#    0.000    6.667    0.000    1.000    0.000    0.000 
#    0.000    0.000    0.000    0.000    0.000    0.000 
#
# Total GULP energy -66834.816298 kJ/mol
# GULP energy per Si atom -5569.568025 kJ/mol
# Density = 2.009093 g / cm^3
# Si number density = 20.136766 Si / 1000 Ang^3
#
#
#
# Elastic Constant Matrix: (Units=GPa)
#
#
# Indices 1 2 3 4 5 6 
#
# 1 81.3987 32.4209 78.3018 -7.3019 -16.6568 17.8103
# 2 32.4209 63.7384 57.0074 -20.5780 -6.1595 21.2179
# 3 78.3018 57.0074 187.9971 -27.9378 -22.5658 44.6691
# 4 -7.3019 -20.5780 -27.9378 32.2589 16.0155 -12.2938
# 5 -16.6568 -6.1595 -22.5658 16.0155 48.2199 -14.5500
# 6 17.8103 21.2179 44.6691 -12.2938 -14.5500 38.4268
#
#
#
# Elastic Compliance Matrix: (Units=1/GPa)
#
#
# Indices 1 2 3 4 5 6 
#
# 1 0.023817 -0.007572 -0.008939 -0.009537 0.007214 0.003213
# 2 -0.007572 0.028208 -0.002286 0.015140 -0.007325 -0.007339
# 3 -0.008939 -0.002286 0.012096 0.004879 -0.001671 -0.007728
# 4 -0.009537 0.015140 0.004879 0.050800 -0.015745 0.000679
# 5 0.007214 -0.007325 -0.001671 -0.015745 0.029376 0.008730
# 6 0.003213 -0.007339 -0.007728 0.000679 0.008730 0.041093
#
#
# Mechanical properties :
#
#
# Convention : Reuss Voigt Hill
#
# Bulk Modulus (GPa) = 37.69407 74.28828 55.99117
# Shear Modulus (GPa) = 21.56802 34.80805 28.18803
#
# Velocity S-wave (km/s) = 3.27628 4.16213 3.74549
# Velocity P-wave (km/s) = 5.75080 7.75047 6.82427
#
# Compressibility (1/GPa) = 0.02652937
#
# Stress axis : x y z
#
# Youngs Moduli (GPa) = 41.98596 35.45109 82.67163
#
# Poissons Ratio (x) = 0.26842 0.73900
# Poissons Ratio (y) = 0.31790 0.18895
# Poissons Ratio (z) = 0.37531 0.08102
#
# Static dielectric constant tensor:
#      x y z
#    x 1.788060 -0.015370 -0.092930 
#    y -0.015370 1.775320 -0.058240 
#    z -0.092930 -0.058240 1.743550 
# 
# From -- ./inp_files/144507.got.cif
#   From: 2010.05.17/outbox.cif.g08.bks.cpg/sg2_73_cif.got.tgz:144507.got - 2010.06.03 11:33:40.
