data_PCOD9098169
_publ_section_title
;
Structure prediction by ZEFSAII (Michael W. Deem and Ramdas Pophale) SiO2 
 PCOD9098169
Probable space group: P -1
;
_chemical_formula_sum "Si O2"
_cell_formula_units_Z 12
_cell_length_a 11.276821
_cell_length_b 11.222075
_cell_length_c 9.537945
_cell_angle_alpha 142.671094
_cell_angle_beta 60.309585
_cell_angle_gamma 129.585572
_cell_volume 563.907592
_symmetry_space_group_name_H-M "P -1"
_symmetry_group_IT_number 2
_symmetry_cell_setting 'triclinic'
loop_
_space_group_symop_operation_xyz
x,y,z
-x,-y,-z
loop_
_atom_site_type_symbol
_atom_site_label
_atom_site_fract_x
_atom_site_fract_y
_atom_site_fract_z
Si Si1 0.687484 0.624930 0.154721
Si Si2 0.586764 0.256095 0.641934
Si Si3 0.703726 0.072633 0.838886
Si Si4 0.261170 0.361588 0.540038
Si Si5 0.929327 0.091941 0.506003
Si Si6 0.639891 0.235861 0.298698
O O1 0.538696 0.668245 0.270682
O O2 0.709358 0.564193 0.244576
O O3 0.826297 0.870899 0.271581
O O4 0.670931 0.431917 0.879448
O O5 0.691474 0.267225 0.457871
O O6 0.500000 0.000000 0.500000
O O7 0.817176 0.162976 0.724205
O O8 0.714393 0.854297 0.677984
O O9 0.526124 0.982324 0.813409
O O10 0.737501 0.214893 0.092768
O O11 0.370594 0.546309 0.542102
O O12 0.082440 0.282925 0.529370
O O13 0.000000 0.000000 0.500000
#
# Coordination Sequence:
#
# PCOD9098169 Si02
#       6
#     2   2   2   2   2   2
#     4   9  20  37  57  80 108 150 184 221 272 335
#     4  11  23  35  53  81 118 149 179 220 281 333
#     4   9  19  32  55  83 116 133 182 230 274 316
#     4  10  20  36  64  82 109 142 188 234 271 319
#     4   8  16  37  58  83 107 146 182 225 275 328
#     4  11  21  33  55  89 110 141 183 237 275 314
#
# _framework density 21.280083000000001
#
# number of rings (size 3 to 8) (size 9 to 14) (size 15 to 20)
#    0.000    2.667    3.333    0.500    4.667    2.000 
#    0.000    4.167    0.000   13.000    0.000    0.000 
#    0.000    0.000    0.000    0.000    0.000    0.000 
#
# Total GULP energy -66855.797275 kJ/mol
# GULP energy per Si atom -5571.316440 kJ/mol
# Density = 2.123165 g / cm^3
# Si number density = 21.280083 Si / 1000 Ang^3
#
#
#
# Elastic Constant Matrix: (Units=GPa)
#
#
# Indices 1 2 3 4 5 6 
#
# 1 35.9602 20.8771 23.0487 1.1992 10.5150 8.5116
# 2 20.8771 78.5235 38.3388 1.2975 13.6407 0.2797
# 3 23.0487 38.3388 161.0789 3.4879 22.8226 -5.9220
# 4 1.1992 1.2975 3.4879 15.4418 1.9663 5.1784
# 5 10.5150 13.6407 22.8226 1.9663 24.8836 -1.2390
# 6 8.5116 0.2797 -5.9220 5.1784 -1.2390 32.2395
#
#
#
# Elastic Compliance Matrix: (Units=1/GPa)
#
#
# Indices 1 2 3 4 5 6 
#
# 1 0.039855 -0.007263 -0.002927 0.003609 -0.011058 -0.012001
# 2 -0.007263 0.016436 -0.002289 -0.000240 -0.003761 0.001249
# 3 -0.002927 -0.002289 0.007936 -0.001575 -0.004546 0.002328
# 4 0.003609 -0.000240 -0.001575 0.069891 -0.006104 -0.012701
# 5 -0.011058 -0.003761 -0.004546 -0.006104 0.051827 0.005089
# 6 -0.012001 0.001249 0.002328 -0.012701 0.005089 0.036839
#
#
# Mechanical properties :
#
#
# Convention : Reuss Voigt Hill
#
# Bulk Modulus (GPa) = 25.46510 48.89909 37.18209
# Shear Modulus (GPa) = 19.16946 27.39953 23.28449
#
# Velocity S-wave (km/s) = 3.00462 3.59216 3.31145
# Velocity P-wave (km/s) = 4.90200 6.34299 5.66847
#
# Compressibility (1/GPa) = 0.03926944
#
# Stress axis : x y z
#
# Youngs Moduli (GPa) = 25.09100 60.84049 126.01504
#
# Poissons Ratio (x) = 0.44190 0.36880
# Poissons Ratio (y) = 0.18224 0.28843
# Poissons Ratio (z) = 0.07343 0.13926
#
# Static dielectric constant tensor:
#      x y z
#    x 1.833640 0.035420 -0.029740 
#    y 0.035420 1.807770 0.002560 
#    z -0.029740 0.002560 1.849520 
# 
# From -- ./inp_files/257744.got.cif
#   From: 2010.05.17/outbox.cif.g08.bks.cpg/sg2_129_cif.got.tgz:257744.got - 2010.06.03 11:33:40.
