data_PCOD9098831
_publ_section_title
;
Structure prediction by ZEFSAII (Michael W. Deem and Ramdas Pophale) SiO2 
 PCOD9098831
Probable space group: P -1
;
_chemical_formula_sum "Si O2"
_cell_formula_units_Z 12
_cell_length_a 16.364266
_cell_length_b 7.315508
_cell_length_c 11.401543
_cell_angle_alpha 94.041983
_cell_angle_beta 23.739852
_cell_angle_gamma 101.045748
_cell_volume 519.962232
_symmetry_space_group_name_H-M "P -1"
_symmetry_group_IT_number 2
_symmetry_cell_setting 'triclinic'
loop_
_space_group_symop_operation_xyz
x,y,z
-x,-y,-z
loop_
_atom_site_type_symbol
_atom_site_label
_atom_site_fract_x
_atom_site_fract_y
_atom_site_fract_z
Si Si1 0.085600 0.729332 0.900834
Si Si2 0.966579 0.009680 0.217664
Si Si3 0.464096 0.959912 0.270521
Si Si4 0.083971 0.332650 0.267520
Si Si5 0.638307 0.687528 0.894076
Si Si6 0.898237 0.264523 0.754771
O O1 0.964681 0.829116 0.971289
O O2 0.326983 0.806428 0.538629
O O3 0.000000 0.500000 0.000000
O O4 0.060862 0.836909 0.058344
O O5 0.707973 0.939552 0.543069
O O6 0.043311 0.146595 0.233864
O O7 0.524634 0.845553 0.077589
O O8 0.675745 0.101336 0.056773
O O9 0.299742 0.370342 0.060490
O O10 0.085694 0.525717 0.207304
O O11 0.904837 0.292100 0.603513
O O12 0.873641 0.770669 0.529849
O O13 0.500000 0.500000 0.000000
#
# Coordination Sequence:
#
# PCOD9098831 Si02
#       6
#     2   2   2   2   2   2
#     4   9  21  42  66  91 122 168 215 257 317 364
#     4   9  20  42  65  91 124 163 215 258 306 380
#     4  10  20  37  62  90 127 163 209 259 310 374
#     4   9  20  38  58  89 132 162 203 253 315 373
#     4  10  20  37  57  90 128 165 204 249 313 380
#     4   9  20  37  57  93 132 159 205 248 319 382
#
# _framework density 23.078599000000001
#
# number of rings (size 3 to 8) (size 9 to 14) (size 15 to 20)
#    2.000    0.667    0.000    1.500    0.000    2.000 
#    6.000    1.667    0.000    0.000    0.000    0.000 
#    0.000    0.000    0.000    0.000    0.000    0.000 
#
# Total GULP energy -66925.582132 kJ/mol
# GULP energy per Si atom -5577.131844 kJ/mol
# Density = 2.302607 g / cm^3
# Si number density = 23.078599 Si / 1000 Ang^3
#
#
#
# Elastic Constant Matrix: (Units=GPa)
#
#
# Indices 1 2 3 4 5 6 
#
# 1 38.0202 36.0101 29.0153 -1.3159 -11.5847 0.1071
# 2 36.0101 218.3914 95.6731 -12.3015 -1.8332 5.1083
# 3 29.0153 95.6731 160.4773 -23.7442 -3.7610 3.1635
# 4 -1.3159 -12.3015 -23.7442 36.7473 -2.1618 1.1013
# 5 -11.5847 -1.8332 -3.7610 -2.1618 26.2680 -5.1099
# 6 0.1071 5.1083 3.1635 1.1013 -5.1099 41.1744
#
#
#
# Elastic Compliance Matrix: (Units=1/GPa)
#
#
# Indices 1 2 3 4 5 6 
#
# 1 0.038884 -0.004586 -0.004261 -0.002006 0.016620 0.002912
# 2 -0.004586 0.006753 -0.003247 -0.000105 -0.002189 -0.000845
# 3 -0.004261 -0.003247 0.009679 0.005006 -0.000408 -0.000514
# 4 -0.002006 -0.000105 0.005006 0.030495 0.002157 -0.000914
# 5 0.016620 -0.002189 -0.000408 0.002157 0.046528 0.005976
# 6 0.002912 -0.000845 -0.000514 -0.000914 0.005976 0.025190
#
#
# Mechanical properties :
#
#
# Convention : Reuss Voigt Hill
#
# Bulk Modulus (GPa) = 32.12611 82.03175 57.07893
# Shear Modulus (GPa) = 26.02918 37.91729 31.97324
#
# Velocity S-wave (km/s) = 3.36199 4.05775 3.72614
# Velocity P-wave (km/s) = 5.38713 7.58785 6.58014
#
# Compressibility (1/GPa) = 0.03112733
#
# Stress axis : x y z
#
# Youngs Moduli (GPa) = 25.71765 148.07996 103.31864
#
# Poissons Ratio (x) = 0.67917 0.44021
# Poissons Ratio (y) = 0.11795 0.33547
# Poissons Ratio (z) = 0.10958 0.48081
#
# Static dielectric constant tensor:
#      x y z
#    x 2.141800 -0.041730 0.057610 
#    y -0.041730 1.842690 0.034300 
#    z 0.057610 0.034300 1.841720 
# 
# From -- ./inp_files/540103.got.cif
#   From: 2010.05.17/outbox.cif.g08.bks.cpg/sg2_271_cif.got.tgz:540103.got - 2010.06.03 11:33:40.
