data_PCOD9098112
_publ_section_title
;
Structure prediction by ZEFSAII (Michael W. Deem and Ramdas Pophale) SiO2 
 PCOD9098112
Probable space group: P -1
;
_chemical_formula_sum "Si O2"
_cell_formula_units_Z 14
_cell_length_a 17.283004
_cell_length_b 13.614671
_cell_length_c 11.367817
_cell_angle_alpha 33.058590
_cell_angle_beta 55.287758
_cell_angle_gamma 29.306675
_cell_volume 568.991936
_symmetry_space_group_name_H-M "P -1"
_symmetry_group_IT_number 2
_symmetry_cell_setting 'triclinic'
loop_
_space_group_symop_operation_xyz
x,y,z
-x,-y,-z
loop_
_atom_site_type_symbol
_atom_site_label
_atom_site_fract_x
_atom_site_fract_y
_atom_site_fract_z
Si Si1 0.794048 0.133210 0.277353
Si Si2 0.543040 0.803142 0.396859
Si Si3 0.853026 0.615773 0.717262
Si Si4 0.276102 0.441601 0.276018
Si Si5 0.048006 0.202864 0.189923
Si Si6 0.813550 0.429280 0.349868
Si Si7 0.588809 0.337208 0.456238
O O1 0.624010 0.426436 0.233289
O O2 0.800586 0.913553 0.450077
O O3 0.759752 0.322312 0.008423
O O4 0.998078 0.845183 0.453916
O O5 0.711838 0.539876 0.614746
O O6 0.616813 0.791364 0.232651
O O7 0.527537 0.625272 0.543954
O O8 0.327877 0.185841 0.258865
O O9 0.869620 0.472848 0.727320
O O10 0.026425 0.313084 0.966925
O O11 0.500000 0.000000 0.500000
O O12 0.847090 0.489633 0.144538
O O13 0.160138 0.821414 0.461616
O O14 0.181826 0.090226 0.277791
O O15 0.500000 0.500000 0.500000
#
# Coordination Sequence:
#
# PCOD9098112 Si02
#       7
#     2   2   2   2   2   2   2
#     4  10  22  40  65  90 126 165 202 253 316 361
#     4  10  22  37  62  93 122 164 210 253 300 364
#     4  10  22  41  65  92 122 166 204 255 307 368
#     4  10  22  42  64  89 124 166 208 255 305 360
#     4  10  20  38  64  90 127 164 199 249 322 365
#     4  10  20  37  64  92 124 166 199 253 313 367
#     4  10  20  36  63  95 124 162 204 254 307 370
#
# _framework density 24.604918999999999
#
# number of rings (size 3 to 8) (size 9 to 14) (size 15 to 20)
#    0.000    2.000    2.857    0.000    0.000   11.429 
#    0.000    7.857    0.000    0.000    0.000    0.000 
#    0.000    0.000    0.000    0.000    0.000    0.000 
#
# Total GULP energy -78144.157879 kJ/mol
# GULP energy per Si atom -5581.725563 kJ/mol
# Density = 2.454892 g / cm^3
# Si number density = 24.604919 Si / 1000 Ang^3
#
#
#
# Elastic Constant Matrix: (Units=GPa)
#
#
# Indices 1 2 3 4 5 6 
#
# 1 166.8848 13.3976 44.6425 23.0554 10.5382 20.5083
# 2 13.3976 76.9422 -13.7073 6.2690 -5.4093 -2.4687
# 3 44.6425 -13.7073 96.7421 17.0972 -1.1911 6.3751
# 4 23.0554 6.2690 17.0972 17.8854 2.2458 5.0987
# 5 10.5382 -5.4093 -1.1911 2.2458 41.0334 8.8365
# 6 20.5083 -2.4687 6.3751 5.0987 8.8365 25.3422
#
#
#
# Elastic Compliance Matrix: (Units=1/GPa)
#
#
# Indices 1 2 3 4 5 6 
#
# 1 0.008331 -0.001661 -0.002709 -0.006115 -0.001111 -0.004605
# 2 -0.001661 0.014944 0.004182 -0.008122 0.002416 0.002540
# 3 -0.002709 0.004182 0.014302 -0.012112 0.002179 0.000679
# 4 -0.006115 -0.008122 -0.012112 0.080870 -0.002514 -0.008189
# 5 -0.001111 0.002416 0.002179 -0.002514 0.026965 -0.008310
# 6 -0.004605 0.002540 0.000679 -0.008189 -0.008310 0.047808
#
#
# Mechanical properties :
#
#
# Convention : Reuss Voigt Hill
#
# Bulk Modulus (GPa) = 26.88192 47.69276 37.28734
# Shear Modulus (GPa) = 24.27224 36.60129 30.43676
#
# Velocity S-wave (km/s) = 3.14423 3.86107 3.52094
# Velocity P-wave (km/s) = 4.91231 6.26919 5.63176
#
# Compressibility (1/GPa) = 0.03719972
#
# Stress axis : x y z
#
# Youngs Moduli (GPa) = 120.03300 66.91679 69.91958
#
# Poissons Ratio (x) = 0.11114 0.18943
# Poissons Ratio (y) = 0.19937 -0.29237
# Poissons Ratio (z) = 0.32521 -0.27981
#
# Static dielectric constant tensor:
#      x y z
#    x 2.041710 0.038920 -0.014370 
#    y 0.038920 2.060900 -0.060740 
#    z -0.014370 -0.060740 1.928820 
# 
# From -- ./inp_files/179540.got.cif
#   From: 2010.05.17/outbox.cif.g08.bks.cpg/sg2_90_cif.got.tgz:179540.got - 2010.06.03 11:33:40.
