data_PCOD9098325
_publ_section_title
;
Structure prediction by ZEFSAII (Michael W. Deem and Ramdas Pophale) SiO2 
 PCOD9098325
Probable space group: P -1
;
_chemical_formula_sum "Si O2"
_cell_formula_units_Z 16
_cell_length_a 11.744595
_cell_length_b 8.878365
_cell_length_c 8.333306
_cell_angle_alpha 110.916926
_cell_angle_beta 128.045089
_cell_angle_gamma 86.010800
_cell_volume 625.702052
_symmetry_space_group_name_H-M "P -1"
_symmetry_group_IT_number 2
_symmetry_cell_setting 'triclinic'
loop_
_space_group_symop_operation_xyz
x,y,z
-x,-y,-z
loop_
_atom_site_type_symbol
_atom_site_label
_atom_site_fract_x
_atom_site_fract_y
_atom_site_fract_z
Si Si1 0.335819 0.572169 0.926090
Si Si2 0.083755 0.683640 0.270251
Si Si3 0.615374 0.874064 0.700959
Si Si4 0.263136 0.306158 0.025966
Si Si5 0.567384 0.866836 0.294083
Si Si6 0.171821 0.001463 0.627667
Si Si7 0.142334 0.808309 0.008186
Si Si8 0.899278 0.579651 0.571600
O O1 0.338601 0.451049 0.031350
O O2 0.234283 0.696258 0.947786
O O3 0.257326 0.462863 0.668684
O O4 0.484735 0.703262 0.070167
O O5 0.167849 0.810345 0.525716
O O6 0.104539 0.512119 0.295374
O O7 0.908419 0.680164 0.114984
O O8 0.137048 0.746394 0.164308
O O9 0.544659 0.834184 0.450057
O O10 0.507428 0.974396 0.739648
O O11 0.650416 0.708840 0.742899
O O12 0.769461 0.005945 0.858062
O O13 0.255292 0.119399 0.881360
O O14 0.738698 0.914187 0.415877
O O15 0.000000 0.000000 0.500000
O O16 0.984447 0.763516 0.762582
O O17 0.000000 0.500000 0.500000
#
# Coordination Sequence:
#
# PCOD9098325 Si02
#       8
#     2   2   2   2   2   2   2   2
#     4  10  23  42  67  97 140 180 229 275 343 410
#     4  11  21  40  65 102 136 173 234 287 335 393
#     4  10  23  42  70 100 133 184 229 282 341 399
#     4  11  24  40  62 102 139 176 224 285 344 398
#     4  10  22  48  68  93 137 183 232 274 333 421
#     4  10  24  42  69  99 139 170 225 287 337 401
#     4  10  20  39  68  97 134 179 235 280 327 408
#     4  10  20  36  64  98 133 180 223 278 337 400
#
# _framework density 25.571275
#
# number of rings (size 3 to 8) (size 9 to 14) (size 15 to 20)
#    0.000    1.750    3.750    0.375    5.250    3.000 
#    2.250    0.000    0.000    0.000    0.000    0.000 
#    0.000    0.000    0.000    0.000    0.000    0.000 
#
# Total GULP energy -89420.144063 kJ/mol
# GULP energy per Si atom -5588.759004 kJ/mol
# Density = 2.551307 g / cm^3
# Si number density = 25.571275 Si / 1000 Ang^3
#
#
#
# Elastic Constant Matrix: (Units=GPa)
#
#
# Indices 1 2 3 4 5 6 
#
# 1 96.4332 22.7461 18.4394 -1.6668 15.2564 13.6581
# 2 22.7461 76.8104 46.3521 -14.5591 13.6635 9.6221
# 3 18.4394 46.3521 84.6356 1.9560 13.4145 -5.9644
# 4 -1.6668 -14.5591 1.9560 57.7719 2.8570 -2.3455
# 5 15.2564 13.6635 13.4145 2.8570 30.1287 1.2967
# 6 13.6581 9.6221 -5.9644 -2.3455 1.2967 19.2933
#
#
#
# Elastic Compliance Matrix: (Units=1/GPa)
#
#
# Indices 1 2 3 4 5 6 
#
# 1 0.013071 -0.000086 -0.002698 0.000301 -0.004991 -0.009672
# 2 -0.000086 0.026271 -0.014864 0.006709 -0.005180 -0.016472
# 3 -0.002698 -0.014864 0.022070 -0.003828 -0.002037 0.015817
# 4 0.000301 0.006709 -0.003828 0.019209 -0.003218 -0.002191
# 5 -0.004991 -0.005180 -0.002037 -0.003218 0.039173 0.002462
# 6 -0.009672 -0.016472 0.015817 -0.002191 0.002462 0.071352
#
#
# Mechanical properties :
#
#
# Convention : Reuss Voigt Hill
#
# Bulk Modulus (GPa) = 38.29196 48.10606 43.19901
# Shear Modulus (GPa) = 21.26341 32.79487 27.02914
#
# Velocity S-wave (km/s) = 2.88676 3.58507 3.25470
# Velocity P-wave (km/s) = 5.11061 5.99920 5.57264
#
# Compressibility (1/GPa) = 0.02611514
#
# Stress axis : x y z
#
# Youngs Moduli (GPa) = 76.50668 38.06518 45.31116
#
# Poissons Ratio (x) = 0.00327 0.12226
# Poissons Ratio (y) = 0.00658 0.67350
# Poissons Ratio (z) = 0.20643 0.56579
#
# Static dielectric constant tensor:
#      x y z
#    x 2.070000 -0.035780 0.000260 
#    y -0.035780 2.010730 0.014630 
#    z 0.000260 0.014630 2.076520 
# 
# From -- ./inp_files/244797.got.cif
#   From: 2010.05.17/outbox.cif.g08.bks.cpg/sg2_123_cif.got.tgz:244797.got - 2010.06.03 11:33:40.
