data_PCOD9098470
_publ_section_title
;
Structure prediction by ZEFSAII (Michael W. Deem and Ramdas Pophale) SiO2 
 PCOD9098470
Probable space group: P -1
;
_chemical_formula_sum "Si O2"
_cell_formula_units_Z 15
_cell_length_a 13.373526
_cell_length_b 8.051580
_cell_length_c 12.517234
_cell_angle_alpha 51.235780
_cell_angle_beta 140.860858
_cell_angle_gamma 125.554264
_cell_volume 650.660507
_symmetry_space_group_name_H-M "P -1"
_symmetry_group_IT_number 2
_symmetry_cell_setting 'triclinic'
loop_
_space_group_symop_operation_xyz
x,y,z
-x,-y,-z
loop_
_atom_site_type_symbol
_atom_site_label
_atom_site_fract_x
_atom_site_fract_y
_atom_site_fract_z
Si Si1 0.822802 0.847378 0.414695
Si Si2 0.248925 0.842696 0.421961
Si Si3 0.642455 0.305645 0.773588
Si Si4 0.542418 0.712675 0.593153
Si Si5 0.270938 0.753671 0.720700
Si Si6 0.000000 0.500000 0.000000
Si Si7 0.589822 0.885443 0.029276
Si Si8 0.999303 0.513531 0.239160
O O1 0.858651 0.626201 0.577567
O O2 0.728331 0.993168 0.349396
O O3 0.734509 0.808901 0.242799
O O4 0.000000 0.000000 0.500000
O O5 0.410698 0.769618 0.542085
O O6 0.227825 0.749835 0.562152
O O7 0.089589 0.747962 0.260245
O O8 0.294262 0.104319 0.343922
O O9 0.568961 0.467543 0.724936
O O10 0.529662 0.266750 0.592506
O O11 0.661707 0.079354 0.931257
O O12 0.817740 0.426651 0.834576
O O13 0.450029 0.724621 0.914817
O O14 0.140220 0.597244 0.748396
O O15 0.932232 0.492539 0.072671
O O16 0.500000 0.000000 0.000000
#
# Coordination Sequence:
#
# PCOD9098470 Si02
#       8
#     2   2   2   2   2   1   2   2
#     4   9  20  38  63  95 124 168 228 261 325 387
#     4  11  22  42  67  95 141 175 220 270 340 403
#     4  11  22  42  69  95 128 172 229 278 322 390
#     4  10  24  41  69  96 124 183 226 263 338 398
#     4  10  21  39  68  94 133 171 221 274 332 390
#     4  12  24  40  70  96 134 162 230 276 326 388
#     4  10  20  36  66  95 127 162 226 281 312 380
#     4  11  24  42  66 101 130 179 217 278 334 396
#
# _framework density 23.053497
#
# number of rings (size 3 to 8) (size 9 to 14) (size 15 to 20)
#    0.000    1.600    2.667    2.800    5.600    0.000 
#    0.000    1.333    5.867    0.000    0.000    0.000 
#    0.000    0.000    0.000    0.000    0.000    0.000 
#
# Total GULP energy -83564.399140 kJ/mol
# GULP energy per Si atom -5570.959943 kJ/mol
# Density = 2.300103 g / cm^3
# Si number density = 23.053497 Si / 1000 Ang^3
#
#
#
# Elastic Constant Matrix: (Units=GPa)
#
#
# Indices 1 2 3 4 5 6 
#
# 1 72.7282 17.1396 18.4516 -7.4345 -23.4076 12.1339
# 2 17.1396 106.9681 41.0251 12.3085 -4.4334 13.5354
# 3 18.4516 41.0251 128.8996 15.4054 -17.5028 9.1302
# 4 -7.4345 12.3085 15.4054 22.2625 4.3630 0.9926
# 5 -23.4076 -4.4334 -17.5028 4.3630 38.7653 3.4528
# 6 12.1339 13.5354 9.1302 0.9926 3.4528 22.9364
#
#
#
# Elastic Compliance Matrix: (Units=1/GPa)
#
#
# Indices 1 2 3 4 5 6 
#
# 1 0.021052 -0.001844 -0.000667 0.006590 0.012523 -0.011954
# 2 -0.001844 0.011822 -0.002520 -0.005217 0.000114 -0.004789
# 3 -0.000667 -0.002520 0.010345 -0.006845 0.004994 -0.002733
# 4 0.006590 -0.005217 -0.006845 0.055894 -0.006071 0.000812
# 5 0.012523 0.000114 0.004994 -0.006071 0.037562 -0.014072
# 6 -0.011954 -0.004789 -0.002733 0.000812 -0.014072 0.055920
#
#
# Mechanical properties :
#
#
# Convention : Reuss Voigt Hill
#
# Bulk Modulus (GPa) = 30.16045 51.31427 40.73736
# Shear Modulus (GPa) = 23.39618 32.25815 27.82717
#
# Velocity S-wave (km/s) = 3.18915 3.74475 3.47806
# Velocity P-wave (km/s) = 5.16451 6.40348 5.81707
#
# Compressibility (1/GPa) = 0.03315600
#
# Stress axis : x y z
#
# Youngs Moduli (GPa) = 47.50119 84.59065 96.66117
#
# Poissons Ratio (x) = 0.15599 0.06449
# Poissons Ratio (y) = 0.08759 0.24362
# Poissons Ratio (z) = 0.03169 0.21320
#
# Static dielectric constant tensor:
#      x y z
#    x 1.898910 -0.007420 0.019450 
#    y -0.007420 1.971040 -0.012540 
#    z 0.019450 -0.012540 1.848830 
# 
# From -- ./inp_files/446854.got.cif
#   From: 2010.05.17/outbox.cif.g08.bks.cpg/sg2_224_cif.got.tgz:446854.got - 2010.06.03 11:33:40.
