data_PCOD9098090
_publ_section_title
;
Structure prediction by ZEFSAII (Michael W. Deem and Ramdas Pophale) SiO2 
 PCOD9098090
Probable space group: P -1
;
_chemical_formula_sum "Si O2"
_cell_formula_units_Z 12
_cell_length_a 6.917790
_cell_length_b 11.753084
_cell_length_c 8.680497
_cell_angle_alpha 84.055755
_cell_angle_beta 56.635303
_cell_angle_gamma 63.516376
_cell_volume 518.030706
_symmetry_space_group_name_H-M "P -1"
_symmetry_group_IT_number 2
_symmetry_cell_setting 'triclinic'
loop_
_space_group_symop_operation_xyz
x,y,z
-x,-y,-z
loop_
_atom_site_type_symbol
_atom_site_label
_atom_site_fract_x
_atom_site_fract_y
_atom_site_fract_z
Si Si1 0.345929 0.384045 0.697709
Si Si2 0.482281 0.553127 0.828181
Si Si3 0.944977 0.626068 0.640245
Si Si4 0.097542 0.258739 0.042886
Si Si5 0.699493 0.805042 0.475488
Si Si6 0.237285 0.022797 0.829258
O O1 0.506454 0.445652 0.706062
O O2 0.203376 0.349916 0.903640
O O3 0.439656 0.256866 0.567059
O O4 0.158174 0.498111 0.649995
O O5 0.702957 0.597402 0.720158
O O6 0.500000 0.500000 0.000000
O O7 0.201131 0.676443 0.897238
O O8 0.946334 0.691849 0.468808
O O9 0.895900 0.730099 0.779952
O O10 0.267165 0.112658 0.933687
O O11 0.804557 0.886518 0.316240
O O12 0.489272 0.893487 0.682313
O O13 0.000000 0.000000 0.000000
#
# Coordination Sequence:
#
# PCOD9098090 Si02
#       6
#     2   2   2   2   2   2
#     4  10  20  37  59  96 136 163 206 265 316 389
#     4  11  18  33  63  96 126 171 210 245 323 392
#     4  11  20  36  63  95 131 166 205 265 325 378
#     4  10  20  36  63  93 127 166 217 260 312 386
#     4  10  23  40  65  95 129 169 213 272 322 369
#     4  10  22  45  67  86 127 174 220 268 317 381
#
# _framework density 23.164650000000002
#
# number of rings (size 3 to 8) (size 9 to 14) (size 15 to 20)
#    0.000    1.667    3.333    2.500    0.000    1.333 
#    0.000    2.500    0.000    0.000    0.000    0.000 
#    0.000    0.000    0.000    0.000    0.000    0.000 
#
# Total GULP energy -66993.198340 kJ/mol
# GULP energy per Si atom -5582.766528 kJ/mol
# Density = 2.311193 g / cm^3
# Si number density = 23.164650 Si / 1000 Ang^3
#
#
#
# Elastic Constant Matrix: (Units=GPa)
#
#
# Indices 1 2 3 4 5 6 
#
# 1 128.9357 33.7661 23.2848 8.3990 13.2952 -4.8554
# 2 33.7661 93.1935 26.2516 11.7286 9.6367 9.9303
# 3 23.2848 26.2516 75.9399 5.6387 12.3030 1.7907
# 4 8.3990 11.7286 5.6387 52.0850 10.1298 13.2208
# 5 13.2952 9.6367 12.3030 10.1298 46.9849 -1.1636
# 6 -4.8554 9.9303 1.7907 13.2208 -1.1636 28.4173
#
#
#
# Elastic Compliance Matrix: (Units=1/GPa)
#
#
# Indices 1 2 3 4 5 6 
#
# 1 0.009133 -0.002926 -0.001575 -0.001216 -0.001231 0.003197
# 2 -0.002926 0.013454 -0.003426 -0.000819 -0.000973 -0.004644
# 3 -0.001575 -0.003426 0.015304 -0.000043 -0.002853 -0.000133
# 4 -0.001216 -0.000819 -0.000043 0.023292 -0.004770 -0.010950
# 5 -0.001231 -0.000973 -0.002853 -0.004770 0.023693 0.003499
# 6 0.003197 -0.004644 -0.000133 -0.010950 0.003499 0.042605
#
#
# Mechanical properties :
#
#
# Convention : Reuss Voigt Hill
#
# Bulk Modulus (GPa) = 45.37596 51.63048 48.50322
# Shear Modulus (GPa) = 33.18294 39.81521 36.49907
#
# Velocity S-wave (km/s) = 3.78892 4.15033 3.97374
# Velocity P-wave (km/s) = 6.22673 6.73081 6.48367
#
# Compressibility (1/GPa) = 0.02203810
#
# Stress axis : x y z
#
# Youngs Moduli (GPa) = 109.49407 74.32698 65.34258
#
# Poissons Ratio (x) = 0.21748 0.10289
# Poissons Ratio (y) = 0.32037 0.22385
# Poissons Ratio (z) = 0.17241 0.25463
#
# Static dielectric constant tensor:
#      x y z
#    x 1.832920 0.016050 -0.036740 
#    y 0.016050 1.903910 0.058990 
#    z -0.036740 0.058990 1.980950 
# 
# From -- ./inp_files/89414.got.cif
#   From: 2010.05.17/outbox.cif.g08.bks.cpg/sg2_45_cif.got.tgz:89414.got - 2010.06.03 11:33:40.
