data_PCOD9098250
_publ_section_title
;
Structure prediction by ZEFSAII (Michael W. Deem and Ramdas Pophale) SiO2 
 PCOD9098250
Probable space group: P -1
;
_chemical_formula_sum "Si O2"
_cell_formula_units_Z 16
_cell_length_a 8.839725
_cell_length_b 18.320715
_cell_length_c 11.577097
_cell_angle_alpha 149.632147
_cell_angle_beta 113.508482
_cell_angle_gamma 56.039899
_cell_volume 770.592979
_symmetry_space_group_name_H-M "P -1"
_symmetry_group_IT_number 2
_symmetry_cell_setting 'triclinic'
loop_
_space_group_symop_operation_xyz
x,y,z
-x,-y,-z
loop_
_atom_site_type_symbol
_atom_site_label
_atom_site_fract_x
_atom_site_fract_y
_atom_site_fract_z
Si Si1 0.334838 0.972656 0.733819
Si Si2 0.911340 0.197112 0.949662
Si Si3 0.279213 0.209165 0.442195
Si Si4 0.925400 0.193075 0.215409
Si Si5 0.170413 0.014557 0.512058
Si Si6 0.389238 0.498985 0.848437
Si Si7 0.067052 0.308342 0.744884
Si Si8 0.705762 0.305924 0.524094
O O1 0.542419 0.952245 0.772919
O O2 0.329942 0.925251 0.532264
O O3 0.320350 0.846330 0.645859
O O4 0.134066 0.128716 0.903735
O O5 0.876059 0.237146 0.127773
O O6 0.794067 0.337418 0.014389
O O7 0.833673 0.066776 0.721606
O O8 0.329183 0.356441 0.638805
O O9 0.224607 0.225274 0.582231
O O10 0.095122 0.230411 0.350389
O O11 0.755488 0.289770 0.383203
O O12 0.000000 0.000000 0.000000
O O13 0.138432 0.195661 0.725757
O O14 0.000000 0.000000 0.500000
O O15 0.529706 0.462054 0.733140
O O16 0.500000 0.500000 0.000000
O O17 0.885741 0.295180 0.629575
O O18 0.000000 0.500000 0.000000
#
# Coordination Sequence:
#
# PCOD9098250 Si02
#       8
#     2   2   2   2   2   2   2   2
#     4  10  20  39  65  94 124 168 215 277 319 385
#     4  11  21  38  70  91 123 178 220 259 331 389
#     4  10  24  39  61  98 132 164 220 272 323 394
#     4  11  22  43  67  89 131 177 222 271 324 382
#     4  10  20  36  64  92 125 162 223 266 322 396
#     4  11  24  41  69  99 130 172 217 271 345 393
#     4  11  21  35  60  92 132 169 204 273 340 380
#     4  10  20  41  61  92 129 170 215 265 322 395
#
# _framework density 20.763231999999999
#
# number of rings (size 3 to 8) (size 9 to 14) (size 15 to 20)
#    0.000    1.500    3.750    3.000    5.250    2.000 
#    0.000    2.500    0.000    0.000    0.000    0.000 
#    0.000    0.000    0.000    0.000    0.000    0.000 
#
# Total GULP energy -89168.274734 kJ/mol
# GULP energy per Si atom -5573.017171 kJ/mol
# Density = 2.071597 g / cm^3
# Si number density = 20.763232 Si / 1000 Ang^3
#
#
#
# Elastic Constant Matrix: (Units=GPa)
#
#
# Indices 1 2 3 4 5 6 
#
# 1 126.4413 36.6185 33.5738 -2.7385 -24.5042 4.4166
# 2 36.6185 102.2629 38.5494 -6.2817 -10.0561 10.3835
# 3 33.5738 38.5494 64.6952 -4.9834 -10.5646 4.8991
# 4 -2.7385 -6.2817 -4.9834 39.9088 1.2649 -10.0613
# 5 -24.5042 -10.0561 -10.5646 1.2649 39.5575 2.8068
# 6 4.4166 10.3835 4.8991 -10.0613 2.8068 21.1509
#
#
#
# Elastic Compliance Matrix: (Units=1/GPa)
#
#
# Indices 1 2 3 4 5 6 
#
# 1 0.010377 -0.001816 -0.003389 -0.000520 0.005179 -0.001425
# 2 -0.001816 0.013490 -0.006587 -0.000081 0.000894 -0.004875
# 3 -0.003389 -0.006587 0.021619 0.001170 0.002018 -0.000777
# 4 -0.000520 -0.000081 0.001170 0.028690 -0.001926 0.013780
# 5 0.005179 0.000894 0.002018 -0.001926 0.029802 -0.006858
# 6 -0.001425 -0.004875 -0.000777 0.013780 -0.006858 0.057615
#
#
# Mechanical properties :
#
#
# Convention : Reuss Voigt Hill
#
# Bulk Modulus (GPa) = 45.65906 56.76475 51.21191
# Shear Modulus (GPa) = 25.97689 32.43395 29.20542
#
# Velocity S-wave (km/s) = 3.54093 3.95661 3.75453
# Velocity P-wave (km/s) = 6.22540 6.94777 6.59648
#
# Compressibility (1/GPa) = 0.02190146
#
# Stress axis : x y z
#
# Youngs Moduli (GPa) = 96.36753 74.12960 46.25476
#
# Poissons Ratio (x) = 0.13463 0.15678
# Poissons Ratio (y) = 0.17501 0.30467
# Poissons Ratio (z) = 0.32664 0.48828
#
# Static dielectric constant tensor:
#      x y z
#    x 1.767110 -0.012290 -0.047010 
#    y -0.012290 1.769670 0.003920 
#    z -0.047010 0.003920 1.865650 
# 
# From -- ./inp_files/402521.got.cif
#   From: 2010.05.17/outbox.cif.g08.bks.cpg/sg2_202_cif.got.tgz:402521.got - 2010.06.03 11:33:40.
