data_PCOD9098486
_publ_section_title
;
Structure prediction by ZEFSAII (Michael W. Deem and Ramdas Pophale) SiO2 
 PCOD9098486
Probable space group: P -1
;
_chemical_formula_sum "Si O2"
_cell_formula_units_Z 12
_cell_length_a 5.440474
_cell_length_b 11.244148
_cell_length_c 11.180157
_cell_angle_alpha 50.677008
_cell_angle_beta 94.594034
_cell_angle_gamma 82.813302
_cell_volume 513.480127
_symmetry_space_group_name_H-M "P -1"
_symmetry_group_IT_number 2
_symmetry_cell_setting 'triclinic'
loop_
_space_group_symop_operation_xyz
x,y,z
-x,-y,-z
loop_
_atom_site_type_symbol
_atom_site_label
_atom_site_fract_x
_atom_site_fract_y
_atom_site_fract_z
Si Si1 0.569897 0.917217 0.744943
Si Si2 0.853851 0.461117 0.337799
Si Si3 0.521937 0.383472 0.964099
Si Si4 0.677563 0.418325 0.697149
Si Si5 0.856835 0.861327 0.558340
Si Si6 0.277893 0.945784 0.101731
O O1 0.422953 0.794564 0.874726
O O2 0.743986 0.825942 0.703873
O O3 0.378006 0.064885 0.583618
O O4 0.721453 0.979743 0.814932
O O5 0.077993 0.522821 0.368734
O O6 0.964175 0.288434 0.399777
O O7 0.601282 0.468634 0.401807
O O8 0.737515 0.575738 0.149391
O O9 0.500000 0.500000 0.000000
O O10 0.707939 0.412187 0.848669
O O11 0.664606 0.243431 0.770592
O O12 0.000000 0.000000 0.500000
O O13 0.500000 0.000000 0.000000
O O14 0.000000 0.000000 0.000000
#
# Coordination Sequence:
#
# PCOD9098486 Si02
#       6
#     2   2   2   2   2   2
#     4  11  25  42  68 104 136 182 229 283 346 410
#     4  10  23  42  67  93 137 175 227 281 338 399
#     4  10  20  36  66  97 130 168 223 285 334 394
#     4  10  22  41  65  98 132 172 222 284 337 402
#     4  11  26  44  68  98 143 186 230 279 345 415
#     4  12  24  44  71 104 143 174 229 288 346 406
#
# _framework density 23.369938999999999
#
# number of rings (size 3 to 8) (size 9 to 14) (size 15 to 20)
#    1.000    0.333    1.667    4.000    7.000    5.333 
#    0.000    1.667    0.000    0.000    0.000    0.000 
#    0.000    0.000    0.000    0.000    0.000    0.000 
#
# Total GULP energy -67128.863715 kJ/mol
# GULP energy per Si atom -5594.071976 kJ/mol
# Density = 2.331675 g / cm^3
# Si number density = 23.369939 Si / 1000 Ang^3
#
#
#
# Elastic Constant Matrix: (Units=GPa)
#
#
# Indices 1 2 3 4 5 6 
#
# 1 166.4858 45.9814 51.6450 4.7895 4.4812 4.5068
# 2 45.9814 120.1798 47.6186 0.5303 9.1821 -6.4726
# 3 51.6450 47.6186 82.5763 18.1617 -2.1058 -7.2781
# 4 4.7895 0.5303 18.1617 38.5139 2.7141 13.9405
# 5 4.4812 9.1821 -2.1058 2.7141 33.3033 -0.6428
# 6 4.5068 -6.4726 -7.2781 13.9405 -0.6428 39.3766
#
#
#
# Elastic Compliance Matrix: (Units=1/GPa)
#
#
# Indices 1 2 3 4 5 6 
#
# 1 0.007975 -0.001018 -0.005306 0.002727 -0.001409 -0.003049
# 2 -0.001018 0.011799 -0.007184 0.003884 -0.003901 -0.000710
# 3 -0.005306 -0.007184 0.023546 -0.013915 0.005487 0.008794
# 4 0.002727 0.003884 -0.013915 0.038292 -0.005745 -0.015896
# 5 -0.001409 -0.003901 0.005487 -0.005745 0.032167 0.003093
# 6 -0.003049 -0.000710 0.008794 -0.015896 0.003093 0.032932
#
#
# Mechanical properties :
#
#
# Convention : Reuss Voigt Hill
#
# Bulk Modulus (GPa) = 61.32530 73.30354 67.31442
# Shear Modulus (GPa) = 27.90758 37.17188 32.53973
#
# Velocity S-wave (km/s) = 3.45942 3.99254 3.73550
# Velocity P-wave (km/s) = 6.50037 7.25869 6.88997
#
# Compressibility (1/GPa) = 0.01630648
#
# Stress axis : x y z
#
# Youngs Moduli (GPa) = 125.38432 84.74990 42.46932
#
# Poissons Ratio (x) = 0.08626 0.22532
# Poissons Ratio (y) = 0.12762 0.30510
# Poissons Ratio (z) = 0.66524 0.60884
#
# Static dielectric constant tensor:
#      x y z
#    x 1.870080 -0.005280 0.013680 
#    y -0.005280 1.809280 0.023140 
#    z 0.013680 0.023140 1.889340 
# 
# From -- ./inp_files/363736.got.cif
#   From: 2010.05.17/outbox.cif.g08.bks.cpg/sg2_182_cif.got.tgz:363736.got - 2010.06.03 11:33:40.
