data_PCOD9098537
_publ_section_title
;
Structure prediction by ZEFSAII (Michael W. Deem and Ramdas Pophale) SiO2 
 PCOD9098537
Probable space group: P -1
;
_chemical_formula_sum "Si O2"
_cell_formula_units_Z 14
_cell_length_a 5.512991
_cell_length_b 11.907477
_cell_length_c 11.461949
_cell_angle_alpha 95.816667
_cell_angle_beta 86.481445
_cell_angle_gamma 57.663868
_cell_volume 626.465040
_symmetry_space_group_name_H-M "P -1"
_symmetry_group_IT_number 2
_symmetry_cell_setting 'triclinic'
loop_
_space_group_symop_operation_xyz
x,y,z
-x,-y,-z
loop_
_atom_site_type_symbol
_atom_site_label
_atom_site_fract_x
_atom_site_fract_y
_atom_site_fract_z
Si Si1 0.267322 0.179147 0.265962
Si Si2 0.602727 0.913295 0.106190
Si Si3 0.666073 0.362900 0.335147
Si Si4 0.294923 0.746006 0.093212
Si Si5 0.289806 0.391446 0.140744
Si Si6 0.273966 0.349364 0.500558
Si Si7 0.706286 0.593636 0.255381
O O1 0.284807 0.260269 0.162883
O O2 0.285846 0.244537 0.394435
O O3 0.938221 0.217012 0.276985
O O4 0.496045 0.023226 0.224320
O O5 0.426185 0.840287 0.108930
O O6 0.952846 0.818264 0.090996
O O7 0.500000 0.000000 0.000000
O O8 0.402877 0.411981 0.260928
O O9 0.557378 0.353696 0.463146
O O10 0.754565 0.466826 0.313615
O O11 0.409379 0.664117 0.201508
O O12 0.477091 0.646979 0.970126
O O13 0.971643 0.524500 0.148347
O O14 0.277798 0.317341 0.633768
O O15 0.000000 0.500000 0.500000
#
# Coordination Sequence:
#
# PCOD9098537 Si02
#       7
#     2   2   2   2   2   2   2
#     4  10  22  38  66  98 120 169 230 272 310 381
#     4  12  26  47  71  92 131 178 230 266 314 395
#     4  10  20  36  68  92 131 165 218 266 333 374
#     4  12  28  43  68  99 135 177 214 270 338 385
#     4  10  21  39  65  96 132 164 213 275 331 389
#     4  11  20  38  64  99 128 168 218 268 326 388
#     4  11  24  40  61 100 137 167 210 272 339 395
#
# _framework density 22.347615999999999
#
# number of rings (size 3 to 8) (size 9 to 14) (size 15 to 20)
#    0.000    1.143    5.714    2.143    8.000    0.571 
#    0.000    1.429    0.000    0.000    0.000    0.000 
#    0.000    0.000    0.000    0.000    0.000    0.000 
#
# Total GULP energy -78084.010703 kJ/mol
# GULP energy per Si atom -5577.429336 kJ/mol
# Density = 2.229675 g / cm^3
# Si number density = 22.347616 Si / 1000 Ang^3
#
#
#
# Elastic Constant Matrix: (Units=GPa)
#
#
# Indices 1 2 3 4 5 6 
#
# 1 90.5985 34.9947 8.6949 4.0161 -8.5763 -22.5910
# 2 34.9947 64.8334 34.6004 9.5481 -3.8601 -16.7822
# 3 8.6949 34.6004 100.4361 18.6536 1.1199 -15.3768
# 4 4.0161 9.5481 18.6536 30.1124 -5.9077 3.5775
# 5 -8.5763 -3.8601 1.1199 -5.9077 33.9686 0.9398
# 6 -22.5910 -16.7822 -15.3768 3.5775 0.9398 44.7477
#
#
#
# Elastic Compliance Matrix: (Units=1/GPa)
#
#
# Indices 1 2 3 4 5 6 
#
# 1 0.015599 -0.007888 0.002469 -0.001294 0.002575 0.005814
# 2 -0.007888 0.024546 -0.006780 -0.002813 0.000446 0.003109
# 3 0.002469 -0.006780 0.014225 -0.007913 -0.002110 0.004269
# 4 -0.001294 -0.002813 -0.007913 0.041496 0.007050 -0.007893
# 5 0.002575 0.000446 -0.002110 0.007050 0.031449 -0.000482
# 6 0.005814 0.003109 0.004269 -0.007893 -0.000482 0.028557
#
#
# Mechanical properties :
#
#
# Convention : Reuss Voigt Hill
#
# Bulk Modulus (GPa) = 33.36481 45.82755 39.59618
# Shear Modulus (GPa) = 26.27988 33.60427 29.94208
#
# Velocity S-wave (km/s) = 3.43295 3.88197 3.66434
# Velocity P-wave (km/s) = 5.53858 6.37528 5.97160
#
# Compressibility (1/GPa) = 0.02997170
#
# Stress axis : x y z
#
# Youngs Moduli (GPa) = 64.10825 40.74028 70.29800
#
# Poissons Ratio (x) = 0.32137 -0.17356
# Poissons Ratio (y) = 0.50570 0.47660
# Poissons Ratio (z) = -0.15828 0.27621
#
# Static dielectric constant tensor:
#      x y z
#    x 1.914820 0.073550 -0.006420 
#    y 0.073550 1.845660 0.047290 
#    z -0.006420 0.047290 1.878800 
# 
# From -- ./inp_files/61019.got.cif
#   From: 2010.05.17/outbox.cif.g08.bks.cpg/sg2_31_cif.got.tgz:61019.got - 2010.06.03 11:33:40.
