data_PCOD9098345
_publ_section_title
;
Structure prediction by ZEFSAII (Michael W. Deem and Ramdas Pophale) SiO2 
 PCOD9098345
Probable space group: P -1
;
_chemical_formula_sum "Si O2"
_cell_formula_units_Z 16
_cell_length_a 9.070108
_cell_length_b 21.520230
_cell_length_c 9.771352
_cell_angle_alpha 128.311631
_cell_angle_beta 106.732977
_cell_angle_gamma 118.539686
_cell_volume 698.101852
_symmetry_space_group_name_H-M "P -1"
_symmetry_group_IT_number 2
_symmetry_cell_setting 'triclinic'
loop_
_space_group_symop_operation_xyz
x,y,z
-x,-y,-z
loop_
_atom_site_type_symbol
_atom_site_label
_atom_site_fract_x
_atom_site_fract_y
_atom_site_fract_z
Si Si1 0.038668 0.377147 0.307274
Si Si2 0.086572 0.848211 0.531639
Si Si3 0.031268 0.024069 0.379156
Si Si4 0.162103 0.845043 0.854553
Si Si5 0.409837 0.119640 0.387257
Si Si6 0.092049 0.364828 0.987922
Si Si7 0.709524 0.382383 0.659350
Si Si8 0.362342 0.673905 0.731383
O O1 0.041959 0.305341 0.312619
O O2 0.741325 0.299927 0.165127
O O3 0.308548 0.565936 0.642544
O O4 0.044696 0.345602 0.112260
O O5 0.054243 0.795276 0.600698
O O6 0.882523 0.709018 0.174710
O O7 0.980044 0.890613 0.553224
O O8 0.470082 0.019271 0.846697
O O9 0.711285 0.838390 0.992759
O O10 0.000000 0.000000 0.500000
O O11 0.314728 0.108950 0.495184
O O12 0.186392 0.947426 0.046515
O O13 0.760792 0.242763 0.664326
O O14 0.436064 0.203267 0.400821
O O15 0.342933 0.546468 0.266649
O O16 0.829443 0.411701 0.579540
O O17 0.000000 0.500000 0.000000
#
# Coordination Sequence:
#
# PCOD9098345 Si02
#       8
#     2   2   2   2   2   2   2   2
#     4  10  20  36  65  88 120 155 209 255 310 345
#     4  10  22  38  61  90 125 156 205 255 309 351
#     4  12  25  41  61  89 130 167 201 247 306 377
#     4  10  21  37  63  93 116 158 205 264 300 356
#     4  10  22  36  62  89 122 162 204 246 312 365
#     4   9  20  38  63  92 118 156 205 262 297 357
#     4   9  19  37  62  92 122 154 205 259 306 355
#     4  10  21  38  60  92 122 162 204 256 300 367
#
# _framework density 22.919291999999999
#
# number of rings (size 3 to 8) (size 9 to 14) (size 15 to 20)
#    0.000    2.000    1.250    1.500    7.000    4.000 
#    0.000    1.250    0.000    0.000    0.000    0.000 
#    0.000    0.000    0.000    0.000    0.000    0.000 
#
# Total GULP energy -89333.435727 kJ/mol
# GULP energy per Si atom -5583.339733 kJ/mol
# Density = 2.286713 g / cm^3
# Si number density = 22.919292 Si / 1000 Ang^3
#
#
#
# Elastic Constant Matrix: (Units=GPa)
#
#
# Indices 1 2 3 4 5 6 
#
# 1 50.3190 23.7448 26.2824 9.4654 -21.8479 -6.0322
# 2 23.7448 164.4415 52.8248 9.1904 -37.2684 -21.5494
# 3 26.2824 52.8248 54.8235 2.1790 -27.5395 -11.2372
# 4 9.4654 9.1904 2.1790 41.3027 -5.4073 -12.4893
# 5 -21.8479 -37.2684 -27.5395 -5.4073 25.0661 -1.6333
# 6 -6.0322 -21.5494 -11.2372 -12.4893 -1.6333 22.7757
#
#
#
# Elastic Compliance Matrix: (Units=1/GPa)
#
#
# Indices 1 2 3 4 5 6 
#
# 1 0.040570 0.009199 0.009814 0.006156 0.063247 0.032202
# 2 0.009199 0.015218 0.008271 0.008414 0.043414 0.028644
# 3 0.009814 0.008271 0.080369 0.030226 0.120578 0.075301
# 4 0.006156 0.008414 0.030226 0.043765 0.063986 0.053093
# 5 0.063247 0.043414 0.120578 0.063986 0.317264 0.175160
# 6 0.032202 0.028644 0.075301 0.053093 0.175160 0.158366
#
#
# Mechanical properties :
#
#
# Convention : Reuss Voigt Hill
#
# Bulk Modulus (GPa) = 5.24312 52.80978 29.02645
# Shear Modulus (GPa) = 7.52378 28.94436 18.23407
#
# Velocity S-wave (km/s) = 1.81380 3.55756 2.82366
# Velocity P-wave (km/s) = 2.58439 6.32192 4.82937
#
# Compressibility (1/GPa) = 0.19072628
#
# Stress axis : x y z
#
# Youngs Moduli (GPa) = 24.64877 65.70966 12.44257
#
# Poissons Ratio (x) = -0.60449 -0.12211
# Poissons Ratio (y) = -0.22675 -0.10292
# Poissons Ratio (z) = -0.24189 -0.54350
#
# Static dielectric constant tensor:
#      x y z
#    x 1.894000 -0.023390 0.041900 
#    y -0.023390 1.840170 -0.019350 
#    z 0.041900 -0.019350 2.016000 
# 
# From -- ./inp_files/224094.got.cif
#   From: 2010.05.17/outbox.cif.g08.bks.cpg/sg2_113_cif.got.tgz:224094.got - 2010.06.03 11:33:40.
