data_PCOD9098302
_publ_section_title
;
Structure prediction by ZEFSAII (Michael W. Deem and Ramdas Pophale) SiO2 
 PCOD9098302
Probable space group: P -1
;
_chemical_formula_sum "Si O2"
_cell_formula_units_Z 16
_cell_length_a 7.739736
_cell_length_b 13.190109
_cell_length_c 7.738193
_cell_angle_alpha 80.712750
_cell_angle_beta 77.815099
_cell_angle_gamma 105.046720
_cell_volume 725.886510
_symmetry_space_group_name_H-M "P -1"
_symmetry_group_IT_number 2
_symmetry_cell_setting 'triclinic'
loop_
_space_group_symop_operation_xyz
x,y,z
-x,-y,-z
loop_
_atom_site_type_symbol
_atom_site_label
_atom_site_fract_x
_atom_site_fract_y
_atom_site_fract_z
Si Si1 0.421003 0.666437 0.200975
Si Si2 0.380182 0.263945 0.217200
Si Si3 0.576722 0.095261 0.220517
Si Si4 0.991392 0.167617 0.139091
Si Si5 0.670067 0.556183 0.573933
Si Si6 0.002669 0.950774 0.324249
Si Si7 0.172150 0.266577 0.732478
Si Si8 0.632623 0.119084 0.787247
O O1 0.304737 0.543271 0.295984
O O2 0.625496 0.696168 0.235037
O O3 0.337185 0.754820 0.277850
O O4 0.474297 0.687099 0.982524
O O5 0.435460 0.158531 0.292405
O O6 0.167551 0.228194 0.202511
O O7 0.393992 0.358550 0.321911
O O8 0.779712 0.152664 0.239738
O O9 0.515700 0.965101 0.282241
O O10 0.581383 0.105563 0.006045
O O11 0.998538 0.045157 0.167574
O O12 0.028538 0.226161 0.930100
O O13 0.500000 0.500000 0.500000
O O14 0.839259 0.632149 0.405242
O O15 0.188867 0.918816 0.269524
O O16 0.847813 0.838346 0.350813
O O17 0.000000 0.000000 0.500000
#
# Coordination Sequence:
#
# PCOD9098302 Si02
#       8
#     2   2   2   2   2   2   2   2
#     4   9  20  38  65  89 116 171 209 259 307 358
#     4  10  20  38  68  95 123 161 212 256 310 372
#     4  10  20  36  64  96 127 159 208 256 302 379
#     4  11  21  39  64  91 124 167 201 252 319 369
#     4  10  21  41  65  88 124 164 209 259 313 364
#     4  12  23  37  58  92 132 164 197 258 313 374
#     4  10  21  36  61  87 118 167 209 247 311 369
#     4  10  20  37  60  94 127 160 209 251 308 373
#
# _framework density 22.042013000000001
#
# number of rings (size 3 to 8) (size 9 to 14) (size 15 to 20)
#    0.000    1.750    2.500    2.250    1.750    0.000 
#    4.500    1.875    5.500    5.250    0.000    0.000 
#    0.000    0.000    0.000    0.000    0.000    0.000 
#
# Total GULP energy -89293.547267 kJ/mol
# GULP energy per Si atom -5580.846704 kJ/mol
# Density = 2.199184 g / cm^3
# Si number density = 22.042013 Si / 1000 Ang^3
#
#
#
# Elastic Constant Matrix: (Units=GPa)
#
#
# Indices 1 2 3 4 5 6 
#
# 1 68.9984 29.7456 7.8433 10.5739 -13.2928 2.0235
# 2 29.7456 171.7297 51.9784 -0.7557 -5.3367 -1.3297
# 3 7.8433 51.9784 56.5251 -5.1154 -4.0814 4.6445
# 4 10.5739 -0.7557 -5.1154 47.5006 -0.1770 2.5110
# 5 -13.2928 -5.3367 -4.0814 -0.1770 16.0479 4.1844
# 6 2.0235 -1.3297 4.6445 2.5110 4.1844 29.3315
#
#
#
# Elastic Compliance Matrix: (Units=1/GPa)
#
#
# Indices 1 2 3 4 5 6 
#
# 1 0.019695 -0.003412 0.001544 -0.004011 0.016510 -0.003770
# 2 -0.003412 0.008762 -0.007960 -0.000087 -0.002528 0.002261
# 3 0.001544 -0.007960 0.026002 0.002661 0.006781 -0.005780
# 4 -0.004011 -0.000087 0.002661 0.022317 -0.001965 -0.001779
# 5 0.016510 -0.002528 0.006781 -0.001965 0.080405 -0.013630
# 6 -0.003770 0.002261 -0.005780 -0.001779 -0.013630 0.037467
#
#
# Mechanical properties :
#
#
# Convention : Reuss Voigt Hill
#
# Bulk Modulus (GPa) = 28.73392 52.93196 40.83294
# Shear Modulus (GPa) = 22.13309 32.42174 27.27742
#
# Velocity S-wave (km/s) = 3.17224 3.83940 3.52166
# Velocity P-wave (km/s) = 5.14604 6.61218 5.92464
#
# Compressibility (1/GPa) = 0.03480207
#
# Stress axis : x y z
#
# Youngs Moduli (GPa) = 50.77495 114.12884 38.45855
#
# Poissons Ratio (x) = 0.38946 -0.05938
# Poissons Ratio (y) = 0.17327 0.30613
# Poissons Ratio (z) = -0.07840 0.90846
#
# Static dielectric constant tensor:
#      x y z
#    x 1.817140 0.023130 0.030530 
#    y 0.023130 1.826530 -0.076260 
#    z 0.030530 -0.076260 1.911390 
# 
# From -- ./inp_files/187426.got.cif
#   From: 2010.05.17/outbox.cif.g08.bks.cpg/sg2_94_cif.got.tgz:187426.got - 2010.06.03 11:33:40.
