data_PCOD9098132
_publ_section_title
;
Structure prediction by ZEFSAII (Michael W. Deem and Ramdas Pophale) SiO2 
 PCOD9098132
Probable space group: P -1
;
_chemical_formula_sum "Si O2"
_cell_formula_units_Z 14
_cell_length_a 9.310552
_cell_length_b 13.476583
_cell_length_c 21.836475
_cell_angle_alpha 160.982709
_cell_angle_beta 140.914127
_cell_angle_gamma 45.220413
_cell_volume 557.088573
_symmetry_space_group_name_H-M "P -1"
_symmetry_group_IT_number 2
_symmetry_cell_setting 'triclinic'
loop_
_space_group_symop_operation_xyz
x,y,z
-x,-y,-z
loop_
_atom_site_type_symbol
_atom_site_label
_atom_site_fract_x
_atom_site_fract_y
_atom_site_fract_z
Si Si1 0.629880 0.397391 0.542726
Si Si2 0.488992 0.991176 0.893729
Si Si3 0.246494 0.859707 0.314421
Si Si4 0.019719 0.865926 0.723562
Si Si5 0.303792 0.795710 0.106870
Si Si6 0.887520 0.312967 0.150535
Si Si7 0.777461 0.707915 0.112770
O O1 0.500000 0.500000 0.500000
O O2 0.521467 0.064098 0.336215
O O3 0.896380 0.425367 0.628871
O O4 0.582856 0.662797 0.730688
O O5 0.350649 0.028692 0.805515
O O6 0.290243 0.994859 0.880169
O O7 0.708793 0.259087 0.116311
O O8 0.049571 0.814377 0.274379
O O9 0.500000 0.000000 0.500000
O O10 0.251813 0.529570 0.092864
O O11 0.132784 0.044762 0.332003
O O12 0.000000 0.500000 0.500000
O O13 0.903950 0.019079 0.831305
O O14 0.250958 0.675667 0.951239
O O15 0.309747 0.509725 0.986827
O O16 0.000000 0.000000 0.000000
#
# Coordination Sequence:
#
# PCOD9098132 Si02
#       7
#     2   2   2   2   2   2   2
#     4  11  21  41  63  82 121 163 198 248 309 357
#     4  10  20  41  61  88 124 155 204 248 300 361
#     4   9  19  40  59  84 131 171 190 241 321 368
#     4  10  20  36  63  97 119 155 206 255 297 356
#     4  11  21  39  65  86 125 157 200 251 307 358
#     4  10  22  40  61  87 119 163 202 241 314 360
#     4   9  21  38  59  88 123 157 201 249 303 356
#
# _framework density 25.130652000000001
#
# number of rings (size 3 to 8) (size 9 to 14) (size 15 to 20)
#    0.000    2.000    4.286    0.857    0.000    2.857 
#   10.286    3.571    0.000    0.000    0.000    0.000 
#    0.000    0.000    0.000    0.000    0.000    0.000 
#
# Total GULP energy -78297.287334 kJ/mol
# GULP energy per Si atom -5592.663381 kJ/mol
# Density = 2.507345 g / cm^3
# Si number density = 25.130652 Si / 1000 Ang^3
#
#
#
# Elastic Constant Matrix: (Units=GPa)
#
#
# Indices 1 2 3 4 5 6 
#
# 1 106.1481 2.2004 58.1039 -1.5298 33.4029 -22.0470
# 2 2.2004 93.5812 46.2701 15.4999 3.4667 -19.9364
# 3 58.1039 46.2701 146.0110 -11.8094 45.1299 -20.5392
# 4 -1.5298 15.4999 -11.8094 51.7093 -15.6583 5.3554
# 5 33.4029 3.4667 45.1299 -15.6583 59.7419 -0.0769
# 6 -22.0470 -19.9364 -20.5392 5.3554 -0.0769 37.6178
#
#
#
# Elastic Compliance Matrix: (Units=1/GPa)
#
#
# Indices 1 2 3 4 5 6 
#
# 1 0.016450 0.005569 -0.005060 -0.005603 -0.007153 0.010612
# 2 0.005569 0.017271 -0.006547 -0.007913 -0.001232 0.009967
# 3 -0.005060 -0.006547 0.013017 0.002993 -0.005839 0.000234
# 4 -0.005603 -0.007913 0.002993 0.025645 0.008040 -0.009478
# 5 -0.007153 -0.001232 -0.005839 0.008040 0.027316 -0.009122
# 6 0.010612 0.009967 0.000234 -0.009478 -0.009122 0.039543
#
#
# Mechanical properties :
#
#
# Convention : Reuss Voigt Hill
#
# Bulk Modulus (GPa) = 28.84992 62.09881 45.47436
# Shear Modulus (GPa) = 30.69897 45.75820 38.22858
#
# Velocity S-wave (km/s) = 3.49889 4.27173 3.90448
# Velocity P-wave (km/s) = 5.27522 7.00673 6.20170
#
# Compressibility (1/GPa) = 0.03466214
#
# Stress axis : x y z
#
# Youngs Moduli (GPa) = 60.79169 57.89919 76.82311
#
# Poissons Ratio (x) = -0.32245 0.38875
# Poissons Ratio (y) = -0.33856 0.50294
# Poissons Ratio (z) = 0.30763 0.37905
#
# Static dielectric constant tensor:
#      x y z
#    x 2.113030 -0.089390 0.043980 
#    y -0.089390 2.090070 -0.047010 
#    z 0.043980 -0.047010 2.043320 
# 
# From -- ./inp_files/534951.got.cif
#   From: 2010.05.17/outbox.cif.g08.bks.cpg/sg2_268_cif.got.tgz:534951.got - 2010.06.03 11:33:40.
