data_PCOD9099274
_publ_section_title
;
Structure prediction by ZEFSAII (Michael W. Deem and Ramdas Pophale) SiO2 
 PCOD9099274
Probable space group: P -1
;
_chemical_formula_sum "Si O2"
_cell_formula_units_Z 14
_cell_length_a 12.293508
_cell_length_b 11.706238
_cell_length_c 15.279144
_cell_angle_alpha 40.526051
_cell_angle_beta 154.745962
_cell_angle_gamma 144.265758
_cell_volume 544.890254
_symmetry_space_group_name_H-M "P -1"
_symmetry_group_IT_number 2
_symmetry_cell_setting 'triclinic'
loop_
_space_group_symop_operation_xyz
x,y,z
-x,-y,-z
loop_
_atom_site_type_symbol
_atom_site_label
_atom_site_fract_x
_atom_site_fract_y
_atom_site_fract_z
Si Si1 0.712113 0.926711 0.580016
Si Si2 0.813034 0.308653 0.185580
Si Si3 0.175090 0.298447 0.620265
Si Si4 0.307838 0.374695 0.851369
Si Si5 0.806369 0.009757 0.777417
Si Si6 0.276522 0.700689 0.059288
Si Si7 0.632332 0.347969 0.664187
O O1 0.496707 0.021756 0.388753
O O2 0.547982 0.767766 0.481817
O O3 0.764723 0.864912 0.750287
O O4 0.009464 0.082311 0.667670
O O5 0.969983 0.278823 0.401343
O O6 0.038459 0.532557 0.194379
O O7 0.510517 0.280883 0.016532
O O8 0.786768 0.206216 0.129735
O O9 0.230782 0.440977 0.662436
O O10 0.475800 0.347533 0.768396
O O11 0.003304 0.226267 0.755699
O O12 0.500000 0.500000 0.000000
O O13 0.000000 0.000000 0.000000
O O14 0.386018 0.786347 0.186268
O O15 0.000000 0.500000 0.000000
O O16 0.500000 0.500000 0.500000
#
# Coordination Sequence:
#
# PCOD9099274 Si02
#       7
#     2   2   2   2   2   2   2
#     4  10  23  39  62  89 124 155 201 251 297 363
#     4  10  20  37  60  81 118 156 197 246 297 357
#     4  10  20  38  58  83 120 155 195 245 302 354
#     4  10  21  35  58  88 117 148 201 254 293 354
#     4  10  21  42  61  88 121 158 197 246 310 356
#     4   9  20  37  58  82 118 152 198 245 285 356
#     4  11  21  40  61  88 121 163 201 246 299 352
#
# _framework density 25.693248000000001
#
# number of rings (size 3 to 8) (size 9 to 14) (size 15 to 20)
#    0.000    2.000    1.429    1.714    0.000    2.286 
#    7.714    0.714    0.000    0.000    0.000    0.000 
#    0.000    0.000    0.000    0.000    0.000    0.000 
#
# Total GULP energy -78088.790158 kJ/mol
# GULP energy per Si atom -5577.770726 kJ/mol
# Density = 2.563477 g / cm^3
# Si number density = 25.693248 Si / 1000 Ang^3
#
#
#
# Elastic Constant Matrix: (Units=GPa)
#
#
# Indices 1 2 3 4 5 6 
#
# 1 162.9780 43.9333 73.6422 15.6388 -34.7155 -9.0182
# 2 43.9333 55.5616 26.8955 29.9859 -0.6431 -2.7485
# 3 73.6422 26.8955 163.5367 31.9418 -29.0058 -7.0673
# 4 15.6388 29.9859 31.9418 41.9229 1.9870 -6.8149
# 5 -34.7155 -0.6431 -29.0058 1.9870 92.0470 29.1558
# 6 -9.0182 -2.7485 -7.0673 -6.8149 29.1558 37.4417
#
#
#
# Elastic Compliance Matrix: (Units=1/GPa)
#
#
# Indices 1 2 3 4 5 6 
#
# 1 0.010365 -0.009364 -0.003780 0.005626 0.002469 0.000197
# 2 -0.009364 0.038109 0.002820 -0.026375 -0.000832 -0.003078
# 3 -0.003780 0.002820 0.009280 -0.008173 0.002435 -0.002335
# 4 0.005626 -0.026375 -0.008173 0.048831 -0.005090 0.010728
# 5 0.002469 -0.000832 0.002435 -0.005090 0.016785 -0.013004
# 6 0.000197 -0.003078 -0.002335 0.010728 -0.013004 0.038168
#
#
# Mechanical properties :
#
#
# Convention : Reuss Voigt Hill
#
# Bulk Modulus (GPa) = 26.94932 74.55758 50.75345
# Shear Modulus (GPa) = 25.69949 50.12266 37.91107
#
# Velocity S-wave (km/s) = 3.16609 4.42159 3.84543
# Velocity P-wave (km/s) = 4.88643 7.42621 6.28593
#
# Compressibility (1/GPa) = 0.03710668
#
# Stress axis : x y z
#
# Youngs Moduli (GPa) = 96.47977 26.24021 107.75370
#
# Poissons Ratio (x) = 0.24571 0.40730
# Poissons Ratio (y) = 0.90344 -0.30386
# Poissons Ratio (z) = 0.36469 -0.07400
#
# Static dielectric constant tensor:
#      x y z
#    x 2.059870 -0.050620 -0.124370 
#    y -0.050620 2.083840 -0.017480 
#    z -0.124370 -0.017480 2.132770 
# 
# From -- ./inp_files/306947.got.cif
#   From: 2010.05.17/outbox.cif.g08.bks.cpg/sg2_154_cif.got.tgz:306947.got - 2010.06.03 11:33:40.
