data_PCOD9099653
_publ_section_title
;
Structure prediction by ZEFSAII (Michael W. Deem and Ramdas Pophale) SiO2 
 PCOD9099653
Probable space group: P -1
;
_chemical_formula_sum "Si O2"
_cell_formula_units_Z 16
_cell_length_a 8.875530
_cell_length_b 8.241150
_cell_length_c 15.252312
_cell_angle_alpha 85.609035
_cell_angle_beta 136.258755
_cell_angle_gamma 113.314493
_cell_volume 668.741494
_symmetry_space_group_name_H-M "P -1"
_symmetry_group_IT_number 2
_symmetry_cell_setting 'triclinic'
loop_
_space_group_symop_operation_xyz
x,y,z
-x,-y,-z
loop_
_atom_site_type_symbol
_atom_site_label
_atom_site_fract_x
_atom_site_fract_y
_atom_site_fract_z
Si Si1 0.118669 0.192617 0.437452
Si Si2 0.030082 0.481929 0.313010
Si Si3 0.316222 0.160891 0.823483
Si Si4 0.631730 0.275250 0.705980
Si Si5 0.339189 0.370383 0.190452
Si Si6 0.147570 0.387926 0.617548
Si Si7 0.454123 0.323083 0.046177
Si Si8 0.158318 0.727327 0.037358
O O1 0.357021 0.162519 0.552152
O O2 0.056754 0.246396 0.504529
O O3 0.175825 0.366891 0.391630
O O4 0.878518 0.024231 0.300211
O O5 0.044749 0.582349 0.406860
O O6 0.730836 0.348701 0.177526
O O7 0.156091 0.627584 0.281753
O O8 0.265099 0.311489 0.744650
O O9 0.604651 0.221013 0.925176
O O10 0.288342 0.157010 0.916252
O O11 0.613713 0.440017 0.745577
O O12 0.718477 0.180974 0.820952
O O13 0.620250 0.408757 0.321559
O O14 0.322641 0.328492 0.080221
O O15 0.047963 0.233491 0.095654
O O16 0.500000 0.500000 0.000000
O O17 0.000000 0.500000 0.000000
#
# Coordination Sequence:
#
# PCOD9099653 Si02
#       8
#     2   2   2   2   2   2   2   2
#     4  11  24  39  54  86 123 151 184 230 295 339
#     4  11  22  37  64  84 111 153 194 235 273 343
#     4  12  21  36  62  85 118 146 187 244 285 328
#     4  10  19  35  57  82 115 152 193 225 276 345
#     4   9  17  31  58  88 106 138 194 245 262 320
#     4  10  20  38  61  85 111 154 193 231 275 341
#     4  11  18  35  60  88 110 142 197 238 278 327
#     4  10  16  31  56  87 105 144 191 233 272 326
#
# _framework density 23.925540000000002
#
# number of rings (size 3 to 8) (size 9 to 14) (size 15 to 20)
#    0.000    1.500    6.250    3.375    0.000    0.500 
#    0.000    1.875    0.000    3.750    0.000    0.000 
#    0.000    0.000    0.000    0.000    0.000    0.000 
#
# Total GULP energy -89093.688424 kJ/mol
# GULP energy per Si atom -5568.355527 kJ/mol
# Density = 2.387108 g / cm^3
# Si number density = 23.925540 Si / 1000 Ang^3
#
#
#
# Elastic Constant Matrix: (Units=GPa)
#
#
# Indices 1 2 3 4 5 6 
#
# 1 67.4142 8.3479 70.0765 11.4151 33.0623 -5.7351
# 2 8.3479 22.5364 21.5899 2.8870 11.6742 2.8439
# 3 70.0765 21.5899 131.7395 24.2115 -44.7848 -1.3326
# 4 11.4151 2.8870 24.2115 25.9119 1.0976 0.6196
# 5 33.0623 11.6742 -44.7848 1.0976 -4.9569 12.7427
# 6 -5.7351 2.8439 -1.3326 0.6196 12.7427 3.2476
#
#
#
# Elastic Compliance Matrix: (Units=1/GPa)
#
#
# Indices 1 2 3 4 5 6 
#
# 1 0.009984 -0.006156 -0.000323 -0.003441 0.010353 -0.017075
# 2 -0.006156 0.063171 -0.008661 0.005483 0.000468 -0.072629
# 3 -0.000323 -0.008661 0.008760 -0.007703 -0.006526 0.037685
# 4 -0.003441 0.005483 -0.007703 0.047296 0.000969 -0.026864
# 5 0.010353 0.000468 -0.006526 0.000969 -0.003050 0.026979
# 6 -0.017075 -0.072629 0.037685 -0.026864 0.026979 0.256098
#
#
# Mechanical properties :
#
#
# Convention : Reuss Voigt Hill
#
# Bulk Modulus (GPa) = 19.36691 46.85763 33.11227
# Shear Modulus (GPa) = 11.63467 12.95223 12.29345
#
# Velocity S-wave (km/s) = 2.20758 2.32923 2.26922
# Velocity P-wave (km/s) = 3.82232 5.18276 4.55363
#
# Compressibility (1/GPa) = 0.05163446
#
# Stress axis : x y z
#
# Youngs Moduli (GPa) = 100.15907 15.83016 114.15293
#
# Poissons Ratio (x) = 0.09746 0.03685
# Poissons Ratio (y) = 0.61663 0.98867
# Poissons Ratio (z) = 0.03233 0.13710
#
# Static dielectric constant tensor:
#      x y z
#    x 1.926060 -0.045310 0.024730 
#    y -0.045310 2.071100 -0.018080 
#    z 0.024730 -0.018080 1.995330 
# 
# From -- ./inp_files/499210.got.cif
#   From: 2010.05.17/outbox.cif.g08.bks.cpg/sg2_250_cif.got.tgz:499210.got - 2010.06.03 11:33:40.
