data_PCOD9099697
_publ_section_title
;
Structure prediction by ZEFSAII (Michael W. Deem and Ramdas Pophale) SiO2 
 PCOD9099697
Probable space group: P -1
;
_chemical_formula_sum "Si O2"
_cell_formula_units_Z 16
_cell_length_a 11.297564
_cell_length_b 15.763968
_cell_length_c 5.115295
_cell_angle_alpha 58.926000
_cell_angle_beta 63.297277
_cell_angle_gamma 56.114879
_cell_volume 630.802498
_symmetry_space_group_name_H-M "P -1"
_symmetry_group_IT_number 2
_symmetry_cell_setting 'triclinic'
loop_
_space_group_symop_operation_xyz
x,y,z
-x,-y,-z
loop_
_atom_site_type_symbol
_atom_site_label
_atom_site_fract_x
_atom_site_fract_y
_atom_site_fract_z
Si Si1 0.713168 0.028109 0.797062
Si Si2 0.188783 0.102539 0.604076
Si Si3 0.873827 0.140316 0.740128
Si Si4 0.601770 0.225096 0.269472
Si Si5 0.921820 0.642553 0.650675
Si Si6 0.583711 0.599897 0.156605
Si Si7 0.300946 0.636438 0.663495
Si Si8 0.819148 0.558735 0.388208
O O1 0.840794 0.069322 0.663476
O O2 0.589386 0.139214 0.624115
O O3 0.752998 0.937305 0.679193
O O4 0.700264 0.974516 0.166401
O O5 0.144132 0.228397 0.505186
O O6 0.033379 0.093427 0.779158
O O7 0.843058 0.259642 0.454753
O O8 0.742957 0.162017 0.043081
O O9 0.639611 0.313541 0.244838
O O10 0.457978 0.289064 0.138968
O O11 0.845567 0.597799 0.579641
O O12 0.092831 0.572721 0.521184
O O13 0.895207 0.608000 0.021159
O O14 0.421368 0.609927 0.356853
O O15 0.683873 0.484514 0.101742
O O16 0.659871 0.597706 0.360507
#
# Coordination Sequence:
#
# PCOD9099697 Si02
#       8
#     2   2   2   2   2   2   2   2
#     4  11  23  37  58  89 124 160 199 239 298 355
#     4  12  23  37  63  86 122 162 199 246 294 347
#     4  10  21  36  56  92 125 158 193 241 300 365
#     4  10  21  37  55  90 126 157 197 239 292 367
#     4  10  23  43  61  94 117 152 202 247 292 350
#     4  10  20  37  61  89 120 162 193 243 301 358
#     4   9  20  35  57  94 125 151 199 238 297 368
#     4  10  22  43  66  87 122 153 194 246 303 351
#
# _framework density 25.364516999999999
#
# number of rings (size 3 to 8) (size 9 to 14) (size 15 to 20)
#    0.000    1.750    1.250    2.625    5.250    0.000 
#    6.750    0.000    0.000    4.500    0.000    0.000 
#    0.000    0.000    0.000    0.000    0.000    0.000 
#
# Total GULP energy -89474.004337 kJ/mol
# GULP energy per Si atom -5592.125271 kJ/mol
# Density = 2.530679 g / cm^3
# Si number density = 25.364517 Si / 1000 Ang^3
#
#
#
# Elastic Constant Matrix: (Units=GPa)
#
#
# Indices 1 2 3 4 5 6 
#
# 1 44.4471 6.5713 16.5100 -3.9928 19.9481 -8.1960
# 2 6.5713 119.4256 45.0971 1.8362 19.5131 30.0748
# 3 16.5100 45.0971 88.8462 -3.4821 34.9772 -1.6172
# 4 -3.9928 1.8362 -3.4821 42.1370 -8.6188 1.0049
# 5 19.9481 19.5131 34.9772 -8.6188 41.1109 -4.4766
# 6 -8.1960 30.0748 -1.6172 1.0049 -4.4766 31.0584
#
#
#
# Elastic Compliance Matrix: (Units=1/GPa)
#
#
# Indices 1 2 3 4 5 6 
#
# 1 0.029944 -0.001605 0.000728 0.000013 -0.013563 0.007539
# 2 -0.001605 0.015667 -0.006857 -0.001613 -0.002939 -0.016322
# 3 0.000728 -0.006857 0.020077 -0.000922 -0.013727 0.005929
# 4 0.000013 -0.001613 -0.000922 0.025118 0.006996 0.001713
# 5 -0.013563 -0.002939 -0.013727 0.006996 0.045986 0.004953
# 6 0.007539 -0.016322 0.005929 0.001713 0.004953 0.050960
#
#
# Mechanical properties :
#
#
# Convention : Reuss Voigt Hill
#
# Bulk Modulus (GPa) = 19.91298 43.23064 31.57181
# Shear Modulus (GPa) = 22.73139 35.16395 28.94767
#
# Velocity S-wave (km/s) = 2.99689 3.72740 3.38193
# Velocity P-wave (km/s) = 4.45454 5.96703 5.26538
#
# Compressibility (1/GPa) = 0.05021850
#
# Stress axis : x y z
#
# Youngs Moduli (GPa) = 33.39529 63.83006 49.80835
#
# Poissons Ratio (x) = 0.10244 -0.03624
# Poissons Ratio (y) = 0.05360 0.34155
# Poissons Ratio (z) = -0.02430 0.43771
#
# Static dielectric constant tensor:
#      x y z
#    x 1.974460 -0.022330 -0.041730 
#    y -0.022330 2.024750 -0.043970 
#    z -0.041730 -0.043970 2.112890 
# 
# From -- ./inp_files/75766.got.cif
#   From: 2010.05.17/outbox.cif.g08.bks.cpg/sg2_38_cif.got.tgz:75766.got - 2010.06.03 11:33:40.
