data_PCOD9099679
_publ_section_title
;
Structure prediction by ZEFSAII (Michael W. Deem and Ramdas Pophale) SiO2 
 PCOD9099679
Probable space group: P -1
;
_chemical_formula_sum "Si O2"
_cell_formula_units_Z 16
_cell_length_a 17.291270
_cell_length_b 18.926898
_cell_length_c 8.443547
_cell_angle_alpha 139.617050
_cell_angle_beta 126.969670
_cell_angle_gamma 22.968531
_cell_volume 641.724457
_symmetry_space_group_name_H-M "P -1"
_symmetry_group_IT_number 2
_symmetry_cell_setting 'triclinic'
loop_
_space_group_symop_operation_xyz
x,y,z
-x,-y,-z
loop_
_atom_site_type_symbol
_atom_site_label
_atom_site_fract_x
_atom_site_fract_y
_atom_site_fract_z
Si Si1 0.686158 0.245153 0.020568
Si Si2 0.647666 0.875339 0.205887
Si Si3 0.402263 0.427566 0.515887
Si Si4 0.832459 0.874802 0.625634
Si Si5 0.212734 0.854756 0.666594
Si Si6 0.364619 0.331158 0.986850
Si Si7 0.270748 0.349181 0.385798
Si Si8 0.217571 0.641384 0.104588
O O1 0.719826 0.338218 0.181151
O O2 0.670546 0.267488 0.230716
O O3 0.457403 0.434987 0.993023
O O4 0.849373 0.979558 0.750052
O O5 0.793635 0.829109 0.357998
O O6 0.670447 0.757664 0.161675
O O7 0.399967 0.164859 0.374314
O O8 0.710098 0.757233 0.915244
O O9 0.639853 0.231868 0.427833
O O10 0.399007 0.331724 0.471115
O O11 0.324349 0.446092 0.289483
O O12 0.026051 0.636376 0.565059
O O13 0.613488 0.094037 0.833929
O O14 0.171976 0.775242 0.415873
O O15 0.982702 0.144396 0.891220
O O16 0.229298 0.513872 0.986291
#
# Coordination Sequence:
#
# PCOD9099679 Si02
#       8
#     2   2   2   2   2   2   2   2
#     4  10  19  35  60  88 126 145 186 246 289 341
#     4  10  23  45  59  80 116 155 203 243 283 345
#     4  10  18  39  60  87 121 156 189 232 288 352
#     4  11  22  38  61  90 114 153 191 244 298 336
#     4  10  16  31  56  88 120 145 187 231 286 339
#     4  10  19  38  63  89 117 147 196 248 283 331
#     4  10  24  43  61  79 118 159 196 239 289 350
#     4   9  17  29  53  90 115 147 182 236 281 333
#
# _framework density 24.93282
#
# number of rings (size 3 to 8) (size 9 to 14) (size 15 to 20)
#    0.000    2.000    3.750    1.500    0.000    3.000 
#   11.250    0.625    0.000    0.000    0.000    0.000 
#    0.000    0.000    0.000    0.000    0.000    0.000 
#
# Total GULP energy -89443.565725 kJ/mol
# GULP energy per Si atom -5590.222858 kJ/mol
# Density = 2.487607 g / cm^3
# Si number density = 24.932820 Si / 1000 Ang^3
#
#
#
# Elastic Constant Matrix: (Units=GPa)
#
#
# Indices 1 2 3 4 5 6 
#
# 1 80.8291 21.3732 34.1477 6.3676 23.5034 8.0587
# 2 21.3732 115.8234 31.5735 28.1727 4.4392 -0.6617
# 3 34.1477 31.5735 145.5862 -1.6575 43.0117 1.9836
# 4 6.3676 28.1727 -1.6575 41.8618 -2.0261 6.4604
# 5 23.5034 4.4392 43.0117 -2.0261 38.6818 6.2840
# 6 8.0587 -0.6617 1.9836 6.4604 6.2840 22.2608
#
#
#
# Elastic Compliance Matrix: (Units=1/GPa)
#
#
# Indices 1 2 3 4 5 6 
#
# 1 0.016064 -0.002227 -0.000873 -0.000862 -0.008047 -0.003282
# 2 -0.002227 0.011689 -0.002795 -0.008012 0.002194 0.003108
# 3 -0.000873 -0.002795 0.011161 0.001555 -0.011823 0.002125
# 4 -0.000862 -0.008012 0.001555 0.031150 0.002961 -0.009941
# 5 -0.008047 0.002194 -0.011823 0.002961 0.045356 -0.009631
# 6 -0.003282 0.003108 0.002125 -0.009941 -0.009631 0.051617
#
#
# Mechanical properties :
#
#
# Convention : Reuss Voigt Hill
#
# Bulk Modulus (GPa) = 36.86486 57.38085 47.12285
# Shear Modulus (GPa) = 26.61429 37.57048 32.09239
#
# Velocity S-wave (km/s) = 3.27071 3.88605 3.59159
# Velocity P-wave (km/s) = 5.39270 6.57262 6.01168
#
# Compressibility (1/GPa) = 0.02712610
#
# Stress axis : x y z
#
# Youngs Moduli (GPa) = 62.24946 85.54981 89.59448
#
# Poissons Ratio (x) = 0.19053 0.07819
# Poissons Ratio (y) = 0.13864 0.25038
# Poissons Ratio (z) = 0.05433 0.23907
#
# Static dielectric constant tensor:
#      x y z
#    x 1.959770 -0.012910 -0.020770 
#    y -0.012910 1.934180 0.033700 
#    z -0.020770 0.033700 2.046330 
# 
# From -- ./inp_files/349609.got.cif
#   From: 2010.05.17/outbox.cif.g08.bks.cpg/sg2_175_cif.got.tgz:349609.got - 2010.06.03 11:33:40.
