data_PCOD9099798
_publ_section_title
;
Structure prediction by ZEFSAII (Michael W. Deem and Ramdas Pophale) SiO2 
 PCOD9099798
Probable space group: P -1
;
_chemical_formula_sum "Si O2"
_cell_formula_units_Z 14
_cell_length_a 23.219489
_cell_length_b 14.149315
_cell_length_c 6.962673
_cell_angle_alpha 120.959308
_cell_angle_beta 55.388919
_cell_angle_gamma 160.061149
_cell_volume 640.472468
_symmetry_space_group_name_H-M "P -1"
_symmetry_group_IT_number 2
_symmetry_cell_setting 'triclinic'
loop_
_space_group_symop_operation_xyz
x,y,z
-x,-y,-z
loop_
_atom_site_type_symbol
_atom_site_label
_atom_site_fract_x
_atom_site_fract_y
_atom_site_fract_z
Si Si1 0.207007 0.756892 0.699451
Si Si2 0.009041 0.355898 0.996731
Si Si3 0.837784 0.641616 0.238382
Si Si4 0.683196 0.761830 0.813370
Si Si5 0.801151 0.723483 0.734574
Si Si6 0.459773 0.066296 0.206374
Si Si7 0.429268 0.190611 0.067356
O O1 0.104410 0.528090 0.798351
O O2 0.324248 0.871769 0.435698
O O3 0.062496 0.635043 0.766384
O O4 0.339386 0.015712 0.859579
O O5 0.125154 0.432638 0.961621
O O6 0.835232 0.036585 0.938425
O O7 0.820881 0.635981 0.496330
O O8 0.648126 0.391811 0.248552
O O9 0.014542 0.968248 0.202496
O O10 0.746191 0.726582 0.663874
O O11 0.646545 0.794785 0.743763
O O12 0.500000 0.500000 0.000000
O O13 0.639009 0.494313 0.948054
O O14 0.385646 0.038756 0.152627
O O15 0.500000 0.000000 0.000000
#
# Coordination Sequence:
#
# PCOD9099798 Si02
#       7
#     2   2   2   2   2   2   2
#     4  10  21  41  61  85 122 160 210 242 295 361
#     4   9  19  36  65  85 115 167 195 249 302 347
#     4  10  20  37  61  93 119 155 203 247 305 353
#     4   8  16  34  61  90 113 151 205 242 295 360
#     4   9  18  36  67  85 119 159 198 250 300 353
#     4  12  26  38  60  93 124 160 202 247 301 362
#     4  10  20  38  63  88 121 161 195 249 305 352
#
# _framework density 21.858864000000001
#
# number of rings (size 3 to 8) (size 9 to 14) (size 15 to 20)
#    0.000    2.286    1.429    0.857    2.000    1.714 
#    0.000   12.143    0.000    0.000    0.000    0.000 
#    0.000    0.000    0.000    0.000    0.000    0.000 
#
# Total GULP energy -77987.639122 kJ/mol
# GULP energy per Si atom -5570.545652 kJ/mol
# Density = 2.180911 g / cm^3
# Si number density = 21.858864 Si / 1000 Ang^3
#
#
#
# Elastic Constant Matrix: (Units=GPa)
#
#
# Indices 1 2 3 4 5 6 
#
# 1 71.2462 14.6103 29.0025 -3.1118 -13.4024 -0.6883
# 2 14.6103 82.2088 30.0476 -11.2005 -6.2399 4.6385
# 3 29.0025 30.0476 68.8011 -7.8389 -11.9273 5.1893
# 4 -3.1118 -11.2005 -7.8389 25.2273 0.1439 -8.1133
# 5 -13.4024 -6.2399 -11.9273 0.1439 19.0073 -2.1303
# 6 -0.6883 4.6385 5.1893 -8.1133 -2.1303 29.3650
#
#
#
# Elastic Compliance Matrix: (Units=1/GPa)
#
#
# Indices 1 2 3 4 5 6 
#
# 1 0.018397 -0.000354 -0.006061 0.000981 0.009326 0.002506
# 2 -0.000354 0.015049 -0.005681 0.004881 0.001094 0.000047
# 3 -0.006061 -0.005681 0.021219 0.002725 0.006961 -0.001736
# 4 0.000981 0.004881 0.002725 0.046609 0.004998 0.012011
# 5 0.009326 0.001094 0.006961 0.004998 0.064423 0.004870
# 6 0.002506 0.000047 -0.001736 0.012011 0.004870 0.038084
#
#
# Mechanical properties :
#
#
# Convention : Reuss Voigt Hill
#
# Bulk Modulus (GPa) = 32.81558 41.06414 36.93986
# Shear Modulus (GPa) = 20.99694 24.62630 22.81162
#
# Velocity S-wave (km/s) = 3.10267 3.36013 3.23396
# Velocity P-wave (km/s) = 5.28020 5.82072 5.55704
#
# Compressibility (1/GPa) = 0.03047333
#
# Stress axis : x y z
#
# Youngs Moduli (GPa) = 54.35628 66.45012 47.12800
#
# Poissons Ratio (x) = 0.02353 0.28564
# Poissons Ratio (y) = 0.01925 0.26772
# Poissons Ratio (z) = 0.32945 0.37748
#
# Static dielectric constant tensor:
#      x y z
#    x 1.911580 0.011520 -0.033740 
#    y 0.011520 1.807210 0.013420 
#    z -0.033740 0.013420 1.781550 
# 
# From -- ./inp_files/124375.got.cif
#   From: 2010.05.17/outbox.cif.g08.bks.cpg/sg2_63_cif.got.tgz:124375.got - 2010.06.03 11:33:40.
