data_PCOD9099591
_publ_section_title
;
Structure prediction by ZEFSAII (Michael W. Deem and Ramdas Pophale) SiO2 
 PCOD9099591
Probable space group: P -1
;
_chemical_formula_sum "Si O2"
_cell_formula_units_Z 12
_cell_length_a 11.251912
_cell_length_b 7.268539
_cell_length_c 8.477626
_cell_angle_alpha 109.489671
_cell_angle_beta 137.250907
_cell_angle_gamma 79.175879
_cell_volume 441.890236
_symmetry_space_group_name_H-M "P -1"
_symmetry_group_IT_number 2
_symmetry_cell_setting 'triclinic'
loop_
_space_group_symop_operation_xyz
x,y,z
-x,-y,-z
loop_
_atom_site_type_symbol
_atom_site_label
_atom_site_fract_x
_atom_site_fract_y
_atom_site_fract_z
Si Si1 0.461541 0.681589 0.860066
Si Si2 0.310333 0.509273 0.190625
Si Si3 0.735788 0.864271 0.746566
Si Si4 0.014040 0.866070 0.764560
Si Si5 0.711202 0.107562 0.512248
Si Si6 0.194447 0.424532 0.733611
O O1 0.514408 0.499051 0.748834
O O2 0.399495 0.847643 0.734956
O O3 0.305151 0.596767 0.794732
O O4 0.649467 0.726576 0.140982
O O5 0.321698 0.317739 0.253572
O O6 0.281094 0.692707 0.321044
O O7 0.164100 0.478943 0.901406
O O8 0.913473 0.811464 0.815190
O O9 0.362961 0.055819 0.478873
O O10 0.794002 0.044035 0.973833
O O11 0.965228 0.689487 0.547186
O O12 0.905244 0.044449 0.645996
#
# Coordination Sequence:
#
# PCOD9099591 Si02
#       6
#     2   2   2   2   2   2
#     4   9  20  38  58  83 117 149 186 225 289 339
#     4  10  20  38  59  85 117 144 183 244 274 329
#     4   9  21  39  59  84 114 146 194 230 275 335
#     4   9  20  40  56  84 114 148 192 229 276 336
#     4  10  20  37  61  86 106 157 188 223 286 335
#     4   9  20  39  57  80 123 147 178 242 279 325
#
# _framework density 27.156065000000002
#
# number of rings (size 3 to 8) (size 9 to 14) (size 15 to 20)
#    2.000    0.667    0.000    1.500    0.000    2.667 
#    9.000    0.833    0.000    0.000    0.000    0.000 
#    0.000    0.000    0.000    0.000    0.000    0.000 
#
# Total GULP energy -67021.237017 kJ/mol
# GULP energy per Si atom -5585.103085 kJ/mol
# Density = 2.709426 g / cm^3
# Si number density = 27.156065 Si / 1000 Ang^3
#
#
#
# Elastic Constant Matrix: (Units=GPa)
#
#
# Indices 1 2 3 4 5 6 
#
# 1 45.4656 45.8208 28.8443 2.6188 -11.6001 5.0720
# 2 45.8208 139.8272 25.5190 -11.5543 -21.7081 16.9853
# 3 28.8443 25.5190 132.7978 -16.4266 -21.4486 14.1670
# 4 2.6188 -11.5543 -16.4266 53.9191 -13.1872 -20.0232
# 5 -11.6001 -21.7081 -21.4486 -13.1872 38.9401 -3.4908
# 6 5.0720 16.9853 14.1670 -20.0232 -3.4908 39.0739
#
#
#
# Elastic Compliance Matrix: (Units=1/GPa)
#
#
# Indices 1 2 3 4 5 6 
#
# 1 0.039020 -0.012242 -0.007243 -0.007629 -0.001881 -0.001195
# 2 -0.012242 0.012263 0.001963 0.004631 0.005698 -0.001571
# 3 -0.007243 0.001963 0.010489 0.005434 0.006523 -0.000349
# 4 -0.007629 0.004631 0.005434 0.030345 0.014823 0.013881
# 5 -0.001881 0.005698 0.006523 0.014823 0.037479 0.006346
# 6 -0.001195 -0.001571 -0.000349 0.013881 0.006346 0.034238
#
#
# Mechanical properties :
#
#
# Convention : Reuss Voigt Hill
#
# Bulk Modulus (GPa) = 37.41219 57.60654 47.50937
# Shear Modulus (GPa) = 24.06305 40.91370 32.48838
#
# Velocity S-wave (km/s) = 2.97998 3.88572 3.46259
# Velocity P-wave (km/s) = 5.06429 6.43358 5.78956
#
# Compressibility (1/GPa) = 0.02672925
#
# Stress axis : x y z
#
# Youngs Moduli (GPa) = 25.62759 81.54406 95.33674
#
# Poissons Ratio (x) = 0.99828 0.69051
# Poissons Ratio (y) = 0.31374 -0.18717
# Poissons Ratio (z) = 0.18562 -0.16010
#
# Static dielectric constant tensor:
#      x y z
#    x 2.105600 -0.095440 0.049930 
#    y -0.095440 2.158570 -0.027310 
#    z 0.049930 -0.027310 2.251600 
# 
# From -- ./inp_files/232209.got.cif
#   From: 2010.05.17/outbox.cif.g08.bks.cpg/sg2_117_cif.got.tgz:232209.got - 2010.06.03 11:33:40.
