data_PCOD9099516
_publ_section_title
;
Structure prediction by ZEFSAII (Michael W. Deem and Ramdas Pophale) SiO2 
 PCOD9099516
Probable space group: P -1
;
_chemical_formula_sum "Si O2"
_cell_formula_units_Z 14
_cell_length_a 5.513810
_cell_length_b 12.910880
_cell_length_c 20.004203
_cell_angle_alpha 32.256125
_cell_angle_beta 126.279998
_cell_angle_gamma 122.053388
_cell_volume 611.164625
_symmetry_space_group_name_H-M "P -1"
_symmetry_group_IT_number 2
_symmetry_cell_setting 'triclinic'
loop_
_space_group_symop_operation_xyz
x,y,z
-x,-y,-z
loop_
_atom_site_type_symbol
_atom_site_label
_atom_site_fract_x
_atom_site_fract_y
_atom_site_fract_z
Si Si1 0.170224 0.703776 0.178054
Si Si2 0.865445 0.374792 0.632366
Si Si3 0.813371 0.105857 0.468113
Si Si4 0.778214 0.792513 0.395280
Si Si5 0.903242 0.396508 0.916816
Si Si6 0.714412 0.958772 0.153324
Si Si7 0.625490 0.497001 0.154079
O O1 0.211426 0.615924 0.305697
O O2 0.263374 0.578794 0.196521
O O3 0.369693 0.906517 0.102259
O O4 0.811134 0.686024 0.114853
O O5 0.928165 0.597839 0.499845
O O6 0.561090 0.282343 0.599332
O O7 0.116728 0.223651 0.747864
O O8 0.733029 0.310920 0.311563
O O9 0.028156 0.127908 0.555228
O O10 0.500000 0.000000 0.500000
O O11 0.000000 0.000000 0.500000
O O12 0.742810 0.939968 0.248224
O O13 0.722361 0.487212 0.897007
O O14 0.235738 0.490286 0.904298
O O15 0.874294 0.163900 0.046603
#
# Coordination Sequence:
#
# PCOD9099516 Si02
#       7
#     2   2   2   2   2   2   2
#     4   9  20  32  59  88 137 167 214 241 312 377
#     4  10  20  37  60  92 139 169 200 260 316 396
#     4  12  27  46  74  94 120 164 223 277 315 373
#     4  10  23  39  60  96 129 168 211 259 333 369
#     4  10  22  36  62  91 139 168 211 252 305 394
#     4  11  22  33  60  96 132 178 202 251 318 389
#     4  10  22  41  62  91 126 164 215 266 313 359
#
# _framework density 22.907087000000001
#
# number of rings (size 3 to 8) (size 9 to 14) (size 15 to 20)
#    0.857    0.857    1.429    2.571    6.000    1.143 
#    0.000    0.000    0.000    5.143    0.000    0.000 
#    0.000    0.000    0.000    0.000    0.000    0.000 
#
# Total GULP energy -78091.761720 kJ/mol
# GULP energy per Si atom -5577.982980 kJ/mol
# Density = 2.285495 g / cm^3
# Si number density = 22.907087 Si / 1000 Ang^3
#
#
#
# Elastic Constant Matrix: (Units=GPa)
#
#
# Indices 1 2 3 4 5 6 
#
# 1 145.9615 43.2772 34.0330 -6.1738 -14.3375 -6.0932
# 2 43.2772 94.5359 6.3382 10.3485 -1.7545 10.2127
# 3 34.0330 6.3382 66.6396 -9.1059 -17.1173 -4.4027
# 4 -6.1738 10.3485 -9.1059 17.2159 -3.1870 3.3127
# 5 -14.3375 -1.7545 -17.1173 -3.1870 39.6368 -5.3830
# 6 -6.0932 10.2127 -4.4027 3.3127 -5.3830 17.5161
#
#
#
# Elastic Compliance Matrix: (Units=1/GPa)
#
#
# Indices 1 2 3 4 5 6 
#
# 1 0.009879 -0.005491 -0.002553 0.004955 0.003458 0.006122
# 2 -0.005491 0.015535 -0.002085 -0.011180 -0.004562 -0.010779
# 3 -0.002553 -0.002085 0.021150 0.012135 0.009964 0.006410
# 4 0.004955 -0.011180 0.012135 0.075166 0.012715 0.000984
# 5 0.003458 -0.004562 0.009964 0.012715 0.033541 0.014270
# 6 0.006122 -0.010779 0.006410 0.000984 0.014270 0.071315
#
#
# Mechanical properties :
#
#
# Convention : Reuss Voigt Hill
#
# Bulk Modulus (GPa) = 38.01542 52.71486 45.36514
# Shear Modulus (GPa) = 19.56073 29.77299 24.66686
#
# Velocity S-wave (km/s) = 2.92535 3.60909 3.28506
# Velocity P-wave (km/s) = 5.29545 6.35844 5.85113
#
# Compressibility (1/GPa) = 0.02630511
#
# Stress axis : x y z
#
# Youngs Moduli (GPa) = 101.22132 64.37001 47.28232
#
# Poissons Ratio (x) = 0.35346 0.12074
# Poissons Ratio (y) = 0.55581 0.09858
# Poissons Ratio (z) = 0.25847 0.13421
#
# Static dielectric constant tensor:
#      x y z
#    x 3.751010 -0.153420 -0.038600 
#    y -0.153420 1.818340 0.003750 
#    z -0.038600 0.003750 1.844960 
# 
# From -- ./inp_files/583242.got.cif
#   From: 2010.05.17/outbox.cif.g08.bks.cpg/sg2_292_cif.got.tgz:583242.got - 2010.06.03 11:33:40.
