data_PCOD9099386
_publ_section_title
;
Structure prediction by ZEFSAII (Michael W. Deem and Ramdas Pophale) SiO2 
 PCOD9099386
Probable space group: P -1
;
_chemical_formula_sum "Si O2"
_cell_formula_units_Z 14
_cell_length_a 12.264381
_cell_length_b 9.051928
_cell_length_c 20.941994
_cell_angle_alpha 149.327386
_cell_angle_beta 27.467844
_cell_angle_gamma 142.385739
_cell_volume 542.875733
_symmetry_space_group_name_H-M "P -1"
_symmetry_group_IT_number 2
_symmetry_cell_setting 'triclinic'
loop_
_space_group_symop_operation_xyz
x,y,z
-x,-y,-z
loop_
_atom_site_type_symbol
_atom_site_label
_atom_site_fract_x
_atom_site_fract_y
_atom_site_fract_z
Si Si1 0.575742 0.582776 0.071180
Si Si2 0.843844 0.978372 0.751067
Si Si3 0.863684 0.844246 0.138281
Si Si4 0.351007 0.538618 0.527804
Si Si5 0.647678 0.091287 0.033647
Si Si6 0.313011 0.205067 0.652341
Si Si7 0.151292 0.729764 0.280879
O O1 0.746130 0.688107 0.079770
O O2 0.450429 0.257073 0.033487
O O3 0.372952 0.789749 0.237142
O O4 0.750485 0.554545 0.909667
O O5 0.872467 0.097254 0.707994
O O6 0.117622 0.989310 0.633652
O O7 0.764878 0.112154 0.910186
O O8 0.598896 0.762514 0.787281
O O9 0.784086 0.697609 0.193207
O O10 0.765218 0.157731 0.303402
O O11 0.147598 0.856586 0.000287
O O12 0.500000 0.500000 0.500000
O O13 0.548701 0.552311 0.374923
O O14 0.106712 0.316249 0.569491
O O15 0.500000 0.000000 0.500000
#
# Coordination Sequence:
#
# PCOD9099386 Si02
#       7
#     2   2   2   2   2   2   2
#     4  10  21  39  61  90 119 150 197 246 300 349
#     4   9  17  34  57  85 114 150 195 235 297 339
#     4  10  21  39  63  89 115 155 201 242 293 353
#     4  11  20  37  62  85 120 161 196 237 294 351
#     4   9  18  36  61  85 115 153 188 249 299 335
#     4   9  19  35  61  83 114 159 198 234 283 349
#     4  10  20  37  60  87 124 154 188 249 298 348
#
# _framework density 25.788589000000002
#
# number of rings (size 3 to 8) (size 9 to 14) (size 15 to 20)
#    0.000    2.286    2.857    0.000    0.000    0.571 
#    0.000   20.714    0.000    0.000    0.000    0.000 
#    0.000    0.000    0.000    0.000    0.000    0.000 
#
# Total GULP energy -77955.219426 kJ/mol
# GULP energy per Si atom -5568.229959 kJ/mol
# Density = 2.572989 g / cm^3
# Si number density = 25.788589 Si / 1000 Ang^3
#
#
#
# Elastic Constant Matrix: (Units=GPa)
#
#
# Indices 1 2 3 4 5 6 
#
# 1 253.7837 58.3699 56.5202 -29.5750 -39.3107 25.2093
# 2 58.3699 66.7913 30.6500 -26.2973 -10.7847 4.4477
# 3 56.5202 30.6500 104.7613 -27.1518 -24.7661 7.5458
# 4 -29.5750 -26.2973 -27.1518 41.3337 10.9703 -9.2612
# 5 -39.3107 -10.7847 -24.7661 10.9703 53.1772 -20.3651
# 6 25.2093 4.4477 7.5458 -9.2612 -20.3651 57.4289
#
#
#
# Elastic Compliance Matrix: (Units=1/GPa)
#
#
# Indices 1 2 3 4 5 6 
#
# 1 0.005580 -0.003923 -0.001289 -0.000232 0.002321 -0.001191
# 2 -0.003923 0.023640 -0.002155 0.011419 -0.000802 0.001731
# 3 -0.001289 -0.002155 0.013196 0.005586 0.004126 0.001362
# 4 -0.000232 0.011419 0.005586 0.036156 -0.001228 0.003879
# 5 0.002321 -0.000802 0.004126 -0.001228 0.025322 0.007283
# 6 -0.001191 0.001731 0.001362 0.003879 0.007283 0.020830
#
#
# Mechanical properties :
#
#
# Convention : Reuss Voigt Hill
#
# Bulk Modulus (GPa) = 36.12170 79.60182 57.86176
# Shear Modulus (GPa) = 33.62799 49.04105 41.33452
#
# Velocity S-wave (km/s) = 3.61499 4.36553 4.00787
# Velocity P-wave (km/s) = 5.60906 7.50630 6.62594
#
# Compressibility (1/GPa) = 0.02768419
#
# Stress axis : x y z
#
# Youngs Moduli (GPa) = 179.19925 42.30116 75.78028
#
# Poissons Ratio (x) = 0.16594 0.09765
# Poissons Ratio (y) = 0.70295 0.16329
# Poissons Ratio (z) = 0.23093 0.09115
#
# Static dielectric constant tensor:
#      x y z
#    x 2.063160 0.071230 -0.012540 
#    y 0.071230 2.275080 0.069350 
#    z -0.012540 0.069350 2.148890 
# 
# From -- ./inp_files/436589.got.cif
#   From: 2010.05.17/outbox.cif.g08.bks.cpg/sg2_219_cif.got.tgz:436589.got - 2010.06.03 11:33:40.
