data_PCOD9099458
_publ_section_title
;
Structure prediction by ZEFSAII (Michael W. Deem and Ramdas Pophale) SiO2 
 PCOD9099458
Probable space group: P -1
;
_chemical_formula_sum "Si O2"
_cell_formula_units_Z 16
_cell_length_a 9.525016
_cell_length_b 11.574277
_cell_length_c 8.061134
_cell_angle_alpha 105.163523
_cell_angle_beta 94.565028
_cell_angle_gamma 123.784517
_cell_volume 684.285701
_symmetry_space_group_name_H-M "P -1"
_symmetry_group_IT_number 2
_symmetry_cell_setting 'triclinic'
loop_
_space_group_symop_operation_xyz
x,y,z
-x,-y,-z
loop_
_atom_site_type_symbol
_atom_site_label
_atom_site_fract_x
_atom_site_fract_y
_atom_site_fract_z
Si Si1 0.257258 0.345724 0.385677
Si Si2 0.634231 0.163853 0.210858
Si Si3 0.013465 0.666369 0.833019
Si Si4 0.496952 0.899054 0.315991
Si Si5 0.201110 0.141025 0.604261
Si Si6 0.554873 0.387107 0.249777
Si Si7 0.152346 0.672150 0.369648
Si Si8 0.846997 0.645316 0.157992
O O1 0.064173 0.276483 0.279980
O O2 0.264181 0.245727 0.485839
O O3 0.374534 0.366937 0.247818
O O4 0.337386 0.505264 0.539967
O O5 0.528118 0.231915 0.197415
O O6 0.755059 0.255428 0.419872
O O7 0.778827 0.219654 0.104391
O O8 0.530287 0.992419 0.188275
O O9 0.954903 0.505373 0.708735
O O10 0.921761 0.642754 0.989945
O O11 0.658718 0.890841 0.355870
O O12 0.307335 0.743017 0.272539
O O13 0.500000 0.000000 0.500000
O O14 0.198490 0.238651 0.785844
O O15 0.000000 0.000000 0.500000
O O16 0.676369 0.485277 0.143626
O O17 0.009080 0.699819 0.319782
#
# Coordination Sequence:
#
# PCOD9099458 Si02
#       8
#     2   2   2   2   2   2   2   2
#     4  10  21  36  62  91 116 155 207 257 297 357
#     4  11  20  39  65  93 116 160 212 251 299 366
#     4  12  23  38  62  91 127 164 205 252 309 364
#     4  10  22  38  66  95 118 155 207 259 303 356
#     4  11  22  43  66  89 125 160 203 253 311 371
#     4  10  20  37  60  90 120 154 206 259 299 353
#     4  11  21  39  62  92 124 161 208 254 302 359
#     4  11  25  39  59  92 126 164 201 252 317 365
#
# _framework density 23.382048000000001
#
# number of rings (size 3 to 8) (size 9 to 14) (size 15 to 20)
#    0.000    1.250    2.500    6.000    3.500    0.500 
#    0.000    3.125    0.000    0.000    0.000    0.000 
#    0.000    0.000    0.000    0.000    0.000    0.000 
#
# Total GULP energy -89546.312573 kJ/mol
# GULP energy per Si atom -5596.644536 kJ/mol
# Density = 2.332883 g / cm^3
# Si number density = 23.382048 Si / 1000 Ang^3
#
#
#
# Elastic Constant Matrix: (Units=GPa)
#
#
# Indices 1 2 3 4 5 6 
#
# 1 150.7652 59.8425 24.9520 2.0874 -21.4952 -6.4911
# 2 59.8425 132.1247 17.4398 -10.0918 -1.8899 11.0169
# 3 24.9520 17.4398 61.1727 -5.7408 -15.6318 1.9653
# 4 2.0874 -10.0918 -5.7408 27.3182 12.9251 -7.5647
# 5 -21.4952 -1.8899 -15.6318 12.9251 31.3442 -4.7097
# 6 -6.4911 11.0169 1.9653 -7.5647 -4.7097 45.7901
#
#
#
# Elastic Compliance Matrix: (Units=1/GPa)
#
#
# Indices 1 2 3 4 5 6 
#
# 1 0.010414 -0.005169 -0.001072 -0.006667 0.009441 0.002635
# 2 -0.005169 0.010820 -0.002072 0.006482 -0.007034 -0.002900
# 3 -0.001072 -0.002072 0.019675 -0.000893 0.009368 0.000318
# 4 -0.006667 0.006482 -0.000893 0.052483 -0.025734 0.003557
# 5 0.009441 -0.007034 0.009368 -0.025734 0.053826 0.003914
# 6 0.002635 -0.002900 0.000318 0.003557 0.003914 0.023887
#
#
# Mechanical properties :
#
#
# Convention : Reuss Voigt Hill
#
# Bulk Modulus (GPa) = 41.18327 60.94792 51.06559
# Shear Modulus (GPa) = 25.53314 37.01240 31.27277
#
# Velocity S-wave (km/s) = 3.30812 3.98294 3.66111
# Velocity P-wave (km/s) = 5.67829 6.87564 6.30545
#
# Compressibility (1/GPa) = 0.02428171
#
# Stress axis : x y z
#
# Youngs Moduli (GPa) = 96.02663 92.42493 50.82574
#
# Poissons Ratio (x) = 0.47776 0.05449
# Poissons Ratio (y) = 0.49637 0.10532
# Poissons Ratio (z) = 0.10294 0.19152
#
# Static dielectric constant tensor:
#      x y z
#    x 1.844120 0.006320 -0.005850 
#    y 0.006320 1.882130 -0.035270 
#    z -0.005850 -0.035270 1.928620 
# 
# From -- ./inp_files/174974.got.cif
#   From: 2010.05.17/outbox.cif.g08.bks.cpg/sg2_88_cif.got.tgz:174974.got - 2010.06.03 11:33:40.
