data_PCOD9099608
_publ_section_title
;
Structure prediction by ZEFSAII (Michael W. Deem and Ramdas Pophale) SiO2 
 PCOD9099608
Probable space group: P -1
;
_chemical_formula_sum "Si O2"
_cell_formula_units_Z 13
_cell_length_a 16.240438
_cell_length_b 11.364857
_cell_length_c 13.295687
_cell_angle_alpha 32.225483
_cell_angle_beta 155.265793
_cell_angle_gamma 147.090431
_cell_volume 518.916555
_symmetry_space_group_name_H-M "P -1"
_symmetry_group_IT_number 2
_symmetry_cell_setting 'triclinic'
loop_
_space_group_symop_operation_xyz
x,y,z
-x,-y,-z
loop_
_atom_site_type_symbol
_atom_site_label
_atom_site_fract_x
_atom_site_fract_y
_atom_site_fract_z
Si Si1 0.171101 0.612427 0.855809
Si Si2 0.112397 0.341355 0.178584
Si Si3 0.757765 0.897794 0.337021
Si Si4 0.000000 0.500000 0.500000
Si Si5 0.207098 0.088751 0.974159
Si Si6 0.738930 0.307924 0.538905
Si Si7 0.485300 0.626963 0.047142
O O1 0.922357 0.518431 0.644785
O O2 0.270809 0.873101 0.812887
O O3 0.217969 0.455854 0.109058
O O4 0.245674 0.584708 0.844152
O O5 0.265296 0.286376 0.466897
O O6 0.943007 0.098992 0.133251
O O7 0.000000 0.500000 0.000000
O O8 0.612539 0.777915 0.171542
O O9 0.000000 0.000000 0.500000
O O10 0.904930 0.723769 0.257785
O O11 0.824219 0.330234 0.505362
O O12 0.414537 0.227077 0.043875
O O13 0.256004 0.926308 0.232182
O O14 0.536816 0.386333 0.273799
#
# Coordination Sequence:
#
# PCOD9099608 Si02
#       7
#     2   2   2   1   2   2   2
#     4  11  23  36  57  86 118 156 197 241 290 347
#     4  11  20  35  60  86 118 159 194 235 290 344
#     4  12  18  34  56  82 121 158 192 238 283 339
#     4  10  20  38  66  90 106 154 200 240 300 350
#     4  10  20  37  61  86 118 153 195 242 292 352
#     4  10  21  40  60  82 116 148 193 246 296 346
#     4  11  22  36  57  87 118 156 198 236 290 349
#
# _framework density 25.052199000000002
#
# number of rings (size 3 to 8) (size 9 to 14) (size 15 to 20)
#    0.000    1.231    4.615    2.769    0.000    1.846 
#    0.000    3.077    0.000   16.615    0.000    0.000 
#    0.000    0.000    0.000    0.000    0.000    0.000 
#
# Total GULP energy -72607.831691 kJ/mol
# GULP energy per Si atom -5585.217822 kJ/mol
# Density = 2.499518 g / cm^3
# Si number density = 25.052199 Si / 1000 Ang^3
#
#
#
# Elastic Constant Matrix: (Units=GPa)
#
#
# Indices 1 2 3 4 5 6 
#
# 1 146.2584 45.3225 55.6719 -31.5821 11.2840 6.7605
# 2 45.3225 109.1393 64.6645 -21.1974 22.0234 -25.6346
# 3 55.6719 64.6645 120.4469 -32.6837 11.6753 28.4407
# 4 -31.5821 -21.1974 -32.6837 45.3479 11.7458 -6.1284
# 5 11.2840 22.0234 11.6753 11.7458 47.8196 1.8443
# 6 6.7605 -25.6346 28.4407 -6.1284 1.8443 48.8834
#
#
#
# Elastic Compliance Matrix: (Units=1/GPa)
#
#
# Indices 1 2 3 4 5 6 
#
# 1 0.009251 -0.001129 -0.002084 0.005041 -0.002395 0.000064
# 2 -0.001129 0.035208 -0.023082 0.007004 -0.013323 0.033429
# 3 -0.002084 -0.023082 0.028942 0.003687 0.004244 -0.028352
# 4 0.005041 0.007004 0.003687 0.036017 -0.014389 0.005889
# 5 -0.002395 -0.013323 0.004244 -0.014389 0.030577 -0.012082
# 6 0.000064 0.033429 -0.028352 0.005889 -0.012082 0.055668
#
#
# Mechanical properties :
#
#
# Convention : Reuss Voigt Hill
#
# Bulk Modulus (GPa) = 48.05474 78.57359 63.31417
# Shear Modulus (GPa) = 19.59322 42.42255 31.00788
#
# Velocity S-wave (km/s) = 2.79963 4.11952 3.52196
# Velocity P-wave (km/s) = 5.44739 7.35250 6.47045
#
# Compressibility (1/GPa) = 0.02080960
#
# Stress axis : x y z
#
# Youngs Moduli (GPa) = 108.09601 28.40271 34.55225
#
# Poissons Ratio (x) = 0.03208 0.07202
# Poissons Ratio (y) = 0.12208 0.79752
# Poissons Ratio (z) = 0.22532 0.65558
#
# Static dielectric constant tensor:
#      x y z
#    x 1.979930 -0.007560 0.034230 
#    y -0.007560 1.936340 0.027390 
#    z 0.034230 0.027390 1.953780 
# 
# From -- ./inp_files/168183.got.cif
#   From: 2010.05.17/outbox.cif.g08.bks.cpg/sg2_85_cif.got.tgz:168183.got - 2010.06.03 11:33:40.
