data_PCOD9099229
_publ_section_title
;
Structure prediction by ZEFSAII (Michael W. Deem and Ramdas Pophale) SiO2 
 PCOD9099229
Probable space group: P -1
;
_chemical_formula_sum "Si O2"
_cell_formula_units_Z 16
_cell_length_a 16.896304
_cell_length_b 9.424149
_cell_length_c 16.676830
_cell_angle_alpha 151.403037
_cell_angle_beta 38.711188
_cell_angle_gamma 144.400828
_cell_volume 718.577947
_symmetry_space_group_name_H-M "P -1"
_symmetry_group_IT_number 2
_symmetry_cell_setting 'triclinic'
loop_
_space_group_symop_operation_xyz
x,y,z
-x,-y,-z
loop_
_atom_site_type_symbol
_atom_site_label
_atom_site_fract_x
_atom_site_fract_y
_atom_site_fract_z
Si Si1 0.555636 0.346092 0.286106
Si Si2 0.996880 0.672048 0.706479
Si Si3 0.744432 0.200464 0.770242
Si Si4 0.269822 0.865699 0.073075
Si Si5 0.022374 0.034477 0.295721
Si Si6 0.233930 0.410202 0.620907
Si Si7 0.531678 0.430209 0.684681
Si Si8 0.724089 0.117424 0.319256
O O1 0.627650 0.489802 0.384876
O O2 0.516857 0.583970 0.376738
O O3 0.419703 0.991965 0.219801
O O4 0.677330 0.311181 0.121052
O O5 0.846136 0.495889 0.781123
O O6 0.995474 0.915303 0.758920
O O7 0.023316 0.366872 0.497965
O O8 0.129650 0.851173 0.747441
O O9 0.773680 0.308507 0.892936
O O10 0.787912 0.896850 0.572054
O O11 0.157198 0.976714 0.180880
O O12 0.402334 0.196112 0.157664
O O13 0.895129 0.732001 0.287161
O O14 0.248151 0.710356 0.703301
O O15 0.653231 0.304393 0.524503
O O16 0.403098 0.238637 0.749984
#
# Coordination Sequence:
#
# PCOD9099229 Si02
#       8
#     2   2   2   2   2   2   2   2
#     4  11  23  39  59  88 125 157 191 239 297 355
#     4  10  20  37  59  91 118 149 198 254 293 333
#     4  10  20  37  63  86 117 155 202 240 287 349
#     4  11  21  41  61  85 123 159 195 232 298 363
#     4  10  21  36  60  88 121 154 194 247 298 340
#     4  11  21  37  61  90 119 150 202 246 288 341
#     4  10  21  36  59  88 118 154 191 238 296 344
#     4  11  20  35  61  89 118 145 197 249 289 339
#
# _framework density 22.266199
#
# number of rings (size 3 to 8) (size 9 to 14) (size 15 to 20)
#    0.000    1.500    3.750    3.375    0.000    3.500 
#    0.000    3.750    0.000    5.250    0.000    0.000 
#    0.000    0.000    0.000    0.000    0.000    0.000 
#
# Total GULP energy -89395.380713 kJ/mol
# GULP energy per Si atom -5587.211295 kJ/mol
# Density = 2.221552 g / cm^3
# Si number density = 22.266199 Si / 1000 Ang^3
#
#
#
# Elastic Constant Matrix: (Units=GPa)
#
#
# Indices 1 2 3 4 5 6 
#
# 1 123.7303 66.8447 18.6688 -19.4868 -6.8665 -6.2360
# 2 66.8447 149.6412 11.1646 -42.5172 -3.6887 -20.8941
# 3 18.6688 11.1646 43.6541 -13.4757 -5.5832 -2.9560
# 4 -19.4868 -42.5172 -13.4757 26.3833 3.4681 4.8005
# 5 -6.8665 -3.6887 -5.5832 3.4681 20.1288 -5.9125
# 6 -6.2360 -20.8941 -2.9560 4.8005 -5.9125 29.2795
#
#
#
# Elastic Compliance Matrix: (Units=1/GPa)
#
#
# Indices 1 2 3 4 5 6 
#
# 1 0.011389 -0.005764 -0.004181 -0.003026 0.001825 -0.001245
# 2 -0.005764 0.016890 0.006408 0.024737 0.000874 0.007593
# 3 -0.004181 0.006408 0.030698 0.021327 0.005903 0.004477
# 4 -0.003026 0.024737 0.021327 0.086218 -0.004213 0.004174
# 5 0.001825 0.000874 0.005903 -0.004213 0.056875 0.013784
# 6 -0.001245 0.007593 0.004477 0.004174 0.013784 0.041858
#
#
# Mechanical properties :
#
#
# Convention : Reuss Voigt Hill
#
# Bulk Modulus (GPa) = 19.26760 56.70906 37.98833
# Shear Modulus (GPa) = 18.63559 29.84816 24.24187
#
# Velocity S-wave (km/s) = 2.89614 3.66528 3.30317
# Velocity P-wave (km/s) = 4.45596 6.59062 5.62547
#
# Compressibility (1/GPa) = 0.05190060
#
# Stress axis : x y z
#
# Youngs Moduli (GPa) = 87.80415 59.20836 32.57503
#
# Poissons Ratio (x) = 0.34129 0.13621
# Poissons Ratio (y) = 0.50612 -0.20873
# Poissons Ratio (z) = 0.36715 -0.37938
#
# Static dielectric constant tensor:
#      x y z
#    x 1.792740 0.006560 0.010610 
#    y 0.006560 1.826850 -0.023760 
#    z 0.010610 -0.023760 1.865570 
# 
# From -- ./inp_files/320269.got.cif
#   From: 2010.05.17/outbox.cif.g08.bks.cpg/sg2_161_cif.got.tgz:320269.got - 2010.06.03 11:33:40.
