data_PCOD9099437
_publ_section_title
;
Structure prediction by ZEFSAII (Michael W. Deem and Ramdas Pophale) SiO2 
 PCOD9099437
Probable space group: P -1
;
_chemical_formula_sum "Si O2"
_cell_formula_units_Z 14
_cell_length_a 9.351380
_cell_length_b 14.496444
_cell_length_c 14.474027
_cell_angle_alpha 149.624987
_cell_angle_beta 118.026651
_cell_angle_gamma 44.552718
_cell_volume 635.349289
_symmetry_space_group_name_H-M "P -1"
_symmetry_group_IT_number 2
_symmetry_cell_setting 'triclinic'
loop_
_space_group_symop_operation_xyz
x,y,z
-x,-y,-z
loop_
_atom_site_type_symbol
_atom_site_label
_atom_site_fract_x
_atom_site_fract_y
_atom_site_fract_z
Si Si1 0.982640 0.450236 0.172190
Si Si2 0.619781 0.094711 0.145456
Si Si3 0.800014 0.246700 0.209747
Si Si4 0.573968 0.765797 0.598685
Si Si5 0.230568 0.352370 0.992777
Si Si6 0.453222 0.338539 0.887590
Si Si7 0.125947 0.218361 0.404913
O O1 0.743230 0.602021 0.182289
O O2 0.956504 0.567843 0.363226
O O3 0.121390 0.155549 0.970349
O O4 0.150176 0.437665 0.146837
O O5 0.632451 0.225482 0.179168
O O6 0.492309 0.252278 0.335285
O O7 0.500000 0.000000 0.000000
O O8 0.656779 0.522267 0.359053
O O9 0.931395 0.240399 0.328887
O O10 0.000000 0.000000 0.000000
O O11 0.770455 0.760144 0.635082
O O12 0.365518 0.058127 0.764705
O O13 0.361498 0.406835 0.024559
O O14 0.000000 0.500000 0.000000
O O15 0.678753 0.045427 0.711726
O O16 0.500000 0.500000 0.000000
#
# Coordination Sequence:
#
# PCOD9099437 Si02
#       7
#     2   2   2   2   2   2   2
#     4  10  20  38  61  85 118 160 197 243 300 356
#     4  11  22  39  60  85 119 157 197 248 304 359
#     4  12  24  39  60  89 121 160 205 251 299 358
#     4  10  21  37  59  85 117 154 196 244 298 355
#     4   8  18  37  60  84 116 155 194 241 296 352
#     4  10  20  37  60  89 120 157 200 245 296 357
#     4  11  22  39  60  87 121 159 202 250 300 355
#
# _framework density 22.035122000000001
#
# number of rings (size 3 to 8) (size 9 to 14) (size 15 to 20)
#    0.000    1.714    0.000    4.714    0.000    0.000 
#    0.000    2.143    0.000    0.000    0.000    0.000 
#    0.000    0.000    0.000    0.000    0.000    0.000 
#
# Total GULP energy -78098.607990 kJ/mol
# GULP energy per Si atom -5578.471999 kJ/mol
# Density = 2.198497 g / cm^3
# Si number density = 22.035122 Si / 1000 Ang^3
#
#
#
# Elastic Constant Matrix: (Units=GPa)
#
#
# Indices 1 2 3 4 5 6 
#
# 1 150.6076 22.7463 50.9234 7.7415 5.9776 21.0629
# 2 22.7463 72.3444 31.7384 16.9408 -11.9760 -15.3934
# 3 50.9234 31.7384 122.4289 15.1428 -23.0390 -2.2351
# 4 7.7415 16.9408 15.1428 42.6262 -1.3099 -4.4670
# 5 5.9776 -11.9760 -23.0390 -1.3099 25.6938 -0.3842
# 6 21.0629 -15.3934 -2.2351 -4.4670 -0.3842 38.1097
#
#
#
# Elastic Compliance Matrix: (Units=1/GPa)
#
#
# Indices 1 2 3 4 5 6 
#
# 1 0.010489 -0.004359 -0.005178 0.000557 -0.009204 -0.007889
# 2 -0.004359 0.020676 -0.000806 -0.005776 0.009786 0.010135
# 3 -0.005178 -0.000806 0.013313 -0.002752 0.012672 0.003122
# 4 0.000557 -0.005776 -0.002752 0.026539 -0.003933 0.000268
# 5 -0.009204 0.009786 0.012672 -0.003933 0.056933 0.009896
# 6 -0.007889 0.010135 0.003122 0.000268 0.009896 0.035008
#
#
# Mechanical properties :
#
#
# Convention : Reuss Voigt Hill
#
# Bulk Modulus (GPa) = 42.03082 61.79970 51.91526
# Shear Modulus (GPa) = 26.09953 37.28412 31.69183
#
# Velocity S-wave (km/s) = 3.44532 4.11789 3.79653
# Velocity P-wave (km/s) = 5.91125 7.12154 6.54443
#
# Compressibility (1/GPa) = 0.02379206
#
# Stress axis : x y z
#
# Youngs Moduli (GPa) = 95.34000 48.36504 75.11633
#
# Poissons Ratio (x) = 0.21083 0.38893
# Poissons Ratio (y) = 0.41560 0.06054
# Poissons Ratio (z) = 0.49364 0.03898
#
# Static dielectric constant tensor:
#      x y z
#    x 1.830770 0.065380 -0.025270 
#    y 0.065380 1.877100 0.008440 
#    z -0.025270 0.008440 1.847540 
# 
# From -- ./inp_files/187163.got.cif
#   From: 2010.05.17/outbox.cif.g08.bks.cpg/sg2_94_cif.got.tgz:187163.got - 2010.06.03 11:33:40.
