data_PCOD9099328
_publ_section_title
;
Structure prediction by ZEFSAII (Michael W. Deem and Ramdas Pophale) SiO2 
 PCOD9099328
Probable space group: P -1
;
_chemical_formula_sum "Si O2"
_cell_formula_units_Z 16
_cell_length_a 15.965023
_cell_length_b 21.776834
_cell_length_c 10.011605
_cell_angle_alpha 35.105869
_cell_angle_beta 45.476098
_cell_angle_gamma 21.619405
_cell_volume 708.006744
_symmetry_space_group_name_H-M "P -1"
_symmetry_group_IT_number 2
_symmetry_cell_setting 'triclinic'
loop_
_space_group_symop_operation_xyz
x,y,z
-x,-y,-z
loop_
_atom_site_type_symbol
_atom_site_label
_atom_site_fract_x
_atom_site_fract_y
_atom_site_fract_z
Si Si1 0.739164 0.237462 0.806500
Si Si2 0.752556 0.717713 0.210939
Si Si3 0.046754 0.121237 0.486070
Si Si4 0.313790 0.687688 0.982769
Si Si5 0.787577 0.759397 0.519279
Si Si6 0.258797 0.038631 0.150069
Si Si7 0.288442 0.140295 0.286099
Si Si8 0.794867 0.996029 0.014462
O O1 0.600900 0.385544 0.827715
O O2 0.807062 0.269406 0.560340
O O3 0.661302 0.191479 0.901222
O O4 0.000000 0.000000 0.000000
O O5 0.977837 0.466683 0.409351
O O6 0.511424 0.845993 0.286564
O O7 0.790113 0.797057 0.109868
O O8 0.720476 0.784774 0.973590
O O9 0.053753 0.153012 0.268392
O O10 0.138654 0.151404 0.410379
O O11 0.229379 0.876953 0.718695
O O12 0.500000 0.500000 0.000000
O O13 0.071364 0.810501 0.026335
O O14 0.555332 0.898410 0.459594
O O15 0.794211 0.728734 0.724287
O O16 0.771432 0.899800 0.278485
O O17 0.291155 0.948677 0.138984
#
# Coordination Sequence:
#
# PCOD9099328 Si02
#       8
#     2   2   2   2   2   2   2   2
#     4   8  17  36  59  84 113 156 194 246 302 359
#     4  10  22  38  53  87 129 156 203 254 297 353
#     4   9  19  37  59  77 119 166 188 245 310 348
#     4  10  21  35  59  92 117 142 201 258 296 363
#     4  11  21  34  63  87 117 163 201 251 306 354
#     4  10  21  38  56  83 122 163 202 253 297 355
#     4  10  20  38  59  88 117 160 207 243 303 369
#     4  10  20  37  60  85 116 158 207 239 300 369
#
# _framework density 22.598655000000001
#
# number of rings (size 3 to 8) (size 9 to 14) (size 15 to 20)
#    0.000    2.500    1.250    2.625    1.750    3.500 
#    0.000    0.000    2.750    1.500    0.000    0.000 
#    0.000    0.000    0.000    0.000    0.000    0.000 
#
# Total GULP energy -89347.450040 kJ/mol
# GULP energy per Si atom -5584.215628 kJ/mol
# Density = 2.254722 g / cm^3
# Si number density = 22.598655 Si / 1000 Ang^3
#
#
#
# Elastic Constant Matrix: (Units=GPa)
#
#
# Indices 1 2 3 4 5 6 
#
# 1 110.4667 20.4217 21.7365 1.9507 -6.5375 23.9580
# 2 20.4217 96.0981 19.3696 -1.0776 -8.4570 27.7430
# 3 21.7365 19.3696 43.1611 10.7992 -3.5992 0.1928
# 4 1.9507 -1.0776 10.7992 30.4625 0.8175 -0.0254
# 5 -6.5375 -8.4570 -3.5992 0.8175 27.0699 7.5611
# 6 23.9580 27.7430 0.1928 -0.0254 7.5611 37.6415
#
#
#
# Elastic Compliance Matrix: (Units=1/GPa)
#
#
# Indices 1 2 3 4 5 6 
#
# 1 0.012804 0.002569 -0.007493 0.001758 0.005975 -0.011204
# 2 0.002569 0.017162 -0.009003 0.003375 0.009174 -0.016078
# 3 -0.007493 -0.009003 0.033586 -0.011652 -0.003115 0.011851
# 4 0.001758 0.003375 -0.011652 0.036968 -0.000215 -0.003478
# 5 0.005975 0.009174 -0.003115 -0.000215 0.046392 -0.019868
# 6 -0.011204 -0.016078 0.011851 -0.003478 -0.019868 0.049476
#
#
# Mechanical properties :
#
#
# Convention : Reuss Voigt Hill
#
# Bulk Modulus (GPa) = 28.01273 41.42017 34.71645
# Shear Modulus (GPa) = 21.17384 31.58129 26.37757
#
# Velocity S-wave (km/s) = 3.06429 3.74235 3.42016
# Velocity P-wave (km/s) = 4.99424 6.08621 5.56707
#
# Compressibility (1/GPa) = 0.03569806
#
# Stress axis : x y z
#
# Youngs Moduli (GPa) = 78.09793 58.26936 29.77466
#
# Poissons Ratio (x) = -0.14971 0.22310
# Poissons Ratio (y) = -0.20066 0.26807
# Poissons Ratio (z) = 0.58519 0.52461
#
# Static dielectric constant tensor:
#      x y z
#    x 1.860880 0.029160 0.054300 
#    y 0.029160 1.893110 0.018010 
#    z 0.054300 0.018010 1.869770 
# 
# From -- ./inp_files/467424.got.cif
#   From: 2010.05.17/outbox.cif.g08.bks.cpg/sg2_234_cif.got.tgz:467424.got - 2010.06.03 11:33:40.
