data_PCOD9099178
_publ_section_title
;
Structure prediction by ZEFSAII (Michael W. Deem and Ramdas Pophale) SiO2 
 PCOD9099178
Probable space group: P -1
;
_chemical_formula_sum "Si O2"
_cell_formula_units_Z 16
_cell_length_a 8.498111
_cell_length_b 14.342718
_cell_length_c 6.093211
_cell_angle_alpha 121.079821
_cell_angle_beta 101.473133
_cell_angle_gamma 78.807222
_cell_volume 619.646040
_symmetry_space_group_name_H-M "P -1"
_symmetry_group_IT_number 2
_symmetry_cell_setting 'triclinic'
loop_
_space_group_symop_operation_xyz
x,y,z
-x,-y,-z
loop_
_atom_site_type_symbol
_atom_site_label
_atom_site_fract_x
_atom_site_fract_y
_atom_site_fract_z
Si Si1 0.314887 0.552677 0.532533
Si Si2 0.786458 0.093589 0.521245
Si Si3 0.461456 0.169567 0.279832
Si Si4 0.122980 0.359457 0.802747
Si Si5 0.827915 0.664685 0.662475
Si Si6 0.771293 0.418726 0.944499
Si Si7 0.604290 0.042619 0.779104
Si Si8 0.881358 0.842371 0.226339
O O1 0.500000 0.500000 0.500000
O O2 0.206529 0.449415 0.378609
O O3 0.286487 0.602747 0.842262
O O4 0.288143 0.614916 0.359771
O O5 0.628485 0.155485 0.443740
O O6 0.758830 0.085454 0.765017
O O7 0.948436 0.147279 0.596158
O O8 0.810909 0.965712 0.308836
O O9 0.349758 0.281421 0.398085
O O10 0.367848 0.066165 0.201154
O O11 0.511099 0.139828 0.008015
O O12 0.056252 0.358760 0.538214
O O13 0.246826 0.449406 0.926844
O O14 0.206593 0.238935 0.740710
O O15 0.966293 0.387852 0.947009
O O16 0.890455 0.767563 0.925501
O O17 0.500000 0.000000 0.500000
#
# Coordination Sequence:
#
# PCOD9099178 Si02
#       8
#     2   2   2   2   2   2   2   2
#     4  11  24  45  70 105 142 178 222 287 354 414
#     4  10  23  38  60  88 135 170 224 279 343 392
#     4  10  20  37  59  88 121 174 218 274 338 400
#     4  10  23  40  68  93 128 175 229 273 344 412
#     4  11  23  39  66  94 131 172 234 277 337 418
#     4  10  23  44  73 100 139 180 223 284 349 416
#     4   9  17  34  56  82 118 165 212 268 329 389
#     4  11  22  40  60  95 126 176 226 281 334 412
#
# _framework density 25.821192
#
# number of rings (size 3 to 8) (size 9 to 14) (size 15 to 20)
#    0.000    1.750    1.250    3.375    1.750    4.500 
#    2.250    3.125    0.000    0.000    0.000    0.000 
#    0.000    0.000    0.000    0.000    0.000    0.000 
#
# Total GULP energy -89162.567054 kJ/mol
# GULP energy per Si atom -5572.660441 kJ/mol
# Density = 2.576242 g / cm^3
# Si number density = 25.821192 Si / 1000 Ang^3
#
#
#
# Elastic Constant Matrix: (Units=GPa)
#
#
# Indices 1 2 3 4 5 6 
#
# 1 59.6557 23.4715 36.6894 -4.6427 -1.0692 -17.8806
# 2 23.4715 129.4770 28.3026 9.3490 8.9415 -3.6276
# 3 36.6894 28.3026 126.9839 -23.8380 -32.9509 2.6855
# 4 -4.6427 9.3490 -23.8380 35.1066 -5.5985 4.6075
# 5 -1.0692 8.9415 -32.9509 -5.5985 47.6591 -8.3393
# 6 -17.8806 -3.6276 2.6855 4.6075 -8.3393 36.0131
#
#
#
# Elastic Compliance Matrix: (Units=1/GPa)
#
#
# Indices 1 2 3 4 5 6 
#
# 1 0.027048 -0.001787 -0.009642 -0.004914 -0.003906 0.013693
# 2 -0.001787 0.009925 -0.004491 -0.006853 -0.005816 -0.000023
# 3 -0.009642 -0.004491 0.018327 0.015319 0.014172 -0.005284
# 4 -0.004914 -0.006853 0.015319 0.043388 0.015784 -0.006169
# 5 -0.003906 -0.005816 0.014172 0.015784 0.034037 0.002281
# 6 0.013693 -0.000023 -0.005284 -0.006169 0.002281 0.036275
#
#
# Mechanical properties :
#
#
# Convention : Reuss Voigt Hill
#
# Bulk Modulus (GPa) = 42.62821 54.78261 48.70541
# Shear Modulus (GPa) = 23.96235 38.93264 31.44750
#
# Velocity S-wave (km/s) = 3.04963 3.88723 3.49362
# Velocity P-wave (km/s) = 5.38007 6.43503 5.93105
#
# Compressibility (1/GPa) = 0.02345864
#
# Stress axis : x y z
#
# Youngs Moduli (GPa) = 36.97162 100.75602 54.56494
#
# Poissons Ratio (x) = 0.18009 0.52612
# Poissons Ratio (y) = 0.06608 0.24505
# Poissons Ratio (z) = 0.35648 0.45250
#
# Static dielectric constant tensor:
#      x y z
#    x 2.094020 -0.019770 -0.028710 
#    y -0.019770 2.087900 -0.120420 
#    z -0.028710 -0.120420 2.248780 
# 
# From -- ./inp_files/39950.got.cif
#   From: 2010.05.17/outbox.cif.g08.bks.cpg/sg2_20_cif.got.tgz:39950.got - 2010.06.03 11:33:40.
