data_PCOD9099998
_publ_section_title
;
Structure prediction by ZEFSAII (Michael W. Deem and Ramdas Pophale) SiO2 
 PCOD9099998
Probable space group: P -1
;
_chemical_formula_sum "Si O2"
_cell_formula_units_Z 16
_cell_length_a 11.394070
_cell_length_b 9.143537
_cell_length_c 14.431343
_cell_angle_alpha 140.856774
_cell_angle_beta 57.019937
_cell_angle_gamma 139.679657
_cell_volume 610.045652
_symmetry_space_group_name_H-M "P -1"
_symmetry_group_IT_number 2
_symmetry_cell_setting 'triclinic'
loop_
_space_group_symop_operation_xyz
x,y,z
-x,-y,-z
loop_
_atom_site_type_symbol
_atom_site_label
_atom_site_fract_x
_atom_site_fract_y
_atom_site_fract_z
Si Si1 0.056327 0.398910 0.012039
Si Si2 0.751168 0.257541 0.410943
Si Si3 0.438606 0.571936 0.157138
Si Si4 0.947679 0.809785 0.715057
Si Si5 0.515531 0.202787 0.012858
Si Si6 0.610861 0.289589 0.305681
Si Si7 0.217945 0.752811 0.284399
Si Si8 0.120768 0.080755 0.579245
O O1 0.270885 0.561226 0.988568
O O2 0.947639 0.042203 0.890944
O O3 0.058950 0.559580 0.181946
O O4 0.000000 0.500000 0.000000
O O5 0.907880 0.228155 0.330008
O O6 0.733708 0.400293 0.397972
O O7 0.780397 0.470721 0.586148
O O8 0.572261 0.912598 0.305652
O O9 0.444341 0.384584 0.142010
O O10 0.265062 0.541544 0.189903
O O11 0.500000 0.500000 0.000000
O O12 0.024961 0.005745 0.681782
O O13 0.609596 0.043542 0.133683
O O14 0.500000 0.000000 0.000000
O O15 0.695802 0.572382 0.341516
O O16 0.395546 0.071941 0.318794
O O17 0.170315 0.863296 0.444268
O O18 0.000000 0.000000 0.500000
#
# Coordination Sequence:
#
# PCOD9099998 Si02
#       8
#     2   2   2   2   2   2   2   2
#     4  11  22  40  64  94 127 169 215 261 319 391
#     4  10  20  37  62  90 118 177 213 249 322 391
#     4  11  18  42  68  87 124 171 221 260 315 395
#     4  11  22  38  63  91 133 166 215 261 323 377
#     4  11  22  39  68  96 126 166 215 273 331 373
#     4  10  21  39  65  93 127 171 217 260 327 386
#     4  10  23  40  68  96 124 176 222 261 324 393
#     4  12  23  40  63  97 137 165 211 276 325 375
#
# _framework density 26.227547000000001
#
# number of rings (size 3 to 8) (size 9 to 14) (size 15 to 20)
#    0.000    1.250    6.250    1.875    0.000    0.000 
#    2.250    5.000    0.000    5.250    0.000    0.000 
#    0.000    0.000    0.000    0.000    0.000    0.000 
#
# Total GULP energy -89503.769038 kJ/mol
# GULP energy per Si atom -5593.985565 kJ/mol
# Density = 2.616785 g / cm^3
# Si number density = 26.227547 Si / 1000 Ang^3
#
#
#
# Elastic Constant Matrix: (Units=GPa)
#
#
# Indices 1 2 3 4 5 6 
#
# 1 103.0172 18.5913 29.0162 14.2922 7.5150 -13.3729
# 2 18.5913 104.9812 23.8977 32.0321 -1.3691 -8.0237
# 3 29.0162 23.8977 143.2097 33.9196 -1.0676 -1.0866
# 4 14.2922 32.0321 33.9196 35.2446 -3.1522 -5.6890
# 5 7.5150 -1.3691 -1.0676 -3.1522 51.4556 6.0674
# 6 -13.3729 -8.0237 -1.0866 -5.6890 6.0674 37.5674
#
#
#
# Elastic Compliance Matrix: (Units=1/GPa)
#
#
# Indices 1 2 3 4 5 6 
#
# 1 0.011248 -0.000797 -0.001716 -0.001761 -0.002265 0.003883
# 2 -0.000797 0.013359 0.000924 -0.012621 -0.000370 0.000745
# 3 -0.001716 0.000924 0.009401 -0.009440 0.000079 -0.001584
# 4 -0.001761 -0.012621 -0.009440 0.050447 0.002384 0.003659
# 5 -0.002265 -0.000370 0.000079 0.002384 0.020352 -0.003809
# 6 0.003883 0.000745 -0.001584 0.003659 -0.003809 0.029284
#
#
# Mechanical properties :
#
#
# Convention : Reuss Voigt Hill
#
# Bulk Modulus (GPa) = 32.43518 54.91317 43.67417
# Shear Modulus (GPa) = 33.88801 43.50038 38.69420
#
# Velocity S-wave (km/s) = 3.59845 4.07698 3.84516
# Velocity P-wave (km/s) = 5.44599 6.56849 6.03340
#
# Compressibility (1/GPa) = 0.03083072
#
# Stress axis : x y z
#
# Youngs Moduli (GPa) = 88.90456 74.85477 106.37451
#
# Poissons Ratio (x) = 0.05963 0.18258
# Poissons Ratio (y) = 0.07082 -0.09832
# Poissons Ratio (z) = 0.15259 -0.06919
#
# Static dielectric constant tensor:
#      x y z
#    x 2.033380 -0.006240 0.016150 
#    y -0.006240 2.272930 -0.057600 
#    z 0.016150 -0.057600 2.032130 
# 
# From -- ./inp_files/516378.got.cif
#   From: 2010.05.17/outbox.cif.g08.bks.cpg/sg2_259_cif.got.tgz:516378.got - 2010.06.03 11:33:40.
