data_PCOD9099623
_publ_section_title
;
Structure prediction by ZEFSAII (Michael W. Deem and Ramdas Pophale) SiO2 
 PCOD9099623
Probable space group: P -1
;
_chemical_formula_sum "Si O2"
_cell_formula_units_Z 16
_cell_length_a 9.651536
_cell_length_b 5.280658
_cell_length_c 16.006880
_cell_angle_alpha 84.274506
_cell_angle_beta 116.267291
_cell_angle_gamma 64.380355
_cell_volume 615.408332
_symmetry_space_group_name_H-M "P -1"
_symmetry_group_IT_number 2
_symmetry_cell_setting 'triclinic'
loop_
_space_group_symop_operation_xyz
x,y,z
-x,-y,-z
loop_
_atom_site_type_symbol
_atom_site_label
_atom_site_fract_x
_atom_site_fract_y
_atom_site_fract_z
Si Si1 0.266692 0.130669 0.897754
Si Si2 0.802727 0.047384 0.805359
Si Si3 0.677204 0.420346 0.604223
Si Si4 0.798273 0.322043 0.019286
Si Si5 0.557060 0.866894 0.838815
Si Si6 0.222315 0.338396 0.653576
Si Si7 0.894616 0.253485 0.529959
Si Si8 0.954052 0.598467 0.702659
O O1 0.230446 0.407772 0.936579
O O2 0.080319 0.258711 0.789324
O O3 0.296281 0.846398 0.965767
O O4 0.437722 0.015356 0.885735
O O5 0.673019 0.001359 0.832655
O O6 0.877859 0.809200 0.756379
O O7 0.986978 0.934593 0.911110
O O8 0.689255 0.347395 0.707728
O O9 0.500000 0.500000 0.500000
O O10 0.824968 0.149077 0.591822
O O11 0.769922 0.621653 0.614432
O O12 0.696697 0.513066 0.902653
O O13 0.390813 0.003942 0.724580
O O14 0.258121 0.474636 0.576939
O O15 0.043173 0.328190 0.592891
O O16 0.131909 0.568202 0.701183
O O17 0.000000 0.000000 0.500000
#
# Coordination Sequence:
#
# PCOD9099623 Si02
#       8
#     2   2   2   2   2   2   2   2
#     4  10  22  45  69  95 131 175 220 267 322 389
#     4  11  23  41  62  90 132 171 211 267 329 394
#     4  11  22  37  59  87 125 161 213 264 328 387
#     4  11  23  46  69  95 133 178 215 267 330 390
#     4  11  23  41  62 100 125 166 217 272 319 384
#     4   9  20  39  59  86 126 155 217 265 317 384
#     4  10  20  37  61  87 114 165 209 264 320 382
#     4   9  20  40  60  85 124 176 204 262 328 392
#
# _framework density 25.998996999999999
#
# number of rings (size 3 to 8) (size 9 to 14) (size 15 to 20)
#    0.000    1.750    1.250    2.625    0.000    1.500 
#    6.750    1.875    0.000    0.000    0.000    0.000 
#    0.000    0.000    0.000    0.000    0.000    0.000 
#
# Total GULP energy -89144.976580 kJ/mol
# GULP energy per Si atom -5571.561036 kJ/mol
# Density = 2.593982 g / cm^3
# Si number density = 25.998997 Si / 1000 Ang^3
#
#
#
# Elastic Constant Matrix: (Units=GPa)
#
#
# Indices 1 2 3 4 5 6 
#
# 1 149.3464 12.6639 56.0437 -5.6592 -14.7954 4.6395
# 2 12.6639 39.9445 11.9999 -5.0979 -0.6246 1.7569
# 3 56.0437 11.9999 171.4194 -17.4990 -1.9970 2.5264
# 4 -5.6592 -5.0979 -17.4990 25.4694 -1.9087 0.8950
# 5 -14.7954 -0.6246 -1.9970 -1.9087 52.9499 -10.6026
# 6 4.6395 1.7569 2.5264 0.8950 -10.6026 25.5797
#
#
#
# Elastic Compliance Matrix: (Units=1/GPa)
#
#
# Indices 1 2 3 4 5 6 
#
# 1 0.007979 -0.001760 -0.002470 -0.000114 0.002067 -0.000222
# 2 -0.001760 0.026465 -0.000809 0.004381 -0.000400 -0.001738
# 3 -0.002470 -0.000809 0.007127 0.004175 -0.000381 -0.000505
# 4 -0.000114 0.004381 0.004175 0.043145 0.001409 -0.001618
# 5 0.002067 -0.000400 -0.000381 0.001409 0.021181 0.008420
# 6 -0.000222 -0.001738 -0.000505 -0.001618 0.008420 0.042850
#
#
# Mechanical properties :
#
#
# Convention : Reuss Voigt Hill
#
# Bulk Modulus (GPa) = 31.75252 58.01391 44.88321
# Shear Modulus (GPa) = 29.52931 39.46667 34.49799
#
# Velocity S-wave (km/s) = 3.37380 3.90039 3.64661
# Velocity P-wave (km/s) = 5.23605 6.53042 5.91872
#
# Compressibility (1/GPa) = 0.03149357
#
# Stress axis : x y z
#
# Youngs Moduli (GPa) = 125.32466 37.78553 140.31278
#
# Poissons Ratio (x) = 0.06651 0.34654
# Poissons Ratio (y) = 0.22060 0.11351
# Poissons Ratio (z) = 0.30952 0.03057
#
# Static dielectric constant tensor:
#      x y z
#    x 1.968590 0.079130 0.043210 
#    y 0.079130 1.994640 -0.136780 
#    z 0.043210 -0.136780 2.193330 
# 
# From -- ./inp_files/48660.got.cif
#   From: 2010.05.17/outbox.cif.g08.bks.cpg/sg2_25_cif.got.tgz:48660.got - 2010.06.03 11:33:40.
