data_PCOD9099461
_publ_section_title
;
Structure prediction by ZEFSAII (Michael W. Deem and Ramdas Pophale) SiO2 
 PCOD9099461
Probable space group: P -1
;
_chemical_formula_sum "Si O2"
_cell_formula_units_Z 16
_cell_length_a 15.684860
_cell_length_b 7.794566
_cell_length_c 15.178992
_cell_angle_alpha 75.564550
_cell_angle_beta 26.449831
_cell_angle_gamma 60.750325
_cell_volume 630.992515
_symmetry_space_group_name_H-M "P -1"
_symmetry_group_IT_number 2
_symmetry_cell_setting 'triclinic'
loop_
_space_group_symop_operation_xyz
x,y,z
-x,-y,-z
loop_
_atom_site_type_symbol
_atom_site_label
_atom_site_fract_x
_atom_site_fract_y
_atom_site_fract_z
Si Si1 0.763095 0.493331 0.626163
Si Si2 0.961486 0.162428 0.736072
Si Si3 0.327115 0.864744 0.866257
Si Si4 0.705951 0.646499 0.852470
Si Si5 0.659644 0.170517 0.700542
Si Si6 0.333988 0.084244 0.543997
Si Si7 0.385843 0.503914 0.747777
Si Si8 0.665465 0.617743 0.367366
O O1 0.590649 0.662315 0.686933
O O2 0.658878 0.631496 0.796017
O O3 0.751479 0.290514 0.651853
O O4 0.037707 0.401303 0.373417
O O5 0.154850 0.136721 0.626220
O O6 0.752226 0.424966 0.881418
O O7 0.104955 0.057384 0.526677
O O8 0.855605 0.045346 0.894274
O O9 0.403607 0.996053 0.726823
O O10 0.250951 0.744846 0.888877
O O11 0.500988 0.844782 0.079259
O O12 0.495812 0.318191 0.747165
O O13 0.221043 0.301000 0.682777
O O14 0.408623 0.864252 0.553934
O O15 0.609983 0.474819 0.494008
O O16 0.247687 0.488072 0.796635
#
# Coordination Sequence:
#
# PCOD9099461 Si02
#       8
#     2   2   2   2   2   2   2   2
#     4  10  22  43  64  94 124 163 203 257 304 369
#     4  12  23  38  65  92 124 169 203 251 308 371
#     4  10  21  38  63  87 127 164 201 252 311 364
#     4  11  23  43  67  90 126 162 207 253 310 365
#     4  11  23  40  65  92 127 163 204 255 306 368
#     4  10  20  37  60  90 120 165 207 252 309 360
#     4   9  17  36  61  86 117 164 203 254 304 356
#     4   9  18  35  63  82 124 162 204 264 296 361
#
# _framework density 25.356877000000001
#
# number of rings (size 3 to 8) (size 9 to 14) (size 15 to 20)
#    0.000    1.750    5.000    0.375    0.000    1.500 
#    0.000    7.500    0.000    0.000    0.000    0.000 
#    0.000    0.000    0.000    0.000    0.000    0.000 
#
# Total GULP energy -89457.865096 kJ/mol
# GULP energy per Si atom -5591.116569 kJ/mol
# Density = 2.529916 g / cm^3
# Si number density = 25.356877 Si / 1000 Ang^3
#
#
#
# Elastic Constant Matrix: (Units=GPa)
#
#
# Indices 1 2 3 4 5 6 
#
# 1 140.2710 23.7139 49.8047 -7.8673 22.9745 22.4734
# 2 23.7139 54.8185 22.7884 -19.5217 2.1217 -2.8554
# 3 49.8047 22.7884 128.9106 -18.0508 30.7583 12.4126
# 4 -7.8673 -19.5217 -18.0508 27.2394 -3.1930 5.9852
# 5 22.9745 2.1217 30.7583 -3.1930 29.0383 -8.0636
# 6 22.4734 -2.8554 12.4126 5.9852 -8.0636 31.2014
#
#
#
# Elastic Compliance Matrix: (Units=1/GPa)
#
#
# Indices 1 2 3 4 5 6 
#
# 1 0.012240 -0.005277 0.001180 0.001906 -0.014170 -0.013797
# 2 -0.005277 0.027520 -0.003780 0.015215 0.009915 0.007467
# 3 0.001180 -0.003780 0.015200 0.008461 -0.019703 -0.013958
# 4 0.001906 0.015215 0.008461 0.056273 -0.010042 -0.016736
# 5 -0.014170 0.009915 -0.019703 -0.010042 0.075937 0.040503
# 6 -0.013797 0.007467 -0.013958 -0.016736 0.040503 0.061901
#
#
# Mechanical properties :
#
#
# Convention : Reuss Voigt Hill
#
# Bulk Modulus (GPa) = 25.50696 57.40155 41.45426
# Shear Modulus (GPa) = 17.99246 32.67537 25.33392
#
# Velocity S-wave (km/s) = 2.66666 3.59363 3.16427
# Velocity P-wave (km/s) = 4.42295 6.31708 5.45289
#
# Compressibility (1/GPa) = 0.03920499
#
# Stress axis : x y z
#
# Youngs Moduli (GPa) = 81.69691 36.33739 65.79156
#
# Poissons Ratio (x) = 0.19176 -0.07765
# Poissons Ratio (y) = 0.43113 0.24872
# Poissons Ratio (z) = -0.09642 0.13737
#
# Static dielectric constant tensor:
#      x y z
#    x 1.977380 0.004930 0.059450 
#    y 0.004930 2.016790 -0.039330 
#    z 0.059450 -0.039330 2.034330 
# 
# From -- ./inp_files/529730.got.cif
#   From: 2010.05.17/outbox.cif.g08.bks.cpg/sg2_265_cif.got.tgz:529730.got - 2010.06.03 11:33:40.
