data_PCOD9099769
_publ_section_title
;
Structure prediction by ZEFSAII (Michael W. Deem and Ramdas Pophale) SiO2 
 PCOD9099769
Probable space group: P -1
;
_chemical_formula_sum "Si O2"
_cell_formula_units_Z 16
_cell_length_a 9.714936
_cell_length_b 11.167977
_cell_length_c 12.717749
_cell_angle_alpha 135.898563
_cell_angle_beta 46.712626
_cell_angle_gamma 130.095451
_cell_volume 666.928325
_symmetry_space_group_name_H-M "P -1"
_symmetry_group_IT_number 2
_symmetry_cell_setting 'triclinic'
loop_
_space_group_symop_operation_xyz
x,y,z
-x,-y,-z
loop_
_atom_site_type_symbol
_atom_site_label
_atom_site_fract_x
_atom_site_fract_y
_atom_site_fract_z
Si Si1 0.682774 0.995697 0.831423
Si Si2 0.372867 0.944525 0.426976
Si Si3 0.794037 0.838010 0.489926
Si Si4 0.266289 0.637590 0.934349
Si Si5 0.054983 0.353929 0.037856
Si Si6 0.629534 0.713956 0.050354
Si Si7 0.723742 0.705036 0.752909
Si Si8 0.023293 0.379464 0.596847
O O1 0.638778 0.868118 0.675021
O O2 0.810838 0.904350 0.779954
O O3 0.760608 0.198179 0.876082
O O4 0.500000 0.000000 0.000000
O O5 0.500899 0.851545 0.224370
O O6 0.166384 0.784428 0.440680
O O7 0.500000 0.000000 0.500000
O O8 0.305455 0.118724 0.535502
O O9 0.854507 0.670837 0.399365
O O10 0.000000 0.000000 0.500000
O O11 0.161074 0.462605 0.947108
O O12 0.490671 0.639833 0.803213
O O13 0.168835 0.692451 0.915438
O O14 0.056087 0.468888 0.215138
O O15 0.188931 0.233228 0.928470
O O16 0.500000 0.500000 0.000000
O O17 0.714210 0.724042 0.894234
O O18 0.835663 0.583855 0.556475
#
# Coordination Sequence:
#
# PCOD9099769 Si02
#       8
#     2   2   2   2   2   2   2   2
#     4   9  17  33  59  84 114 153 201 252 308 353
#     4  11  23  40  64  95 127 166 217 259 304 379
#     4   9  18  34  60  83 119 155 199 255 303 355
#     4  10  20  37  61  92 119 165 218 261 299 380
#     4  11  23  38  63  92 129 171 214 252 310 390
#     4  12  23  43  65  86 129 177 204 246 329 396
#     4  10  21  39  65  88 123 165 208 264 323 376
#     4  10  21  40  61  93 123 168 210 264 319 362
#
# _framework density 23.990583000000001
#
# number of rings (size 3 to 8) (size 9 to 14) (size 15 to 20)
#    0.000    1.750    2.500    3.000    0.000    6.000 
#    0.000    6.250    0.000    0.000    0.000    0.000 
#    0.000    0.000    0.000    0.000    0.000    0.000 
#
# Total GULP energy -89087.232885 kJ/mol
# GULP energy per Si atom -5567.952055 kJ/mol
# Density = 2.393598 g / cm^3
# Si number density = 23.990583 Si / 1000 Ang^3
#
#
#
# Elastic Constant Matrix: (Units=GPa)
#
#
# Indices 1 2 3 4 5 6 
#
# 1 178.0439 17.5474 29.4353 -13.1053 -8.6995 -19.1783
# 2 17.5474 25.0045 8.7385 -5.8451 -3.3410 -11.5288
# 3 29.4353 8.7385 116.5042 -14.4919 -13.7577 1.6083
# 4 -13.1053 -5.8451 -14.4919 33.7871 -5.1834 0.6442
# 5 -8.6995 -3.3410 -13.7577 -5.1834 33.3948 -3.3278
# 6 -19.1783 -11.5288 1.6083 0.6442 -3.3278 26.6301
#
#
#
# Elastic Compliance Matrix: (Units=1/GPa)
#
#
# Indices 1 2 3 4 5 6 
#
# 1 0.006673 -0.001527 -0.001160 0.002028 0.001861 0.004398
# 2 -0.001527 0.056107 -0.002069 0.009020 0.008166 0.024118
# 3 -0.001160 -0.002069 0.010060 0.004171 0.004091 -0.001929
# 4 0.002028 0.009020 0.004171 0.035030 0.009125 0.005406
# 5 0.001861 0.008166 0.004091 0.009125 0.035226 0.008810
# 6 0.004398 0.024118 -0.001929 0.005406 0.008810 0.052247
#
#
# Mechanical properties :
#
#
# Convention : Reuss Voigt Hill
#
# Bulk Modulus (GPa) = 15.79083 47.88833 31.83958
# Shear Modulus (GPa) = 22.12736 36.35115 29.23926
#
# Velocity S-wave (km/s) = 3.04029 3.89681 3.49489
# Velocity P-wave (km/s) = 4.34981 6.34441 5.43932
#
# Compressibility (1/GPa) = 0.06332790
#
# Stress axis : x y z
#
# Youngs Moduli (GPa) = 149.86183 17.82306 99.40112
#
# Poissons Ratio (x) = 0.02721 0.11532
# Poissons Ratio (y) = 0.22881 0.20568
# Poissons Ratio (z) = 0.17386 0.03688
#
# Static dielectric constant tensor:
#      x y z
#    x 1.987870 0.067750 0.037780 
#    y 0.067750 2.107220 0.046140 
#    z 0.037780 0.046140 1.941160 
# 
# From -- ./inp_files/392795.got.cif
#   From: 2010.05.17/outbox.cif.g08.bks.cpg/sg2_197_cif.got.tgz:392795.got - 2010.06.03 11:33:40.
