data_PCOD9099574
_publ_section_title
;
Structure prediction by ZEFSAII (Michael W. Deem and Ramdas Pophale) SiO2 
 PCOD9099574
Probable space group: P -1
;
_chemical_formula_sum "Si O2"
_cell_formula_units_Z 16
_cell_length_a 13.711438
_cell_length_b 19.550546
_cell_length_c 5.102967
_cell_angle_alpha 78.961973
_cell_angle_beta 73.888476
_cell_angle_gamma 33.041054
_cell_volume 714.340266
_symmetry_space_group_name_H-M "P -1"
_symmetry_group_IT_number 2
_symmetry_cell_setting 'triclinic'
loop_
_space_group_symop_operation_xyz
x,y,z
-x,-y,-z
loop_
_atom_site_type_symbol
_atom_site_label
_atom_site_fract_x
_atom_site_fract_y
_atom_site_fract_z
Si Si1 0.175620 0.405911 0.254559
Si Si2 0.967963 0.403784 0.189193
Si Si3 0.564730 0.185095 0.044992
Si Si4 0.883683 0.961243 0.700018
Si Si5 0.084644 0.716676 0.535780
Si Si6 0.672449 0.438952 0.045653
Si Si7 0.225660 0.841943 0.716308
Si Si8 0.583260 0.619050 0.332787
O O1 0.385211 0.278282 0.289696
O O2 0.000000 0.500000 0.500000
O O3 0.137609 0.356694 0.153052
O O4 0.122080 0.506708 0.061543
O O5 0.013068 0.296784 0.260462
O O6 0.775856 0.512400 0.421939
O O7 0.700393 0.167398 0.064886
O O8 0.462491 0.277721 0.807860
O O9 0.704134 0.047017 0.945127
O O10 0.952926 0.858262 0.547820
O O11 0.051871 0.891132 0.808147
O O12 0.830270 0.058117 0.487679
O O13 0.245373 0.638608 0.687502
O O14 0.171312 0.653755 0.230113
O O15 0.606694 0.551470 0.125280
O O16 0.500000 0.500000 0.000000
O O17 0.403723 0.702071 0.567815
#
# Coordination Sequence:
#
# PCOD9099574 Si02
#       8
#     2   2   2   2   2   2   2   2
#     4  10  20  37  66  92 121 154 210 270 334 379
#     4   9  21  38  59  92 123 157 203 262 330 383
#     4  10  21  35  61  88 118 158 212 268 309 374
#     4  10  23  39  56  87 123 175 212 253 310 378
#     4  11  25  40  64  89 135 173 210 260 323 385
#     4  11  24  38  61  94 130 172 212 258 319 385
#     4  10  20  37  61  84 123 165 217 258 307 369
#     4   9  20  34  57  90 119 156 201 259 317 371
#
# _framework density 22.398288999999998
#
# number of rings (size 3 to 8) (size 9 to 14) (size 15 to 20)
#    0.000    2.000    0.000    2.250   12.250    1.000 
#    0.000    0.625    0.000    1.500    0.000    0.000 
#    0.000    0.000    0.000    0.000    0.000    0.000 
#
# Total GULP energy -89068.013643 kJ/mol
# GULP energy per Si atom -5566.750853 kJ/mol
# Density = 2.234731 g / cm^3
# Si number density = 22.398289 Si / 1000 Ang^3
#
#
#
# Elastic Constant Matrix: (Units=GPa)
#
#
# Indices 1 2 3 4 5 6 
#
# 1 72.5533 23.7758 13.1118 7.2353 -0.5544 13.9587
# 2 23.7758 95.7366 41.1266 32.1308 0.1114 10.4737
# 3 13.1118 41.1266 81.6681 29.1658 12.1994 7.3635
# 4 7.2353 32.1308 29.1658 39.2433 -1.1392 6.4684
# 5 -0.5544 0.1114 12.1994 -1.1392 28.3606 -0.9592
# 6 13.9587 10.4737 7.3635 6.4684 -0.9592 31.5184
#
#
#
# Elastic Compliance Matrix: (Units=1/GPa)
#
#
# Indices 1 2 3 4 5 6 
#
# 1 0.016102 -0.003460 -0.000952 0.001590 0.000597 -0.006067
# 2 -0.003460 0.016474 -0.004560 -0.009266 0.001425 -0.000931
# 3 -0.000952 -0.004560 0.020120 -0.011186 -0.009130 -0.000746
# 4 0.001590 -0.009266 -0.011186 0.041837 0.006445 -0.003401
# 5 0.000597 0.001425 -0.009130 0.006445 0.039495 0.001274
# 6 -0.006067 -0.000931 -0.000746 -0.003401 0.001274 0.035635
#
#
# Mechanical properties :
#
#
# Convention : Reuss Voigt Hill
#
# Bulk Modulus (GPa) = 28.77683 45.10962 36.94322
# Shear Modulus (GPa) = 25.10138 31.28737 28.19438
#
# Velocity S-wave (km/s) = 3.35129 3.74152 3.55177
# Velocity P-wave (km/s) = 5.27736 6.23288 5.77492
#
# Compressibility (1/GPa) = 0.03475018
#
# Stress axis : x y z
#
# Youngs Moduli (GPa) = 62.10294 60.70292 49.70212
#
# Poissons Ratio (x) = 0.21004 0.04734
# Poissons Ratio (y) = 0.21489 0.22665
# Poissons Ratio (z) = 0.05915 0.27681
#
# Static dielectric constant tensor:
#      x y z
#    x 2.045990 -0.017730 -0.023470 
#    y -0.017730 1.875970 0.072550 
#    z -0.023470 0.072550 2.056040 
# 
# From -- ./inp_files/100552.got.cif
#   From: 2010.05.17/outbox.cif.g08.bks.cpg/sg2_51_cif.got.tgz:100552.got - 2010.06.03 11:33:40.
