data_PCOD9099700
_publ_section_title
;
Structure prediction by ZEFSAII (Michael W. Deem and Ramdas Pophale) SiO2 
 PCOD9099700
Probable space group: P -1
;
_chemical_formula_sum "Si O2"
_cell_formula_units_Z 10
_cell_length_a 10.385200
_cell_length_b 11.257869
_cell_length_c 7.952032
_cell_angle_alpha 69.069125
_cell_angle_beta 125.446474
_cell_angle_gamma 142.067937
_cell_volume 456.181498
_symmetry_space_group_name_H-M "P -1"
_symmetry_group_IT_number 2
_symmetry_cell_setting 'triclinic'
loop_
_space_group_symop_operation_xyz
x,y,z
-x,-y,-z
loop_
_atom_site_type_symbol
_atom_site_label
_atom_site_fract_x
_atom_site_fract_y
_atom_site_fract_z
Si Si1 0.781463 0.398494 0.210616
Si Si2 0.883073 0.962069 0.695138
Si Si3 0.778784 0.183644 0.560204
Si Si4 0.500393 0.416637 0.210209
Si Si5 0.622056 0.749574 0.265655
O O1 0.786304 0.256037 0.345954
O O2 0.663505 0.397819 0.285990
O O3 0.050257 0.624549 0.287849
O O4 0.612530 0.330159 0.959401
O O5 0.761750 0.798510 0.825649
O O6 0.689906 0.838088 0.456546
O O7 0.894705 0.115430 0.678963
O O8 0.143105 0.077294 0.762519
O O9 0.500000 0.000000 0.500000
O O10 0.593313 0.578012 0.331971
O O11 0.500000 0.500000 0.000000
#
# Coordination Sequence:
#
# PCOD9099700 Si02
#       5
#     2   2   2   2   2
#     4  10  22  39  60  89 122 156 205 248 299 358
#     4  11  22  39  65  90 124 160 199 250 306 357
#     4  11  22  39  63  87 119 163 205 248 296 362
#     4  10  20  37  61  89 121 154 202 249 294 356
#     4  10  23  40  60  94 123 157 199 254 305 359
#
# _framework density 21.921099000000002
#
# number of rings (size 3 to 8) (size 9 to 14) (size 15 to 20)
#    0.000    1.600    4.000    0.600    0.000    7.200 
#    0.000    1.000    0.000    0.000    0.000    0.000 
#    0.000    0.000    0.000    0.000    0.000    0.000 
#
# Total GULP energy -55871.163606 kJ/mol
# GULP energy per Si atom -5587.116361 kJ/mol
# Density = 2.187121 g / cm^3
# Si number density = 21.921099 Si / 1000 Ang^3
#
#
#
# Elastic Constant Matrix: (Units=GPa)
#
#
# Indices 1 2 3 4 5 6 
#
# 1 20.2733 15.7165 15.2519 -11.3844 3.2493 6.3868
# 2 15.7165 151.4751 39.0694 -7.6591 3.0683 14.2713
# 3 15.2519 39.0694 120.8307 12.1585 10.2011 3.5074
# 4 -11.3844 -7.6591 12.1585 39.8587 2.1270 6.3115
# 5 3.2493 3.0683 10.2011 2.1270 24.0854 5.4633
# 6 6.3868 14.2713 3.5074 6.3115 5.4633 31.9333
#
#
#
# Elastic Compliance Matrix: (Units=1/GPa)
#
#
# Indices 1 2 3 4 5 6 
#
# 1 0.084301 -0.002099 -0.012127 0.030756 -0.004158 -0.019958
# 2 -0.002099 0.007870 -0.002475 0.002159 0.000911 -0.003408
# 3 -0.012127 -0.002475 0.011556 -0.007987 -0.003235 0.004394
# 4 0.030756 0.002159 -0.007987 0.038968 -0.001374 -0.013706
# 5 -0.004158 0.000911 -0.003235 -0.001374 0.044962 -0.006641
# 6 -0.019958 -0.003408 0.004394 -0.013706 -0.006641 0.040192
#
#
# Mechanical properties :
#
#
# Convention : Reuss Voigt Hill
#
# Bulk Modulus (GPa) = 14.21954 48.07273 31.14614
# Shear Modulus (GPa) = 17.56282 34.01155 25.78719
#
# Velocity S-wave (km/s) = 2.83359 3.94324 3.43354
# Velocity P-wave (km/s) = 4.14806 6.53526 5.47339
#
# Compressibility (1/GPa) = 0.07032575
#
# Stress axis : x y z
#
# Youngs Moduli (GPa) = 11.86221 127.07070 86.53373
#
# Poissons Ratio (x) = 0.26676 1.04936
# Poissons Ratio (y) = 0.02490 0.21415
# Poissons Ratio (z) = 0.14385 0.31447
#
# Static dielectric constant tensor:
#      x y z
#    x 1.831850 -0.025910 -0.008410 
#    y -0.025910 1.837280 0.024100 
#    z -0.008410 0.024100 1.837500 
# 
# From -- ./inp_files/15559.got.cif
#   From: 2010.05.17/outbox.cif.g08.bks.cpg/sg2_8_cif.got.tgz:15559.got - 2010.06.03 11:33:40.
