data_PCOD9099202
_publ_section_title
;
Structure prediction by ZEFSAII (Michael W. Deem and Ramdas Pophale) SiO2 
 PCOD9099202
Probable space group: P -1
;
_chemical_formula_sum "Si O2"
_cell_formula_units_Z 13
_cell_length_a 7.675443
_cell_length_b 13.205564
_cell_length_c 15.425460
_cell_angle_alpha 155.590889
_cell_angle_beta 130.922442
_cell_angle_gamma 56.552008
_cell_volume 483.036502
_symmetry_space_group_name_H-M "P -1"
_symmetry_group_IT_number 2
_symmetry_cell_setting 'triclinic'
loop_
_space_group_symop_operation_xyz
x,y,z
-x,-y,-z
loop_
_atom_site_type_symbol
_atom_site_label
_atom_site_fract_x
_atom_site_fract_y
_atom_site_fract_z
Si Si1 0.526851 0.630964 0.482202
Si Si2 0.650974 0.924818 0.209506
Si Si3 0.177894 0.675210 0.766936
Si Si4 0.743001 0.502564 0.029991
Si Si5 0.063729 0.301245 0.580908
Si Si6 0.500000 0.000000 0.500000
Si Si7 0.680707 0.851832 0.892768
O O1 0.746865 0.525939 0.431956
O O2 0.589353 0.739284 0.682653
O O3 0.331496 0.391474 0.242065
O O4 0.441373 0.870092 0.596538
O O5 0.768274 0.725567 0.144664
O O6 0.423547 0.777482 0.975322
O O7 0.844030 0.085270 0.338149
O O8 0.035459 0.518986 0.673723
O O9 0.117428 0.923583 0.893100
O O10 0.920937 0.581515 0.226689
O O11 0.500000 0.500000 0.000000
O O12 0.707791 0.237256 0.767379
O O13 0.305530 0.191229 0.560573
O O14 0.500000 0.000000 0.000000
#
# Coordination Sequence:
#
# PCOD9099202 Si02
#       7
#     2   2   2   2   2   1   2
#     4   9  19  34  63  86 117 156 191 236 296 347
#     4  11  22  38  59  88 119 154 200 247 285 347
#     4  10  20  37  59  89 122 153 193 239 290 352
#     4  10  21  39  57  83 117 156 200 246 289 343
#     4  11  24  38  59  87 118 156 200 245 291 347
#     4  10  22  38  58  74 114 156 196 238 298 334
#     4   8  16  35  61  90 115 153 193 232 289 352
#
# _framework density 26.913077999999999
#
# number of rings (size 3 to 8) (size 9 to 14) (size 15 to 20)
#    0.000    2.154    3.077    0.462    4.308    1.846 
#    0.000    0.769    0.000   31.385    0.000    0.000 
#    0.000    0.000    0.000    0.000    0.000    0.000 
#
# Total GULP energy -72407.181471 kJ/mol
# GULP energy per Si atom -5569.783190 kJ/mol
# Density = 2.685182 g / cm^3
# Si number density = 26.913078 Si / 1000 Ang^3
#
#
#
# Elastic Constant Matrix: (Units=GPa)
#
#
# Indices 1 2 3 4 5 6 
#
# 1 67.9605 0.3436 22.4788 1.3904 11.3095 3.1828
# 2 0.3436 87.0073 58.8305 22.0706 -0.7122 0.6609
# 3 22.4788 58.8305 200.9268 44.0720 9.3558 20.9421
# 4 1.3904 22.0706 44.0720 52.2813 1.1349 8.9296
# 5 11.3095 -0.7122 9.3558 1.1349 51.4489 11.8509
# 6 3.1828 0.6609 20.9421 8.9296 11.8509 44.3854
#
#
#
# Elastic Compliance Matrix: (Units=1/GPa)
#
#
# Indices 1 2 3 4 5 6 
#
# 1 0.015943 0.001187 -0.002247 0.000941 -0.003232 0.000573
# 2 0.001187 0.015064 -0.004048 -0.003361 0.000249 0.002210
# 3 -0.002247 -0.004048 0.007607 -0.004221 -0.000290 -0.002441
# 4 0.000941 -0.003361 -0.004221 0.024604 0.000700 -0.003163
# 5 -0.003232 0.000249 -0.000290 0.000700 0.021456 -0.005505
# 6 0.000573 0.002210 -0.002441 -0.003163 -0.005505 0.025714
#
#
# Mechanical properties :
#
#
# Convention : Reuss Voigt Hill
#
# Bulk Modulus (GPa) = 35.21386 57.68893 46.45140
# Shear Modulus (GPa) = 38.44058 47.90588 43.17323
#
# Velocity S-wave (km/s) = 3.78342 4.22361 4.00956
# Velocity P-wave (km/s) = 5.67436 6.72807 6.22356
#
# Compressibility (1/GPa) = 0.02839791
#
# Stress axis : x y z
#
# Youngs Moduli (GPa) = 62.72180 66.38544 131.45221
#
# Poissons Ratio (x) = -0.07877 0.29535
# Poissons Ratio (y) = -0.07443 0.53212
# Poissons Ratio (z) = 0.14092 0.26873
#
# Static dielectric constant tensor:
#      x y z
#    x 2.232700 -0.065930 0.003030 
#    y -0.065930 2.142180 -0.018530 
#    z 0.003030 -0.018530 2.126750 
# 
# From -- ./inp_files/88132.got.cif
#   From: 2010.05.17/outbox.cif.g08.bks.cpg/sg2_45_cif.got.tgz:88132.got - 2010.06.03 11:33:40.
