data_PCOD9099644
_publ_section_title
;
Structure prediction by ZEFSAII (Michael W. Deem and Ramdas Pophale) SiO2 
 PCOD9099644
Probable space group: P -1
;
_chemical_formula_sum "Si O2"
_cell_formula_units_Z 16
_cell_length_a 8.801089
_cell_length_b 18.564542
_cell_length_c 15.639965
_cell_angle_alpha 152.999658
_cell_angle_beta 139.269734
_cell_angle_gamma 39.512213
_cell_volume 715.874856
_symmetry_space_group_name_H-M "P -1"
_symmetry_group_IT_number 2
_symmetry_cell_setting 'triclinic'
loop_
_space_group_symop_operation_xyz
x,y,z
-x,-y,-z
loop_
_atom_site_type_symbol
_atom_site_label
_atom_site_fract_x
_atom_site_fract_y
_atom_site_fract_z
Si Si1 0.984430 0.546540 0.441994
Si Si2 0.336183 0.241776 0.186892
Si Si3 0.622312 0.974271 0.309512
Si Si4 0.540675 0.448989 0.063209
Si Si5 0.132766 0.088570 0.299440
Si Si6 0.110561 0.870548 0.193359
Si Si7 0.154724 0.758444 0.288756
Si Si8 0.317044 0.963947 0.007601
O O1 0.226376 0.426260 0.371215
O O2 0.000000 0.500000 0.500000
O O3 0.753743 0.505056 0.258042
O O4 0.947321 0.735657 0.598890
O O5 0.564919 0.195526 0.172215
O O6 0.119845 0.193573 0.993838
O O7 0.390315 0.114235 0.154420
O O8 0.873829 0.821548 0.267108
O O9 0.427526 0.031580 0.362725
O O10 0.698714 0.137047 0.487204
O O11 0.453076 0.930014 0.118866
O O12 0.295798 0.560657 0.127153
O O13 0.500000 0.500000 0.000000
O O14 0.660874 0.249134 0.892072
O O15 0.975796 0.989140 0.075849
O O16 0.063904 0.056536 0.333645
O O17 0.149999 0.839120 0.276964
#
# Coordination Sequence:
#
# PCOD9099644 Si02
#       8
#     2   2   2   2   2   2   2   2
#     4  11  22  39  63  93 126 158 204 258 312 366
#     4   9  19  36  62  87 114 165 198 244 303 375
#     4  11  21  35  58  90 124 156 208 250 305 351
#     4   9  19  39  63  89 116 165 208 246 302 376
#     4  11  23  38  61  94 123 158 201 265 308 357
#     4   9  19  39  64  88 120 158 210 244 306 368
#     4  10  20  37  63  87 117 167 210 247 293 376
#     4  10  20  37  61  87 123 156 203 248 311 363
#
# _framework density 22.350275
#
# number of rings (size 3 to 8) (size 9 to 14) (size 15 to 20)
#    0.000    2.000    2.500    1.125    0.000    3.000 
#    0.000    0.625    0.000    1.500    0.000    0.000 
#    0.000    0.000    0.000    0.000    0.000    0.000 
#
# Total GULP energy -89144.351464 kJ/mol
# GULP energy per Si atom -5571.521966 kJ/mol
# Density = 2.229940 g / cm^3
# Si number density = 22.350275 Si / 1000 Ang^3
#
#
#
# Elastic Constant Matrix: (Units=GPa)
#
#
# Indices 1 2 3 4 5 6 
#
# 1 61.0395 30.0062 20.3266 1.6565 5.6481 -20.3916
# 2 30.0062 79.7210 24.3076 -0.6145 0.2777 -9.8813
# 3 20.3266 24.3076 45.8152 -8.6619 -1.1836 2.1635
# 4 1.6565 -0.6145 -8.6619 38.0665 -4.2732 -4.1787
# 5 5.6481 0.2777 -1.1836 -4.2732 22.0610 5.3051
# 6 -20.3916 -9.8813 2.1635 -4.1787 5.3051 51.2257
#
#
#
# Elastic Compliance Matrix: (Units=1/GPa)
#
#
# Indices 1 2 3 4 5 6 
#
# 1 0.027629 -0.005730 -0.010738 -0.003745 -0.010991 0.011179
# 2 -0.005730 0.016841 -0.006585 -0.000800 0.000475 0.001131
# 3 -0.010738 -0.006585 0.032085 0.007756 0.007756 -0.007070
# 4 -0.003745 -0.000800 0.007756 0.028941 0.007074 -0.000344
# 5 -0.010991 0.000475 0.007756 0.007074 0.052193 -0.009440
# 6 0.011179 0.001131 -0.007070 -0.000344 -0.009440 0.025438
#
#
# Mechanical properties :
#
#
# Convention : Reuss Voigt Hill
#
# Bulk Modulus (GPa) = 32.84174 37.31737 35.07955
# Shear Modulus (GPa) = 20.88715 29.73300 25.31008
#
# Velocity S-wave (km/s) = 3.06034 3.65131 3.36881
# Velocity P-wave (km/s) = 5.21666 5.87443 5.55529
#
# Compressibility (1/GPa) = 0.03044906
#
# Stress axis : x y z
#
# Youngs Moduli (GPa) = 36.19429 59.37983 31.16712
#
# Poissons Ratio (x) = 0.34025 0.33466
# Poissons Ratio (y) = 0.20740 0.20524
# Poissons Ratio (z) = 0.38864 0.39102
#
# Static dielectric constant tensor:
#      x y z
#    x 1.827430 -0.048410 -0.088930 
#    y -0.048410 1.878220 0.028490 
#    z -0.088930 0.028490 1.830930 
# 
# From -- ./inp_files/507357.got.cif
#   From: 2010.05.17/outbox.cif.g08.bks.cpg/sg2_254_cif.got.tgz:507357.got - 2010.06.03 11:33:40.
