data_PCOD9099948
_publ_section_title
;
Structure prediction by ZEFSAII (Michael W. Deem and Ramdas Pophale) SiO2 
 PCOD9099948
Probable space group: P -1
;
_chemical_formula_sum "Si O2"
_cell_formula_units_Z 16
_cell_length_a 11.287249
_cell_length_b 8.824736
_cell_length_c 16.213048
_cell_angle_alpha 62.066113
_cell_angle_beta 28.702467
_cell_angle_gamma 68.297535
_cell_volume 682.001836
_symmetry_space_group_name_H-M "P -1"
_symmetry_group_IT_number 2
_symmetry_cell_setting 'triclinic'
loop_
_space_group_symop_operation_xyz
x,y,z
-x,-y,-z
loop_
_atom_site_type_symbol
_atom_site_label
_atom_site_fract_x
_atom_site_fract_y
_atom_site_fract_z
Si Si1 0.863928 0.134001 0.168366
Si Si2 0.906133 0.719242 0.586775
Si Si3 0.596818 0.707638 0.519611
Si Si4 0.943290 0.090389 0.398187
Si Si5 0.643745 0.363905 0.789396
Si Si6 0.895331 0.106747 0.791241
Si Si7 0.326854 0.349651 0.835743
Si Si8 0.579186 0.853119 0.324368
O O1 0.614064 0.169488 0.358996
O O2 0.039957 0.011301 0.141271
O O3 0.753954 0.029333 0.183494
O O4 0.033634 0.311683 0.008139
O O5 0.703659 0.560499 0.732734
O O6 0.969546 0.752236 0.635659
O O7 0.144845 0.676768 0.397498
O O8 0.847296 0.912132 0.549402
O O9 0.847001 0.765690 0.402599
O O10 0.472991 0.523083 0.668573
O O11 0.662281 0.726288 0.377742
O O12 0.704890 0.134305 0.483368
O O13 0.134449 0.024749 0.233632
O O14 0.396898 0.338019 0.891900
O O15 0.683742 0.234672 0.873932
O O16 0.423394 0.207500 0.752103
#
# Coordination Sequence:
#
# PCOD9099948 Si02
#       8
#     2   2   2   2   2   2   2   2
#     4  11  23  40  58  84 121 158 186 231 289 352
#     4   9  18  30  53  89 110 144 188 249 276 324
#     4  11  21  40  61  85 114 154 197 238 276 341
#     4  10  16  31  58  83 112 140 195 236 281 325
#     4  10  20  34  55  85 118 144 188 242 288 331
#     4  10  20  38  62  84 110 151 199 237 277 337
#     4  12  24  37  58  89 122 150 186 238 299 336
#     4  11  21  38  59  88 112 152 197 236 278 339
#
# _framework density 23.460346999999999
#
# number of rings (size 3 to 8) (size 9 to 14) (size 15 to 20)
#    0.000    1.500    3.750    4.125    0.000    0.500 
#    0.000    0.000    0.000    0.750    0.000    0.000 
#    0.000    1.000    0.000    0.000    0.000    0.000 
#
# Total GULP energy -89231.732313 kJ/mol
# GULP energy per Si atom -5576.983270 kJ/mol
# Density = 2.340695 g / cm^3
# Si number density = 23.460347 Si / 1000 Ang^3
#
#
#
# Elastic Constant Matrix: (Units=GPa)
#
#
# Indices 1 2 3 4 5 6 
#
# 1 104.5091 42.9858 11.2138 -26.6604 -23.6487 24.0103
# 2 42.9858 95.4160 18.7946 -31.6144 -10.5370 29.5811
# 3 11.2138 18.7946 63.5440 -31.1417 -23.3400 12.4474
# 4 -26.6604 -31.6144 -31.1417 28.5339 8.6215 -10.2791
# 5 -23.6487 -10.5370 -23.3400 8.6215 24.3008 -10.9671
# 6 24.0103 29.5811 12.4474 -10.2791 -10.9671 33.8246
#
#
#
# Elastic Compliance Matrix: (Units=1/GPa)
#
#
# Indices 1 2 3 4 5 6 
#
# 1 0.037248 0.010828 0.056945 0.086889 0.059816 -0.011066
# 2 0.010828 0.028701 0.034175 0.065461 0.024701 -0.017461
# 3 0.056945 0.034175 0.149018 0.207005 0.130999 -0.019766
# 4 0.086889 0.065461 0.207005 0.350807 0.172623 -0.032525
# 5 0.059816 0.024701 0.130999 0.172623 0.172965 -0.003730
# 6 -0.011066 -0.017461 -0.019766 -0.032525 -0.003730 0.048870
#
#
# Mechanical properties :
#
#
# Convention : Reuss Voigt Hill
#
# Bulk Modulus (GPa) = 2.38742 45.49527 23.94134
# Shear Modulus (GPa) = 6.91244 30.03019 18.47132
#
# Velocity S-wave (km/s) = 1.71838 3.58165 2.80901
# Velocity P-wave (km/s) = 2.22642 6.04473 4.55498
#
# Compressibility (1/GPa) = 0.41886245
#
# Stress axis : x y z
#
# Youngs Moduli (GPa) = 26.84720 34.84193 6.71062
#
# Poissons Ratio (x) = -0.37727 -0.38214
# Poissons Ratio (y) = -0.29071 -0.22933
# Poissons Ratio (z) = -1.52882 -1.19071
#
# Static dielectric constant tensor:
#      x y z
#    x 1.959990 -0.021980 0.062480 
#    y -0.021980 1.906600 0.006120 
#    z 0.062480 0.006120 1.953910 
# 
# From -- ./inp_files/277802.got.cif
#   From: 2010.05.17/outbox.cif.g08.bks.cpg/sg2_139_cif.got.tgz:277802.got - 2010.06.03 11:33:40.
