data_PCOD9099401
_publ_section_title
;
Structure prediction by ZEFSAII (Michael W. Deem and Ramdas Pophale) SiO2 
 PCOD9099401
Probable space group: P -1
;
_chemical_formula_sum "Si O2"
_cell_formula_units_Z 13
_cell_length_a 12.131223
_cell_length_b 7.229893
_cell_length_c 9.493316
_cell_angle_alpha 113.356226
_cell_angle_beta 127.424269
_cell_angle_gamma 100.659338
_cell_volume 492.716100
_symmetry_space_group_name_H-M "P -1"
_symmetry_group_IT_number 2
_symmetry_cell_setting 'triclinic'
loop_
_space_group_symop_operation_xyz
x,y,z
-x,-y,-z
loop_
_atom_site_type_symbol
_atom_site_label
_atom_site_fract_x
_atom_site_fract_y
_atom_site_fract_z
Si Si1 0.924141 0.113284 0.673193
Si Si2 0.000000 0.000000 0.000000
Si Si3 0.403830 0.684324 0.221710
Si Si4 0.746913 0.697007 0.208793
Si Si5 0.160833 0.781553 0.891236
Si Si6 0.306504 0.755999 0.438217
Si Si7 0.776197 0.368334 0.362192
O O1 0.882298 0.308800 0.736521
O O2 0.096112 0.205339 0.749798
O O3 0.782276 0.929238 0.391274
O O4 0.922113 0.994466 0.781821
O O5 0.864615 0.038109 0.987490
O O6 0.338580 0.604629 0.306990
O O7 0.575015 0.959486 0.433474
O O8 0.410541 0.491970 0.072032
O O9 0.267122 0.718627 0.051753
O O10 0.755285 0.537002 0.290822
O O11 0.249414 0.845911 0.825023
O O12 0.969964 0.546969 0.627107
O O13 0.336778 0.720452 0.611907
#
# Coordination Sequence:
#
# PCOD9099401 Si02
#       7
#     2   1   2   2   2   2   2
#     4  11  23  39  63  91 120 155 195 252 299 350
#     4  12  22  36  62  94 118 154 192 258 294 350
#     4  10  23  40  59  88 122 158 202 241 292 358
#     4  10  23  40  62  92 121 152 202 246 299 351
#     4  10  20  37  60  88 118 150 200 242 294 349
#     4  11  23  39  63  87 123 158 200 243 296 351
#     4  10  21  39  62  91 117 155 200 246 293 355
#
# _framework density 26.384363
#
# number of rings (size 3 to 8) (size 9 to 14) (size 15 to 20)
#    0.000    1.538    3.077    2.769    4.308    4.308 
#    0.000    0.000    3.385    3.692    0.000    0.000 
#    0.000    0.000    0.000    0.000    0.000    0.000 
#
# Total GULP energy -72385.357513 kJ/mol
# GULP energy per Si atom -5568.104424 kJ/mol
# Density = 2.632431 g / cm^3
# Si number density = 26.384363 Si / 1000 Ang^3
#
#
#
# Elastic Constant Matrix: (Units=GPa)
#
#
# Indices 1 2 3 4 5 6 
#
# 1 105.4456 37.8297 46.6966 -31.3858 -40.4977 21.8679
# 2 37.8297 58.0646 41.1288 -36.3753 -38.6374 27.1978
# 3 46.6966 41.1288 115.8928 -19.5415 -38.5114 25.3074
# 4 -31.3858 -36.3753 -19.5415 37.8790 21.0388 -17.5706
# 5 -40.4977 -38.6374 -38.5114 21.0388 56.8403 -21.1529
# 6 21.8679 27.1978 25.3074 -17.5706 -21.1529 30.8801
#
#
#
# Elastic Compliance Matrix: (Units=1/GPa)
#
#
# Indices 1 2 3 4 5 6 
#
# 1 0.015726 0.004443 -0.003360 0.010952 0.007567 -0.000881
# 2 0.004443 0.077316 -0.008529 0.051667 0.023954 -0.018446
# 3 -0.003360 -0.008529 0.013301 -0.006889 0.002061 -0.003517
# 4 0.010952 0.051667 -0.006889 0.077164 0.011160 0.003933
# 5 0.007567 0.023954 0.002061 0.011160 0.038146 0.004335
# 6 -0.000881 -0.018446 -0.003517 0.003933 0.004335 0.057344
#
#
# Mechanical properties :
#
#
# Convention : Reuss Voigt Hill
#
# Bulk Modulus (GPa) = 10.93461 58.96814 34.95137
# Shear Modulus (GPa) = 15.41443 35.36974 25.39209
#
# Velocity S-wave (km/s) = 2.41970 3.66533 3.10561
# Velocity P-wave (km/s) = 3.45831 6.34910 5.11229
#
# Compressibility (1/GPa) = 0.09145274
#
# Stress axis : x y z
#
# Youngs Moduli (GPa) = 63.58808 12.93387 75.18476
#
# Poissons Ratio (x) = -0.05747 0.25260
# Poissons Ratio (y) = -0.28253 0.64122
# Poissons Ratio (z) = 0.21364 0.11031
#
# Static dielectric constant tensor:
#      x y z
#    x 2.094080 0.056160 -0.003860 
#    y 0.056160 2.138250 0.119340 
#    z -0.003860 0.119340 2.117900 
# 
# From -- ./inp_files/151042.got.cif
#   From: 2010.05.17/outbox.cif.g08.bks.cpg/sg2_76_cif.got.tgz:151042.got - 2010.06.03 11:33:40.
