data_PCOD9099885
_publ_section_title
;
Structure prediction by ZEFSAII (Michael W. Deem and Ramdas Pophale) SiO2 
 PCOD9099885
Probable space group: P -1
;
_chemical_formula_sum "Si O2"
_cell_formula_units_Z 16
_cell_length_a 8.008930
_cell_length_b 13.957403
_cell_length_c 12.133906
_cell_angle_alpha 33.122151
_cell_angle_beta 78.832934
_cell_angle_gamma 68.516988
_cell_volume 672.405992
_symmetry_space_group_name_H-M "P -1"
_symmetry_group_IT_number 2
_symmetry_cell_setting 'triclinic'
loop_
_space_group_symop_operation_xyz
x,y,z
-x,-y,-z
loop_
_atom_site_type_symbol
_atom_site_label
_atom_site_fract_x
_atom_site_fract_y
_atom_site_fract_z
Si Si1 0.362319 0.590832 0.330197
Si Si2 0.718601 0.638730 0.618345
Si Si3 0.423243 0.160616 0.946797
Si Si4 0.125048 0.542950 0.572832
Si Si5 0.810002 0.326295 0.095370
Si Si6 0.829508 0.288454 0.372017
Si Si7 0.270600 0.049070 0.541645
Si Si8 0.749307 0.917078 0.733978
O O1 0.500000 0.500000 0.500000
O O2 0.390504 0.432201 0.387961
O O3 0.416226 0.762299 0.120040
O O4 0.165447 0.648424 0.360542
O O5 0.657051 0.850805 0.468403
O O6 0.914594 0.592171 0.578696
O O7 0.743568 0.498715 0.853570
O O8 0.246007 0.321907 0.757107
O O9 0.349259 0.117082 0.113298
O O10 0.500000 0.000000 0.000000
O O11 0.206834 0.593230 0.626631
O O12 0.772463 0.395499 0.160216
O O13 0.032699 0.221799 0.155543
O O14 0.722091 0.165939 0.242152
O O15 0.049794 0.173462 0.451049
O O16 0.747046 0.127947 0.538249
O O17 0.324635 0.095339 0.367704
#
# Coordination Sequence:
#
# PCOD9099885 Si02
#       8
#     2   2   2   2   2   2   2   2
#     4  10  24  43  56  80 119 159 201 245 300 354
#     4  11  20  37  65  89 119 153 198 254 295 353
#     4  11  22  37  58  82 115 162 204 239 288 362
#     4  10  20  37  62  85 112 158 205 243 291 344
#     4   9  17  32  57  99 122 146 195 245 299 345
#     4   8  16  30  59  90 123 148 187 251 290 351
#     4   8  18  31  56  94 127 150 184 251 300 345
#     4   9  16  33  56  87 126 157 194 234 295 356
#
# _framework density 23.795148000000001
#
# number of rings (size 3 to 8) (size 9 to 14) (size 15 to 20)
#    0.000    2.500    1.250    2.625    1.750    1.500 
#    4.500    1.250    0.000    1.500    0.000    0.000 
#    0.000    0.000    0.000    0.250    0.000    0.000 
#
# Total GULP energy -89477.234372 kJ/mol
# GULP energy per Si atom -5592.327148 kJ/mol
# Density = 2.374099 g / cm^3
# Si number density = 23.795148 Si / 1000 Ang^3
#
#
#
# Elastic Constant Matrix: (Units=GPa)
#
#
# Indices 1 2 3 4 5 6 
#
# 1 69.5148 48.4375 27.0794 3.5005 -21.1076 7.9933
# 2 48.4375 168.4453 28.3790 0.0726 -27.2468 11.3135
# 3 27.0794 28.3790 77.5548 27.2805 -31.4781 -7.2820
# 4 3.5005 0.0726 27.2805 39.2127 -9.5839 -3.8944
# 5 -21.1076 -27.2468 -31.4781 -9.5839 34.9972 2.5646
# 6 7.9933 11.3135 -7.2820 -3.8944 2.5646 52.6991
#
#
#
# Elastic Compliance Matrix: (Units=1/GPa)
#
#
# Indices 1 2 3 4 5 6 
#
# 1 0.021154 -0.004080 -0.004404 0.002472 0.006523 -0.003076
# 2 -0.004080 0.007886 -0.000669 0.001573 0.003597 -0.001225
# 3 -0.004404 -0.000669 0.026551 -0.013720 0.016753 0.002651
# 4 0.002472 0.001573 -0.013720 0.034797 -0.000093 -0.000032
# 5 0.006523 0.003597 0.016753 -0.000093 0.050492 -0.001911
# 6 -0.003076 -0.001225 0.002651 -0.000032 -0.001911 0.020162
#
#
# Mechanical properties :
#
#
# Convention : Reuss Voigt Hill
#
# Bulk Modulus (GPa) = 26.82055 58.14521 42.48288
# Shear Modulus (GPa) = 26.07182 39.48973 32.78077
#
# Velocity S-wave (km/s) = 3.31369 4.07820 3.71566
# Velocity P-wave (km/s) = 5.09280 6.83114 6.02499
#
# Compressibility (1/GPa) = 0.03728484
#
# Stress axis : x y z
#
# Youngs Moduli (GPa) = 47.27241 126.80302 37.66269
#
# Poissons Ratio (x) = 0.51740 0.16586
# Poissons Ratio (y) = 0.19289 0.02520
# Poissons Ratio (z) = 0.20818 0.08486
#
# Static dielectric constant tensor:
#      x y z
#    x 2.022100 -0.015830 -0.044510 
#    y -0.015830 1.890150 0.010300 
#    z -0.044510 0.010300 1.910000 
# 
# From -- ./inp_files/388786.got.cif
#   From: 2010.05.17/outbox.cif.g08.bks.cpg/sg2_195_cif.got.tgz:388786.got - 2010.06.03 11:33:40.
