data_PCOD9099001
_publ_section_title
;
Structure prediction by ZEFSAII (Michael W. Deem and Ramdas Pophale) SiO2 
 PCOD9099001
Probable space group: P -1
;
_chemical_formula_sum "Si O2"
_cell_formula_units_Z 16
_cell_length_a 7.312600
_cell_length_b 13.521131
_cell_length_c 11.897822
_cell_angle_alpha 74.548149
_cell_angle_beta 65.753169
_cell_angle_gamma 38.177699
_cell_volume 659.659243
_symmetry_space_group_name_H-M "P -1"
_symmetry_group_IT_number 2
_symmetry_cell_setting 'triclinic'
loop_
_space_group_symop_operation_xyz
x,y,z
-x,-y,-z
loop_
_atom_site_type_symbol
_atom_site_label
_atom_site_fract_x
_atom_site_fract_y
_atom_site_fract_z
Si Si1 0.779485 0.684807 0.341748
Si Si2 0.366086 0.479595 0.640031
Si Si3 0.864311 0.148369 0.574337
Si Si4 0.460769 0.134501 0.442316
Si Si5 0.659613 0.881588 0.134749
Si Si6 0.657543 0.104599 0.975676
Si Si7 0.062474 0.788332 0.715082
Si Si8 0.675139 0.160136 0.190567
O O1 0.834347 0.542619 0.344056
O O2 0.401937 0.832146 0.372731
O O3 0.866991 0.743191 0.219398
O O4 0.793503 0.711656 0.460335
O O5 0.500000 0.500000 0.500000
O O6 0.693525 0.298212 0.652329
O O7 0.184693 0.623494 0.727022
O O8 0.903261 0.185471 0.431027
O O9 0.179772 0.975928 0.590336
O O10 0.500000 0.000000 0.500000
O O11 0.441215 0.172374 0.307014
O O12 0.773163 0.946065 0.039756
O O13 0.614818 0.815895 0.066601
O O14 0.298973 0.053373 0.207371
O O15 0.568808 0.208452 0.073308
O O16 0.966995 0.022895 0.858864
O O17 0.284908 0.758998 0.759751
#
# Coordination Sequence:
#
# PCOD9099001 Si02
#       8
#     2   2   2   2   2   2   2   2
#     4  10  18  31  54  79 102 126 168 206 251 305
#     4   8  17  29  50  74 104 136 163 189 248 322
#     4   9  17  29  47  73 105 131 158 192 248 312
#     4  12  20  28  50  85 107 121 160 215 261 291
#     4  10  18  31  55  76  98 130 173 215 242 289
#     4   9  20  33  47  76 100 133 172 213 247 281
#     4  10  16  31  54  72 101 135 165 198 249 303
#     4  10  19  32  50  72 104 134 164 207 253 299
#
# _framework density 24.254944999999999
#
# number of rings (size 3 to 8) (size 9 to 14) (size 15 to 20)
#    0.750    1.500    2.500    2.625    0.000    0.000 
#    0.000    0.000    2.750    9.750    0.000    0.000 
#    0.000    0.000    0.000    0.000    0.000    0.000 
#
# Total GULP energy -89067.931876 kJ/mol
# GULP energy per Si atom -5566.745742 kJ/mol
# Density = 2.419974 g / cm^3
# Si number density = 24.254945 Si / 1000 Ang^3
#
#
#
# Elastic Constant Matrix: (Units=GPa)
#
#
# Indices 1 2 3 4 5 6 
#
# 1 56.9330 12.1443 22.9315 9.3114 15.6440 17.0204
# 2 12.1443 103.1460 38.2319 15.9312 13.5013 27.3208
# 3 22.9315 38.2319 127.1837 3.9900 19.2783 24.0233
# 4 9.3114 15.9312 3.9900 25.3419 14.6564 9.2263
# 5 15.6440 13.5013 19.2783 14.6564 34.0930 -0.2663
# 6 17.0204 27.3208 24.0233 9.2263 -0.2663 30.5150
#
#
#
# Elastic Compliance Matrix: (Units=1/GPa)
#
#
# Indices 1 2 3 4 5 6 
#
# 1 0.025953 0.003257 0.000044 0.003952 -0.015069 -0.018753
# 2 0.003257 0.014335 -0.001584 -0.002143 -0.005455 -0.012804
# 3 0.000044 -0.001584 0.011459 0.008460 -0.009590 -0.010269
# 4 0.003952 -0.002143 0.008460 0.068793 -0.035542 -0.028056
# 5 -0.015069 -0.005455 -0.009590 -0.035542 0.059359 0.032102
# 6 -0.018753 -0.012804 -0.010269 -0.028056 0.032102 0.071542
#
#
# Mechanical properties :
#
#
# Convention : Reuss Voigt Hill
#
# Bulk Modulus (GPa) = 18.12227 48.20868 33.16548
# Shear Modulus (GPa) = 18.76886 32.25365 25.51126
#
# Velocity S-wave (km/s) = 2.78477 3.65057 3.24666
# Velocity P-wave (km/s) = 4.22229 6.13904 5.26856
#
# Compressibility (1/GPa) = 0.05518072
#
# Stress axis : x y z
#
# Youngs Moduli (GPa) = 38.53192 69.75926 87.26990
#
# Poissons Ratio (x) = -0.22723 -0.00382
# Poissons Ratio (y) = -0.12551 0.13823
# Poissons Ratio (z) = -0.00169 0.11049
#
# Static dielectric constant tensor:
#      x y z
#    x 2.171340 0.108420 -0.029910 
#    y 0.108420 1.978270 -0.069890 
#    z -0.029910 -0.069890 2.151160 
# 
# From -- ./inp_files/316459.got.cif
#   From: 2010.05.17/outbox.cif.g08.bks.cpg/sg2_159_cif.got.tgz:316459.got - 2010.06.03 11:33:40.
