data_PCOD9099693
_publ_section_title
;
Structure prediction by ZEFSAII (Michael W. Deem and Ramdas Pophale) SiO2 
 PCOD9099693
Probable space group: P -1
;
_chemical_formula_sum "Si O2"
_cell_formula_units_Z 12
_cell_length_a 7.177585
_cell_length_b 14.688713
_cell_length_c 10.788254
_cell_angle_alpha 38.836033
_cell_angle_beta 61.769775
_cell_angle_gamma 43.350161
_cell_volume 477.952335
_symmetry_space_group_name_H-M "P -1"
_symmetry_group_IT_number 2
_symmetry_cell_setting 'triclinic'
loop_
_space_group_symop_operation_xyz
x,y,z
-x,-y,-z
loop_
_atom_site_type_symbol
_atom_site_label
_atom_site_fract_x
_atom_site_fract_y
_atom_site_fract_z
Si Si1 0.612073 0.205063 0.727171
Si Si2 0.778440 0.506086 0.640032
Si Si3 0.211666 0.178423 0.009758
Si Si4 0.208670 0.238332 0.214260
Si Si5 0.467220 0.344446 0.180443
Si Si6 0.165857 0.046783 0.638613
O O1 0.464445 0.395079 0.489634
O O2 0.636793 0.042993 0.812991
O O3 0.415585 0.227896 0.871990
O O4 0.928448 0.115940 0.738667
O O5 0.653060 0.635160 0.666771
O O6 0.000000 0.500000 0.500000
O O7 0.966869 0.293005 0.862290
O O8 0.091684 0.256588 0.099257
O O9 0.267328 0.372542 0.104590
O O10 0.535066 0.037593 0.313941
O O11 0.069786 0.211017 0.397520
O O12 0.747749 0.130716 0.284989
O O13 0.500000 0.500000 0.000000
#
# Coordination Sequence:
#
# PCOD9099693 Si02
#       6
#     2   2   2   2   2   2
#     4  10  21  38  65  89 124 166 201 250 305 371
#     4  10  22  38  58  88 122 159 204 248 300 365
#     4  10  21  39  62  92 123 162 206 251 305 364
#     4   9  21  39  60  92 124 157 207 255 306 363
#     4  10  20  37  61  89 119 161 204 252 306 363
#     4   9  20  39  60  94 119 162 203 251 311 360
#
# _framework density 25.107102999999999
#
# number of rings (size 3 to 8) (size 9 to 14) (size 15 to 20)
#    1.000    1.333    0.000    2.000    0.000    5.333 
#    0.000    1.667    0.000    4.000    0.000    0.000 
#    0.000    0.000    0.000    0.000    0.000    0.000 
#
# Total GULP energy -66927.361067 kJ/mol
# GULP energy per Si atom -5577.280089 kJ/mol
# Density = 2.504996 g / cm^3
# Si number density = 25.107103 Si / 1000 Ang^3
#
#
#
# Elastic Constant Matrix: (Units=GPa)
#
#
# Indices 1 2 3 4 5 6 
#
# 1 57.8456 7.8485 32.6059 10.5443 -10.6743 -11.6191
# 2 7.8485 49.4217 9.9065 -1.2021 1.3146 -19.4674
# 3 32.6059 9.9065 93.9165 0.6126 -4.5455 10.3586
# 4 10.5443 -1.2021 0.6126 29.1993 5.9663 -10.2458
# 5 -10.6743 1.3146 -4.5455 5.9663 30.1386 1.6903
# 6 -11.6191 -19.4674 10.3586 -10.2458 1.6903 48.7501
#
#
#
# Elastic Compliance Matrix: (Units=1/GPa)
#
#
# Indices 1 2 3 4 5 6 
#
# 1 0.027615 -0.000585 -0.009644 -0.009715 0.009938 0.006011
# 2 -0.000585 0.026548 -0.004265 0.006763 -0.004073 0.012931
# 3 -0.009644 -0.004265 0.015189 0.000644 -0.000670 -0.007070
# 4 -0.009715 0.006763 0.000644 0.044167 -0.012942 0.009979
# 5 0.009938 -0.004073 -0.000670 -0.012942 0.039518 -0.003206
# 6 0.006011 0.012931 -0.007070 0.009979 -0.003206 0.030820
#
#
# Mechanical properties :
#
#
# Convention : Reuss Voigt Hill
#
# Bulk Modulus (GPa) = 24.77447 33.54506 29.15977
# Shear Modulus (GPa) = 22.09454 31.67246 26.88350
#
# Velocity S-wave (km/s) = 2.96972 3.55561 3.27579
# Velocity P-wave (km/s) = 4.65273 5.49966 5.09383
#
# Compressibility (1/GPa) = 0.04036413
#
# Stress axis : x y z
#
# Youngs Moduli (GPa) = 36.21195 37.66750 65.83666
#
# Poissons Ratio (x) = 0.02204 0.63495
# Poissons Ratio (y) = 0.02119 0.28077
# Poissons Ratio (z) = 0.34924 0.16064
#
# Static dielectric constant tensor:
#      x y z
#    x 1.992270 -0.130570 0.070830 
#    y -0.130570 2.055280 -0.083710 
#    z 0.070830 -0.083710 2.069890 
# 
# From -- ./inp_files/402598.got.cif
#   From: 2010.05.17/outbox.cif.g08.bks.cpg/sg2_202_cif.got.tgz:402598.got - 2010.06.03 11:33:40.
