data_PCOD9099026
_publ_section_title
;
Structure prediction by ZEFSAII (Michael W. Deem and Ramdas Pophale) SiO2 
 PCOD9099026
Probable space group: P -1
;
_chemical_formula_sum "Si O2"
_cell_formula_units_Z 14
_cell_length_a 8.562092
_cell_length_b 12.158441
_cell_length_c 5.075800
_cell_angle_alpha 65.978207
_cell_angle_beta 91.115352
_cell_angle_gamma 94.782442
_cell_volume 480.893923
_symmetry_space_group_name_H-M "P -1"
_symmetry_group_IT_number 2
_symmetry_cell_setting 'triclinic'
loop_
_space_group_symop_operation_xyz
x,y,z
-x,-y,-z
loop_
_atom_site_type_symbol
_atom_site_label
_atom_site_fract_x
_atom_site_fract_y
_atom_site_fract_z
Si Si1 0.679266 0.661344 0.371568
Si Si2 0.090476 0.146182 0.567963
Si Si3 0.405138 0.659767 0.674177
Si Si4 0.771674 0.281294 0.897758
Si Si5 0.200250 0.002937 0.211313
Si Si6 0.058831 0.429799 0.821468
Si Si7 0.495232 0.140724 0.162287
O O1 0.822481 0.723627 0.491178
O O2 0.548185 0.593995 0.620485
O O3 0.761400 0.588813 0.216063
O O4 0.590116 0.764119 0.117818
O O5 0.139347 0.093260 0.343632
O O6 0.154875 0.058753 0.878362
O O7 0.902186 0.123385 0.619541
O O8 0.279306 0.673375 0.429849
O O9 0.496850 0.790625 0.625958
O O10 0.954573 0.300552 0.939994
O O11 0.688859 0.362170 0.036523
O O12 0.676142 0.151118 0.065090
O O13 0.386520 0.018368 0.253056
O O14 0.000000 0.500000 0.500000
O O15 0.000000 0.500000 0.000000
#
# Coordination Sequence:
#
# PCOD9099026 Si02
#       7
#     2   2   2   2   2   2   2
#     4  10  20  37  59  81 109 144 184 224 273 312
#     4   9  16  26  46  78 113 136 166 217 264 306
#     4   9  17  34  59  81 101 143 180 212 263 326
#     4   9  19  38  56  77 108 141 176 216 280 324
#     4   9  15  25  46  83 111 133 170 212 258 310
#     4  12  28  42  57  79 109 142 184 231 277 326
#     4   8  17  32  59  80 109 137 179 210 265 315
#
# _framework density 29.112449999999999
#
# number of rings (size 3 to 8) (size 9 to 14) (size 15 to 20)
#    0.857    1.714    1.429    0.857    2.000    0.000 
#    0.000   10.000    0.000    0.857    0.000    1.000 
#    0.000    0.571    0.000    0.000    0.000    0.000 
#
# Total GULP energy -78419.346753 kJ/mol
# GULP energy per Si atom -5601.381911 kJ/mol
# Density = 2.904619 g / cm^3
# Si number density = 29.112450 Si / 1000 Ang^3
#
#
#
# Elastic Constant Matrix: (Units=GPa)
#
#
# Indices 1 2 3 4 5 6 
#
# 1 139.6182 48.3726 37.3845 -1.9519 -15.3518 11.6695
# 2 48.3726 117.0203 27.1107 17.2169 -0.0399 28.7160
# 3 37.3845 27.1107 143.5986 40.5702 -3.7738 -24.2611
# 4 -1.9519 17.2169 40.5702 50.0121 3.7958 -8.7852
# 5 -15.3518 -0.0399 -3.7738 3.7958 21.8988 -3.3406
# 6 11.6695 28.7160 -24.2611 -8.7852 -3.3406 65.7220
#
#
#
# Elastic Compliance Matrix: (Units=1/GPa)
#
#
# Indices 1 2 3 4 5 6 
#
# 1 0.009970 -0.003921 -0.002728 0.003453 0.005867 -0.000305
# 2 -0.003921 0.012545 -0.001226 -0.004290 -0.003104 -0.005969
# 3 -0.002728 -0.001226 0.010893 -0.007954 0.001963 0.004078
# 4 0.003453 -0.004290 -0.007954 0.028681 -0.003628 0.001975
# 5 0.005867 -0.003104 0.001963 -0.003628 0.051221 0.003158
# 6 -0.000305 -0.005969 0.004078 0.001975 0.003158 0.019807
#
#
# Mechanical properties :
#
#
# Convention : Reuss Voigt Hill
#
# Bulk Modulus (GPa) = 56.62732 69.55252 63.08992
# Shear Modulus (GPa) = 32.30945 46.68454 39.49699
#
# Velocity S-wave (km/s) = 3.33500 4.00883 3.68734
# Velocity P-wave (km/s) = 5.85859 6.73576 6.31243
#
# Compressibility (1/GPa) = 0.01765932
#
# Stress axis : x y z
#
# Youngs Moduli (GPa) = 100.29963 79.71293 91.79985
#
# Poissons Ratio (x) = 0.31252 0.25046
# Poissons Ratio (y) = 0.39323 0.11251
# Poissons Ratio (z) = 0.27365 0.09770
#
# Static dielectric constant tensor:
#      x y z
#    x 2.261020 0.075190 -0.094780 
#    y 0.075190 2.397600 -0.015310 
#    z -0.094780 -0.015310 2.267150 
# 
# From -- ./inp_files/73543.got.cif
#   From: 2010.05.17/outbox.cif.g08.bks.cpg/sg2_37_cif.got.tgz:73543.got - 2010.06.03 11:33:40.
