data_PCOD9100789
_publ_section_title
;
Structure prediction by ZEFSAII (Michael W. Deem and Ramdas Pophale) SiO2 
 PCOD9100789
Probable space group: P -1
;
_chemical_formula_sum "Si O2"
_cell_formula_units_Z 12
_cell_length_a 12.097352
_cell_length_b 11.487943
_cell_length_c 5.016645
_cell_angle_alpha 60.425536
_cell_angle_beta 51.842363
_cell_angle_gamma 56.353989
_cell_volume 444.018553
_symmetry_space_group_name_H-M "P -1"
_symmetry_group_IT_number 2
_symmetry_cell_setting 'triclinic'
loop_
_space_group_symop_operation_xyz
x,y,z
-x,-y,-z
loop_
_atom_site_type_symbol
_atom_site_label
_atom_site_fract_x
_atom_site_fract_y
_atom_site_fract_z
Si Si1 0.940037 0.329002 0.020663
Si Si2 0.143718 0.930279 0.675387
Si Si3 0.460434 0.105264 0.185162
Si Si4 0.403114 0.733029 0.881778
Si Si5 0.632504 0.512728 0.477052
Si Si6 0.134753 0.236025 0.313335
O O1 0.887420 0.192307 0.309687
O O2 0.789137 0.467272 0.138165
O O3 0.994164 0.696535 0.346255
O O4 0.070422 0.323075 0.041572
O O5 0.282263 0.849224 0.752935
O O6 0.160661 0.071255 0.369361
O O7 0.000000 0.000000 0.000000
O O8 0.563184 0.198599 0.977485
O O9 0.289852 0.211687 0.265254
O O10 0.500000 0.000000 0.500000
O O11 0.500000 0.000000 0.000000
O O12 0.559708 0.664369 0.562967
O O13 0.347010 0.605323 0.187427
O O14 0.500000 0.500000 0.500000
#
# Coordination Sequence:
#
# PCOD9100789 Si02
#       6
#     2   2   2   2   2   2
#     4  11  23  42  66  98 137 180 229 283 341 402
#     4  10  20  37  65  99 136 168 217 285 348 396
#     4  12  27  46  71 101 146 182 225 280 347 428
#     4  11  25  44  68 105 137 182 236 281 347 409
#     4  11  24  43  71  98 138 183 237 290 332 404
#     4  11  24  42  66 100 140 177 225 279 350 411
#
# _framework density 27.0259
#
# number of rings (size 3 to 8) (size 9 to 14) (size 15 to 20)
#    0.000    1.000    3.333    3.500    9.333    0.000 
#    0.000    1.667    0.000    0.000    0.000    0.000 
#    0.000    0.000    0.000    0.000    0.000    0.000 
#
# Total GULP energy -67299.876438 kJ/mol
# GULP energy per Si atom -5608.323037 kJ/mol
# Density = 2.696439 g / cm^3
# Si number density = 27.025900 Si / 1000 Ang^3
#
#
#
# Elastic Constant Matrix: (Units=GPa)
#
#
# Indices 1 2 3 4 5 6 
#
# 1 180.2869 51.9378 19.3044 19.5845 13.3267 -13.0555
# 2 51.9378 145.9644 34.5722 32.4797 3.0256 -22.6230
# 3 19.3044 34.5722 81.6377 32.8699 15.0201 -10.2713
# 4 19.5845 32.4797 32.8699 54.1251 -2.1136 -8.4219
# 5 13.3267 3.0256 15.0201 -2.1136 44.1330 10.3493
# 6 -13.0555 -22.6230 -10.2713 -8.4219 10.3493 47.7416
#
#
#
# Elastic Compliance Matrix: (Units=1/GPa)
#
#
# Indices 1 2 3 4 5 6 
#
# 1 0.006443 -0.001843 0.000381 -0.001355 -0.002303 0.001231
# 2 -0.001843 0.009105 -0.001627 -0.003365 -0.000366 0.002946
# 3 0.000381 -0.001627 0.018857 -0.010412 -0.007674 0.003217
# 4 -0.001355 -0.003365 -0.010412 0.027437 0.005635 -0.000587
# 5 -0.002303 -0.000366 -0.007674 0.005635 0.028028 -0.007536
# 6 0.001231 0.002946 0.003217 -0.000587 -0.007536 0.024901
#
#
# Mechanical properties :
#
#
# Convention : Reuss Voigt Hill
#
# Bulk Modulus (GPa) = 35.42673 68.83532 52.13102
# Shear Modulus (GPa) = 38.35532 49.33826 43.84679
#
# Velocity S-wave (km/s) = 3.77132 4.27733 4.03227
# Velocity P-wave (km/s) = 5.66575 7.06537 6.40391
#
# Compressibility (1/GPa) = 0.02822728
#
# Stress axis : x y z
#
# Youngs Moduli (GPa) = 155.19806 109.82880 53.02953
#
# Poissons Ratio (x) = 0.20240 -0.02020
# Poissons Ratio (y) = 0.28601 0.08630
# Poissons Ratio (z) = -0.05913 0.17874
#
# Static dielectric constant tensor:
#      x y z
#    x 1.737510 0.285950 0.107020 
#    y 0.285950 1.967050 -0.221180 
#    z 0.107020 -0.221180 2.045430 
# 
# From -- ./inp_files/60287.got.cif
#   From: 2010.05.17/outbox.cif.g08.bks.cpg/sg2_31_cif.got.tgz:60287.got - 2010.06.03 11:33:40.
