data_PCOD9100888
_publ_section_title
;
Structure prediction by ZEFSAII (Michael W. Deem and Ramdas Pophale) SiO2 
 PCOD9100888
Probable space group: P -1
;
_chemical_formula_sum "Si O2"
_cell_formula_units_Z 16
_cell_length_a 10.057158
_cell_length_b 18.498310
_cell_length_c 10.547710
_cell_angle_alpha 38.120307
_cell_angle_beta 50.287272
_cell_angle_gamma 33.539161
_cell_volume 668.470986
_symmetry_space_group_name_H-M "P -1"
_symmetry_group_IT_number 2
_symmetry_cell_setting 'triclinic'
loop_
_space_group_symop_operation_xyz
x,y,z
-x,-y,-z
loop_
_atom_site_type_symbol
_atom_site_label
_atom_site_fract_x
_atom_site_fract_y
_atom_site_fract_z
Si Si1 0.672523 0.144405 0.535371
Si Si2 0.465458 0.707190 0.022796
Si Si3 0.173311 0.151631 0.043365
Si Si4 0.320245 0.594246 0.859653
Si Si5 0.877017 0.666986 0.413456
Si Si6 0.525163 0.894159 0.861725
Si Si7 0.015297 0.796966 0.311160
Si Si8 0.220175 0.012680 0.565696
O O1 0.653135 0.289348 0.375412
O O2 0.401651 0.233946 0.533976
O O3 0.760972 0.015753 0.767921
O O4 0.831663 0.032298 0.470538
O O5 0.604709 0.726229 0.008379
O O6 0.367976 0.846149 0.785676
O O7 0.618716 0.536501 0.094564
O O8 0.242866 0.749609 0.171541
O O9 0.389661 0.111010 0.043703
O O10 0.945627 0.284437 0.088747
O O11 0.112550 0.236229 0.831223
O O12 0.500000 0.500000 0.000000
O O13 0.999432 0.666615 0.463110
O O14 0.000000 0.500000 0.500000
O O15 0.636161 0.939488 0.635842
O O16 0.237589 0.034572 0.824280
O O17 0.987779 0.842258 0.413798
#
# Coordination Sequence:
#
# PCOD9100888 Si02
#       8
#     2   2   2   2   2   2   2   2
#     4  11  23  43  65 100 133 178 222 271 332 395
#     4  11  22  38  65 100 135 172 221 272 327 390
#     4  11  25  44  66  97 135 177 220 276 332 400
#     4  12  24  43  67  97 137 175 222 276 333 392
#     4  12  25  41  69 101 135 174 220 276 338 394
#     4  10  22  40  66  96 131 176 218 269 333 390
#     4  11  21  39  66 101 131 171 221 272 325 391
#     4  10  20  37  66  96 130 173 222 269 317 397
#
# _framework density 23.935220999999999
#
# number of rings (size 3 to 8) (size 9 to 14) (size 15 to 20)
#    0.000    1.000    3.750    6.000    0.000    0.500 
#    0.000    3.750    0.000    4.500    0.000    0.000 
#    0.000    0.000    0.000    0.000    0.000    0.000 
#
# Total GULP energy -89533.793339 kJ/mol
# GULP energy per Si atom -5595.862084 kJ/mol
# Density = 2.388074 g / cm^3
# Si number density = 23.935221 Si / 1000 Ang^3
#
#
#
# Elastic Constant Matrix: (Units=GPa)
#
#
# Indices 1 2 3 4 5 6 
#
# 1 68.3885 30.5719 39.2998 -12.6204 -26.9534 22.2370
# 2 30.5719 138.9052 62.4545 -3.7333 -24.2685 25.2056
# 3 39.2998 62.4545 113.4136 -10.1065 -22.7171 23.3621
# 4 -12.6204 -3.7333 -10.1065 46.7717 6.1889 -15.1930
# 5 -26.9534 -24.2685 -22.7171 6.1889 42.7750 -8.2131
# 6 22.2370 25.2056 23.3621 -15.1930 -8.2131 46.1652
#
#
#
# Elastic Compliance Matrix: (Units=1/GPa)
#
#
# Indices 1 2 3 4 5 6 
#
# 1 0.024234 -0.000044 -0.004567 0.001877 0.011259 -0.006717
# 2 -0.000044 0.010335 -0.004530 -0.001649 0.003029 -0.003333
# 3 -0.004567 -0.004530 0.013579 0.000589 0.001339 -0.001766
# 4 0.001877 -0.001649 0.000589 0.024521 -0.001549 0.007493
# 5 0.011259 0.003029 0.001339 -0.001549 0.032655 -0.002455
# 6 -0.006717 -0.003333 -0.001766 0.007493 -0.002455 0.029640
#
#
# Mechanical properties :
#
#
# Convention : Reuss Voigt Hill
#
# Bulk Modulus (GPa) = 33.48216 65.04000 49.26108
# Shear Modulus (GPa) = 30.63674 39.70112 35.16893
#
# Velocity S-wave (km/s) = 3.58157 4.07712 3.83735
# Velocity P-wave (km/s) = 5.57876 7.02824 6.34503
#
# Compressibility (1/GPa) = 0.02986665
#
# Stress axis : x y z
#
# Youngs Moduli (GPa) = 41.26352 96.75628 73.64284
#
# Poissons Ratio (x) = 0.00424 0.33636
# Poissons Ratio (y) = 0.00181 0.33359
# Poissons Ratio (z) = 0.18847 0.43829
#
# Static dielectric constant tensor:
#      x y z
#    x 2.031650 -0.009230 -0.004620 
#    y -0.009230 1.964070 0.015480 
#    z -0.004620 0.015480 1.915120 
# 
# From -- ./inp_files/438572.got.cif
#   From: 2010.05.17/outbox.cif.g08.bks.cpg/sg2_220_cif.got.tgz:438572.got - 2010.06.03 11:33:40.
