data_PCOD9100820
_publ_section_title
;
Structure prediction by ZEFSAII (Michael W. Deem and Ramdas Pophale) SiO2 
 PCOD9100820
Probable space group: P -1
;
_chemical_formula_sum "Si O2"
_cell_formula_units_Z 16
_cell_length_a 12.204007
_cell_length_b 24.272405
_cell_length_c 4.997078
_cell_angle_alpha 96.483890
_cell_angle_beta 92.955076
_cell_angle_gamma 152.300138
_cell_volume 645.827943
_symmetry_space_group_name_H-M "P -1"
_symmetry_group_IT_number 2
_symmetry_cell_setting 'triclinic'
loop_
_space_group_symop_operation_xyz
x,y,z
-x,-y,-z
loop_
_atom_site_type_symbol
_atom_site_label
_atom_site_fract_x
_atom_site_fract_y
_atom_site_fract_z
Si Si1 0.815677 0.169167 0.406633
Si Si2 0.753663 0.297287 0.762170
Si Si3 0.720591 0.478262 0.241567
Si Si4 0.674419 0.331191 0.241949
Si Si5 0.258086 0.320943 0.280889
Si Si6 0.121778 0.084056 0.812798
Si Si7 0.234331 0.250579 0.742882
Si Si8 0.444800 0.901814 0.162549
O O1 0.166231 0.271218 0.938834
O O2 0.097563 0.293388 0.400333
O O3 0.694054 0.052141 0.289530
O O4 0.663097 0.140328 0.171673
O O5 0.660860 0.292188 0.498256
O O6 0.558706 0.163193 0.775113
O O7 0.840122 0.374226 0.066586
O O8 0.004468 0.380641 0.733820
O O9 0.558458 0.450999 0.365416
O O10 0.530068 0.380605 0.916462
O O11 0.741962 0.426331 0.344272
O O12 0.413697 0.211386 0.983130
O O13 0.744403 0.154287 0.686363
O O14 0.204842 0.243493 0.421657
O O15 0.085927 0.132582 0.781545
O O16 0.000000 0.000000 0.500000
O O17 0.000000 0.000000 0.000000
#
# Coordination Sequence:
#
# PCOD9100820 Si02
#       8
#     2   2   2   2   2   2   2   2
#     4  10  21  43  66  87 121 159 201 262 329 378
#     4  12  24  41  64  92 126 166 218 254 298 374
#     4   9  24  39  64  89 131 166 210 254 302 366
#     4  11  25  39  61  92 129 172 210 242 317 359
#     4  10  20  37  66  88 117 162 208 249 315 378
#     4  11  22  37  56  82 126 162 198 257 299 350
#     4   9  21  35  57  85 121 155 206 242 311 362
#     4  10  23  41  64  91 121 158 207 263 314 369
#
# _framework density 24.774398999999999
#
# number of rings (size 3 to 8) (size 9 to 14) (size 15 to 20)
#    0.750    1.000    0.000    3.750    5.250    3.000 
#    0.000    1.250    0.000    0.000    0.000    0.000 
#    0.000    0.000    0.000    0.000    0.000    0.000 
#
# Total GULP energy -89265.528043 kJ/mol
# GULP energy per Si atom -5579.095503 kJ/mol
# Density = 2.471801 g / cm^3
# Si number density = 24.774399 Si / 1000 Ang^3
#
#
#
# Elastic Constant Matrix: (Units=GPa)
#
#
# Indices 1 2 3 4 5 6 
#
# 1 49.1200 30.2101 3.1566 7.8972 1.0480 11.4570
# 2 30.2101 107.6346 26.4805 -4.9000 1.1631 -8.6406
# 3 3.1566 26.4805 107.7564 -7.7108 -14.2873 -10.2161
# 4 7.8972 -4.9000 -7.7108 21.3598 2.9437 -1.0972
# 5 1.0480 1.1631 -14.2873 2.9437 28.8564 -9.5911
# 6 11.4570 -8.6406 -10.2161 -1.0972 -9.5911 40.3374
#
#
#
# Elastic Compliance Matrix: (Units=1/GPa)
#
#
# Indices 1 2 3 4 5 6 
#
# 1 0.032474 -0.010501 -0.001256 -0.014963 -0.004241 -0.013206
# 2 -0.010501 0.013474 -0.002008 0.006531 0.000020 0.005543
# 3 -0.001256 -0.002008 0.011406 0.003399 0.006942 0.004559
# 4 -0.014963 0.006531 0.003399 0.055629 -0.001135 0.007753
# 5 -0.004241 0.000020 0.006942 -0.001135 0.042712 0.013092
# 6 -0.013206 0.005543 0.004559 0.007753 0.013092 0.034207
#
#
# Mechanical properties :
#
#
# Convention : Reuss Voigt Hill
#
# Bulk Modulus (GPa) = 33.52960 42.68950 38.10955
# Shear Modulus (GPa) = 21.99021 31.75497 26.87259
#
# Velocity S-wave (km/s) = 2.98252 3.58406 3.29704
# Velocity P-wave (km/s) = 5.04222 5.86481 5.46900
#
# Compressibility (1/GPa) = 0.02982439
#
# Stress axis : x y z
#
# Youngs Moduli (GPa) = 30.79403 74.21637 87.67065
#
# Poissons Ratio (x) = 0.77935 0.11009
# Poissons Ratio (y) = 0.32337 0.17605
# Poissons Ratio (z) = 0.03867 0.14903
#
# Static dielectric constant tensor:
#      x y z
#    x 2.264090 0.378820 -0.000430 
#    y 0.378820 2.531660 -0.025300 
#    z -0.000430 -0.025300 1.909380 
# 
# From -- ./inp_files/84335.got.cif
#   From: 2010.05.17/outbox.cif.g08.bks.cpg/sg2_43_cif.got.tgz:84335.got - 2010.06.03 11:33:40.
