data_PCOD9100566
_publ_section_title
;
Structure prediction by ZEFSAII (Michael W. Deem and Ramdas Pophale) SiO2 
 PCOD9100566
Probable space group: P -1
;
_chemical_formula_sum "Si O2"
_cell_formula_units_Z 16
_cell_length_a 5.073242
_cell_length_b 21.668614
_cell_length_c 9.277765
_cell_angle_alpha 43.390527
_cell_angle_beta 103.018364
_cell_angle_gamma 96.454287
_cell_volume 680.627136
_symmetry_space_group_name_H-M "P -1"
_symmetry_group_IT_number 2
_symmetry_cell_setting 'triclinic'
loop_
_space_group_symop_operation_xyz
x,y,z
-x,-y,-z
loop_
_atom_site_type_symbol
_atom_site_label
_atom_site_fract_x
_atom_site_fract_y
_atom_site_fract_z
Si Si1 0.816024 0.914660 0.289792
Si Si2 0.003406 0.777292 0.066561
Si Si3 0.732732 0.547161 0.809649
Si Si4 0.848687 0.474796 0.666761
Si Si5 0.753595 0.938078 0.575747
Si Si6 0.354031 0.381076 0.047416
Si Si7 0.253814 0.878441 0.180338
Si Si8 0.490878 0.685090 0.105511
O O1 0.751701 0.903684 0.469028
O O2 0.576131 0.869382 0.253470
O O3 0.798823 0.022020 0.068653
O O4 0.174148 0.141002 0.169059
O O5 0.784916 0.703454 0.169825
O O6 0.126145 0.807806 0.179765
O O7 0.256972 0.748410 0.043818
O O8 0.797519 0.556171 0.635582
O O9 0.507748 0.473757 0.901517
O O10 0.653296 0.631903 0.759305
O O11 0.000000 0.500000 0.000000
O O12 0.595002 0.415965 0.706349
O O13 0.000000 0.500000 0.500000
O O14 0.059105 0.404987 0.901142
O O15 0.898582 0.120676 0.685603
O O16 0.500000 0.000000 0.500000
O O17 0.000000 0.000000 0.500000
O O18 0.496977 0.309260 0.077735
#
# Coordination Sequence:
#
# PCOD9100566 Si02
#       8
#     2   2   2   2   2   2   2   2
#     4  10  21  38  61  94 121 156 211 264 309 364
#     4  12  24  41  64  93 130 173 209 260 325 388
#     4   8  16  30  59  90 119 152 203 261 298 361
#     4  10  20  37  64  95 124 158 213 270 310 363
#     4  12  24  40  65 100 127 156 218 274 309 362
#     4   9  17  36  59  90 119 158 206 256 303 374
#     4  10  21  37  64  88 123 165 205 253 315 378
#     4  11  23  39  61  93 125 169 208 253 327 394
#
# _framework density 23.507731
#
# number of rings (size 3 to 8) (size 9 to 14) (size 15 to 20)
#    0.000    1.750    2.500    2.250    3.500    2.000 
#    0.000    0.000    2.750   13.500    0.000    0.000 
#    0.000    0.000    0.000    0.000    0.000    0.000 
#
# Total GULP energy -89379.592864 kJ/mol
# GULP energy per Si atom -5586.224554 kJ/mol
# Density = 2.345423 g / cm^3
# Si number density = 23.507731 Si / 1000 Ang^3
#
#
#
# Elastic Constant Matrix: (Units=GPa)
#
#
# Indices 1 2 3 4 5 6 
#
# 1 136.6331 58.4571 7.4373 9.7893 -17.2288 8.0727
# 2 58.4571 150.4395 31.5650 36.2546 -13.7459 3.9405
# 3 7.4373 31.5650 58.6709 16.3192 -14.0437 -0.8946
# 4 9.7893 36.2546 16.3192 35.1767 -7.5055 -5.9383
# 5 -17.2288 -13.7459 -14.0437 -7.5055 25.7855 3.7545
# 6 8.0727 3.9405 -0.8946 -5.9383 3.7545 60.8066
#
#
#
# Elastic Compliance Matrix: (Units=1/GPa)
#
#
# Indices 1 2 3 4 5 6 
#
# 1 0.009611 -0.003929 0.001869 0.001580 0.005981 -0.001209
# 2 -0.003929 0.010973 -0.003107 -0.009164 -0.000980 -0.001070
# 3 0.001869 -0.003107 0.022529 -0.005719 0.010331 -0.000912
# 4 0.001580 -0.009164 -0.005719 0.041762 0.004616 0.004093
# 5 0.005981 -0.000980 0.010331 0.004616 0.049691 -0.003196
# 6 -0.001209 -0.001070 -0.000912 0.004093 -0.003196 0.017259
#
#
# Mechanical properties :
#
#
# Convention : Reuss Voigt Hill
#
# Bulk Modulus (GPa) = 30.50866 60.07357 45.29112
# Shear Modulus (GPa) = 28.88779 40.90603 34.89691
#
# Velocity S-wave (km/s) = 3.50932 4.17599 3.85708
# Velocity P-wave (km/s) = 5.42464 6.99015 6.25655
#
# Compressibility (1/GPa) = 0.03277758
#
# Stress axis : x y z
#
# Youngs Moduli (GPa) = 104.05193 91.13412 44.38804
#
# Poissons Ratio (x) = 0.35809 -0.08298
# Poissons Ratio (y) = 0.40885 0.13793
# Poissons Ratio (z) = -0.19451 0.28318
#
# Static dielectric constant tensor:
#      x y z
#    x 1.925410 -0.044180 -0.008420 
#    y -0.044180 1.945410 0.017110 
#    z -0.008420 0.017110 1.925740 
# 
# From -- ./inp_files/137387.got.cif
#   From: 2010.05.17/outbox.cif.g08.bks.cpg/sg2_69_cif.got.tgz:137387.got - 2010.06.03 11:33:40.
