data_PCOD9100761
_publ_section_title
;
Structure prediction by ZEFSAII (Michael W. Deem and Ramdas Pophale) SiO2 
 PCOD9100761
Probable space group: P -1
;
_chemical_formula_sum "Si O2"
_cell_formula_units_Z 16
_cell_length_a 5.171722
_cell_length_b 21.499905
_cell_length_c 17.837310
_cell_angle_alpha 23.140869
_cell_angle_beta 75.833773
_cell_angle_gamma 86.838261
_cell_volume 676.468858
_symmetry_space_group_name_H-M "P -1"
_symmetry_group_IT_number 2
_symmetry_cell_setting 'triclinic'
loop_
_space_group_symop_operation_xyz
x,y,z
-x,-y,-z
loop_
_atom_site_type_symbol
_atom_site_label
_atom_site_fract_x
_atom_site_fract_y
_atom_site_fract_z
Si Si1 0.144561 0.165721 0.606583
Si Si2 0.381625 0.154226 0.068746
Si Si3 0.906572 0.372989 0.489416
Si Si4 0.367407 0.637240 0.764032
Si Si5 0.927527 0.285259 0.992264
Si Si6 0.709083 0.866727 0.210352
Si Si7 0.327230 0.503955 0.433572
Si Si8 0.291980 0.594365 0.981911
O O1 0.396550 0.224162 0.461725
O O2 0.231623 0.081752 0.764368
O O3 0.121400 0.332470 0.461747
O O4 0.828401 0.035309 0.739721
O O5 0.663903 0.177847 0.071260
O O6 0.494806 0.302424 0.830684
O O7 0.155645 0.203251 0.079033
O O8 0.629310 0.179465 0.734339
O O9 0.883779 0.525515 0.271969
O O10 0.995978 0.454854 0.476558
O O11 0.468182 0.478361 0.935561
O O12 0.032177 0.568466 0.833956
O O13 0.384300 0.697605 0.782002
O O14 0.775207 0.308348 0.052615
O O15 0.681288 0.672178 0.410876
O O16 0.000000 0.000000 0.000000
O O17 0.500000 0.500000 0.500000
#
# Coordination Sequence:
#
# PCOD9100761 Si02
#       8
#     2   2   2   2   2   2   2   2
#     4  11  24  40  63  93 130 165 215 264 320 375
#     4  11  25  40  62  93 126 174 206 263 323 383
#     4  10  22  40  67  88 121 170 211 265 313 382
#     4  10  21  36  64  99 125 165 211 268 313 374
#     4  11  21  42  64  91 126 169 215 255 322 380
#     4  11  23  41  64  92 125 165 218 266 317 373
#     4  10  22  41  58  88 124 161 211 259 322 378
#     4  10  20  37  65  96 127 163 216 262 315 377
#
# _framework density 23.652235000000001
#
# number of rings (size 3 to 8) (size 9 to 14) (size 15 to 20)
#    0.000    1.500    2.500    2.250    3.500    2.500 
#    2.250    1.250    0.000    0.000    0.000    0.000 
#    0.000    0.000    0.000    0.000    0.000    0.000 
#
# Total GULP energy -89229.434858 kJ/mol
# GULP energy per Si atom -5576.839679 kJ/mol
# Density = 2.359840 g / cm^3
# Si number density = 23.652235 Si / 1000 Ang^3
#
#
#
# Elastic Constant Matrix: (Units=GPa)
#
#
# Indices 1 2 3 4 5 6 
#
# 1 76.0817 3.0449 11.5744 3.4620 -20.1961 -7.2766
# 2 3.0449 224.8553 54.3812 34.6059 -21.5140 -59.9408
# 3 11.5744 54.3812 91.6815 18.7365 -31.4456 10.4090
# 4 3.4620 34.6059 18.7365 37.0016 -11.5351 -10.0290
# 5 -20.1961 -21.5140 -31.4456 -11.5351 33.7092 1.6644
# 6 -7.2766 -59.9408 10.4090 -10.0290 1.6644 73.8182
#
#
#
# Elastic Compliance Matrix: (Units=1/GPa)
#
#
# Indices 1 2 3 4 5 6 
#
# 1 0.016177 0.001140 0.000646 0.001263 0.011339 0.002346
# 2 0.001140 0.007962 -0.005155 -0.003232 -0.000489 0.006877
# 3 0.000646 -0.005155 0.020828 -0.002947 0.015904 -0.007818
# 4 0.001263 -0.003232 -0.002947 0.034454 0.007615 0.002425
# 5 0.011339 -0.000489 0.015904 0.007615 0.053672 -0.001698
# 6 0.002346 0.006877 -0.007818 0.002425 -0.001698 0.020832
#
#
# Mechanical properties :
#
#
# Convention : Reuss Voigt Hill
#
# Bulk Modulus (GPa) = 26.15750 58.95772 42.55761
# Shear Modulus (GPa) = 28.83403 50.48033 39.65718
#
# Velocity S-wave (km/s) = 3.49532 4.62483 4.09917
# Velocity P-wave (km/s) = 5.23192 7.31435 6.35896
#
# Compressibility (1/GPa) = 0.03822995
#
# Stress axis : x y z
#
# Youngs Moduli (GPa) = 61.81760 125.59152 48.01174
#
# Poissons Ratio (x) = -0.14323 -0.03101
# Poissons Ratio (y) = -0.07050 0.24750
# Poissons Ratio (z) = -0.03992 0.64741
#
# Static dielectric constant tensor:
#      x y z
#    x 2.767730 0.054010 -0.183800 
#    y 0.054010 1.959530 -0.011770 
#    z -0.183800 -0.011770 1.929560 
# 
# From -- ./inp_files/53093.got.cif
#   From: 2010.05.17/outbox.cif.g08.bks.cpg/sg2_27_cif.got.tgz:53093.got - 2010.06.03 11:33:40.
