data_PCOD9100471
_publ_section_title
;
Structure prediction by ZEFSAII (Michael W. Deem and Ramdas Pophale) SiO2 
 PCOD9100471
Probable space group: P -1
;
_chemical_formula_sum "Si O2"
_cell_formula_units_Z 12
_cell_length_a 7.050723
_cell_length_b 13.542299
_cell_length_c 12.858176
_cell_angle_alpha 139.093819
_cell_angle_beta 59.418891
_cell_angle_gamma 139.135807
_cell_volume 520.315006
_symmetry_space_group_name_H-M "P -1"
_symmetry_group_IT_number 2
_symmetry_cell_setting 'triclinic'
loop_
_space_group_symop_operation_xyz
x,y,z
-x,-y,-z
loop_
_atom_site_type_symbol
_atom_site_label
_atom_site_fract_x
_atom_site_fract_y
_atom_site_fract_z
Si Si1 0.097855 0.624688 0.305665
Si Si2 0.571053 0.356074 0.372607
Si Si3 0.622930 0.662304 0.186649
Si Si4 0.799268 0.786612 0.444634
Si Si5 0.233453 0.018392 0.018109
Si Si6 0.153365 0.776442 0.033269
O O1 0.438653 0.733700 0.294096
O O2 0.915011 0.499256 0.361665
O O3 0.012440 0.756989 0.411125
O O4 0.963723 0.447446 0.116210
O O5 0.500000 0.500000 0.500000
O O6 0.430719 0.250038 0.437606
O O7 0.391177 0.193922 0.200872
O O8 0.609478 0.611369 0.270365
O O9 0.964920 0.801369 0.176238
O O10 0.500000 0.500000 0.000000
O O11 0.000000 0.000000 0.500000
O O12 0.109657 0.826578 0.969627
O O13 0.503186 0.075299 0.921346
O O14 0.000000 0.000000 0.000000
#
# Coordination Sequence:
#
# PCOD9100471 Si02
#       6
#     2   2   2   2   2   2
#     4   9  21  40  62  88 122 162 203 250 306 362
#     4   9  20  40  60  87 123 157 200 248 301 364
#     4  10  22  39  61  87 118 160 207 247 299 362
#     4  11  23  40  61  89 126 161 200 256 308 359
#     4  10  20  37  64  90 120 162 204 252 305 357
#     4   9  20  37  58  94 125 151 206 259 297 358
#
# _framework density 23.062951000000002
#
# number of rings (size 3 to 8) (size 9 to 14) (size 15 to 20)
#    0.000    2.333    0.000    1.000    0.000   13.333 
#    0.000   11.667    0.000    0.000    0.000    0.000 
#    0.000    0.000    0.000    0.000    0.000    0.000 
#
# Total GULP energy -66857.540777 kJ/mol
# GULP energy per Si atom -5571.461731 kJ/mol
# Density = 2.301046 g / cm^3
# Si number density = 23.062951 Si / 1000 Ang^3
#
#
#
# Elastic Constant Matrix: (Units=GPa)
#
#
# Indices 1 2 3 4 5 6 
#
# 1 150.5056 51.5008 35.8014 -28.7717 -23.2156 24.3187
# 2 51.5008 113.0113 54.0101 -24.6534 -19.2906 14.5479
# 3 35.8014 54.0101 92.7036 -17.8998 -8.1102 16.9901
# 4 -28.7717 -24.6534 -17.8998 37.2178 3.5627 -22.9966
# 5 -23.2156 -19.2906 -8.1102 3.5627 42.9220 -6.9764
# 6 24.3187 14.5479 16.9901 -22.9966 -6.9764 33.1219
#
#
#
# Elastic Compliance Matrix: (Units=1/GPa)
#
#
# Indices 1 2 3 4 5 6 
#
# 1 0.009102 -0.002112 -0.000928 0.003568 0.003155 -0.002137
# 2 -0.002112 0.014847 -0.006878 0.007273 0.004363 0.004527
# 3 -0.000928 -0.006878 0.015846 -0.000761 -0.001388 -0.005247
# 4 0.003568 0.007273 -0.000761 0.054175 0.005996 0.033453
# 5 0.003155 0.004363 -0.001388 0.005996 0.027242 0.006380
# 6 -0.002137 0.004527 -0.005247 0.033453 0.006380 0.057034
#
#
# Mechanical properties :
#
#
# Convention : Reuss Voigt Hill
#
# Bulk Modulus (GPa) = 50.10357 70.98279 60.54318
# Shear Modulus (GPa) = 24.42178 36.97954 30.70066
#
# Velocity S-wave (km/s) = 3.25763 4.00861 3.65248
# Velocity P-wave (km/s) = 5.99345 7.22980 6.64046
#
# Compressibility (1/GPa) = 0.01995866
#
# Stress axis : x y z
#
# Youngs Moduli (GPa) = 109.86741 67.35371 63.10907
#
# Poissons Ratio (x) = 0.14228 0.05854
# Poissons Ratio (y) = 0.23209 0.43405
# Poissons Ratio (z) = 0.10192 0.46324
#
# Static dielectric constant tensor:
#      x y z
#    x 1.865820 0.042620 0.022800 
#    y 0.042620 1.998310 0.027930 
#    z 0.022800 0.027930 1.959280 
# 
# From -- ./inp_files/365370.got.cif
#   From: 2010.05.17/outbox.cif.g08.bks.cpg/sg2_183_cif.got.tgz:365370.got - 2010.06.03 11:33:40.
