data_PCOD9100945
_publ_section_title
;
Structure prediction by ZEFSAII (Michael W. Deem and Ramdas Pophale) SiO2 
 PCOD9100945
Probable space group: P -1
;
_chemical_formula_sum "Si O2"
_cell_formula_units_Z 16
_cell_length_a 8.076539
_cell_length_b 10.204283
_cell_length_c 20.045128
_cell_angle_alpha 145.724457
_cell_angle_beta 126.333202
_cell_angle_gamma 47.652108
_cell_volume 685.058859
_symmetry_space_group_name_H-M "P -1"
_symmetry_group_IT_number 2
_symmetry_cell_setting 'triclinic'
loop_
_space_group_symop_operation_xyz
x,y,z
-x,-y,-z
loop_
_atom_site_type_symbol
_atom_site_label
_atom_site_fract_x
_atom_site_fract_y
_atom_site_fract_z
Si Si1 0.715036 0.303475 0.714604
Si Si2 0.182091 0.943292 0.918791
Si Si3 0.735722 0.336656 0.954262
Si Si4 0.839134 0.398579 0.480398
Si Si5 0.397869 0.992570 0.320792
Si Si6 0.865087 0.967116 0.390723
Si Si7 0.342184 0.279404 0.012709
Si Si8 0.225579 0.533871 0.654454
O O1 0.673554 0.104431 0.669706
O O2 0.698848 0.534728 0.855640
O O3 0.493769 0.397108 0.655318
O O4 0.944954 0.208715 0.689108
O O5 0.948543 0.168139 0.978946
O O6 0.385151 0.855743 0.983176
O O7 0.166907 0.699055 0.777579
O O8 0.258059 0.067178 0.925424
O O9 0.699092 0.129711 0.811225
O O10 0.772704 0.545840 0.004095
O O11 0.500000 0.500000 0.000000
O O12 0.752049 0.234360 0.436705
O O13 0.850617 0.318505 0.371990
O O14 0.086450 0.358969 0.548866
O O15 0.701134 0.702542 0.577678
O O16 0.666886 0.885677 0.330705
O O17 0.000000 0.000000 0.500000
#
# Coordination Sequence:
#
# PCOD9100945 Si02
#       8
#     2   2   2   2   2   2   2   2
#     4  10  22  42  65  91 128 166 206 265 317 378
#     4  10  20  41  65  95 126 162 216 258 314 384
#     4  11  24  40  64  95 130 167 205 265 323 374
#     4  11  22  38  62  90 125 166 209 261 311 383
#     4  11  24  44  62  94 129 165 215 258 318 386
#     4  12  26  40  63  93 126 167 214 265 316 376
#     4   9  22  40  67  94 123 166 215 258 314 388
#     4  10  20  37  67  92 121 171 209 254 326 371
#
# _framework density 23.355657000000001
#
# number of rings (size 3 to 8) (size 9 to 14) (size 15 to 20)
#    0.000    1.500    1.250    3.750    3.500    3.000 
#    0.000    2.500    0.000    0.000    0.000    0.000 
#    0.000    0.000    0.000    0.000    0.000    0.000 
#
# Total GULP energy -89469.136008 kJ/mol
# GULP energy per Si atom -5591.821000 kJ/mol
# Density = 2.330250 g / cm^3
# Si number density = 23.355657 Si / 1000 Ang^3
#
#
#
# Elastic Constant Matrix: (Units=GPa)
#
#
# Indices 1 2 3 4 5 6 
#
# 1 85.7797 14.2418 7.7661 8.6984 -11.5039 -27.1106
# 2 14.2418 89.3509 6.0265 16.6545 -8.3364 -25.5422
# 3 7.7661 6.0265 24.1970 14.6421 3.7576 -7.2127
# 4 8.6984 16.6545 14.6421 26.1015 -10.9421 -3.0926
# 5 -11.5039 -8.3364 3.7576 -10.9421 25.2762 4.5601
# 6 -27.1106 -25.5422 -7.2127 -3.0926 4.5601 43.2134
#
#
#
# Elastic Compliance Matrix: (Units=1/GPa)
#
#
# Indices 1 2 3 4 5 6 
#
# 1 0.015517 0.000982 -0.003232 -0.000362 0.006066 0.009110
# 2 0.000982 0.016325 0.010366 -0.017440 -0.005300 0.011307
# 3 -0.003232 0.010366 0.106754 -0.085928 -0.055013 0.021573
# 4 -0.000362 -0.017440 -0.085928 0.121753 0.063694 -0.022886
# 5 0.006066 -0.005300 -0.055013 0.063694 0.078535 -0.012238
# 6 0.009110 0.011307 0.021573 -0.022886 -0.012238 0.038794
#
#
# Mechanical properties :
#
#
# Convention : Reuss Voigt Hill
#
# Bulk Modulus (GPa) = 6.45881 28.37736 17.41808
# Shear Modulus (GPa) = 12.10495 30.33777 21.22136
#
# Velocity S-wave (km/s) = 2.27906 3.60800 3.01760
# Velocity P-wave (km/s) = 3.11399 5.43446 4.42890
#
# Compressibility (1/GPa) = 0.15482737
#
# Stress axis : x y z
#
# Youngs Moduli (GPa) = 64.44677 61.25728 9.36735
#
# Poissons Ratio (x) = -0.06018 0.03028
# Poissons Ratio (y) = -0.06331 -0.09710
# Poissons Ratio (z) = 0.20830 -0.63498
#
# Static dielectric constant tensor:
#      x y z
#    x 1.904010 -0.052110 -0.019730 
#    y -0.052110 1.910390 0.034600 
#    z -0.019730 0.034600 1.854180 
# 
# From -- ./inp_files/500854.got.cif
#   From: 2010.05.17/outbox.cif.g08.bks.cpg/sg2_251_cif.got.tgz:500854.got - 2010.06.03 11:33:40.
