data_PCOD9100276
_publ_section_title
;
Structure prediction by ZEFSAII (Michael W. Deem and Ramdas Pophale) SiO2 
 PCOD9100276
Probable space group: P -1
;
_chemical_formula_sum "Si O2"
_cell_formula_units_Z 16
_cell_length_a 21.425522
_cell_length_b 5.058597
_cell_length_c 8.659925
_cell_angle_alpha 129.703609
_cell_angle_beta 59.051624
_cell_angle_gamma 99.996013
_cell_volume 601.989292
_symmetry_space_group_name_H-M "P -1"
_symmetry_group_IT_number 2
_symmetry_cell_setting 'triclinic'
loop_
_space_group_symop_operation_xyz
x,y,z
-x,-y,-z
loop_
_atom_site_type_symbol
_atom_site_label
_atom_site_fract_x
_atom_site_fract_y
_atom_site_fract_z
Si Si1 0.864665 0.337783 0.632229
Si Si2 0.510947 0.969063 0.294932
Si Si3 0.050998 0.461735 0.138188
Si Si4 0.427005 0.872269 0.109257
Si Si5 0.725860 0.846290 0.157436
Si Si6 0.354727 0.759915 0.884956
Si Si7 0.801957 0.757988 0.342339
Si Si8 0.097794 0.655888 0.769844
O O1 0.930933 0.302089 0.657996
O O2 0.893359 0.378272 0.439959
O O3 0.818682 0.039917 0.547824
O O4 0.803193 0.656331 0.904127
O O5 0.554315 0.554962 0.059902
O O6 0.500000 0.000000 0.500000
O O7 0.560941 0.229897 0.268344
O O8 0.430687 0.018533 0.330928
O O9 0.968033 0.559115 0.211311
O O10 0.118825 0.418100 0.912682
O O11 0.062552 0.051312 0.022086
O O12 0.356586 0.991822 0.129229
O O13 0.500000 0.000000 0.000000
O O14 0.673582 0.566909 0.135370
O O15 0.743619 0.894633 0.334726
O O16 0.688597 0.123080 0.176166
O O17 0.813862 0.425754 0.317898
#
# Coordination Sequence:
#
# PCOD9100276 Si02
#       8
#     2   2   2   2   2   2   2   2
#     4  10  23  39  60  91 120 170 218 268 324 388
#     4  10  21  43  70 106 133 169 212 270 323 378
#     4   9  20  38  60  90 127 159 206 278 337 393
#     4   9  20  41  69  99 139 167 210 265 320 378
#     4  11  26  44  64  89 136 176 217 269 319 382
#     4  11  23  46  68  94 131 180 217 259 325 384
#     4  10  23  39  59  91 121 170 213 274 323 390
#     4  10  20  37  63  91 123 160 217 267 339 391
#
# _framework density 26.578544999999998
#
# number of rings (size 3 to 8) (size 9 to 14) (size 15 to 20)
#    0.000    2.000    1.250    0.750    7.000    3.500 
#    2.250    3.750    0.000    0.000    0.000    0.000 
#    0.000    0.000    0.000    0.000    0.000    0.000 
#
# Total GULP energy -89093.576062 kJ/mol
# GULP energy per Si atom -5568.348504 kJ/mol
# Density = 2.651805 g / cm^3
# Si number density = 26.578545 Si / 1000 Ang^3
#
#
#
# Elastic Constant Matrix: (Units=GPa)
#
#
# Indices 1 2 3 4 5 6 
#
# 1 162.7526 3.2314 38.3986 -2.1167 44.0987 -26.1507
# 2 3.2314 57.8492 -4.9549 2.5087 -7.7406 14.2334
# 3 38.3986 -4.9549 86.7531 2.8352 31.2466 -5.6624
# 4 -2.1167 2.5087 2.8352 23.9091 2.1870 3.2962
# 5 44.0987 -7.7406 31.2466 2.1870 57.8599 -13.8266
# 6 -26.1507 14.2334 -5.6624 3.2962 -13.8266 45.0212
#
#
#
# Elastic Compliance Matrix: (Units=1/GPa)
#
#
# Indices 1 2 3 4 5 6 
#
# 1 0.008634 -0.002321 -0.001956 0.001155 -0.004947 0.003899
# 2 -0.002321 0.019495 0.000909 -0.001675 0.002386 -0.006542
# 3 -0.001956 0.000909 0.014797 -0.001199 -0.006699 -0.001532
# 4 0.001155 -0.001675 -0.001199 0.042906 -0.002783 -0.002946
# 5 -0.004947 0.002386 -0.006699 -0.002783 0.025983 0.003713
# 6 0.003899 -0.006542 -0.001532 -0.002946 0.003713 0.027708
#
#
# Mechanical properties :
#
#
# Convention : Reuss Voigt Hill
#
# Bulk Modulus (GPa) = 27.63150 42.30058 34.96604
# Shear Modulus (GPa) = 31.58140 43.40336 37.49238
#
# Velocity S-wave (km/s) = 3.45081 4.04545 3.75990
# Velocity P-wave (km/s) = 5.12798 6.14579 5.65981
#
# Compressibility (1/GPa) = 0.03619058
#
# Stress axis : x y z
#
# Youngs Moduli (GPa) = 115.82738 51.29432 67.58278
#
# Poissons Ratio (x) = 0.11906 0.13216
# Poissons Ratio (y) = 0.26884 -0.06144
# Poissons Ratio (z) = 0.22651 -0.04663
#
# Static dielectric constant tensor:
#      x y z
#    x 2.263900 -0.136360 0.030080 
#    y -0.136360 2.459240 -0.020960 
#    z 0.030080 -0.020960 2.171900 
# 
# From -- ./inp_files/350605.got.cif
#   From: 2010.05.17/outbox.cif.g08.bks.cpg/sg2_176_cif.got.tgz:350605.got - 2010.06.03 11:33:40.
