data_PCOD9100833
_publ_section_title
;
Structure prediction by ZEFSAII (Michael W. Deem and Ramdas Pophale) SiO2 
 PCOD9100833
Probable space group: P -1
;
_chemical_formula_sum "Si O2"
_cell_formula_units_Z 15
_cell_length_a 11.417103
_cell_length_b 13.850543
_cell_length_c 8.169893
_cell_angle_alpha 149.495397
_cell_angle_beta 97.059212
_cell_angle_gamma 81.304306
_cell_volume 648.185594
_symmetry_space_group_name_H-M "P -1"
_symmetry_group_IT_number 2
_symmetry_cell_setting 'triclinic'
loop_
_space_group_symop_operation_xyz
x,y,z
-x,-y,-z
loop_
_atom_site_type_symbol
_atom_site_label
_atom_site_fract_x
_atom_site_fract_y
_atom_site_fract_z
Si Si1 0.250634 0.016331 0.166576
Si Si2 0.246261 0.616198 0.763927
Si Si3 0.912009 0.615417 0.389052
Si Si4 0.389041 0.759818 0.597509
Si Si5 0.500000 0.500000 0.500000
Si Si6 0.654028 0.820003 0.250287
Si Si7 0.577474 0.239215 0.751012
Si Si8 0.167143 0.510834 0.168153
O O1 0.142587 0.165393 0.312460
O O2 0.325484 0.112332 0.460816
O O3 0.216335 0.819667 0.961797
O O4 0.333660 0.964898 0.949675
O O5 0.142315 0.493892 0.628052
O O6 0.353196 0.506837 0.522293
O O7 0.313475 0.665596 0.015958
O O8 0.053621 0.589456 0.366329
O O9 0.871562 0.523893 0.075975
O O10 0.473015 0.683743 0.645535
O O11 0.454592 0.718769 0.378120
O O12 0.270974 0.649339 0.390306
O O13 0.533783 0.709509 0.069681
O O14 0.617503 0.013266 0.431452
O O15 0.772736 0.690051 0.044329
#
# Coordination Sequence:
#
# PCOD9100833 Si02
#       8
#     2   2   2   2   1   2   2   2
#     4   9  22  40  56  90 132 154 209 252 310 364
#     4  10  20  42  62  93 124 169 198 264 309 368
#     4  10  21  42  65  91 121 170 206 260 302 366
#     4  11  22  40  61  93 122 166 199 259 315 372
#     4  10  24  36  60  90 128 152 208 246 312 374
#     4   9  20  39  58  92 124 157 207 264 296 383
#     4  10  20  37  66  90 123 162 209 250 323 363
#     4  10  21  39  65  91 121 157 222 251 297 371
#
# _framework density 23.141521999999998
#
# number of rings (size 3 to 8) (size 9 to 14) (size 15 to 20)
#    0.000    2.133    1.333    0.800    3.733    3.200 
#   14.400    5.333    0.000    0.000    0.000    0.000 
#    0.000    0.000    0.000    0.000    0.000    0.000 
#
# Total GULP energy -83575.368065 kJ/mol
# GULP energy per Si atom -5571.691204 kJ/mol
# Density = 2.308885 g / cm^3
# Si number density = 23.141522 Si / 1000 Ang^3
#
#
#
# Elastic Constant Matrix: (Units=GPa)
#
#
# Indices 1 2 3 4 5 6 
#
# 1 119.3417 46.2527 30.0909 28.4306 -22.6282 7.4085
# 2 46.2527 82.6360 7.7568 -3.5440 -18.3211 10.4161
# 3 30.0909 7.7568 51.9547 0.7151 -17.0381 -6.6506
# 4 28.4306 -3.5440 0.7151 31.6611 -5.0488 -0.9776
# 5 -22.6282 -18.3211 -17.0381 -5.0488 38.0235 -1.2445
# 6 7.4085 10.4161 -6.6506 -0.9776 -1.2445 30.3706
#
#
#
# Elastic Compliance Matrix: (Units=1/GPa)
#
#
# Indices 1 2 3 4 5 6 
#
# 1 0.019637 -0.010446 -0.010267 -0.018788 -0.000576 -0.004084
# 2 -0.010446 0.019933 0.004937 0.012568 0.007187 -0.002508
# 3 -0.010267 0.004937 0.028916 0.011112 0.010962 0.007950
# 4 -0.018788 0.012568 0.011112 0.050832 0.006755 0.004619
# 5 -0.000576 0.007187 0.010962 0.006755 0.035285 0.001739
# 6 -0.004084 -0.002508 0.007950 0.004619 0.001739 0.036744
#
#
# Mechanical properties :
#
#
# Convention : Reuss Voigt Hill
#
# Bulk Modulus (GPa) = 27.07477 46.90368 36.98923
# Shear Modulus (GPa) = 21.25760 31.33318 26.29539
#
# Velocity S-wave (km/s) = 3.03412 3.68364 3.37454
# Velocity P-wave (km/s) = 4.89893 6.19713 5.58587
#
# Compressibility (1/GPa) = 0.03693475
#
# Stress axis : x y z
#
# Youngs Moduli (GPa) = 50.92517 50.16759 34.58262
#
# Poissons Ratio (x) = 0.52405 0.35505
# Poissons Ratio (y) = 0.53196 -0.17073
# Poissons Ratio (z) = 0.52283 -0.24767
#
# Static dielectric constant tensor:
#      x y z
#    x 2.047420 -0.479680 0.760660 
#    y -0.479680 2.966020 -1.653590 
#    z 0.760660 -1.653590 4.453820 
# 
# From -- ./inp_files/269383.got.cif
#   From: 2010.05.17/outbox.cif.g08.bks.cpg/sg2_135_cif.got.tgz:269383.got - 2010.06.03 11:33:40.
