data_PCOD9100212
_publ_section_title
;
Structure prediction by ZEFSAII (Michael W. Deem and Ramdas Pophale) SiO2 
 PCOD9100212
Probable space group: P -1
;
_chemical_formula_sum "Si O2"
_cell_formula_units_Z 16
_cell_length_a 14.004094
_cell_length_b 14.792271
_cell_length_c 10.878179
_cell_angle_alpha 136.307918
_cell_angle_beta 149.424099
_cell_angle_gamma 40.011231
_cell_volume 722.898032
_symmetry_space_group_name_H-M "P -1"
_symmetry_group_IT_number 2
_symmetry_cell_setting 'triclinic'
loop_
_space_group_symop_operation_xyz
x,y,z
-x,-y,-z
loop_
_atom_site_type_symbol
_atom_site_label
_atom_site_fract_x
_atom_site_fract_y
_atom_site_fract_z
Si Si1 0.265850 0.527241 0.794462
Si Si2 0.341248 0.270851 0.464705
Si Si3 0.425749 0.669285 0.578998
Si Si4 0.040205 0.834062 0.730356
Si Si5 0.199615 0.050993 0.190453
Si Si6 0.050276 0.849634 0.472251
Si Si7 0.843937 0.658159 0.938823
Si Si8 0.760698 0.280677 0.840592
O O1 0.247575 0.385775 0.584373
O O2 0.126467 0.667348 0.698949
O O3 0.500000 0.500000 0.000000
O O4 0.232686 0.577353 0.949024
O O5 0.348639 0.118200 0.366271
O O6 0.201010 0.327955 0.243412
O O7 0.563631 0.263596 0.664958
O O8 0.500000 0.500000 0.500000
O O9 0.292948 0.750292 0.627587
O O10 0.625073 0.697690 0.800306
O O11 0.277939 0.714926 0.341656
O O12 0.992242 0.861566 0.561956
O O13 0.845528 0.918196 0.684943
O O14 0.213431 0.895320 0.015641
O O15 0.975961 0.154216 0.987480
O O16 0.000000 0.000000 0.500000
O O17 0.933364 0.768605 0.192082
O O18 0.000000 0.500000 0.000000
#
# Coordination Sequence:
#
# PCOD9100212 Si02
#       8
#     2   2   2   2   2   2   2   2
#     4   9  19  36  59  87 119 153 194 260 301 346
#     4  10  20  37  63  88 121 160 207 253 313 371
#     4  11  23  39  64  94 126 174 211 257 321 380
#     4  10  22  40  62  89 127 156 211 258 305 382
#     4  10  21  42  63  87 120 168 197 256 325 367
#     4  12  25  43  65  94 132 172 211 267 321 372
#     4  11  22  39  63  96 129 167 218 263 313 387
#     4   9  20  37  58  89 121 156 203 253 309 368
#
# _framework density 22.133136
#
# number of rings (size 3 to 8) (size 9 to 14) (size 15 to 20)
#    0.000    1.750    1.250    3.000    3.500    2.500 
#    2.250   11.250    0.000    0.000    0.000    0.000 
#    0.000    0.000    0.000    0.000    0.000    0.000 
#
# Total GULP energy -89468.601705 kJ/mol
# GULP energy per Si atom -5591.787607 kJ/mol
# Density = 2.208276 g / cm^3
# Si number density = 22.133136 Si / 1000 Ang^3
#
#
#
# Elastic Constant Matrix: (Units=GPa)
#
#
# Indices 1 2 3 4 5 6 
#
# 1 94.4495 13.1022 44.9406 -4.5064 3.7506 6.0763
# 2 13.1022 82.9800 20.4916 9.9783 -5.3075 5.1771
# 3 44.9406 20.4916 105.2622 13.8178 0.1447 3.8867
# 4 -4.5064 9.9783 13.8178 35.4051 11.7349 3.5144
# 5 3.7506 -5.3075 0.1447 11.7349 32.4889 -1.1780
# 6 6.0763 5.1771 3.8867 3.5144 -1.1780 24.9675
#
#
#
# Elastic Compliance Matrix: (Units=1/GPa)
#
#
# Indices 1 2 3 4 5 6 
#
# 1 0.014731 -0.001551 -0.006745 0.006768 -0.004491 -0.003378
# 2 -0.001551 0.013529 -0.001309 -0.004704 0.004044 -0.001371
# 3 -0.006745 -0.001309 0.013495 -0.006845 0.003010 0.000918
# 4 0.006768 -0.004704 -0.006845 0.038914 -0.015786 -0.005828
# 5 -0.004491 0.004044 0.003010 -0.015786 0.037785 0.003791
# 6 -0.003378 -0.001371 0.000918 -0.005828 0.003791 0.042015
#
#
# Mechanical properties :
#
#
# Convention : Reuss Voigt Hill
#
# Bulk Modulus (GPa) = 44.35451 48.86229 46.60840
# Shear Modulus (GPa) = 26.71043 32.18280 29.44662
#
# Velocity S-wave (km/s) = 3.47768 3.81734 3.65146
# Velocity P-wave (km/s) = 6.01740 6.44624 6.23550
#
# Compressibility (1/GPa) = 0.02254562
#
# Stress axis : x y z
#
# Youngs Moduli (GPa) = 67.88586 73.91486 74.10102
#
# Poissons Ratio (x) = 0.11462 0.49979
# Poissons Ratio (y) = 0.10527 0.09701
# Poissons Ratio (z) = 0.45787 0.09677
#
# Static dielectric constant tensor:
#      x y z
#    x 1.831830 0.008760 0.027540 
#    y 0.008760 1.826020 -0.005510 
#    z 0.027540 -0.005510 1.836860 
# 
# From -- ./inp_files/455135.got.cif
#   From: 2010.05.17/outbox.cif.g08.bks.cpg/sg2_228_cif.got.tgz:455135.got - 2010.06.03 11:33:40.
