data_PCOD9100257
_publ_section_title
;
Structure prediction by ZEFSAII (Michael W. Deem and Ramdas Pophale) SiO2 
 PCOD9100257
Probable space group: P -1
;
_chemical_formula_sum "Si O2"
_cell_formula_units_Z 16
_cell_length_a 15.437210
_cell_length_b 8.148232
_cell_length_c 22.112280
_cell_angle_alpha 35.279167
_cell_angle_beta 148.764465
_cell_angle_gamma 124.614943
_cell_volume 750.525098
_symmetry_space_group_name_H-M "P -1"
_symmetry_group_IT_number 2
_symmetry_cell_setting 'triclinic'
loop_
_space_group_symop_operation_xyz
x,y,z
-x,-y,-z
loop_
_atom_site_type_symbol
_atom_site_label
_atom_site_fract_x
_atom_site_fract_y
_atom_site_fract_z
Si Si1 0.556497 0.634316 0.648851
Si Si2 0.069003 0.329318 0.721237
Si Si3 0.667674 0.745319 0.351426
Si Si4 0.951590 0.759189 0.125717
Si Si5 0.531088 0.808971 0.012950
Si Si6 0.418760 0.260078 0.130948
Si Si7 0.901769 0.415539 0.855234
Si Si8 0.798121 0.397045 0.984964
O O1 0.391301 0.535245 0.585717
O O2 0.687143 0.505475 0.707697
O O3 0.694204 0.476093 0.835157
O O4 0.500000 0.000000 0.500000
O O5 0.010010 0.325420 0.756867
O O6 0.880267 0.591253 0.502911
O O7 0.248137 0.394834 0.802226
O O8 0.144728 0.966078 0.853954
O O9 0.545056 0.951944 0.160362
O O10 0.607442 0.970931 0.307066
O O11 0.062451 0.517131 0.212395
O O12 0.740222 0.813653 0.973000
O O13 0.989795 0.055618 0.039972
O O14 0.432755 0.576010 0.023110
O O15 0.500000 0.000000 0.000000
O O16 0.344024 0.350738 0.127970
O O17 0.008516 0.575130 0.909032
#
# Coordination Sequence:
#
# PCOD9100257 Si02
#       8
#     2   2   2   2   2   2   2   2
#     4  12  23  40  63  97 139 180 222 275 327 398
#     4  12  24  44  68  99 135 173 222 282 330 400
#     4  12  26  43  69 104 134 171 233 271 330 409
#     4  10  21  39  64  92 129 173 217 269 327 386
#     4  12  24  48  74  95 135 177 217 282 343 390
#     4  11  22  45  70  94 134 178 217 282 337 391
#     4  10  20  37  63  90 128 178 219 263 326 386
#     4  11  22  41  67  96 136 179 223 275 337 388
#
# _framework density 21.318408000000002
#
# number of rings (size 3 to 8) (size 9 to 14) (size 15 to 20)
#    0.000    0.750    6.250    1.500    1.750    2.000 
#    0.000    2.500    0.000    0.000    0.000    0.000 
#    0.000    0.000    0.000    0.000    0.000    0.000 
#
# Total GULP energy -89222.681095 kJ/mol
# GULP energy per Si atom -5576.417568 kJ/mol
# Density = 2.126989 g / cm^3
# Si number density = 21.318408 Si / 1000 Ang^3
#
#
#
# Elastic Constant Matrix: (Units=GPa)
#
#
# Indices 1 2 3 4 5 6 
#
# 1 91.2554 6.4001 18.1718 6.2901 12.5302 1.1919
# 2 6.4001 82.6014 8.5979 -5.3478 -3.8675 19.0621
# 3 18.1718 8.5979 72.9026 3.7924 25.5933 1.9320
# 4 6.2901 -5.3478 3.7924 28.9329 8.2553 5.2227
# 5 12.5302 -3.8675 25.5933 8.2553 16.2665 -0.9581
# 6 1.1919 19.0621 1.9320 5.2227 -0.9581 40.7744
#
#
#
# Elastic Compliance Matrix: (Units=1/GPa)
#
#
# Indices 1 2 3 4 5 6 
#
# 1 0.012475 -0.001681 0.001439 0.000335 -0.012442 0.000018
# 2 -0.001681 0.015050 -0.005750 0.001440 0.012801 -0.006598
# 3 0.001439 -0.005750 0.037420 0.013700 -0.068450 -0.002490
# 4 0.000335 0.001440 0.013700 0.047671 -0.046165 -0.008523
# 5 -0.012442 0.012801 -0.068450 -0.046165 0.205722 0.008370
# 6 0.000018 -0.006598 -0.002490 -0.008523 0.008370 0.029016
#
#
# Mechanical properties :
#
#
# Convention : Reuss Voigt Hill
#
# Bulk Modulus (GPa) = 18.88207 34.78877 26.83542
# Shear Modulus (GPa) = 13.26289 31.43406 22.34848
#
# Velocity S-wave (km/s) = 2.49697 3.84409 3.24129
# Velocity P-wave (km/s) = 4.14602 6.00473 5.15976
#
# Compressibility (1/GPa) = 0.05296029
#
# Stress axis : x y z
#
# Youngs Moduli (GPa) = 80.16209 66.44379 26.72383
#
# Poissons Ratio (x) = 0.11171 -0.03845
# Poissons Ratio (y) = 0.13478 0.15366
# Poissons Ratio (z) = -0.11534 0.38204
#
# Static dielectric constant tensor:
#      x y z
#    x 1.816600 -0.042650 0.063990 
#    y -0.042650 1.787570 -0.032300 
#    z 0.063990 -0.032300 1.973560 
# 
# From -- ./inp_files/207188.got.cif
#   From: 2010.05.17/outbox.cif.g08.bks.cpg/sg2_104_cif.got.tgz:207188.got - 2010.06.03 11:33:40.
