data_PCOD9100952
_publ_section_title
;
Structure prediction by ZEFSAII (Michael W. Deem and Ramdas Pophale) SiO2 
 PCOD9100952
Probable space group: P -1
;
_chemical_formula_sum "Si O2"
_cell_formula_units_Z 16
_cell_length_a 11.182995
_cell_length_b 12.369744
_cell_length_c 9.284230
_cell_angle_alpha 129.068955
_cell_angle_beta 84.022155
_cell_angle_gamma 131.378091
_cell_volume 631.468416
_symmetry_space_group_name_H-M "P -1"
_symmetry_group_IT_number 2
_symmetry_cell_setting 'triclinic'
loop_
_space_group_symop_operation_xyz
x,y,z
-x,-y,-z
loop_
_atom_site_type_symbol
_atom_site_label
_atom_site_fract_x
_atom_site_fract_y
_atom_site_fract_z
Si Si1 0.822023 0.177053 0.337224
Si Si2 0.198804 0.995442 0.532474
Si Si3 0.689456 0.658984 0.017599
Si Si4 0.103220 0.424000 0.993893
Si Si5 0.741401 0.239190 0.969473
Si Si6 0.250838 0.599767 0.618525
Si Si7 0.791618 0.880023 0.910183
Si Si8 0.585199 0.791249 0.594911
O O1 0.731020 0.050547 0.393534
O O2 0.777423 0.291874 0.389250
O O3 0.046023 0.361757 0.486030
O O4 0.782186 0.031565 0.093795
O O5 0.030107 0.773706 0.275125
O O6 0.163413 0.101959 0.721569
O O7 0.356174 0.179147 0.550885
O O8 0.781727 0.590438 0.951852
O O9 0.662778 0.688356 0.883760
O O10 0.500000 0.500000 0.000000
O O11 0.959424 0.380242 0.077479
O O12 0.239120 0.652243 0.085767
O O13 0.627601 0.995519 0.774260
O O14 0.667665 0.268979 0.131807
O O15 0.376955 0.598743 0.524204
O O16 0.719154 0.821923 0.708180
O O17 0.000000 0.000000 0.000000
#
# Coordination Sequence:
#
# PCOD9100952 Si02
#       8
#     2   2   2   2   2   2   2   2
#     4  10  23  40  64  92 130 165 214 255 322 375
#     4  10  22  44  62  92 124 174 210 254 312 385
#     4  11  26  42  65  94 128 166 208 268 314 369
#     4  10  21  40  67  92 124 171 215 247 316 386
#     4  10  20  37  67  94 122 164 210 260 306 378
#     4  11  22  40  64  96 130 165 210 267 314 374
#     4  11  24  44  66  92 128 170 214 262 313 378
#     4  11  24  41  67  97 128 166 212 263 321 367
#
# _framework density 25.337768000000001
#
# number of rings (size 3 to 8) (size 9 to 14) (size 15 to 20)
#    0.000    1.500    2.500    2.250    1.750    3.500 
#    2.250    1.250    0.000    0.000    0.000    0.000 
#    0.000    0.000    0.000    0.000    0.000    0.000 
#
# Total GULP energy -89608.764289 kJ/mol
# GULP energy per Si atom -5600.547768 kJ/mol
# Density = 2.528010 g / cm^3
# Si number density = 25.337768 Si / 1000 Ang^3
#
#
#
# Elastic Constant Matrix: (Units=GPa)
#
#
# Indices 1 2 3 4 5 6 
#
# 1 84.7323 27.5675 21.4950 0.4476 -4.2841 8.2997
# 2 27.5675 132.8458 20.1355 -22.5994 -1.1170 7.3313
# 3 21.4950 20.1355 77.7928 -18.6404 -18.3578 2.2082
# 4 0.4476 -22.5994 -18.6404 36.3208 4.2445 -6.7140
# 5 -4.2841 -1.1170 -18.3578 4.2445 22.3852 9.2668
# 6 8.2997 7.3313 2.2082 -6.7140 9.2668 31.8556
#
#
#
# Elastic Compliance Matrix: (Units=1/GPa)
#
#
# Indices 1 2 3 4 5 6 
#
# 1 0.014308 -0.002999 -0.003694 -0.005059 0.002400 -0.004546
# 2 -0.002999 0.009180 -0.000643 0.005734 -0.001930 0.000483
# 3 -0.003694 -0.000643 0.019439 0.007285 0.015103 -0.003095
# 4 -0.005059 0.005734 0.007285 0.037186 -0.005450 0.008916
# 5 0.002400 -0.001930 0.015103 -0.005450 0.067576 -0.022034
# 6 -0.004546 0.000483 -0.003095 0.008916 -0.022034 0.040968
#
#
# Mechanical properties :
#
#
# Convention : Reuss Voigt Hill
#
# Bulk Modulus (GPa) = 35.39067 48.19629 41.79348
# Shear Modulus (GPa) = 23.50206 33.19052 28.34629
#
# Velocity S-wave (km/s) = 3.04888 3.62321 3.34838
# Velocity P-wave (km/s) = 5.13732 6.04701 5.61063
#
# Compressibility (1/GPa) = 0.02825604
#
# Stress axis : x y z
#
# Youngs Moduli (GPa) = 69.89098 108.93540 51.44245
#
# Poissons Ratio (x) = 0.32667 0.19003
# Poissons Ratio (y) = 0.20959 0.03306
# Poissons Ratio (z) = 0.25817 0.07002
#
# Static dielectric constant tensor:
#      x y z
#    x 1.932770 0.024650 0.010360 
#    y 0.024650 1.989830 0.048880 
#    z 0.010360 0.048880 2.079300 
# 
# From -- ./inp_files/263072.got.cif
#   From: 2010.05.17/outbox.cif.g08.bks.cpg/sg2_132_cif.got.tgz:263072.got - 2010.06.03 11:33:40.
