data_PCOD9100543
_publ_section_title
;
Structure prediction by ZEFSAII (Michael W. Deem and Ramdas Pophale) SiO2 
 PCOD9100543
Probable space group: P -1
;
_chemical_formula_sum "Si O2"
_cell_formula_units_Z 16
_cell_length_a 21.485974
_cell_length_b 8.392987
_cell_length_c 7.842873
_cell_angle_alpha 144.879812
_cell_angle_beta 127.098380
_cell_angle_gamma 50.167662
_cell_volume 614.681037
_symmetry_space_group_name_H-M "P -1"
_symmetry_group_IT_number 2
_symmetry_cell_setting 'triclinic'
loop_
_space_group_symop_operation_xyz
x,y,z
-x,-y,-z
loop_
_atom_site_type_symbol
_atom_site_label
_atom_site_fract_x
_atom_site_fract_y
_atom_site_fract_z
Si Si1 0.781331 0.429636 0.550211
Si Si2 0.175938 0.506900 0.846077
Si Si3 0.425453 0.679958 0.355229
Si Si4 0.272987 0.844676 0.447407
Si Si5 0.518290 0.077599 0.794484
Si Si6 0.934597 0.417328 0.606574
Si Si7 0.026068 0.855611 0.104672
Si Si8 0.683626 0.083565 0.929213
O O1 0.755766 0.285476 0.546846
O O2 0.876877 0.335499 0.577213
O O3 0.752390 0.778055 0.809694
O O4 0.723957 0.337599 0.236843
O O5 0.123936 0.503856 0.588711
O O6 0.243121 0.193273 0.712479
O O7 0.220896 0.750686 0.130667
O O8 0.110961 0.607714 0.981787
O O9 0.368736 0.690694 0.433201
O O10 0.358886 0.897951 0.308423
O O11 0.496343 0.822856 0.636085
O O12 0.461273 0.383276 0.046624
O O13 0.609894 0.096694 0.951694
O O14 0.500000 0.000000 0.500000
O O15 0.013217 0.141326 0.446944
O O16 0.964341 0.693120 0.931160
O O17 0.000000 0.000000 0.000000
#
# Coordination Sequence:
#
# PCOD9100543 Si02
#       8
#     2   2   2   2   2   2   2   2
#     4  12  25  40  57  87 125 160 196 241 292 351
#     4  11  21  40  63  86 115 157 198 243 295 350
#     4  11  21  39  64  91 116 152 199 247 294 351
#     4  12  25  40  57  87 125 160 196 241 292 351
#     4  10  20  37  64  94 116 145 198 255 295 342
#     4  11  21  39  64  91 116 152 199 247 294 351
#     4  10  20  37  64  94 116 145 198 255 295 342
#     4  11  21  40  63  86 115 157 198 243 295 350
#
# _framework density 26.029761000000001
#
# number of rings (size 3 to 8) (size 9 to 14) (size 15 to 20)
#    0.000    1.000    0.000   11.250    0.000    0.000 
#    0.000    7.500    0.000    0.000    0.000    0.000 
#    0.000    0.000    0.000    0.000    0.000    0.000 
#
# Total GULP energy -89630.181335 kJ/mol
# GULP energy per Si atom -5601.886333 kJ/mol
# Density = 2.597052 g / cm^3
# Si number density = 26.029761 Si / 1000 Ang^3
#
#
#
# Elastic Constant Matrix: (Units=GPa)
#
#
# Indices 1 2 3 4 5 6 
#
# 1 178.1655 15.7905 39.5159 19.0350 1.2475 -1.6188
# 2 15.7905 70.7747 5.6270 12.3799 -25.0225 -7.5741
# 3 39.5159 5.6270 116.6840 31.9825 2.9821 -6.6874
# 4 19.0350 12.3799 31.9825 38.7020 -10.4221 -15.1606
# 5 1.2475 -25.0225 2.9821 -10.4221 53.8017 1.6356
# 6 -1.6188 -7.5741 -6.6874 -15.1606 1.6356 33.3286
#
#
#
# Elastic Compliance Matrix: (Units=1/GPa)
#
#
# Indices 1 2 3 4 5 6 
#
# 1 0.006305 -0.001433 -0.001510 -0.002190 -0.001115 -0.001264
# 2 -0.001433 0.017853 0.000097 -0.001880 0.007883 0.002765
# 3 -0.001510 0.000097 0.011977 -0.010851 -0.002611 -0.002456
# 4 -0.002190 -0.001880 -0.010851 0.045558 0.008067 0.017617
# 5 -0.001115 0.007883 -0.002611 0.008067 0.023874 0.003711
# 6 -0.001264 0.002765 -0.002456 0.017617 0.003711 0.037910
#
#
# Mechanical properties :
#
#
# Convention : Reuss Voigt Hill
#
# Bulk Modulus (GPa) = 32.84821 54.16566 43.50694
# Shear Modulus (GPa) = 31.38421 45.47917 38.43169
#
# Velocity S-wave (km/s) = 3.47609 4.18449 3.84663
# Velocity P-wave (km/s) = 5.36263 6.64837 6.03981
#
# Compressibility (1/GPa) = 0.03044306
#
# Stress axis : x y z
#
# Youngs Moduli (GPa) = 158.60588 56.01265 83.49331
#
# Poissons Ratio (x) = 0.08026 0.12605
# Poissons Ratio (y) = 0.22727 -0.00807
# Poissons Ratio (z) = 0.23944 -0.00541
#
# Static dielectric constant tensor:
#      x y z
#    x 2.070540 0.051480 -0.013410 
#    y 0.051480 2.111480 -0.111490 
#    z -0.013410 -0.111490 2.007090 
# 
# From -- ./inp_files/217586.got.cif
#   From: 2010.05.17/outbox.cif.g08.bks.cpg/sg2_109_cif.got.tgz:217586.got - 2010.06.03 11:33:40.
