data_PCOD9100405
_publ_section_title
;
Structure prediction by ZEFSAII (Michael W. Deem and Ramdas Pophale) SiO2 
 PCOD9100405
Probable space group: P -1
;
_chemical_formula_sum "Si O2"
_cell_formula_units_Z 16
_cell_length_a 10.192481
_cell_length_b 13.910717
_cell_length_c 20.294118
_cell_angle_alpha 158.143209
_cell_angle_beta 125.989758
_cell_angle_gamma 66.263767
_cell_volume 763.051207
_symmetry_space_group_name_H-M "P -1"
_symmetry_group_IT_number 2
_symmetry_cell_setting 'triclinic'
loop_
_space_group_symop_operation_xyz
x,y,z
-x,-y,-z
loop_
_atom_site_type_symbol
_atom_site_label
_atom_site_fract_x
_atom_site_fract_y
_atom_site_fract_z
Si Si1 0.581311 0.688400 0.364662
Si Si2 0.153482 0.714942 0.632468
Si Si3 0.993427 0.723192 0.235027
Si Si4 0.286432 0.705166 0.212783
Si Si5 0.702342 0.724175 0.882890
Si Si6 0.920678 0.665778 0.405636
Si Si7 0.081906 0.734787 0.963029
Si Si8 0.395711 0.406553 0.478591
O O1 0.491343 0.751406 0.313724
O O2 0.400245 0.506953 0.236874
O O3 0.715281 0.555722 0.304394
O O4 0.698926 0.004897 0.634124
O O5 0.263189 0.551794 0.536169
O O6 0.000000 0.500000 0.500000
O O7 0.059255 0.775482 0.578865
O O8 0.273749 0.986577 0.888597
O O9 0.934789 0.519956 0.153046
O O10 0.155999 0.684078 0.222325
O O11 0.821098 0.575394 0.041331
O O12 0.049591 0.066580 0.464827
O O13 0.555301 0.575862 0.687156
O O14 0.902046 0.773309 0.950561
O O15 0.932358 0.410708 0.205646
O O16 0.265962 0.052692 0.223753
O O17 0.500000 0.500000 0.500000
#
# Coordination Sequence:
#
# PCOD9100405 Si02
#       8
#     2   2   2   2   2   2   2   2
#     4  10  20  37  64 102 133 179 234 283 332 407
#     4  12  26  47  75 103 134 185 242 291 345 409
#     4  10  20  41  67  99 139 187 228 279 350 416
#     4   9  18  34  66  97 136 178 235 282 326 404
#     4  12  25  45  75 100 135 180 241 289 343 412
#     4  11  26  42  70 104 150 182 226 289 355 414
#     4  12  26  47  71 103 147 187 225 287 359 419
#     4  12  29  48  72 103 139 185 233 293 356 411
#
# _framework density 20.968449
#
# number of rings (size 3 to 8) (size 9 to 14) (size 15 to 20)
#    0.000    1.000    2.500    3.750    7.000    1.000 
#    2.250    0.625    0.000    0.000    0.000    0.000 
#    0.000    0.000    0.000    0.000    0.000    0.000 
#
# Total GULP energy -89162.041197 kJ/mol
# GULP energy per Si atom -5572.627575 kJ/mol
# Density = 2.092072 g / cm^3
# Si number density = 20.968449 Si / 1000 Ang^3
#
#
#
# Elastic Constant Matrix: (Units=GPa)
#
#
# Indices 1 2 3 4 5 6 
#
# 1 111.3777 7.7573 88.9496 30.1512 -4.0765 13.6879
# 2 7.7573 19.1436 67.6437 39.8113 14.8772 1.9315
# 3 88.9496 67.6437 216.9211 16.6384 -22.0847 51.7791
# 4 30.1512 39.8113 16.6384 17.0615 -13.5094 23.1598
# 5 -4.0765 14.8772 -22.0847 -13.5094 39.8496 -3.4568
# 6 13.6879 1.9315 51.7791 23.1598 -3.4568 39.2710
#
#
#
# Elastic Compliance Matrix: (Units=1/GPa)
#
#
# Indices 1 2 3 4 5 6 
#
# 1 0.010451 -0.005942 -0.001762 0.002793 0.003049 -0.002405
# 2 -0.005942 0.004290 0.003148 0.017788 0.004491 -0.012385
# 3 -0.001762 0.003148 0.005127 -0.009190 -0.001719 -0.001033
# 4 0.002793 0.017788 -0.009190 0.009287 -0.007945 0.004092
# 5 0.003049 0.004491 -0.001719 -0.007945 0.020734 0.007493
# 6 -0.002405 -0.012385 -0.001033 0.004092 0.007493 0.026520
#
#
# Mechanical properties :
#
#
# Convention : Reuss Voigt Hill
#
# Bulk Modulus (GPa) = 92.96868 75.12706 84.04787
# Shear Modulus (GPa) = 56.11224 31.44254 43.77739
#
# Velocity S-wave (km/s) = 5.17865 3.87656 4.57417
# Velocity P-wave (km/s) = 8.95497 7.47953 8.25030
#
# Compressibility (1/GPa) = 0.01075631
#
# Stress axis : x y z
#
# Youngs Moduli (GPa) = 95.68494 233.09214 195.02777
#
# Poissons Ratio (x) = 1.38492 0.34371
# Poissons Ratio (y) = 0.56851 -0.61390
# Poissons Ratio (z) = 0.16863 -0.73371
#
# Static dielectric constant tensor:
#      x y z
#    x 1.712370 0.070310 -0.036570 
#    y 0.070310 1.813750 0.180120 
#    z -0.036570 0.180120 1.611210 
# 
# From -- ./inp_files/590564.got.cif
#   From: 2010.05.17/outbox.cif.g08.bks.cpg/sg2_296_cif.got.tgz:590564.got - 2010.06.03 11:33:40.
