data_PCOD9100769
_publ_section_title
;
Structure prediction by ZEFSAII (Michael W. Deem and Ramdas Pophale) SiO2 
 PCOD9100769
Probable space group: P -1
;
_chemical_formula_sum "Si O2"
_cell_formula_units_Z 14
_cell_length_a 11.746869
_cell_length_b 8.899198
_cell_length_c 9.092135
_cell_angle_alpha 85.177496
_cell_angle_beta 123.629908
_cell_angle_gamma 126.995186
_cell_volume 586.019713
_symmetry_space_group_name_H-M "P -1"
_symmetry_group_IT_number 2
_symmetry_cell_setting 'triclinic'
loop_
_space_group_symop_operation_xyz
x,y,z
-x,-y,-z
loop_
_atom_site_type_symbol
_atom_site_label
_atom_site_fract_x
_atom_site_fract_y
_atom_site_fract_z
Si Si1 0.199450 0.092721 0.510314
Si Si2 0.480079 0.736423 0.055002
Si Si3 0.883900 0.631085 0.305056
Si Si4 0.937149 0.525773 0.663827
Si Si5 0.645038 0.496605 0.524156
Si Si6 0.375906 0.051460 0.362939
Si Si7 0.301572 0.891000 0.028513
O O1 0.340111 0.190492 0.739894
O O2 0.000446 0.132020 0.600770
O O3 0.213914 0.276723 0.458348
O O4 0.288565 0.060379 0.443723
O O5 0.389215 0.789366 0.098047
O O6 0.316388 0.505117 0.903520
O O7 0.550813 0.889208 0.957622
O O8 0.010273 0.610899 0.298406
O O9 0.862167 0.521098 0.450535
O O10 0.791554 0.477317 0.684455
O O11 0.128362 0.750686 0.809616
O O12 0.500000 0.500000 0.500000
O O13 0.501813 0.277205 0.364286
O O14 0.500000 0.000000 0.500000
O O15 0.247180 0.904546 0.149896
#
# Coordination Sequence:
#
# PCOD9100769 Si02
#       7
#     2   2   2   2   2   2   2
#     4  11  22  42  60  93 134 166 206 261 319 385
#     4  10  20  38  65  97 128 159 213 264 319 372
#     4  10  21  38  69  96 124 165 212 271 311 366
#     4  10  20  40  64  96 127 161 219 265 309 374
#     4  10  24  42  61  88 133 173 205 258 321 385
#     4  11  21  40  65  89 121 168 216 258 314 371
#     4  10  20  37  65  97 122 162 216 270 311 365
#
# _framework density 23.889980000000001
#
# number of rings (size 3 to 8) (size 9 to 14) (size 15 to 20)
#    0.000    1.714    2.857    1.714    2.000    0.571 
#    7.714    5.000    0.000    0.000    0.000    0.000 
#    0.000    0.000    0.000    0.000    0.000    0.000 
#
# Total GULP energy -78035.051965 kJ/mol
# GULP energy per Si atom -5573.932283 kJ/mol
# Density = 2.383561 g / cm^3
# Si number density = 23.889980 Si / 1000 Ang^3
#
#
#
# Elastic Constant Matrix: (Units=GPa)
#
#
# Indices 1 2 3 4 5 6 
#
# 1 121.5146 22.8283 19.3791 8.6801 6.2341 -8.9559
# 2 22.8283 141.4063 48.9034 40.8185 6.2871 7.9953
# 3 19.3791 48.9034 113.9858 37.1931 3.4197 3.1361
# 4 8.6801 40.8185 37.1931 31.6168 9.8734 5.0285
# 5 6.2341 6.2871 3.4197 9.8734 33.3089 6.3147
# 6 -8.9559 7.9953 3.1361 5.0285 6.3147 35.2121
#
#
#
# Elastic Compliance Matrix: (Units=1/GPa)
#
#
# Indices 1 2 3 4 5 6 
#
# 1 0.008944 -0.001365 -0.001284 0.001019 -0.002144 0.002938
# 2 -0.001365 0.011685 0.000323 -0.015806 0.002948 -0.001301
# 3 -0.001284 0.000323 0.014904 -0.018952 0.004225 0.000221
# 4 0.001019 -0.015806 -0.018952 0.080258 -0.018559 -0.002597
# 5 -0.002144 0.002948 0.004225 -0.018559 0.035956 -0.005389
# 6 0.002938 -0.001301 0.000221 -0.002597 -0.005389 0.030759
#
#
# Mechanical properties :
#
#
# Convention : Reuss Voigt Hill
#
# Bulk Modulus (GPa) = 32.38162 62.12535 47.25348
# Shear Modulus (GPa) = 25.32264 39.08062 32.20163
#
# Velocity S-wave (km/s) = 3.25925 4.04896 3.67538
# Velocity P-wave (km/s) = 5.26759 6.92243 6.15092
#
# Compressibility (1/GPa) = 0.03088172
#
# Stress axis : x y z
#
# Youngs Moduli (GPa) = 111.80183 85.57777 67.09772
#
# Poissons Ratio (x) = 0.11681 0.08617
# Poissons Ratio (y) = 0.15260 -0.02170
# Poissons Ratio (z) = 0.14358 -0.02767
#
# Static dielectric constant tensor:
#      x y z
#    x 2.024150 0.038380 -0.015730 
#    y 0.038380 1.948440 -0.048740 
#    z -0.015730 -0.048740 1.931780 
# 
# From -- ./inp_files/239997.got.cif
#   From: 2010.05.17/outbox.cif.g08.bks.cpg/sg2_120_cif.got.tgz:239997.got - 2010.06.03 11:33:40.
