data_PCOD9100333
_publ_section_title
;
Structure prediction by ZEFSAII (Michael W. Deem and Ramdas Pophale) SiO2 
 PCOD9100333
Probable space group: P -1
;
_chemical_formula_sum "Si O2"
_cell_formula_units_Z 14
_cell_length_a 12.536604
_cell_length_b 18.669284
_cell_length_c 8.862774
_cell_angle_alpha 51.278472
_cell_angle_beta 34.625831
_cell_angle_gamma 36.275692
_cell_volume 692.946669
_symmetry_space_group_name_H-M "P -1"
_symmetry_group_IT_number 2
_symmetry_cell_setting 'triclinic'
loop_
_space_group_symop_operation_xyz
x,y,z
-x,-y,-z
loop_
_atom_site_type_symbol
_atom_site_label
_atom_site_fract_x
_atom_site_fract_y
_atom_site_fract_z
Si Si1 0.870371 0.917533 0.129819
Si Si2 0.045088 0.215967 0.322774
Si Si3 0.423444 0.970073 0.397247
Si Si4 0.662369 0.730050 0.241819
Si Si5 0.236685 0.667533 0.205045
Si Si6 0.233489 0.456899 0.387571
Si Si7 0.870117 0.128580 0.407136
O O1 0.636178 0.960502 0.245672
O O2 0.022412 0.784647 0.200418
O O3 0.757244 0.006436 0.288274
O O4 0.056179 0.901404 0.814510
O O5 0.828988 0.290573 0.600344
O O6 0.969743 0.186309 0.298937
O O7 0.267528 0.085766 0.314060
O O8 0.133519 0.288423 0.076940
O O9 0.555764 0.846581 0.316778
O O10 0.746114 0.621344 0.395630
O O11 0.425243 0.776873 0.358299
O O12 0.214940 0.566399 0.328897
O O13 0.504534 0.622503 0.904827
O O14 0.000000 0.500000 0.500000
O O15 0.000000 0.000000 0.500000
#
# Coordination Sequence:
#
# PCOD9100333 Si02
#       7
#     2   2   2   2   2   2   2
#     4  10  20  38  64  90 127 171 211 254 313 379
#     4  11  24  41  64  96 137 166 206 266 322 384
#     4  10  20  37  63  93 129 170 206 253 314 385
#     4  12  23  39  66  96 130 168 214 261 323 372
#     4  10  24  46  65  93 127 170 218 267 318 372
#     4  11  25  44  71  92 122 169 225 271 310 377
#     4  12  23  37  63  96 133 169 208 255 323 383
#
# _framework density 20.203574
#
# number of rings (size 3 to 8) (size 9 to 14) (size 15 to 20)
#    0.000    1.143    4.286    2.143    0.000    3.429 
#    0.000    1.429    0.000    0.000    0.000    0.000 
#    0.000    0.000    0.000    0.000    0.000    0.000 
#
# Total GULP energy -78216.685590 kJ/mol
# GULP energy per Si atom -5586.906114 kJ/mol
# Density = 2.015759 g / cm^3
# Si number density = 20.203574 Si / 1000 Ang^3
#
#
#
# Elastic Constant Matrix: (Units=GPa)
#
#
# Indices 1 2 3 4 5 6 
#
# 1 86.9520 12.2022 25.8237 -0.0498 -11.1308 -11.2611
# 2 12.2022 47.8960 -2.1867 -6.6211 9.6092 -10.5340
# 3 25.8237 -2.1867 79.3915 -11.2466 8.0564 -3.3634
# 4 -0.0498 -6.6211 -11.2466 29.4815 -4.8909 8.5069
# 5 -11.1308 9.6092 8.0564 -4.8909 44.0603 7.9168
# 6 -11.2611 -10.5340 -3.3634 8.5069 7.9168 25.1454
#
#
#
# Elastic Compliance Matrix: (Units=1/GPa)
#
#
# Indices 1 2 3 4 5 6 
#
# 1 0.014988 -0.004753 -0.005843 -0.003503 0.004856 0.003596
# 2 -0.004753 0.027251 0.004168 0.002604 -0.009781 0.012043
# 3 -0.005843 0.004168 0.015979 0.006019 -0.004770 0.000732
# 4 -0.003503 0.002604 0.006019 0.042062 0.004890 -0.015442
# 5 0.004856 -0.009781 -0.004770 0.004890 0.029921 -0.013636
# 6 0.003596 0.012043 0.000732 -0.015442 -0.013636 0.056039
#
#
# Mechanical properties :
#
#
# Convention : Reuss Voigt Hill
#
# Bulk Modulus (GPa) = 22.04442 31.76864 26.90653
# Shear Modulus (GPa) = 23.34087 31.63078 27.48582
#
# Velocity S-wave (km/s) = 3.40263 3.96106 3.69242
# Velocity P-wave (km/s) = 5.13537 6.05627 5.61474
#
# Compressibility (1/GPa) = 0.04536295
#
# Stress axis : x y z
#
# Youngs Moduli (GPa) = 66.71919 36.69610 62.58253
#
# Poissons Ratio (x) = 0.17441 0.36566
# Poissons Ratio (y) = 0.31711 -0.26086
# Poissons Ratio (z) = 0.38983 -0.15296
#
# Static dielectric constant tensor:
#      x y z
#    x 1.701060 0.007690 0.002290 
#    y 0.007690 1.678040 0.009800 
#    z 0.002290 0.009800 1.750550 
# 
# From -- ./inp_files/177150.got.cif
#   From: 2010.05.17/outbox.cif.g08.bks.cpg/sg2_89_cif.got.tgz:177150.got - 2010.06.03 11:33:40.
