data_PCOD9100338
_publ_section_title
;
Structure prediction by ZEFSAII (Michael W. Deem and Ramdas Pophale) SiO2 
 PCOD9100338
Probable space group: P -1
;
_chemical_formula_sum "Si O2"
_cell_formula_units_Z 15
_cell_length_a 5.017922
_cell_length_b 18.665126
_cell_length_c 13.061321
_cell_angle_alpha 136.827285
_cell_angle_beta 124.580017
_cell_angle_gamma 56.510659
_cell_volume 668.173437
_symmetry_space_group_name_H-M "P -1"
_symmetry_group_IT_number 2
_symmetry_cell_setting 'triclinic'
loop_
_space_group_symop_operation_xyz
x,y,z
-x,-y,-z
loop_
_atom_site_type_symbol
_atom_site_label
_atom_site_fract_x
_atom_site_fract_y
_atom_site_fract_z
Si Si1 0.394830 0.964220 0.549436
Si Si2 0.215411 0.870722 0.812509
Si Si3 0.000000 0.500000 0.500000
Si Si4 0.517953 0.717213 0.360944
Si Si5 0.864828 0.428429 0.977891
Si Si6 0.149201 0.514448 0.308481
Si Si7 0.499622 0.010299 0.169748
Si Si8 0.443392 0.323767 0.441295
O O1 0.536772 0.834656 0.452216
O O2 0.461620 0.012202 0.724760
O O3 0.500000 0.000000 0.500000
O O4 0.000000 0.000000 0.500000
O O5 0.234820 0.941947 0.787071
O O6 0.357889 0.750923 0.679161
O O7 0.850478 0.897763 0.810810
O O8 0.444227 0.911027 0.987435
O O9 0.919560 0.516586 0.625962
O O10 0.947574 0.635763 0.615654
O O11 0.219422 0.677978 0.198647
O O12 0.449656 0.722749 0.473051
O O13 0.865288 0.624357 0.330557
O O14 0.500000 0.500000 0.000000
O O15 0.000000 0.500000 0.000000
O O16 0.102674 0.425272 0.124112
O O17 0.499590 0.551605 0.417541
#
# Coordination Sequence:
#
# PCOD9100338 Si02
#       8
#     2   2   1   2   2   2   2   2
#     4  12  26  41  64  93 134 168 212 272 322 382
#     4  10  21  37  71  90 121 162 216 266 309 387
#     4  10  24  38  54 100 126 162 204 266 324 378
#     4  10  22  39  64  92 121 170 221 253 321 381
#     4  10  20  37  63  94 119 160 213 260 302 371
#     4  10  21  39  65  87 128 163 212 262 314 387
#     4  10  21  42  61  96 121 161 216 268 318 369
#     4  11  20  38  66  90 124 169 211 260 316 391
#
# _framework density 22.449259999999999
#
# number of rings (size 3 to 8) (size 9 to 14) (size 15 to 20)
#    0.000    1.600    2.667    2.000    3.733    0.000 
#    2.400    1.333    0.000    0.000    0.000    0.000 
#    0.000    0.000    0.000    0.000    0.000    0.000 
#
# Total GULP energy -83548.081441 kJ/mol
# GULP energy per Si atom -5569.872096 kJ/mol
# Density = 2.239816 g / cm^3
# Si number density = 22.449260 Si / 1000 Ang^3
#
#
#
# Elastic Constant Matrix: (Units=GPa)
#
#
# Indices 1 2 3 4 5 6 
#
# 1 111.8978 21.2588 32.1593 -7.2235 -15.7219 23.5138
# 2 21.2588 96.9609 56.9257 -17.8001 -10.6365 22.9278
# 3 32.1593 56.9257 142.6980 -10.8389 -17.7002 22.6328
# 4 -7.2235 -17.8001 -10.8389 32.1360 2.6095 -14.6123
# 5 -15.7219 -10.6365 -17.7002 2.6095 28.9857 -7.5662
# 6 23.5138 22.9278 22.6328 -14.6123 -7.5662 45.4705
#
#
#
# Elastic Compliance Matrix: (Units=1/GPa)
#
#
# Indices 1 2 3 4 5 6 
#
# 1 0.010760 -0.000302 -0.001165 -0.000422 0.003926 -0.004314
# 2 -0.000302 0.015072 -0.004921 0.005087 0.001074 -0.003181
# 3 -0.001165 -0.004921 0.009820 -0.000601 0.003232 -0.001460
# 4 -0.000422 0.005087 -0.000601 0.038301 0.000524 0.010348
# 5 0.003926 0.001074 0.003232 0.000524 0.039623 0.002581
# 6 -0.004314 -0.003181 -0.001460 0.010348 0.002581 0.030309
#
#
# Mechanical properties :
#
#
# Convention : Reuss Voigt Hill
#
# Bulk Modulus (GPa) = 43.71129 63.58269 53.64699
# Shear Modulus (GPa) = 30.43471 37.39932 33.91701
#
# Velocity S-wave (km/s) = 3.68599 4.08603 3.89116
# Velocity P-wave (km/s) = 6.13423 7.11654 6.64357
#
# Compressibility (1/GPa) = 0.02287739
#
# Stress axis : x y z
#
# Youngs Moduli (GPa) = 92.93775 66.34611 101.83186
#
# Poissons Ratio (x) = 0.02000 0.11868
# Poissons Ratio (y) = 0.02802 0.50107
# Poissons Ratio (z) = 0.10832 0.32646
#
# Static dielectric constant tensor:
#      x y z
#    x 1.466300 0.215760 -0.012980 
#    y 0.215760 1.712700 0.038730 
#    z -0.012980 0.038730 1.880250 
# 
# From -- ./inp_files/369109.got.cif
#   From: 2010.05.17/outbox.cif.g08.bks.cpg/sg2_185_cif.got.tgz:369109.got - 2010.06.03 11:33:40.
