data_PCOD9100835
_publ_section_title
;
Structure prediction by ZEFSAII (Michael W. Deem and Ramdas Pophale) SiO2 
 PCOD9100835
Probable space group: P -1
;
_chemical_formula_sum "Si O2"
_cell_formula_units_Z 12
_cell_length_a 11.457879
_cell_length_b 8.014958
_cell_length_c 7.586669
_cell_angle_alpha 63.100058
_cell_angle_beta 85.731684
_cell_angle_gamma 123.612129
_cell_volume 465.314249
_symmetry_space_group_name_H-M "P -1"
_symmetry_group_IT_number 2
_symmetry_cell_setting 'triclinic'
loop_
_space_group_symop_operation_xyz
x,y,z
-x,-y,-z
loop_
_atom_site_type_symbol
_atom_site_label
_atom_site_fract_x
_atom_site_fract_y
_atom_site_fract_z
Si Si1 0.106358 0.061790 0.167173
Si Si2 0.238833 0.245740 0.705411
Si Si3 0.849488 0.449758 0.095714
Si Si4 0.636091 0.705888 0.681437
Si Si5 0.543266 0.230005 0.051952
Si Si6 0.628783 0.215567 0.521395
O O1 0.209189 0.126099 0.293820
O O2 0.193459 0.089258 0.964757
O O3 0.110119 0.288907 0.029542
O O4 0.923009 0.829287 0.309009
O O5 0.309223 0.190582 0.571377
O O6 0.352869 0.541701 0.585732
O O7 0.704498 0.297801 0.049736
O O8 0.787204 0.321237 0.355547
O O9 0.000000 0.500000 0.000000
O O10 0.513487 0.695950 0.812613
O O11 0.573624 0.425426 0.815492
O O12 0.412600 0.930304 0.220708
O O13 0.500000 0.000000 0.500000
#
# Coordination Sequence:
#
# PCOD9100835 Si02
#       6
#     2   2   2   2   2   2
#     4   9  20  38  61  96 127 153 214 258 298 383
#     4  10  20  37  66  90 124 165 208 253 313 364
#     4   9  18  35  64  86 118 169 202 246 317 359
#     4  10  20  38  65  89 123 168 199 258 316 360
#     4   9  20  38  59  89 129 156 208 256 306 372
#     4   9  19  38  59  88 124 159 205 260 300 368
#
# _framework density 25.789023
#
# number of rings (size 3 to 8) (size 9 to 14) (size 15 to 20)
#    0.000    2.667    0.000    1.500    2.333    0.667 
#    0.000   21.667   36.667    0.000    0.000    0.000 
#    0.000    0.000    0.000    0.000    0.000    0.000 
#
# Total GULP energy -67019.459537 kJ/mol
# GULP energy per Si atom -5584.954961 kJ/mol
# Density = 2.573033 g / cm^3
# Si number density = 25.789023 Si / 1000 Ang^3
#
#
#
# Elastic Constant Matrix: (Units=GPa)
#
#
# Indices 1 2 3 4 5 6 
#
# 1 87.7285 9.5427 18.7023 -3.2747 -29.3404 6.4404
# 2 9.5427 91.8430 10.9603 -2.5635 -8.3005 15.8718
# 3 18.7023 10.9603 77.5480 7.2640 -28.1211 11.3419
# 4 -3.2747 -2.5635 7.2640 42.9657 -10.1897 -1.0631
# 5 -29.3404 -8.3005 -28.1211 -10.1897 47.3693 -12.0537
# 6 6.4404 15.8718 11.3419 -1.0631 -12.0537 29.3491
#
#
#
# Elastic Compliance Matrix: (Units=1/GPa)
#
#
# Indices 1 2 3 4 5 6 
#
# 1 0.014950 -0.000763 -0.000418 0.003585 0.010043 0.001548
# 2 -0.000763 0.012119 -0.000772 0.000583 -0.000252 -0.006171
# 3 -0.000418 -0.000772 0.016701 -0.000893 0.008719 -0.002396
# 4 0.003585 0.000583 -0.000893 0.025777 0.008244 0.003563
# 5 0.010043 -0.000252 0.008719 0.008244 0.036772 0.009964
# 6 0.001548 -0.006171 -0.002396 0.003563 0.009964 0.042217
#
#
# Mechanical properties :
#
#
# Convention : Reuss Voigt Hill
#
# Bulk Modulus (GPa) = 25.08590 37.28111 31.18351
# Shear Modulus (GPa) = 30.16934 38.46442 34.31688
#
# Velocity S-wave (km/s) = 3.42402 3.86619 3.65180
# Velocity P-wave (km/s) = 5.03789 5.86664 5.46799
#
# Compressibility (1/GPa) = 0.03986302
#
# Stress axis : x y z
#
# Youngs Moduli (GPa) = 66.88970 82.51184 59.87699
#
# Poissons Ratio (x) = 0.06298 0.02502
# Poissons Ratio (y) = 0.05106 0.04625
# Poissons Ratio (z) = 0.02795 0.06374
#
# Static dielectric constant tensor:
#      x y z
#    x 2.056120 0.001290 0.046870 
#    y 0.001290 2.128740 0.000220 
#    z 0.046870 0.000220 2.129900 
# 
# From -- ./inp_files/242966.got.cif
#   From: 2010.05.17/outbox.cif.g08.bks.cpg/sg2_122_cif.got.tgz:242966.got - 2010.06.03 11:33:40.
