data_PCOD9100809
_publ_section_title
;
Structure prediction by ZEFSAII (Michael W. Deem and Ramdas Pophale) SiO2 
 PCOD9100809
Probable space group: P -1
;
_chemical_formula_sum "Si O2"
_cell_formula_units_Z 14
_cell_length_a 9.619226
_cell_length_b 10.145272
_cell_length_c 10.847105
_cell_angle_alpha 82.624349
_cell_angle_beta 124.163306
_cell_angle_gamma 122.916010
_cell_volume 711.078500
_symmetry_space_group_name_H-M "P -1"
_symmetry_group_IT_number 2
_symmetry_cell_setting 'triclinic'
loop_
_space_group_symop_operation_xyz
x,y,z
-x,-y,-z
loop_
_atom_site_type_symbol
_atom_site_label
_atom_site_fract_x
_atom_site_fract_y
_atom_site_fract_z
Si Si1 0.780143 0.660478 0.376312
Si Si2 0.751857 0.126084 0.471801
Si Si3 0.345140 0.792437 0.320483
Si Si4 0.426781 0.576520 0.049737
Si Si5 0.241298 0.634095 0.739542
Si Si6 0.166200 0.436091 0.336251
Si Si7 0.982175 0.651066 0.983389
O O1 0.606014 0.672348 0.227101
O O2 0.760805 0.505637 0.319391
O O3 0.746356 0.620753 0.509346
O O4 0.014118 0.809939 0.447281
O O5 0.727792 0.173774 0.591640
O O6 0.698353 0.220876 0.339121
O O7 0.579373 0.936074 0.395512
O O8 0.313824 0.619985 0.339812
O O9 0.191976 0.781849 0.141154
O O10 0.219566 0.424444 0.025048
O O11 0.500000 0.500000 0.000000
O O12 0.372610 0.676873 0.924643
O O13 0.014686 0.566280 0.682976
O O14 0.066874 0.320364 0.181406
O O15 0.000000 0.500000 0.000000
#
# Coordination Sequence:
#
# PCOD9100809 Si02
#       7
#     2   2   2   2   2   2   2
#     4  10  18  31  51  78 102 132 173 213 252 305
#     4  10  18  29  54  76 104 131 175 211 255 295
#     4  10  17  30  51  79 102 131 172 219 247 298
#     4  10  19  31  55  76 105 131 174 215 253 293
#     4  10  16  32  50  78  98 138 175 210 243 306
#     4  10  17  32  56  73 102 133 176 210 251 298
#     4  10  19  33  54  79 100 137 173 212 252 301
#
# _framework density 19.688403000000001
#
# number of rings (size 3 to 8) (size 9 to 14) (size 15 to 20)
#    0.000    2.000    5.714    1.714    0.000    0.571 
#    0.000    2.857    3.143    6.857    0.000    0.000 
#    0.000    0.000    0.000    0.000    0.000    0.000 
#
# Total GULP energy -78072.695509 kJ/mol
# GULP energy per Si atom -5576.621108 kJ/mol
# Density = 1.964359 g / cm^3
# Si number density = 19.688403 Si / 1000 Ang^3
#
#
#
# Elastic Constant Matrix: (Units=GPa)
#
#
# Indices 1 2 3 4 5 6 
#
# 1 31.0031 -0.6497 5.5846 3.4607 -3.6479 7.1655
# 2 -0.6497 81.4988 49.3761 12.8974 1.9961 20.3850
# 3 5.5846 49.3761 197.1269 -7.4440 -1.5232 11.8894
# 4 3.4607 12.8974 -7.4440 24.1086 9.2593 4.5355
# 5 -3.6479 1.9961 -1.5232 9.2593 29.2814 -1.8534
# 6 7.1655 20.3850 11.8894 4.5355 -1.8534 13.4443
#
#
#
# Elastic Compliance Matrix: (Units=1/GPa)
#
#
# Indices 1 2 3 4 5 6 
#
# 1 0.042432 0.011613 -0.002294 -0.008327 0.004811 -0.034723
# 2 0.011613 0.026774 -0.005085 -0.010330 0.000169 -0.038781
# 3 -0.002294 -0.005085 0.006530 0.005300 -0.001199 0.001205
# 4 -0.008327 -0.010330 0.005300 0.058422 -0.018969 -0.006909
# 5 0.004811 0.000169 -0.001199 -0.018969 0.041329 0.010337
# 6 -0.034723 -0.038781 0.001205 -0.006909 0.010337 0.154380
#
#
# Mechanical properties :
#
#
# Convention : Reuss Voigt Hill
#
# Bulk Modulus (GPa) = 11.87585 46.47230 29.17408
# Shear Modulus (GPa) = 14.30749 30.38807 22.34778
#
# Velocity S-wave (km/s) = 2.69865 3.93294 3.37274
# Velocity P-wave (km/s) = 3.96930 6.65426 5.47880
#
# Compressibility (1/GPa) = 0.08420449
#
# Stress axis : x y z
#
# Youngs Moduli (GPa) = 23.56700 37.34919 153.14539
#
# Poissons Ratio (x) = -0.43374 0.35132
# Poissons Ratio (y) = -0.27369 0.77877
# Poissons Ratio (z) = 0.05406 0.18993
#
# Static dielectric constant tensor:
#      x y z
#    x 1.692030 0.011100 -0.009070 
#    y 0.011100 1.655340 -0.006390 
#    z -0.009070 -0.006390 1.791450 
# 
# From -- ./inp_files/390079.got.cif
#   From: 2010.05.17/outbox.cif.g08.bks.cpg/sg2_196_cif.got.tgz:390079.got - 2010.06.03 11:33:40.
