data_PCOD9100768
_publ_section_title
;
Structure prediction by ZEFSAII (Michael W. Deem and Ramdas Pophale) SiO2 
 PCOD9100768
Probable space group: P -1
;
_chemical_formula_sum "Si O2"
_cell_formula_units_Z 10
_cell_length_a 9.978471
_cell_length_b 14.235468
_cell_length_c 13.205816
_cell_angle_alpha 31.050564
_cell_angle_beta 146.699618
_cell_angle_gamma 125.870663
_cell_volume 471.852362
_symmetry_space_group_name_H-M "P -1"
_symmetry_group_IT_number 2
_symmetry_cell_setting 'triclinic'
loop_
_space_group_symop_operation_xyz
x,y,z
-x,-y,-z
loop_
_atom_site_type_symbol
_atom_site_label
_atom_site_fract_x
_atom_site_fract_y
_atom_site_fract_z
Si Si1 0.677314 0.752218 0.630575
Si Si2 0.097743 0.439660 0.476366
Si Si3 0.592858 0.500438 0.208066
Si Si4 0.413126 0.147410 0.213505
Si Si5 0.255645 0.457111 0.345214
O O1 0.562559 0.627142 0.743780
O O2 0.663527 0.693895 0.559769
O O3 0.498632 0.990430 0.319904
O O4 0.993945 0.661909 0.949375
O O5 0.349497 0.407816 0.736291
O O6 0.166996 0.374989 0.464788
O O7 0.895312 0.369391 0.470753
O O8 0.904902 0.688325 0.126021
O O9 0.456347 0.696090 0.866246
O O10 0.500000 0.000000 0.500000
O O11 0.500000 0.500000 0.500000
#
# Coordination Sequence:
#
# PCOD9100768 Si02
#       5
#     2   2   2   2   2
#     4  11  22  39  70  87 117 176 200 241 327 354
#     4   9  19  40  62  86 130 153 195 270 292 341
#     4   9  20  39  65  90 123 155 212 252 295 368
#     4  10  20  37  65  97 117 153 216 259 288 363
#     4  11  22  39  61  91 129 163 197 255 311 368
#
# _framework density 21.193069999999999
#
# number of rings (size 3 to 8) (size 9 to 14) (size 15 to 20)
#    1.200    0.800    4.000    0.000    0.000    4.000 
#    0.000    5.000    8.800    0.000    0.000    0.000 
#    0.000    0.000    0.000    0.000    0.000    0.000 
#
# Total GULP energy -55715.947574 kJ/mol
# GULP energy per Si atom -5571.594757 kJ/mol
# Density = 2.114483 g / cm^3
# Si number density = 21.193070 Si / 1000 Ang^3
#
#
#
# Elastic Constant Matrix: (Units=GPa)
#
#
# Indices 1 2 3 4 5 6 
#
# 1 115.6645 37.4126 11.4042 -4.6392 -3.8016 -14.8540
# 2 37.4126 91.0321 32.9560 9.4256 7.8215 -2.5072
# 3 11.4042 32.9560 63.4657 -0.7418 -6.8112 7.8916
# 4 -4.6392 9.4256 -0.7418 39.1712 -3.5810 -4.1597
# 5 -3.8016 7.8215 -6.8112 -3.5810 25.4377 -0.2200
# 6 -14.8540 -2.5072 7.8916 -4.1597 -0.2200 36.1522
#
#
#
# Elastic Compliance Matrix: (Units=1/GPa)
#
#
# Indices 1 2 3 4 5 6 
#
# 1 0.011188 -0.005457 0.000745 0.003502 0.004081 0.004483
# 2 -0.005457 0.018205 -0.009646 -0.006071 -0.009848 0.000367
# 3 0.000745 -0.009646 0.022280 0.003185 0.009450 -0.004802
# 4 0.003502 -0.006071 0.003185 0.028519 0.007289 0.003648
# 5 0.004081 -0.009848 0.009450 0.007289 0.046506 0.000053
# 6 0.004483 0.000367 -0.004802 0.003648 0.000053 0.030997
#
#
# Mechanical properties :
#
#
# Convention : Reuss Voigt Hill
#
# Bulk Modulus (GPa) = 43.56202 48.18977 45.87589
# Shear Modulus (GPa) = 25.76466 32.71151 29.23808
#
# Velocity S-wave (km/s) = 3.49049 3.93300 3.71833
# Velocity P-wave (km/s) = 6.06994 6.58882 6.33469
#
# Compressibility (1/GPa) = 0.02295578
#
# Stress axis : x y z
#
# Youngs Moduli (GPa) = 89.38266 54.92981 44.88282
#
# Poissons Ratio (x) = 0.29978 -0.03344
# Poissons Ratio (y) = 0.48780 0.43295
# Poissons Ratio (z) = -0.06659 0.52986
#
# Static dielectric constant tensor:
#      x y z
#    x 1.839650 -0.022950 -0.006570 
#    y -0.022950 1.774130 0.049850 
#    z -0.006570 0.049850 1.771040 
# 
# From -- ./inp_files/88228.got.cif
#   From: 2010.05.17/outbox.cif.g08.bks.cpg/sg2_45_cif.got.tgz:88228.got - 2010.06.03 11:33:40.
