data_PCOD9101960
_publ_section_title
;
Structure prediction by ZEFSAII (Michael W. Deem and Ramdas Pophale) SiO2 
 PCOD9101960
Probable space group: P -1
;
_chemical_formula_sum "Si O2"
_cell_formula_units_Z 16
_cell_length_a 11.774153
_cell_length_b 9.295236
_cell_length_c 13.895463
_cell_angle_alpha 82.731486
_cell_angle_beta 148.555396
_cell_angle_gamma 83.826236
_cell_volume 715.495779
_symmetry_space_group_name_H-M "P -1"
_symmetry_group_IT_number 2
_symmetry_cell_setting 'triclinic'
loop_
_space_group_symop_operation_xyz
x,y,z
-x,-y,-z
loop_
_atom_site_type_symbol
_atom_site_label
_atom_site_fract_x
_atom_site_fract_y
_atom_site_fract_z
Si Si1 0.803561 0.626840 0.086929
Si Si2 0.731488 0.483843 0.229366
Si Si3 0.232114 0.808750 0.627030
Si Si4 0.433482 0.152499 0.371750
Si Si5 0.766324 0.321972 0.572771
Si Si6 0.443550 0.345894 0.706650
Si Si7 0.960530 0.291355 0.124157
Si Si8 0.740226 0.915057 0.464170
O O1 0.859531 0.557783 0.243114
O O2 0.984320 0.709000 0.192821
O O3 0.869533 0.472696 0.080452
O O4 0.520126 0.730673 0.864483
O O5 0.859473 0.297281 0.362507
O O6 0.652910 0.577883 0.264403
O O7 0.500000 0.500000 0.000000
O O8 0.183294 0.760660 0.488727
O O9 0.164362 0.995856 0.552139
O O10 0.590690 0.252293 0.498830
O O11 0.158178 0.258549 0.187318
O O12 0.500000 0.000000 0.500000
O O13 0.516808 0.066007 0.337284
O O14 0.635394 0.511139 0.440467
O O15 0.350152 0.213237 0.627213
O O16 0.729718 0.269590 0.924257
O O17 0.076927 0.173677 0.309148
#
# Coordination Sequence:
#
# PCOD9101960 Si02
#       8
#     2   2   2   2   2   2   2   2
#     4  11  20  38  66  86 116 157 202 242 291 348
#     4   9  18  38  63  87 119 155 196 245 292 344
#     4   9  20  38  59  87 121 153 192 248 291 345
#     4   9  22  41  60  84 124 155 192 249 300 343
#     4  10  20  38  61  89 113 154 202 242 285 355
#     4  11  21  37  65  90 119 155 200 243 289 357
#     4  11  21  39  62  86 120 161 193 248 294 343
#     4  10  22  41  57  88 126 152 197 249 292 351
#
# _framework density 22.362116
#
# number of rings (size 3 to 8) (size 9 to 14) (size 15 to 20)
#    0.000    2.000    5.000    0.000    0.000    6.500 
#    0.000    3.125    5.500    0.000    0.000    0.000 
#    0.000    0.000    0.000    0.000    0.000    0.000 
#
# Total GULP energy -89330.539530 kJ/mol
# GULP energy per Si atom -5583.158721 kJ/mol
# Density = 2.231122 g / cm^3
# Si number density = 22.362116 Si / 1000 Ang^3
#
#
#
# Elastic Constant Matrix: (Units=GPa)
#
#
# Indices 1 2 3 4 5 6 
#
# 1 64.2761 16.2119 -4.7883 11.4488 11.0507 26.2714
# 2 16.2119 113.2698 8.7867 24.5935 6.5383 34.9987
# 3 -4.7883 8.7867 71.7485 33.2496 11.3603 13.0366
# 4 11.4488 24.5935 33.2496 23.3887 9.8523 5.7584
# 5 11.0507 6.5383 11.3603 9.8523 30.2501 0.9988
# 6 26.2714 34.9987 13.0366 5.7584 0.9988 32.0176
#
#
#
# Elastic Compliance Matrix: (Units=1/GPa)
#
#
# Indices 1 2 3 4 5 6 
#
# 1 -0.008791 -0.022848 -0.039171 0.076949 -0.003338 0.034402
# 2 -0.022848 -0.006469 -0.031981 0.055156 0.002839 0.028832
# 3 -0.039171 -0.031981 -0.039821 0.091167 0.004279 0.066784
# 4 0.076949 0.055156 0.091167 -0.138985 -0.024552 -0.134789
# 5 -0.003338 0.002839 0.004279 -0.024552 0.040018 0.001061
# 6 0.034402 0.028832 0.066784 -0.134789 0.001061 -0.031495
#
#
# Mechanical properties :
#
#
# Convention : Reuss Voigt Hill
#
# Bulk Modulus (GPa) = -4.11388 32.19057 14.03834
# Shear Modulus (GPa) = -63.63834 32.40356 -15.61739
#
# Velocity S-wave (km/s) = -5.34040 3.81075 -2.64557
# Velocity P-wave (km/s) = 6.31428 5.81282 1.74375
#
# Compressibility (1/GPa) = -0.24307927
#
# Stress axis : x y z
#
# Youngs Moduli (GPa) = -113.75506 -154.59216 -25.11261
#
# Poissons Ratio (x) = -3.53207 -0.98368
# Poissons Ratio (y) = -2.59904 -0.80313
# Poissons Ratio (z) = -4.45586 -4.94406
#
# Static dielectric constant tensor:
#      x y z
#    x 1.942530 0.019700 0.021240 
#    y 0.019700 1.823310 -0.037850 
#    z 0.021240 -0.037850 1.833370 
# 
# From -- ./inp_files/217377.got.cif
#   From: 2010.05.17/outbox.cif.g08.bks.cpg/sg2_109_cif.got.tgz:217377.got - 2010.06.03 11:33:40.
