data_PCOD9101025
_publ_section_title
;
Structure prediction by ZEFSAII (Michael W. Deem and Ramdas Pophale) SiO2 
 PCOD9101025
Probable space group: P -1
;
_chemical_formula_sum "Si O2"
_cell_formula_units_Z 16
_cell_length_a 25.458341
_cell_length_b 31.126909
_cell_length_c 12.125456
_cell_angle_alpha 26.803774
_cell_angle_beta 27.978196
_cell_angle_gamma 8.751800
_cell_volume 659.206228
_symmetry_space_group_name_H-M "P -1"
_symmetry_group_IT_number 2
_symmetry_cell_setting 'triclinic'
loop_
_space_group_symop_operation_xyz
x,y,z
-x,-y,-z
loop_
_atom_site_type_symbol
_atom_site_label
_atom_site_fract_x
_atom_site_fract_y
_atom_site_fract_z
Si Si1 0.475781 0.278576 0.984637
Si Si2 0.495673 0.751464 0.748509
Si Si3 0.853772 0.019645 0.679321
Si Si4 0.334354 0.220430 0.943826
Si Si5 0.974017 0.849922 0.618895
Si Si6 0.574829 0.324604 0.148506
Si Si7 0.771991 0.386614 0.644755
Si Si8 0.142057 0.364683 0.712475
O O1 0.771739 0.025146 0.926975
O O2 0.260701 0.547078 0.736539
O O3 0.583086 0.210961 0.065906
O O4 0.217317 0.397926 0.186651
O O5 0.516086 0.650998 0.853635
O O6 0.820236 0.560232 0.578040
O O7 0.158738 0.084966 0.576114
O O8 0.493235 0.333423 0.568287
O O9 0.066280 0.803396 0.680548
O O10 0.000000 0.000000 0.500000
O O11 0.208614 0.318232 0.826437
O O12 0.614971 0.079140 0.759370
O O13 0.000000 0.500000 0.000000
O O14 0.560320 0.943982 0.180605
O O15 0.898435 0.005094 0.332604
O O16 0.285746 0.548007 0.267932
O O17 0.664396 0.362982 0.881196
#
# Coordination Sequence:
#
# PCOD9101025 Si02
#       8
#     2   2   2   2   2   2   2   2
#     4  11  26  42  63  95 136 168 211 266 325 382
#     4  12  24  40  69  94 130 173 211 264 322 381
#     4  11  26  44  67  93 131 170 212 268 324 380
#     4  10  20  37  68  94 123 165 212 266 317 377
#     4  10  22  42  66  94 125 167 219 259 322 385
#     4  10  22  43  64  92 127 165 218 266 312 382
#     4  10  25  42  67  93 128 166 223 262 318 382
#     4  10  23  40  62  96 131 164 215 260 320 382
#
# _framework density 24.271616999999999
#
# number of rings (size 3 to 8) (size 9 to 14) (size 15 to 20)
#    0.000    1.500    1.250    2.250   14.000    0.500 
#    0.000    0.000    0.000    6.000    0.000    0.000 
#    0.000    0.000    0.000    0.000    0.000    0.000 
#
# Total GULP energy -89611.754323 kJ/mol
# GULP energy per Si atom -5600.734645 kJ/mol
# Density = 2.421637 g / cm^3
# Si number density = 24.271617 Si / 1000 Ang^3
#
#
#
# Elastic Constant Matrix: (Units=GPa)
#
#
# Indices 1 2 3 4 5 6 
#
# 1 169.6968 14.4173 29.2496 12.4322 7.7180 1.6974
# 2 14.4173 58.7115 -7.4317 4.4183 3.1281 12.2248
# 3 29.2496 -7.4317 50.2220 -2.3916 1.1959 7.3970
# 4 12.4322 4.4183 -2.3916 32.6414 -3.0853 4.3856
# 5 7.7180 3.1281 1.1959 -3.0853 40.4090 3.9541
# 6 1.6974 12.2248 7.3970 4.3856 3.9541 29.2664
#
#
#
# Elastic Compliance Matrix: (Units=1/GPa)
#
#
# Indices 1 2 3 4 5 6 
#
# 1 0.007296 -0.002677 -0.005164 -0.003305 -0.001550 0.002705
# 2 -0.002677 0.020539 0.006065 -0.000011 -0.000289 -0.009916
# 3 -0.005164 0.006065 0.025392 0.004372 0.001023 -0.009445
# 4 -0.003305 -0.000011 0.004372 0.033427 0.003683 -0.006415
# 5 -0.001550 -0.000289 0.001023 0.003683 0.025715 -0.004074
# 6 0.002705 -0.009916 -0.009445 -0.006415 -0.004074 0.042053
#
#
# Mechanical properties :
#
#
# Convention : Reuss Voigt Hill
#
# Bulk Modulus (GPa) = 20.13126 39.01120 29.57123
# Shear Modulus (GPa) = 28.64812 36.62303 32.63558
#
# Velocity S-wave (km/s) = 3.43930 3.88865 3.67085
# Velocity P-wave (km/s) = 4.90753 6.02244 5.49334
#
# Compressibility (1/GPa) = 0.04967399
#
# Stress axis : x y z
#
# Youngs Moduli (GPa) = 137.06062 48.68887 39.38278
#
# Poissons Ratio (x) = 0.13035 0.20339
# Poissons Ratio (y) = 0.36695 -0.23887
# Poissons Ratio (z) = 0.70782 -0.29532
#
# Static dielectric constant tensor:
#      x y z
#    x 1.921510 -0.015140 0.026500 
#    y -0.015140 1.935250 -0.025660 
#    z 0.026500 -0.025660 1.935980 
# 
# From -- ./inp_files/273821.got.cif
#   From: 2010.05.17/outbox.cif.g08.bks.cpg/sg2_137_cif.got.tgz:273821.got - 2010.06.03 11:33:40.
