data_PCOD9101951
_publ_section_title
;
Structure prediction by ZEFSAII (Michael W. Deem and Ramdas Pophale) SiO2 
 PCOD9101951
Probable space group: P -1
;
_chemical_formula_sum "Si O2"
_cell_formula_units_Z 16
_cell_length_a 11.218877
_cell_length_b 11.165724
_cell_length_c 11.774295
_cell_angle_alpha 42.329097
_cell_angle_beta 102.775435
_cell_angle_gamma 72.217131
_cell_volume 678.179662
_symmetry_space_group_name_H-M "P -1"
_symmetry_group_IT_number 2
_symmetry_cell_setting 'triclinic'
loop_
_space_group_symop_operation_xyz
x,y,z
-x,-y,-z
loop_
_atom_site_type_symbol
_atom_site_label
_atom_site_fract_x
_atom_site_fract_y
_atom_site_fract_z
Si Si1 0.908068 0.497820 0.710280
Si Si2 0.936386 0.732026 0.750372
Si Si3 0.588443 0.298781 0.328517
Si Si4 0.768373 0.814381 0.244105
Si Si5 0.419024 0.416187 0.446511
Si Si6 0.409652 0.109855 0.064911
Si Si7 0.839467 0.033068 0.935333
Si Si8 0.299531 0.491508 0.952108
O O1 0.901688 0.678857 0.658157
O O2 0.894587 0.580196 0.520044
O O3 0.741225 0.543703 0.661529
O O4 0.084267 0.198235 0.970628
O O5 0.097509 0.702191 0.798601
O O6 0.757976 0.997685 0.572589
O O7 0.000000 0.500000 0.000000
O O8 0.517541 0.391518 0.375632
O O9 0.651809 0.411196 0.199522
O O10 0.431823 0.380859 0.161484
O O11 0.589513 0.020738 0.133567
O O12 0.714243 0.751240 0.168013
O O13 0.817387 0.953750 0.105970
O O14 0.323417 0.666186 0.325655
O O15 0.536554 0.151854 0.724171
O O16 0.332664 0.271226 0.049253
O O17 0.000000 0.000000 0.000000
#
# Coordination Sequence:
#
# PCOD9101951 Si02
#       8
#     2   2   2   2   2   2   2   2
#     4  10  22  41  65  92 127 171 216 264 319 383
#     4  12  25  43  69  99 131 170 219 268 322 389
#     4  11  24  44  68  96 134 172 214 272 330 384
#     4  10  20  38  61  88 123 172 216 259 320 377
#     4  10  21  39  63  92 127 170 214 265 325 381
#     4  10  21  38  62  90 124 167 219 265 314 384
#     4  10  21  37  58  90 125 163 211 259 315 379
#     4  11  24  43  67  97 130 172 220 269 326 387
#
# _framework density 23.592569000000001
#
# number of rings (size 3 to 8) (size 9 to 14) (size 15 to 20)
#    0.000    1.500    0.000    5.250    0.000    3.000 
#    0.000   13.750    0.000    0.000    0.000    0.000 
#    0.000    0.000    0.000    0.000    0.000    0.000 
#
# Total GULP energy -89533.756652 kJ/mol
# GULP energy per Si atom -5595.859791 kJ/mol
# Density = 2.353887 g / cm^3
# Si number density = 23.592569 Si / 1000 Ang^3
#
#
#
# Elastic Constant Matrix: (Units=GPa)
#
#
# Indices 1 2 3 4 5 6 
#
# 1 116.0206 12.1983 25.4117 7.3329 2.5484 -12.3484
# 2 12.1983 86.6590 41.6142 0.4041 4.4650 -5.6414
# 3 25.4117 41.6142 127.3150 -3.8053 7.7917 0.0511
# 4 7.3329 0.4041 -3.8053 39.3113 -9.2084 -4.6636
# 5 2.5484 4.4650 7.7917 -9.2084 41.6707 0.1114
# 6 -12.3484 -5.6414 0.0511 -4.6636 0.1114 34.1928
#
#
#
# Elastic Compliance Matrix: (Units=1/GPa)
#
#
# Indices 1 2 3 4 5 6 
#
# 1 0.009504 -0.000206 -0.001845 -0.001714 -0.000601 0.003169
# 2 -0.000206 0.013897 -0.004470 -0.000455 -0.000747 0.002165
# 3 -0.001845 -0.004470 0.009775 0.000944 -0.001024 -0.001286
# 4 -0.001714 -0.000455 0.000944 0.027640 0.006077 0.003054
# 5 -0.000601 -0.000747 -0.001024 0.006077 0.025648 0.000406
# 6 0.003169 0.002165 -0.001286 0.003054 0.000406 0.031165
#
#
# Mechanical properties :
#
#
# Convention : Reuss Voigt Hill
#
# Bulk Modulus (GPa) = 49.67013 54.27145 51.97079
# Shear Modulus (GPa) = 36.39503 39.75300 38.07402
#
# Velocity S-wave (km/s) = 3.93192 4.10930 4.02159
# Velocity P-wave (km/s) = 6.45851 6.75046 6.60610
#
# Compressibility (1/GPa) = 0.02013282
#
# Stress axis : x y z
#
# Youngs Moduli (GPa) = 105.22052 71.96044 102.29954
#
# Poissons Ratio (x) = 0.01486 0.18876
# Poissons Ratio (y) = 0.02172 0.45726
# Poissons Ratio (z) = 0.19415 0.32165
#
# Static dielectric constant tensor:
#      x y z
#    x 1.971450 0.011950 0.057340 
#    y 0.011950 1.926110 -0.019450 
#    z 0.057340 -0.019450 1.894600 
# 
# From -- ./inp_files/427420.got.cif
#   From: 2010.05.17/outbox.cif.g08.bks.cpg/sg2_214_cif.got.tgz:427420.got - 2010.06.03 11:33:40.
