data_PCOD9101481
_publ_section_title
;
Structure prediction by ZEFSAII (Michael W. Deem and Ramdas Pophale) SiO2 
 PCOD9101481
Probable space group: P -1
;
_chemical_formula_sum "Si O2"
_cell_formula_units_Z 14
_cell_length_a 8.323977
_cell_length_b 26.761250
_cell_length_c 26.838823
_cell_angle_alpha 169.190902
_cell_angle_beta 141.007545
_cell_angle_gamma 39.127036
_cell_volume 701.638593
_symmetry_space_group_name_H-M "P -1"
_symmetry_group_IT_number 2
_symmetry_cell_setting 'triclinic'
loop_
_space_group_symop_operation_xyz
x,y,z
-x,-y,-z
loop_
_atom_site_type_symbol
_atom_site_label
_atom_site_fract_x
_atom_site_fract_y
_atom_site_fract_z
Si Si1 0.192475 0.242732 0.990669
Si Si2 0.547211 0.009329 0.757267
Si Si3 0.196672 0.540745 0.973270
Si Si4 0.381696 0.247537 0.247537
Si Si5 0.112917 0.532479 0.705139
Si Si6 0.965953 0.026731 0.459256
Si Si7 0.750386 0.294862 0.467523
O O1 0.294219 0.474419 0.275771
O O2 0.948121 0.374816 0.030422
O O3 0.399116 0.120176 0.879823
O O4 0.130367 0.986834 0.757069
O O5 0.712541 0.724227 0.525579
O O6 0.329911 0.969577 0.625183
O O7 0.720811 0.242928 0.013164
O O8 0.078582 0.284284 0.715717
O O9 0.500000 0.500000 0.000000
O O10 0.120394 0.775922 0.224079
O O11 0.500000 0.500000 0.500000
O O12 0.493687 0.229292 0.312249
O O13 0.078903 0.312249 0.229292
O O14 0.500000 0.000000 0.000000
O O15 0.940182 0.411965 0.588037
O O16 0.000000 0.000000 0.500000
#
# Coordination Sequence:
#
# PCOD9101481 Si02
#       7
#     2   2   2   2   2   2   2
#     4  11  23  41  60  88 127 160 191 247 313 358
#     4  11  23  41  60  88 127 160 191 247 313 358
#     4  11  24  43  64  90 123 161 199 248 302 356
#     4  10  20  38  59  88 123 154 197 258 303 336
#     4  11  22  39  64  90 116 160 209 248 292 358
#     4  11  24  43  64  90 123 161 199 248 302 356
#     4  11  22  39  64  90 116 160 209 248 292 358
#
# _framework density 19.953292999999999
#
# number of rings (size 3 to 8) (size 9 to 14) (size 15 to 20)
#    0.000    1.143    0.000    9.429    0.000    3.429 
#    0.000    4.286    0.000    0.000    0.000    0.000 
#    0.000    0.000    0.000    0.000    0.000    0.000 
#
# Total GULP energy -78251.419604 kJ/mol
# GULP energy per Si atom -5589.387115 kJ/mol
# Density = 1.990788 g / cm^3
# Si number density = 19.953293 Si / 1000 Ang^3
#
#
#
# Elastic Constant Matrix: (Units=GPa)
#
#
# Indices 1 2 3 4 5 6 
#
# 1 54.9803 82.2960 40.5626 -5.3457 2.9477 -4.7446
# 2 82.2960 180.5752 90.0953 -2.7269 -8.8510 -3.5354
# 3 40.5626 90.0953 184.7440 2.3697 -1.6361 -1.9286
# 4 -5.3457 -2.7269 2.3697 39.2810 2.2754 -2.8952
# 5 2.9477 -8.8510 -1.6361 2.2754 53.5237 3.2880
# 6 -4.7446 -3.5354 -1.9286 -2.8952 3.2880 35.7158
#
#
#
# Elastic Compliance Matrix: (Units=1/GPa)
#
#
# Indices 1 2 3 4 5 6 
#
# 1 0.063960 -0.029449 0.000213 0.007697 -0.009147 0.007059
# 2 -0.029449 0.020970 -0.003706 -0.002836 0.005266 -0.002751
# 3 0.000213 -0.003706 0.007179 -0.000637 -0.000380 0.000032
# 4 0.007697 -0.002836 -0.000637 0.026703 -0.002237 0.003078
# 5 -0.009147 0.005266 -0.000380 -0.002237 0.020311 -0.002766
# 6 0.007059 -0.002751 0.000032 0.003078 -0.002766 0.029170
#
#
# Mechanical properties :
#
#
# Convention : Reuss Voigt Hill
#
# Bulk Modulus (GPa) = 38.13507 94.02303 66.07905
# Shear Modulus (GPa) = 20.58294 39.52713 30.05503
#
# Velocity S-wave (km/s) = 3.21527 4.45565 3.88528
# Velocity P-wave (km/s) = 5.73913 8.58454 7.30178
#
# Compressibility (1/GPa) = 0.02622258
#
# Stress axis : x y z
#
# Youngs Moduli (GPa) = 15.63479 47.68774 139.29865
#
# Poissons Ratio (x) = 1.40437 -0.02961
# Poissons Ratio (y) = 0.46043 0.51627
# Poissons Ratio (z) = -0.00332 0.17674
#
# Static dielectric constant tensor:
#      x y z
#    x 1.699490 -0.001450 0.006510 
#    y -0.001450 1.743230 -0.008920 
#    z 0.006510 -0.008920 1.676770 
# 
# From -- ./inp_files/617716.got.cif
#   From: 2010.05.17/outbox.cif.g08.bks.cpg/sg2_309_cif.got.tgz:617716.got - 2010.06.03 11:33:40.
