data_PCOD9101885
_publ_section_title
;
Structure prediction by ZEFSAII (Michael W. Deem and Ramdas Pophale) SiO2 
 PCOD9101885
Probable space group: P -1
;
_chemical_formula_sum "Si O2"
_cell_formula_units_Z 14
_cell_length_a 15.123627
_cell_length_b 7.858814
_cell_length_c 5.830740
_cell_angle_alpha 84.862775
_cell_angle_beta 63.726369
_cell_angle_gamma 65.507870
_cell_volume 561.733292
_symmetry_space_group_name_H-M "P -1"
_symmetry_group_IT_number 2
_symmetry_cell_setting 'triclinic'
loop_
_space_group_symop_operation_xyz
x,y,z
-x,-y,-z
loop_
_atom_site_type_symbol
_atom_site_label
_atom_site_fract_x
_atom_site_fract_y
_atom_site_fract_z
Si Si1 0.247096 0.953093 0.154497
Si Si2 0.491484 0.738514 0.550996
Si Si3 0.354605 0.613840 0.381068
Si Si4 0.871926 0.244246 0.491656
Si Si5 0.594853 0.903482 0.084992
Si Si6 0.939264 0.431406 0.765152
Si Si7 0.912427 0.790218 0.003516
O O1 0.337713 0.747933 0.159825
O O2 0.148109 0.939803 0.409647
O O3 0.192504 0.021719 0.960080
O O4 0.293882 0.105187 0.150405
O O5 0.404901 0.685098 0.523816
O O6 0.560894 0.602049 0.691169
O O7 0.576572 0.739851 0.256849
O O8 0.425802 0.942594 0.708848
O O9 0.232722 0.633859 0.557062
O O10 0.863040 0.356165 0.726391
O O11 0.984856 0.208165 0.253945
O O12 0.500000 0.000000 0.000000
O O13 0.890170 0.610084 0.970429
O O14 0.000000 0.500000 0.500000
O O15 0.034963 0.262144 0.804124
#
# Coordination Sequence:
#
# PCOD9101885 Si02
#       7
#     2   2   2   2   2   2   2
#     4  10  22  39  59  93 122 157 204 249 299 372
#     4  10  22  42  64  84 126 163 198 264 302 361
#     4   9  21  42  60  93 120 160 207 248 308 363
#     4   9  20  39  57  88 122 155 201 250 295 367
#     4  11  22  41  61  91 120 159 209 251 307 361
#     4   9  20  37  57  85 119 160 203 245 296 355
#     4  10  20  38  61  85 126 161 196 248 305 356
#
# _framework density 24.92286
#
# number of rings (size 3 to 8) (size 9 to 14) (size 15 to 20)
#    0.857    1.429    1.429    0.429    0.000    6.857 
#    5.143    0.000    0.000    0.000    0.000    0.000 
#    0.000    0.000    0.000    0.000    0.000    0.000 
#
# Total GULP energy -78010.446539 kJ/mol
# GULP energy per Si atom -5572.174753 kJ/mol
# Density = 2.486613 g / cm^3
# Si number density = 24.922860 Si / 1000 Ang^3
#
#
#
# Elastic Constant Matrix: (Units=GPa)
#
#
# Indices 1 2 3 4 5 6 
#
# 1 184.4916 56.2243 35.5048 -21.0812 -2.1191 -12.6590
# 2 56.2243 87.5956 33.5000 -17.4853 3.2583 -28.2803
# 3 35.5048 33.5000 50.4610 -22.2753 0.0927 -4.7151
# 4 -21.0812 -17.4853 -22.2753 35.2880 -7.1241 20.7847
# 5 -2.1191 3.2583 0.0927 -7.1241 30.5009 -16.1302
# 6 -12.6590 -28.2803 -4.7151 20.7847 -16.1302 50.7402
#
#
#
# Elastic Compliance Matrix: (Units=1/GPa)
#
#
# Indices 1 2 3 4 5 6 
#
# 1 0.007095 -0.003969 -0.001497 0.002216 0.000783 -0.001239
# 2 -0.003969 0.022383 -0.014371 -0.008282 0.003131 0.014538
# 3 -0.001497 -0.014371 0.040824 0.026949 -0.000798 -0.015882
# 4 0.002216 -0.008282 0.026949 0.057342 0.001327 -0.024626
# 5 0.000783 0.003131 -0.000798 0.001327 0.040292 0.014131
# 6 -0.001239 0.014538 -0.015882 -0.024626 0.014131 0.040606
#
#
# Mechanical properties :
#
#
# Convention : Reuss Voigt Hill
#
# Bulk Modulus (GPa) = 32.64718 63.66739 48.15728
# Shear Modulus (GPa) = 19.34810 36.46042 27.90426
#
# Velocity S-wave (km/s) = 2.78927 3.82898 3.34971
# Velocity P-wave (km/s) = 4.84780 6.71932 5.85877
#
# Compressibility (1/GPa) = 0.03063052
#
# Stress axis : x y z
#
# Youngs Moduli (GPa) = 140.94683 44.67653 24.49526
#
# Poissons Ratio (x) = 0.17730 0.03666
# Poissons Ratio (y) = 0.55937 0.35201
# Poissons Ratio (z) = 0.21094 0.64203
#
# Static dielectric constant tensor:
#      x y z
#    x 2.067210 0.013300 -0.053790 
#    y 0.013300 2.062130 0.025390 
#    z -0.053790 0.025390 2.125620 
# 
# From -- ./inp_files/88731.got.cif
#   From: 2010.05.17/outbox.cif.g08.bks.cpg/sg2_45_cif.got.tgz:88731.got - 2010.06.03 11:33:40.
