data_PCOD9101360
_publ_section_title
;
Structure prediction by ZEFSAII (Michael W. Deem and Ramdas Pophale) SiO2 
 PCOD9101360
Probable space group: P -1
;
_chemical_formula_sum "Si O2"
_cell_formula_units_Z 15
_cell_length_a 15.568240
_cell_length_b 8.189989
_cell_length_c 7.169216
_cell_angle_alpha 119.686968
_cell_angle_beta 57.829097
_cell_angle_gamma 90.950440
_cell_volume 633.103894
_symmetry_space_group_name_H-M "P -1"
_symmetry_group_IT_number 2
_symmetry_cell_setting 'triclinic'
loop_
_space_group_symop_operation_xyz
x,y,z
-x,-y,-z
loop_
_atom_site_type_symbol
_atom_site_label
_atom_site_fract_x
_atom_site_fract_y
_atom_site_fract_z
Si Si1 0.598802 0.297538 0.727333
Si Si2 0.500000 0.000000 0.500000
Si Si3 0.713100 0.677162 0.226908
Si Si4 0.375128 0.045503 0.198083
Si Si5 0.920953 0.716733 0.161363
Si Si6 0.992508 0.959297 0.707450
Si Si7 0.191047 0.178966 0.249956
Si Si8 0.206967 0.594440 0.329224
O O1 0.551932 0.182353 0.565703
O O2 0.707151 0.352182 0.609421
O O3 0.631684 0.132538 0.763596
O O4 0.500000 0.500000 0.000000
O O5 0.380127 0.165075 0.692571
O O6 0.668793 0.740237 0.523253
O O7 0.828892 0.709114 0.121870
O O8 0.738361 0.467306 0.974817
O O9 0.314749 0.054231 0.079158
O O10 0.500000 0.000000 0.000000
O O11 0.857761 0.803414 0.474123
O O12 0.990990 0.853129 0.102570
O O13 0.000000 0.500000 0.000000
O O14 0.094972 0.769003 0.531295
O O15 0.880660 0.919783 0.840718
O O16 0.000000 0.000000 0.500000
O O17 0.185214 0.397288 0.315063
#
# Coordination Sequence:
#
# PCOD9101360 Si02
#       8
#     2   1   2   2   2   2   2   2
#     4  11  21  38  65  90 125 172 213 267 329 382
#     4  10  20  38  58  94 124 160 224 252 320 382
#     4  10  21  36  63  92 123 170 210 265 323 390
#     4  10  22  41  63  88 130 169 214 270 322 385
#     4  10  21  42  66  88 128 171 215 271 325 393
#     4  10  20  38  63  94 125 170 213 263 331 385
#     4  10  22  39  62  93 126 168 213 267 325 388
#     4  12  22  39  66  96 128 170 216 268 334 390
#
# _framework density 23.692793000000002
#
# number of rings (size 3 to 8) (size 9 to 14) (size 15 to 20)
#    0.000    1.600    1.333    6.000    1.867    0.000 
#    0.000    6.000    8.800    3.200    0.000    0.000 
#    0.000    0.000    0.000    0.000    0.000    0.000 
#
# Total GULP energy -83516.423402 kJ/mol
# GULP energy per Si atom -5567.761560 kJ/mol
# Density = 2.363887 g / cm^3
# Si number density = 23.692793 Si / 1000 Ang^3
#
#
#
# Elastic Constant Matrix: (Units=GPa)
#
#
# Indices 1 2 3 4 5 6 
#
# 1 226.5523 65.2360 53.1789 21.4178 -39.9016 28.9556
# 2 65.2360 105.4244 6.9601 17.9355 -7.8843 14.8762
# 3 53.1789 6.9601 70.5539 20.1365 2.3260 3.1722
# 4 21.4178 17.9355 20.1365 36.7756 -11.6187 1.2859
# 5 -39.9016 -7.8843 2.3260 -11.6187 38.0910 11.2541
# 6 28.9556 14.8762 3.1722 1.2859 11.2541 49.5645
#
#
#
# Elastic Compliance Matrix: (Units=1/GPa)
#
#
# Indices 1 2 3 4 5 6 
#
# 1 0.011738 -0.005330 -0.010483 0.007009 0.016486 -0.008512
# 2 -0.005330 0.013347 0.005169 -0.008036 -0.005668 0.000272
# 3 -0.010483 0.005169 0.026820 -0.017409 -0.019120 0.007649
# 4 0.007009 -0.008036 -0.017409 0.043771 0.022078 -0.006718
# 5 0.016486 -0.005668 -0.019120 0.022078 0.056171 -0.020033
# 6 -0.008512 0.000272 0.007649 -0.006718 -0.020033 0.029300
#
#
# Mechanical properties :
#
#
# Convention : Reuss Voigt Hill
#
# Bulk Modulus (GPa) = 32.66165 72.58673 52.62419
# Shear Modulus (GPa) = 23.51365 43.36325 33.43845
#
# Velocity S-wave (km/s) = 3.15372 4.28276 3.76085
# Velocity P-wave (km/s) = 5.20352 7.42692 6.41233
#
# Compressibility (1/GPa) = 0.03061695
#
# Stress axis : x y z
#
# Youngs Moduli (GPa) = 85.19022 74.92230 37.28530
#
# Poissons Ratio (x) = 0.39933 0.39087
# Poissons Ratio (y) = 0.45406 -0.19272
# Poissons Ratio (z) = 0.89306 -0.38725
#
# Static dielectric constant tensor:
#      x y z
#    x 2.009890 0.061010 0.006150 
#    y 0.061010 1.879610 -0.048060 
#    z 0.006150 -0.048060 1.976910 
# 
# From -- ./inp_files/293382.got.cif
#   From: 2010.05.17/outbox.cif.g08.bks.cpg/sg2_147_cif.got.tgz:293382.got - 2010.06.03 11:33:40.
