data_PCOD9101535
_publ_section_title
;
Structure prediction by ZEFSAII (Michael W. Deem and Ramdas Pophale) SiO2 
 PCOD9101535
Probable space group: P -1
;
_chemical_formula_sum "Si O2"
_cell_formula_units_Z 15
_cell_length_a 8.413031
_cell_length_b 7.901402
_cell_length_c 8.675451
_cell_angle_alpha 83.165946
_cell_angle_beta 89.901662
_cell_angle_gamma 103.340391
_cell_volume 556.896019
_symmetry_space_group_name_H-M "P -1"
_symmetry_group_IT_number 2
_symmetry_cell_setting 'triclinic'
loop_
_space_group_symop_operation_xyz
x,y,z
-x,-y,-z
loop_
_atom_site_type_symbol
_atom_site_label
_atom_site_fract_x
_atom_site_fract_y
_atom_site_fract_z
Si Si1 0.757603 0.146574 0.213373
Si Si2 0.500000 0.000000 0.500000
Si Si3 0.316505 0.978822 0.103247
Si Si4 0.168934 0.472176 0.928415
Si Si5 0.057295 0.707750 0.303247
Si Si6 0.058346 0.189249 0.403621
Si Si7 0.628731 0.664127 0.789464
Si Si8 0.404145 0.684100 0.294406
O O1 0.733771 0.338676 0.149635
O O2 0.947725 0.186856 0.255294
O O3 0.651626 0.061957 0.368993
O O4 0.737235 0.031187 0.071014
O O5 0.450089 0.801405 0.433991
O O6 0.579271 0.168124 0.854742
O O7 0.410027 0.157789 0.162579
O O8 0.157678 0.898601 0.219458
O O9 0.098798 0.351429 0.797615
O O10 0.276439 0.396487 0.058706
O O11 0.000000 0.500000 0.000000
O O12 0.205532 0.609202 0.299900
O O13 0.999459 0.696474 0.477823
O O14 0.246804 0.249234 0.356178
O O15 0.000000 0.000000 0.500000
O O16 0.525264 0.481476 0.736160
#
# Coordination Sequence:
#
# PCOD9101535 Si02
#       8
#     2   1   2   2   2   2   2   2
#     4  12  24  44  69  99 138 188 232 278 340 412
#     4  12  28  46  72  90 138 198 230 280 338 402
#     4  10  22  43  67  99 139 169 230 283 337 418
#     4  12  20  39  68 105 133 172 229 283 346 416
#     4  10  20  38  60 100 140 167 219 281 342 404
#     4  12  23  36  66 105 148 177 211 291 360 410
#     4  12  23  40  71 105 138 173 222 285 362 403
#     4  10  22  47  64  96 131 180 234 278 332 404
#
# _framework density 26.935009999999998
#
# number of rings (size 3 to 8) (size 9 to 14) (size 15 to 20)
#    0.800    0.000    8.000    0.000    3.733    2.667 
#    0.000    1.333    0.000    0.000    0.000    0.000 
#    0.000    0.000    0.000    0.000    0.000    0.000 
#
# Total GULP energy -83658.034879 kJ/mol
# GULP energy per Si atom -5577.202325 kJ/mol
# Density = 2.687370 g / cm^3
# Si number density = 26.935010 Si / 1000 Ang^3
#
#
#
# Elastic Constant Matrix: (Units=GPa)
#
#
# Indices 1 2 3 4 5 6 
#
# 1 27.6970 36.6506 35.1413 -0.5922 -4.6908 6.0064
# 2 36.6506 209.7391 47.5741 20.8372 -1.5081 -2.5498
# 3 35.1413 47.5741 90.4999 14.3027 -20.3700 9.8330
# 4 -0.5922 20.8372 14.3027 60.5601 1.0177 2.0142
# 5 -4.6908 -1.5081 -20.3700 1.0177 38.2673 2.6486
# 6 6.0064 -2.5498 9.8330 2.0142 2.6486 48.3749
#
#
#
# Elastic Compliance Matrix: (Units=1/GPa)
#
#
# Indices 1 2 3 4 5 6 
#
# 1 0.091676 -0.009794 -0.033397 0.012444 -0.006893 -0.005251
# 2 -0.009794 0.006667 0.000334 -0.002510 -0.000807 0.001648
# 3 -0.033397 0.000334 0.027612 -0.007088 0.010927 -0.001752
# 4 0.012444 -0.002510 -0.007088 0.019248 -0.002797 -0.000885
# 5 -0.006893 -0.000807 0.010927 -0.002797 0.031355 -0.003008
# 6 -0.005251 0.001648 -0.001752 -0.000885 -0.003008 0.021968
#
#
# Mechanical properties :
#
#
# Convention : Reuss Voigt Hill
#
# Bulk Modulus (GPa) = 24.85005 62.96312 43.90658
# Shear Modulus (GPa) = 16.79795 43.34513 30.07154
#
# Velocity S-wave (km/s) = 2.50000 4.01590 3.34495
# Velocity P-wave (km/s) = 4.19277 6.70298 5.59058
#
# Compressibility (1/GPa) = 0.04024137
#
# Stress axis : x y z
#
# Youngs Moduli (GPa) = 10.90793 149.99049 36.21567
#
# Poissons Ratio (x) = 1.46905 1.20950
# Poissons Ratio (y) = 0.10684 -0.01211
# Poissons Ratio (z) = 0.36429 -0.05014
#
# Static dielectric constant tensor:
#      x y z
#    x 2.292430 -0.069380 0.013200 
#    y -0.069380 2.192410 -0.006070 
#    z 0.013200 -0.006070 2.125880 
# 
# From -- ./inp_files/183228.got.cif
#   From: 2010.05.17/outbox.cif.g08.bks.cpg/sg2_92_cif.got.tgz:183228.got - 2010.06.03 11:33:40.
