data_PCOD9101871
_publ_section_title
;
Structure prediction by ZEFSAII (Michael W. Deem and Ramdas Pophale) SiO2 
 PCOD9101871
Probable space group: P -1
;
_chemical_formula_sum "Si O2"
_cell_formula_units_Z 14
_cell_length_a 7.110222
_cell_length_b 15.904300
_cell_length_c 9.083131
_cell_angle_alpha 136.823129
_cell_angle_beta 59.565484
_cell_angle_gamma 98.626285
_cell_volume 562.518607
_symmetry_space_group_name_H-M "P -1"
_symmetry_group_IT_number 2
_symmetry_cell_setting 'triclinic'
loop_
_space_group_symop_operation_xyz
x,y,z
-x,-y,-z
loop_
_atom_site_type_symbol
_atom_site_label
_atom_site_fract_x
_atom_site_fract_y
_atom_site_fract_z
Si Si1 0.619071 0.802183 0.045425
Si Si2 0.916023 0.145794 0.151022
Si Si3 0.247274 0.413758 0.518174
Si Si4 0.590120 0.502144 0.170861
Si Si5 0.043620 0.747619 0.430468
Si Si6 0.692373 0.030569 0.862886
Si Si7 0.745539 0.611791 0.984533
O O1 0.652915 0.666930 0.770961
O O2 0.411972 0.915129 0.186221
O O3 0.911838 0.891528 0.596082
O O4 0.615864 0.758255 0.158661
O O5 0.829751 0.234130 0.444875
O O6 0.754993 0.140079 0.070908
O O7 0.000000 0.000000 0.000000
O O8 0.144424 0.169791 0.035078
O O9 0.427696 0.445437 0.591726
O O10 0.140946 0.316385 0.521656
O O11 0.021872 0.549740 0.760833
O O12 0.693920 0.593580 0.150800
O O13 0.784175 0.354815 0.881661
O O14 0.361108 0.488860 0.176392
O O15 0.500000 0.000000 0.000000
#
# Coordination Sequence:
#
# PCOD9101871 Si02
#       7
#     2   2   2   2   2   2   2
#     4  11  22  36  60  94 119 146 196 256 285 339
#     4   9  18  34  56  84 116 147 192 240 289 334
#     4  10  20  38  61  85 116 156 199 242 288 345
#     4  10  22  41  61  83 120 166 194 232 290 362
#     4   9  18  36  58  87 114 152 201 236 282 357
#     4  11  19  36  59  90 116 152 193 241 298 350
#     4  10  22  38  56  87 122 154 200 236 295 341
#
# _framework density 24.888065000000001
#
# number of rings (size 3 to 8) (size 9 to 14) (size 15 to 20)
#    0.000    2.000    4.286    2.143    0.000    6.286 
#    2.571    0.714    0.000    8.571    0.000    1.000 
#    0.000    0.000    0.000    0.000    0.000    0.000 
#
# Total GULP energy -78307.559858 kJ/mol
# GULP energy per Si atom -5593.397133 kJ/mol
# Density = 2.483142 g / cm^3
# Si number density = 24.888065 Si / 1000 Ang^3
#
#
#
# Elastic Constant Matrix: (Units=GPa)
#
#
# Indices 1 2 3 4 5 6 
#
# 1 94.7392 12.0892 18.2609 4.0634 22.3144 -4.6015
# 2 12.0892 142.0152 38.8976 15.1107 -4.4202 -24.5145
# 3 18.2609 38.8976 65.7585 10.7562 5.2356 -5.4730
# 4 4.0634 15.1107 10.7562 31.2558 -4.7801 -10.1893
# 5 22.3144 -4.4202 5.2356 -4.7801 34.5286 13.1149
# 6 -4.6015 -24.5145 -5.4730 -10.1893 13.1149 32.9231
#
#
#
# Elastic Compliance Matrix: (Units=1/GPa)
#
#
# Indices 1 2 3 4 5 6 
#
# 1 0.013887 0.000259 -0.002525 -0.000838 -0.010872 0.005785
# 2 0.000259 0.009554 -0.004979 -0.000995 -0.000721 0.006302
# 3 -0.002525 -0.004979 0.019693 -0.004834 -0.002113 -0.001441
# 4 -0.000838 -0.000995 -0.004834 0.037566 0.003020 0.008761
# 5 -0.010872 -0.000721 -0.002113 0.003020 0.043824 -0.018930
# 6 0.005785 0.006302 -0.001441 0.008761 -0.018930 0.045887
#
#
# Mechanical properties :
#
#
# Convention : Reuss Voigt Hill
#
# Bulk Modulus (GPa) = 34.91211 49.00092 41.95652
# Shear Modulus (GPa) = 25.71368 35.29251 30.50310
#
# Velocity S-wave (km/s) = 3.21779 3.76979 3.50467
# Velocity P-wave (km/s) = 5.27860 6.21930 5.76816
#
# Compressibility (1/GPa) = 0.02864336
#
# Stress axis : x y z
#
# Youngs Moduli (GPa) = 72.01186 104.66328 50.78026
#
# Poissons Ratio (x) = -0.02711 0.12823
# Poissons Ratio (y) = -0.01865 0.25283
# Poissons Ratio (z) = 0.18185 0.52111
#
# Static dielectric constant tensor:
#      x y z
#    x 2.017190 -0.015620 -0.021900 
#    y -0.015620 2.021460 -0.004710 
#    z -0.021900 -0.004710 1.951980 
# 
# From -- ./inp_files/203568.got.cif
#   From: 2010.05.17/outbox.cif.g08.bks.cpg/sg2_102_cif.got.tgz:203568.got - 2010.06.03 11:33:40.
