data_PCOD9101182
_publ_section_title
;
Structure prediction by ZEFSAII (Michael W. Deem and Ramdas Pophale) SiO2 
 PCOD9101182
Probable space group: P -1
;
_chemical_formula_sum "Si O2"
_cell_formula_units_Z 14
_cell_length_a 8.084479
_cell_length_b 19.412718
_cell_length_c 6.633099
_cell_angle_alpha 139.222563
_cell_angle_beta 119.094175
_cell_angle_gamma 65.501231
_cell_volume 592.145300
_symmetry_space_group_name_H-M "P -1"
_symmetry_group_IT_number 2
_symmetry_cell_setting 'triclinic'
loop_
_space_group_symop_operation_xyz
x,y,z
-x,-y,-z
loop_
_atom_site_type_symbol
_atom_site_label
_atom_site_fract_x
_atom_site_fract_y
_atom_site_fract_z
Si Si1 0.127463 0.604640 0.075929
Si Si2 0.434053 0.744881 0.037551
Si Si3 0.761919 0.592304 0.092150
Si Si4 0.651030 0.902561 0.320489
Si Si5 0.032144 0.832449 0.454244
Si Si6 0.681324 0.044692 0.303523
Si Si7 0.950231 0.326865 0.239433
O O1 0.137406 0.730119 0.396047
O O2 0.920124 0.580061 0.982155
O O3 0.274248 0.522486 0.094014
O O4 0.124336 0.593287 0.807125
O O5 0.583397 0.662456 0.055948
O O6 0.533865 0.798296 0.024283
O O7 0.383601 0.845557 0.378395
O O8 0.234802 0.694424 0.788923
O O9 0.876296 0.644361 0.457164
O O10 0.827252 0.871977 0.507145
O O11 0.500000 0.000000 0.500000
O O12 0.749520 0.954640 0.303468
O O13 0.165665 0.924930 0.700911
O O14 0.989775 0.775869 0.089334
O O15 0.500000 0.000000 0.000000
#
# Coordination Sequence:
#
# PCOD9101182 Si02
#       7
#     2   2   2   2   2   2   2
#     4   9  21  38  61  90 122 151 208 243 295 379
#     4  10  21  40  57  90 123 150 207 251 286 372
#     4  11  20  39  66  86 121 166 192 245 313 353
#     4  10  20  38  57  80 121 154 196 255 292 348
#     4   9  19  40  58  82 123 156 192 258 296 350
#     4  10  22  36  58  87 116 155 205 242 309 357
#     4   9  21  38  60  88 127 153 200 246 303 350
#
# _framework density 23.642842999999999
#
# number of rings (size 3 to 8) (size 9 to 14) (size 15 to 20)
#    0.857    1.429    1.429    0.857    2.000    1.714 
#    0.000    4.286    0.000    0.000    0.000    0.000 
#    0.000    0.000    0.000    0.000    0.000    0.000 
#
# Total GULP energy -78035.312246 kJ/mol
# GULP energy per Si atom -5573.950875 kJ/mol
# Density = 2.358903 g / cm^3
# Si number density = 23.642843 Si / 1000 Ang^3
#
#
#
# Elastic Constant Matrix: (Units=GPa)
#
#
# Indices 1 2 3 4 5 6 
#
# 1 60.4614 35.4680 14.0019 11.1226 14.7970 10.2066
# 2 35.4680 166.9521 27.4690 35.7224 -1.3631 1.1741
# 3 14.0019 27.4690 54.6572 1.2006 -2.1942 7.6576
# 4 11.1226 35.7224 1.2006 29.2209 11.4020 3.2659
# 5 14.7970 -1.3631 -2.1942 11.4020 25.4799 8.3797
# 6 10.2066 1.1741 7.6576 3.2659 8.3797 37.5595
#
#
#
# Elastic Compliance Matrix: (Units=1/GPa)
#
#
# Indices 1 2 3 4 5 6 
#
# 1 0.024131 -0.005476 -0.003799 0.004040 -0.015627 -0.002477
# 2 -0.005476 0.011103 -0.003573 -0.015360 0.010021 0.000969
# 3 -0.003799 -0.003573 0.021738 0.004036 0.003537 -0.004428
# 4 0.004040 -0.015360 0.004036 0.063481 -0.031230 0.000007
# 5 -0.015627 0.010021 0.003537 -0.031230 0.066033 -0.008805
# 6 -0.002477 0.000969 -0.004428 0.000007 -0.008805 0.030134
#
#
# Mechanical properties :
#
#
# Convention : Reuss Voigt Hill
#
# Bulk Modulus (GPa) = 31.97322 48.43873 40.20597
# Shear Modulus (GPa) = 19.78311 32.12753 25.95532
#
# Velocity S-wave (km/s) = 2.89580 3.69028 3.31691
# Velocity P-wave (km/s) = 4.97329 6.22011 5.63131
#
# Compressibility (1/GPa) = 0.03127618
#
# Stress axis : x y z
#
# Youngs Moduli (GPa) = 41.44060 90.06934 46.00137
#
# Poissons Ratio (x) = 0.49322 0.17475
# Poissons Ratio (y) = 0.22693 0.16437
# Poissons Ratio (z) = 0.15743 0.32183
#
# Static dielectric constant tensor:
#      x y z
#    x 1.996950 0.185490 -0.094590 
#    y 0.185490 3.722980 -0.672530 
#    z -0.094590 -0.672530 2.193000 
# 
# From -- ./inp_files/221423.got.cif
#   From: 2010.05.17/outbox.cif.g08.bks.cpg/sg2_111_cif.got.tgz:221423.got - 2010.06.03 11:33:40.
