data_PCOD9101883
_publ_section_title
;
Structure prediction by ZEFSAII (Michael W. Deem and Ramdas Pophale) SiO2 
 PCOD9101883
Probable space group: P -1
;
_chemical_formula_sum "Si O2"
_cell_formula_units_Z 16
_cell_length_a 11.249005
_cell_length_b 16.570168
_cell_length_c 11.791257
_cell_angle_alpha 48.679205
_cell_angle_beta 45.959591
_cell_angle_gamma 27.305901
_cell_volume 718.716297
_symmetry_space_group_name_H-M "P -1"
_symmetry_group_IT_number 2
_symmetry_cell_setting 'triclinic'
loop_
_space_group_symop_operation_xyz
x,y,z
-x,-y,-z
loop_
_atom_site_type_symbol
_atom_site_label
_atom_site_fract_x
_atom_site_fract_y
_atom_site_fract_z
Si Si1 0.333868 0.935957 0.052440
Si Si2 0.315370 0.809771 0.990040
Si Si3 0.821537 0.594920 0.195103
Si Si4 0.290706 0.764376 0.799380
Si Si5 0.002607 0.725248 0.938300
Si Si6 0.126292 0.677828 0.655913
Si Si7 0.222742 0.440350 0.485696
Si Si8 0.732950 0.354971 0.644988
O O1 0.426591 0.857900 0.936309
O O2 0.554141 0.773216 0.140951
O O3 0.255089 0.099929 0.979120
O O4 0.031506 0.039693 0.175990
O O5 0.316476 0.716289 0.170411
O O6 0.410313 0.726996 0.878916
O O7 0.000000 0.000000 0.000000
O O8 0.896707 0.437803 0.247372
O O9 0.770405 0.613176 0.345046
O O10 0.035494 0.580796 0.047558
O O11 0.485159 0.716379 0.623358
O O12 0.257454 0.655202 0.891102
O O13 0.958554 0.787428 0.780006
O O14 0.434783 0.541338 0.621230
O O15 0.093891 0.751955 0.486781
O O16 0.153696 0.601896 0.401718
O O17 0.000000 0.500000 0.500000
#
# Coordination Sequence:
#
# PCOD9101883 Si02
#       8
#     2   2   2   2   2   2   2   2
#     4   9  20  39  66  89 124 162 209 262 300 376
#     4  10  20  38  62  89 119 166 212 250 307 376
#     4  11  22  39  63  95 127 163 205 265 315 357
#     4   9  22  39  62  91 121 166 211 245 319 372
#     4  10  21  38  63  95 126 159 214 251 312 375
#     4  10  20  38  62  93 123 164 210 258 313 371
#     4  11  25  41  60  92 129 163 208 265 318 367
#     4  10  20  38  61  85 124 162 205 260 316 357
#
# _framework density 22.261911999999999
#
# number of rings (size 3 to 8) (size 9 to 14) (size 15 to 20)
#    0.750    1.250    2.500    0.750    1.750    2.000 
#    9.000    0.000    0.000    3.750    0.000    0.000 
#    0.000    0.000    0.000    0.000    0.000    0.000 
#
# Total GULP energy -89210.414822 kJ/mol
# GULP energy per Si atom -5575.650926 kJ/mol
# Density = 2.221124 g / cm^3
# Si number density = 22.261912 Si / 1000 Ang^3
#
#
#
# Elastic Constant Matrix: (Units=GPa)
#
#
# Indices 1 2 3 4 5 6 
#
# 1 154.7241 20.4057 32.7553 16.6696 16.4102 15.7208
# 2 20.4057 33.3052 2.2295 5.2816 4.7342 2.9193
# 3 32.7553 2.2295 78.2119 19.6264 17.7515 17.9467
# 4 16.6696 5.2816 19.6264 24.5954 3.1682 2.9737
# 5 16.4102 4.7342 17.7515 3.1682 41.5034 8.7602
# 6 15.7208 2.9193 17.9467 2.9737 8.7602 35.7038
#
#
#
# Elastic Compliance Matrix: (Units=1/GPa)
#
#
# Indices 1 2 3 4 5 6 
#
# 1 0.007991 -0.004004 -0.001862 -0.002691 -0.001342 -0.001702
# 2 -0.004004 0.033856 0.003385 -0.006709 -0.002912 -0.001433
# 3 -0.001862 0.003385 0.019748 -0.013671 -0.005603 -0.006870
# 4 -0.002691 -0.006709 -0.013671 0.054055 0.002831 0.003409
# 5 -0.001342 -0.002912 -0.005603 0.002831 0.027860 -0.003427
# 6 -0.001702 -0.001433 -0.006870 0.003409 -0.003427 0.032885
#
#
# Mechanical properties :
#
#
# Convention : Reuss Voigt Hill
#
# Bulk Modulus (GPa) = 17.65796 41.89135 29.77465
# Shear Modulus (GPa) = 24.97090 34.41724 29.69407
#
# Velocity S-wave (km/s) = 3.35279 3.93621 3.65615
# Velocity P-wave (km/s) = 4.78930 6.28623 5.58812
#
# Compressibility (1/GPa) = 0.05663169
#
# Stress axis : x y z
#
# Youngs Moduli (GPa) = 125.14742 29.53714 50.63920
#
# Poissons Ratio (x) = 0.11828 0.09429
# Poissons Ratio (y) = 0.50114 -0.17143
# Poissons Ratio (z) = 0.23302 -0.09999
#
# Static dielectric constant tensor:
#      x y z
#    x 1.887550 0.053920 -0.025100 
#    y 0.053920 1.849670 0.036290 
#    z -0.025100 0.036290 1.812720 
# 
# From -- ./inp_files/435548.got.cif
#   From: 2010.05.17/outbox.cif.g08.bks.cpg/sg2_218_cif.got.tgz:435548.got - 2010.06.03 11:33:40.
