data_PCOD9101178
_publ_section_title
;
Structure prediction by ZEFSAII (Michael W. Deem and Ramdas Pophale) SiO2 
 PCOD9101178
Probable space group: P -1
;
_chemical_formula_sum "Si O2"
_cell_formula_units_Z 16
_cell_length_a 7.845660
_cell_length_b 17.854810
_cell_length_c 9.847724
_cell_angle_alpha 53.733754
_cell_angle_beta 95.155362
_cell_angle_gamma 130.314182
_cell_volume 745.701173
_symmetry_space_group_name_H-M "P -1"
_symmetry_group_IT_number 2
_symmetry_cell_setting 'triclinic'
loop_
_space_group_symop_operation_xyz
x,y,z
-x,-y,-z
loop_
_atom_site_type_symbol
_atom_site_label
_atom_site_fract_x
_atom_site_fract_y
_atom_site_fract_z
Si Si1 0.794101 0.629749 0.733471
Si Si2 0.223817 0.549781 0.556053
Si Si3 0.906967 0.066026 0.896614
Si Si4 0.134806 0.344015 0.606843
Si Si5 0.601043 0.851057 0.562173
Si Si6 0.097209 0.932342 0.423399
Si Si7 0.708478 0.455243 0.136381
Si Si8 0.559452 0.169036 0.710443
O O1 0.522834 0.569463 0.808497
O O2 0.801566 0.612997 0.592051
O O3 0.998024 0.791134 0.608562
O O4 0.835301 0.557806 0.909375
O O5 0.142743 0.502625 0.757533
O O6 0.437307 0.716311 0.395647
O O7 0.000000 0.500000 0.500000
O O8 0.285356 0.474911 0.574311
O O9 0.121413 0.229931 0.764998
O O10 0.840799 0.047039 0.753126
O O11 0.659949 0.971384 0.074851
O O12 0.000000 0.000000 0.000000
O O13 0.833649 0.247466 0.696536
O O14 0.417515 0.692352 0.756721
O O15 0.475866 0.858562 0.423284
O O16 0.858449 0.907063 0.457979
O O17 0.681109 0.942565 0.598738
#
# Coordination Sequence:
#
# PCOD9101178 Si02
#       8
#     2   2   2   2   2   2   2   2
#     4   9  19  35  53  80 111 143 184 231 276 325
#     4   9  20  38  57  82 114 151 184 228 280 334
#     4  11  21  37  56  84 111 145 187 232 276 329
#     4  10  22  38  56  83 113 150 187 228 282 334
#     4   9  17  33  55  77 107 145 178 223 281 322
#     4   9  18  33  53  80 108 139 185 229 271 327
#     4   9  18  35  56  80 111 143 184 233 274 327
#     4  10  20  38  57  79 116 148 181 231 282 329
#
# _framework density 21.456316999999999
#
# number of rings (size 3 to 8) (size 9 to 14) (size 15 to 20)
#    0.000    2.500    1.250    0.375    1.750    2.500 
#    4.500   10.625    0.000    0.000    0.000    0.000 
#    0.000    0.000    0.000    0.000    0.000    0.000 
#
# Total GULP energy -89353.588154 kJ/mol
# GULP energy per Si atom -5584.599260 kJ/mol
# Density = 2.140748 g / cm^3
# Si number density = 21.456317 Si / 1000 Ang^3
#
#
#
# Elastic Constant Matrix: (Units=GPa)
#
#
# Indices 1 2 3 4 5 6 
#
# 1 40.4386 0.0275 10.2724 -5.2728 9.9995 0.5975
# 2 0.0275 125.9954 34.0566 5.1937 21.5620 -10.0880
# 3 10.2724 34.0566 137.4301 -5.3224 25.3843 -5.1396
# 4 -5.2728 5.1937 -5.3224 10.4503 0.4018 2.9718
# 5 9.9995 21.5620 25.3843 0.4018 27.0495 3.0680
# 6 0.5975 -10.0880 -5.1396 2.9718 3.0680 26.7862
#
#
#
# Elastic Compliance Matrix: (Units=1/GPa)
#
#
# Indices 1 2 3 4 5 6 
#
# 1 0.029730 0.001423 0.000328 0.015027 -0.012623 -0.000286
# 2 0.001423 0.010331 -0.001209 -0.006212 -0.008129 0.005247
# 3 0.000328 -0.001209 0.009334 0.005360 -0.008185 0.001671
# 4 0.015027 -0.006212 0.005360 0.113162 -0.005778 -0.013539
# 5 -0.012623 -0.008129 -0.008185 -0.005778 0.057045 -0.010243
# 6 -0.000286 0.005247 0.001671 -0.013539 -0.010243 0.042311
#
#
# Mechanical properties :
#
#
# Convention : Reuss Voigt Hill
#
# Bulk Modulus (GPa) = 19.81105 43.61967 31.71536
# Shear Modulus (GPa) = 18.00801 30.15769 24.08285
#
# Velocity S-wave (km/s) = 2.90019 3.75312 3.35388
# Velocity P-wave (km/s) = 4.52416 6.25738 5.45999
#
# Compressibility (1/GPa) = 0.05047687
#
# Stress axis : x y z
#
# Youngs Moduli (GPa) = 33.63662 96.79929 107.14031
#
# Poissons Ratio (x) = -0.13772 -0.03515
# Poissons Ratio (y) = -0.04786 0.12956
# Poissons Ratio (z) = -0.01104 0.11706
#
# Static dielectric constant tensor:
#      x y z
#    x 1.655340 -0.086130 0.021560 
#    y -0.086130 1.732910 -0.012990 
#    z 0.021560 -0.012990 1.753180 
# 
# From -- ./inp_files/217077.got.cif
#   From: 2010.05.17/outbox.cif.g08.bks.cpg/sg2_109_cif.got.tgz:217077.got - 2010.06.03 11:33:40.
