data_PCOD9101999
_publ_section_title
;
Structure prediction by ZEFSAII (Michael W. Deem and Ramdas Pophale) SiO2 
 PCOD9101999
Probable space group: P -1
;
_chemical_formula_sum "Si O2"
_cell_formula_units_Z 16
_cell_length_a 8.084316
_cell_length_b 21.110386
_cell_length_c 7.561467
_cell_angle_alpha 126.889950
_cell_angle_beta 143.032590
_cell_angle_gamma 51.691083
_cell_volume 593.673417
_symmetry_space_group_name_H-M "P -1"
_symmetry_group_IT_number 2
_symmetry_cell_setting 'triclinic'
loop_
_space_group_symop_operation_xyz
x,y,z
-x,-y,-z
loop_
_atom_site_type_symbol
_atom_site_label
_atom_site_fract_x
_atom_site_fract_y
_atom_site_fract_z
Si Si1 0.760773 0.031787 0.202389
Si Si2 0.793137 0.830793 0.416514
Si Si3 0.179611 0.905879 0.111331
Si Si4 0.587822 0.198228 0.511088
Si Si5 0.021564 0.653162 0.428383
Si Si6 0.938935 0.735056 0.023601
Si Si7 0.344634 0.390387 0.238447
Si Si8 0.264783 0.523288 0.684471
O O1 0.673367 0.130220 0.312571
O O2 0.000000 0.000000 0.500000
O O3 0.930572 0.987261 0.099543
O O4 0.500000 0.000000 0.000000
O O5 0.493394 0.902285 0.298964
O O6 0.798371 0.743569 0.366218
O O7 0.854929 0.804433 0.222917
O O8 0.033405 0.858377 0.771549
O O9 0.278906 0.851167 0.283202
O O10 0.728138 0.273013 0.733920
O O11 0.247983 0.229671 0.248890
O O12 0.319532 0.655646 0.591408
O O13 0.137221 0.615857 0.654594
O O14 0.846805 0.596922 0.083867
O O15 0.825600 0.661067 0.876334
O O16 0.358177 0.469172 0.495962
O O17 0.000000 0.500000 0.500000
O O18 0.500000 0.500000 0.000000
#
# Coordination Sequence:
#
# PCOD9101999 Si02
#       8
#     2   2   2   2   2   2   2   2
#     4  10  20  38  61  90 125 168 213 258 317 390
#     4  11  23  40  61  91 126 163 209 261 311 374
#     4  11  22  39  63  90 121 165 213 261 313 375
#     4  11  22  39  63  90 121 165 213 261 313 375
#     4  11  23  44  67  88 125 179 213 243 314 403
#     4  11  23  40  61  91 126 163 209 261 311 374
#     4  11  23  44  67  88 125 179 213 243 314 403
#     4  12  26  42  66 104 134 156 206 280 318 356
#
# _framework density 26.950845000000001
#
# number of rings (size 3 to 8) (size 9 to 14) (size 15 to 20)
#    0.000    1.000    0.000    9.750    0.000    3.000 
#    0.000    3.750    0.000    0.000    0.000    0.000 
#    0.000    0.000    0.000    0.000    0.000    0.000 
#
# Total GULP energy -89588.201923 kJ/mol
# GULP energy per Si atom -5599.262620 kJ/mol
# Density = 2.688950 g / cm^3
# Si number density = 26.950845 Si / 1000 Ang^3
#
#
#
# Elastic Constant Matrix: (Units=GPa)
#
#
# Indices 1 2 3 4 5 6 
#
# 1 68.8942 18.0617 33.2015 3.1459 -7.1388 -12.7241
# 2 18.0617 116.2063 45.5546 -9.0671 -7.8127 -9.4944
# 3 33.2015 45.5546 215.0014 -27.2205 -16.4969 -8.4924
# 4 3.1459 -9.0671 -27.2205 47.8778 4.4169 -7.6172
# 5 -7.1388 -7.8127 -16.4969 4.4169 51.9035 -4.5391
# 6 -12.7241 -9.4944 -8.4924 -7.6172 -4.5391 42.7994
#
#
#
# Elastic Compliance Matrix: (Units=1/GPa)
#
#
# Indices 1 2 3 4 5 6 
#
# 1 0.017066 -0.001460 -0.002297 -0.002231 0.001946 0.004103
# 2 -0.001460 0.009733 -0.001546 0.001260 0.000817 0.001729
# 3 -0.002297 -0.001546 0.005859 0.003218 0.001112 0.000827
# 4 -0.002231 0.001260 0.003218 0.023874 -0.000739 0.004425
# 5 0.001946 0.000817 0.001112 -0.000739 0.020336 0.003006
# 6 0.004103 0.001729 0.000827 0.004425 0.003006 0.026239
#
#
# Mechanical properties :
#
#
# Convention : Reuss Voigt Hill
#
# Bulk Modulus (GPa) = 45.34890 65.97085 55.65987
# Shear Modulus (GPa) = 41.30048 48.73506 45.01777
#
# Velocity S-wave (km/s) = 3.91888 4.25702 4.09144
# Velocity P-wave (km/s) = 6.11064 6.97813 6.55874
#
# Compressibility (1/GPa) = 0.02205125
#
# Stress axis : x y z
#
# Youngs Moduli (GPa) = 58.59555 102.74370 170.67968
#
# Poissons Ratio (x) = 0.15001 0.39207
# Poissons Ratio (y) = 0.08555 0.26392
# Poissons Ratio (z) = 0.13460 0.15887
#
# Static dielectric constant tensor:
#      x y z
#    x 2.181350 -0.045850 -0.032880 
#    y -0.045850 2.199250 0.034970 
#    z -0.032880 0.034970 1.997910 
# 
# From -- ./inp_files/226575.got.cif
#   From: 2010.05.17/outbox.cif.g08.bks.cpg/sg2_114_cif.got.tgz:226575.got - 2010.06.03 11:33:40.
