data_PCOD9101409
_publ_section_title
;
Structure prediction by ZEFSAII (Michael W. Deem and Ramdas Pophale) SiO2 
 PCOD9101409
Probable space group: P -1
;
_chemical_formula_sum "Si O2"
_cell_formula_units_Z 12
_cell_length_a 13.443651
_cell_length_b 11.350897
_cell_length_c 8.941353
_cell_angle_alpha 129.935075
_cell_angle_beta 100.012724
_cell_angle_gamma 123.633616
_cell_volume 486.799705
_symmetry_space_group_name_H-M "P -1"
_symmetry_group_IT_number 2
_symmetry_cell_setting 'triclinic'
loop_
_space_group_symop_operation_xyz
x,y,z
-x,-y,-z
loop_
_atom_site_type_symbol
_atom_site_label
_atom_site_fract_x
_atom_site_fract_y
_atom_site_fract_z
Si Si1 0.013657 0.794960 0.447407
Si Si2 0.808879 0.551355 0.757066
Si Si3 0.223594 0.236559 0.594493
Si Si4 0.577409 0.747647 0.493129
Si Si5 0.067443 0.765098 0.757903
Si Si6 0.717866 0.198571 0.688417
O O1 0.176879 0.108929 0.643552
O O2 0.114986 0.891652 0.710064
O O3 0.803096 0.618133 0.279232
O O4 0.915108 0.521946 0.106228
O O5 0.622147 0.422053 0.636863
O O6 0.769834 0.332014 0.645277
O O7 0.873760 0.604956 0.648189
O O8 0.013972 0.899209 0.174947
O O9 0.416504 0.418059 0.703671
O O10 0.664850 0.959271 0.542575
O O11 0.743228 0.973677 0.859179
O O12 0.000000 0.500000 0.500000
O O13 0.500000 0.000000 0.500000
#
# Coordination Sequence:
#
# PCOD9101409 Si02
#       6
#     2   2   2   2   2   2
#     4  10  20  39  57  87 116 145 193 235 279 333
#     4   9  21  37  57  84 118 148 192 230 279 338
#     4   9  21  39  63  78 114 157 187 232 275 339
#     4  10  20  38  59  84 114 154 189 227 287 334
#     4  11  22  35  58  88 118 147 182 239 290 332
#     4   9  18  36  58  82 113 149 191 233 270 331
#
# _framework density 24.650796
#
# number of rings (size 3 to 8) (size 9 to 14) (size 15 to 20)
#    0.000    2.333    1.667    0.000    2.333    5.333 
#    0.000   18.333    0.000    0.000    0.000    0.000 
#    0.000    0.000    0.000    0.000    0.000    0.000 
#
# Total GULP energy -67075.280592 kJ/mol
# GULP energy per Si atom -5589.606716 kJ/mol
# Density = 2.459469 g / cm^3
# Si number density = 24.650796 Si / 1000 Ang^3
#
#
#
# Elastic Constant Matrix: (Units=GPa)
#
#
# Indices 1 2 3 4 5 6 
#
# 1 153.5819 29.2488 33.3210 -6.1652 18.3599 31.2366
# 2 29.2488 90.6406 29.4059 -22.6230 8.5157 14.2735
# 3 33.3210 29.4059 56.2396 -12.6944 22.8247 15.3225
# 4 -6.1652 -22.6230 -12.6944 34.0052 3.8449 3.3640
# 5 18.3599 8.5157 22.8247 3.8449 36.2065 1.4256
# 6 31.2366 14.2735 15.3225 3.3640 1.4256 39.5796
#
#
#
# Elastic Compliance Matrix: (Units=1/GPa)
#
#
# Indices 1 2 3 4 5 6 
#
# 1 0.008627 -0.000679 -0.001474 0.001519 -0.003211 -0.006006
# 2 -0.000679 0.015723 -0.003661 0.009627 -0.001892 -0.004467
# 3 -0.001474 -0.003661 0.036095 0.014463 -0.022213 -0.011919
# 4 0.001519 0.009627 0.014463 0.044670 -0.016365 -0.013477
# 5 -0.003211 -0.001892 -0.022213 -0.016365 0.044977 0.011586
# 6 -0.006006 -0.004467 -0.011919 -0.013477 0.011586 0.036959
#
#
# Mechanical properties :
#
#
# Convention : Reuss Voigt Hill
#
# Bulk Modulus (GPa) = 20.48417 53.82373 37.15395
# Shear Modulus (GPa) = 23.26103 35.85734 29.55919
#
# Velocity S-wave (km/s) = 3.07518 3.81808 3.46658
# Velocity P-wave (km/s) = 4.57567 6.42797 5.57923
#
# Compressibility (1/GPa) = 0.04881819
#
# Stress axis : x y z
#
# Youngs Moduli (GPa) = 115.91991 63.59979 27.70432
#
# Poissons Ratio (x) = 0.04318 0.04083
# Poissons Ratio (y) = 0.07870 0.10142
# Poissons Ratio (z) = 0.17084 0.23284
#
# Static dielectric constant tensor:
#      x y z
#    x 2.047490 -0.019070 0.005640 
#    y -0.019070 1.962410 0.024090 
#    z 0.005640 0.024090 1.947730 
# 
# From -- ./inp_files/23267.got.cif
#   From: 2010.05.17/outbox.cif.g08.bks.cpg/sg2_12_cif.got.tgz:23267.got - 2010.06.03 11:33:40.
