data_PCOD9101912
_publ_section_title
;
Structure prediction by ZEFSAII (Michael W. Deem and Ramdas Pophale) SiO2 
 PCOD9101912
Probable space group: P -1
;
_chemical_formula_sum "Si O2"
_cell_formula_units_Z 16
_cell_length_a 17.272716
_cell_length_b 21.864949
_cell_length_c 8.190766
_cell_angle_alpha 131.373328
_cell_angle_beta 34.820913
_cell_angle_gamma 157.813089
_cell_volume 592.264165
_symmetry_space_group_name_H-M "P -1"
_symmetry_group_IT_number 2
_symmetry_cell_setting 'triclinic'
loop_
_space_group_symop_operation_xyz
x,y,z
-x,-y,-z
loop_
_atom_site_type_symbol
_atom_site_label
_atom_site_fract_x
_atom_site_fract_y
_atom_site_fract_z
Si Si1 0.434164 0.669259 0.887281
Si Si2 0.791424 0.588254 0.964648
Si Si3 0.029608 0.819166 0.205412
Si Si4 0.069871 0.339642 0.511101
Si Si5 0.428738 0.839591 0.356019
Si Si6 0.159144 0.707630 0.913130
Si Si7 0.863835 0.047086 0.405901
Si Si8 0.637372 0.757636 0.356831
O O1 0.683691 0.792860 0.533157
O O2 0.433172 0.594285 0.881877
O O3 0.448654 0.757646 0.123225
O O4 0.103395 0.492916 0.055168
O O5 0.764253 0.585044 0.816503
O O6 0.110009 0.710352 0.638737
O O7 0.793162 0.672781 0.210682
O O8 0.035066 0.887692 0.461256
O O9 0.033552 0.732318 0.134096
O O10 0.328381 0.987170 0.873405
O O11 0.355679 0.543625 0.455518
O O12 0.884987 0.155179 0.519402
O O13 0.814100 0.267403 0.893424
O O14 0.439185 0.849648 0.553023
O O15 0.609411 0.837218 0.484740
O O16 0.103137 0.139283 0.024720
#
# Coordination Sequence:
#
# PCOD9101912 Si02
#       8
#     2   2   2   2   2   2   2   2
#     4   9  17  33  55  76 105 142 190 218 254 324
#     4  10  20  34  53  83 112 144 176 223 278 327
#     4   9  17  33  55  76 105 142 190 218 254 324
#     4  10  21  37  55  83 121 136 172 233 285 321
#     4  10  16  32  55  79 105 146 190 215 257 324
#     4   8  16  29  49  73 102 142 173 211 261 324
#     4  10  20  38  62  82 104 144 189 226 269 326
#     4  10  20  38  62  82 104 144 189 226 269 326
#
# _framework density 27.014972
#
# number of rings (size 3 to 8) (size 9 to 14) (size 15 to 20)
#    0.000    2.750    1.250    4.125    0.000    0.000 
#    2.250   13.750    0.000    3.000    0.000    0.000 
#    0.000    0.000    0.000    0.000    0.000    0.000 
#
# Total GULP energy -89071.304716 kJ/mol
# GULP energy per Si atom -5566.956545 kJ/mol
# Density = 2.695348 g / cm^3
# Si number density = 27.014972 Si / 1000 Ang^3
#
#
#
# Elastic Constant Matrix: (Units=GPa)
#
#
# Indices 1 2 3 4 5 6 
#
# 1 23.9137 6.0960 -1.3851 7.8617 7.3031 -10.0431
# 2 6.0960 366.4527 105.2674 -49.7717 -19.0179 -18.2166
# 3 -1.3851 105.2674 207.8135 2.2860 16.1757 0.8544
# 4 7.8617 -49.7717 2.2860 75.1750 5.0862 5.9611
# 5 7.3031 -19.0179 16.1757 5.0862 48.1128 1.6561
# 6 -10.0431 -18.2166 0.8544 5.9611 1.6561 28.8449
#
#
#
# Elastic Compliance Matrix: (Units=1/GPa)
#
#
# Indices 1 2 3 4 5 6 
#
# 1 0.057142 -0.002273 0.002332 -0.008508 -0.010171 0.020733
# 2 -0.002273 0.003945 -0.002229 0.002674 0.002334 0.001079
# 3 0.002332 -0.002229 0.006221 -0.001676 -0.003141 -0.000253
# 4 -0.008508 0.002674 -0.001676 0.016292 0.001350 -0.004668
# 5 -0.010171 0.002334 -0.003141 0.001350 0.024290 -0.003648
# 6 0.020733 0.001079 -0.000253 -0.004668 -0.003648 0.043750
#
#
# Mechanical properties :
#
#
# Convention : Reuss Voigt Hill
#
# Bulk Modulus (GPa) = 15.88116 90.90406 53.39261
# Shear Modulus (GPa) = 28.25368 62.97332 45.61350
#
# Velocity S-wave (km/s) = 3.23747 4.83334 4.11354
# Velocity P-wave (km/s) = 4.45717 8.05424 6.50911
#
# Compressibility (1/GPa) = 0.06296770
#
# Stress axis : x y z
#
# Youngs Moduli (GPa) = 17.50029 253.49071 160.75723
#
# Poissons Ratio (x) = 0.57625 -0.37494
# Poissons Ratio (y) = 0.03978 0.35832
# Poissons Ratio (z) = -0.04082 0.56502
#
# Static dielectric constant tensor:
#      x y z
#    x 2.656940 0.086500 0.060630 
#    y 0.086500 2.145600 -0.118770 
#    z 0.060630 -0.118770 2.256530 
# 
# From -- ./inp_files/355659.got.cif
#   From: 2010.05.17/outbox.cif.g08.bks.cpg/sg2_178_cif.got.tgz:355659.got - 2010.06.03 11:33:40.
