data_PCOD9101264
_publ_section_title
;
Structure prediction by ZEFSAII (Michael W. Deem and Ramdas Pophale) SiO2 
 PCOD9101264
Probable space group: P -1
;
_chemical_formula_sum "Si O2"
_cell_formula_units_Z 14
_cell_length_a 7.252077
_cell_length_b 14.571715
_cell_length_c 8.268292
_cell_angle_alpha 121.878819
_cell_angle_beta 55.406799
_cell_angle_gamma 120.724457
_cell_volume 582.278527
_symmetry_space_group_name_H-M "P -1"
_symmetry_group_IT_number 2
_symmetry_cell_setting 'triclinic'
loop_
_space_group_symop_operation_xyz
x,y,z
-x,-y,-z
loop_
_atom_site_type_symbol
_atom_site_label
_atom_site_fract_x
_atom_site_fract_y
_atom_site_fract_z
Si Si1 0.560840 0.624646 0.923826
Si Si2 0.737141 0.867174 0.940119
Si Si3 0.301487 0.926119 0.307646
Si Si4 0.185581 0.704098 0.374895
Si Si5 0.197243 0.490939 0.766969
Si Si6 0.938432 0.384134 0.319545
Si Si7 0.053806 0.047061 0.745355
O O1 0.435026 0.516004 0.774031
O O2 0.809423 0.624109 0.870156
O O3 0.613274 0.733979 0.881871
O O4 0.377331 0.642221 0.164667
O O5 0.549269 0.936721 0.113185
O O6 0.876387 0.889878 0.062223
O O7 0.899742 0.920379 0.758575
O O8 0.257542 0.820953 0.352977
O O9 0.102197 0.903122 0.247890
O O10 0.273440 0.032156 0.522107
O O11 0.175999 0.711210 0.579837
O O12 0.927273 0.626824 0.370996
O O13 0.215049 0.593362 0.728470
O O14 0.000000 0.500000 0.000000
O O15 0.000000 0.500000 0.500000
#
# Coordination Sequence:
#
# PCOD9101264 Si02
#       7
#     2   2   2   2   2   2   2
#     4  10  21  38  58  82 114 149 184 226 275 328
#     4  10  21  37  58  84 111 147 188 227 278 332
#     4  10  20  38  58  83 113 145 186 230 279 330
#     4   9  20  37  57  83 114 146 186 228 272 332
#     4   9  20  37  57  82 113 146 182 226 271 327
#     4  10  21  37  56  81 112 148 186 226 272 324
#     4  10  21  37  59  82 112 146 184 236 280 323
#
# _framework density 24.043476999999999
#
# number of rings (size 3 to 8) (size 9 to 14) (size 15 to 20)
#    0.000    2.286    0.000    1.714    0.000   10.857 
#    0.000   14.286    0.000    0.000    0.000    0.000 
#    0.000    0.000    0.000    0.000    0.000    0.000 
#
# Total GULP energy -78260.461499 kJ/mol
# GULP energy per Si atom -5590.032964 kJ/mol
# Density = 2.398875 g / cm^3
# Si number density = 24.043477 Si / 1000 Ang^3
#
#
#
# Elastic Constant Matrix: (Units=GPa)
#
#
# Indices 1 2 3 4 5 6 
#
# 1 77.2461 9.7819 26.1028 -4.1848 4.8787 -10.6021
# 2 9.7819 38.7695 -0.2916 -7.8090 4.8804 0.3772
# 3 26.1028 -0.2916 90.0764 -7.0171 -19.9182 -5.9961
# 4 -4.1848 -7.8090 -7.0171 9.9338 -3.3842 -0.5315
# 5 4.8787 4.8804 -19.9182 -3.3842 34.6908 -6.8012
# 6 -10.6021 0.3772 -5.9961 -0.5315 -6.8012 29.6621
#
#
#
# Elastic Compliance Matrix: (Units=1/GPa)
#
#
# Indices 1 2 3 4 5 6 
#
# 1 0.015968 -0.003852 -0.005445 -0.001400 -0.004250 0.003656
# 2 -0.003852 0.031971 0.003274 0.025906 0.000337 -0.000580
# 3 -0.005445 0.003274 0.017138 0.016971 0.012722 0.004698
# 4 -0.001400 0.025906 0.016971 0.140465 0.021991 0.010160
# 5 -0.004250 0.000337 0.012722 0.021991 0.040950 0.010832
# 6 0.003656 -0.000580 0.004698 0.010160 0.010832 0.038642
#
#
# Mechanical properties :
#
#
# Convention : Reuss Voigt Hill
#
# Bulk Modulus (GPa) = 18.85719 30.80869 24.83294
# Shear Modulus (GPa) = 15.88017 26.22396 21.05207
#
# Velocity S-wave (km/s) = 2.57276 3.30614 2.96224
# Velocity P-wave (km/s) = 4.08478 5.23600 4.69580
#
# Compressibility (1/GPa) = 0.05303016
#
# Stress axis : x y z
#
# Youngs Moduli (GPa) = 62.62583 31.27795 58.34945
#
# Poissons Ratio (x) = 0.12050 0.31772
# Poissons Ratio (y) = 0.24126 -0.19104
# Poissons Ratio (z) = 0.34101 -0.10240
#
# Static dielectric constant tensor:
#      x y z
#    x 1.905570 0.008320 -0.010310 
#    y 0.008320 1.956850 0.014350 
#    z -0.010310 0.014350 1.938570 
# 
# From -- ./inp_files/46427.got.cif
#   From: 2010.05.17/outbox.cif.g08.bks.cpg/sg2_24_cif.got.tgz:46427.got - 2010.06.03 11:33:40.
