data_PCOD9101777
_publ_section_title
;
Structure prediction by ZEFSAII (Michael W. Deem and Ramdas Pophale) SiO2 
 PCOD9101777
Probable space group: P -1
;
_chemical_formula_sum "Si O2"
_cell_formula_units_Z 15
_cell_length_a 5.304740
_cell_length_b 14.935184
_cell_length_c 13.423834
_cell_angle_alpha 137.370497
_cell_angle_beta 79.363454
_cell_angle_gamma 117.116901
_cell_volume 620.729170
_symmetry_space_group_name_H-M "P -1"
_symmetry_group_IT_number 2
_symmetry_cell_setting 'triclinic'
loop_
_space_group_symop_operation_xyz
x,y,z
-x,-y,-z
loop_
_atom_site_type_symbol
_atom_site_label
_atom_site_fract_x
_atom_site_fract_y
_atom_site_fract_z
Si Si1 0.082660 0.305730 0.600654
Si Si2 0.777275 0.096150 0.628613
Si Si3 0.275343 0.237461 0.111566
Si Si4 0.545186 0.253363 0.910723
Si Si5 0.925766 0.972676 0.686855
Si Si6 0.500000 0.500000 0.000000
Si Si7 0.685915 0.939388 0.874523
Si Si8 0.249871 0.504523 0.244042
O O1 0.981415 0.157692 0.418624
O O2 0.431225 0.392149 0.646235
O O3 0.991366 0.240246 0.666115
O O4 0.938758 0.408919 0.667642
O O5 0.717512 0.170927 0.791273
O O6 0.500000 0.000000 0.500000
O O7 0.846849 0.976083 0.579780
O O8 0.359555 0.214964 0.198050
O O9 0.147919 0.349195 0.185344
O O10 0.542011 0.279550 0.049630
O O11 0.023468 0.068913 0.966288
O O12 0.629602 0.399163 0.959093
O O13 0.208307 0.134785 0.812051
O O14 0.665250 0.932849 0.751359
O O15 0.312771 0.482268 0.105903
O O16 0.500000 0.000000 0.000000
#
# Coordination Sequence:
#
# PCOD9101777 Si02
#       8
#     2   2   2   2   2   1   2   2
#     4  12  25  42  64  97 138 180 213 268 325 407
#     4  12  22  37  63  93 134 174 217 264 320 396
#     4   9  22  42  65  96 126 167 217 283 328 387
#     4  10  20  38  60  92 129 165 218 261 333 382
#     4  11  24  39  64  94 127 172 225 269 331 390
#     4  10  20  40  58  96 128 178 210 266 318 400
#     4  10  21  43  72  95 123 165 228 283 331 382
#     4  11  25  43  65  95 139 174 221 265 336 390
#
# _framework density 24.165130999999999
#
# number of rings (size 3 to 8) (size 9 to 14) (size 15 to 20)
#    0.000    1.333    2.667    2.800    1.867    0.533 
#    7.200    1.333    0.000    0.000    0.000    0.000 
#    0.000    0.000    0.000    0.000    0.000    0.000 
#
# Total GULP energy -83560.774565 kJ/mol
# GULP energy per Si atom -5570.718304 kJ/mol
# Density = 2.411013 g / cm^3
# Si number density = 24.165131 Si / 1000 Ang^3
#
#
#
# Elastic Constant Matrix: (Units=GPa)
#
#
# Indices 1 2 3 4 5 6 
#
# 1 80.9393 31.6476 25.2705 14.5133 -13.4442 -18.8138
# 2 31.6476 160.3992 24.9668 4.3573 -11.6603 -37.2445
# 3 25.2705 24.9668 64.0114 10.1430 -23.0702 -11.4081
# 4 14.5133 4.3573 10.1430 39.2605 -1.2250 -10.6155
# 5 -13.4442 -11.6603 -23.0702 -1.2250 42.6121 7.9222
# 6 -18.8138 -37.2445 -11.4081 -10.6155 7.9222 34.0817
#
#
#
# Elastic Compliance Matrix: (Units=1/GPa)
#
#
# Indices 1 2 3 4 5 6 
#
# 1 0.016045 -0.001252 -0.003858 -0.003464 0.001651 0.004735
# 2 -0.001252 0.008803 -0.001930 0.002452 -0.000671 0.009203
# 3 -0.003858 -0.001930 0.022110 -0.003865 0.010190 -0.000410
# 4 -0.003464 0.002452 -0.003865 0.029968 -0.003439 0.009607
# 5 0.001651 -0.000671 0.010190 -0.003439 0.030054 -0.004468
# 6 0.004735 0.009203 -0.000410 0.009607 -0.004468 0.045906
#
#
# Mechanical properties :
#
#
# Convention : Reuss Voigt Hill
#
# Bulk Modulus (GPa) = 30.41455 52.12440 41.26948
# Shear Modulus (GPa) = 28.10182 38.08854 33.09518
#
# Velocity S-wave (km/s) = 3.41384 3.97442 3.70475
# Velocity P-wave (km/s) = 5.30590 6.53286 5.95108
#
# Compressibility (1/GPa) = 0.03287900
#
# Stress axis : x y z
#
# Youngs Moduli (GPa) = 62.32503 113.59372 45.22850
#
# Poissons Ratio (x) = 0.14217 0.17451
# Poissons Ratio (y) = 0.07800 0.08728
# Poissons Ratio (z) = 0.24047 0.21921
#
# Static dielectric constant tensor:
#      x y z
#    x 2.011080 0.000570 -0.014480 
#    y 0.000570 1.985050 0.024850 
#    z -0.014480 0.024850 2.141430 
# 
# From -- ./inp_files/78673.got.cif
#   From: 2010.05.17/outbox.cif.g08.bks.cpg/sg2_40_cif.got.tgz:78673.got - 2010.06.03 11:33:40.
