data_PCOD9101944
_publ_section_title
;
Structure prediction by ZEFSAII (Michael W. Deem and Ramdas Pophale) SiO2 
 PCOD9101944
Probable space group: P -1
;
_chemical_formula_sum "Si O2"
_cell_formula_units_Z 12
_cell_length_a 11.365413
_cell_length_b 8.867474
_cell_length_c 15.494274
_cell_angle_alpha 45.658833
_cell_angle_beta 156.107460
_cell_angle_gamma 126.266207
_cell_volume 446.209697
_symmetry_space_group_name_H-M "P -1"
_symmetry_group_IT_number 2
_symmetry_cell_setting 'triclinic'
loop_
_space_group_symop_operation_xyz
x,y,z
-x,-y,-z
loop_
_atom_site_type_symbol
_atom_site_label
_atom_site_fract_x
_atom_site_fract_y
_atom_site_fract_z
Si Si1 0.750512 0.496540 0.575360
Si Si2 0.235226 0.977852 0.245105
Si Si3 0.643455 0.676343 0.913999
Si Si4 0.715922 0.807127 0.287045
Si Si5 0.404763 0.247712 0.951076
Si Si6 0.170872 0.694951 0.053255
O O1 0.881482 0.632607 0.532848
O O2 0.436032 0.641857 0.324836
O O3 0.027176 0.438266 0.846574
O O4 0.666545 0.272591 0.575423
O O5 0.456871 0.128617 0.295975
O O6 0.063303 0.102371 0.158880
O O7 0.000000 0.000000 0.000000
O O8 0.463721 0.485507 0.878026
O O9 0.673952 0.764787 0.996326
O O10 0.384026 0.743537 0.098706
O O11 0.672674 0.048334 0.196410
O O12 0.807180 0.788621 0.256513
O O13 0.000000 0.500000 0.000000
#
# Coordination Sequence:
#
# PCOD9101944 Si02
#       6
#     2   2   2   2   2   2
#     4   9  22  38  63  91 115 155 200 243 302 347
#     4  10  20  38  61  88 122 148 191 252 297 345
#     4  10  21  37  60  90 119 158 193 241 293 352
#     4   9  20  38  61  86 113 160 195 240 291 345
#     4  10  20  39  61  80 127 157 195 240 285 351
#     4  10  21  39  60  89 118 151 195 251 298 340
#
# _framework density 26.893183000000001
#
# number of rings (size 3 to 8) (size 9 to 14) (size 15 to 20)
#    1.000    1.333    0.000    3.000    0.000    4.667 
#    0.000    0.000    7.333    0.000    0.000    0.000 
#    0.000    0.000    0.000    0.000    0.000    0.000 
#
# Total GULP energy -66977.055674 kJ/mol
# GULP energy per Si atom -5581.421306 kJ/mol
# Density = 2.683197 g / cm^3
# Si number density = 26.893183 Si / 1000 Ang^3
#
#
#
# Elastic Constant Matrix: (Units=GPa)
#
#
# Indices 1 2 3 4 5 6 
#
# 1 105.1837 18.5602 12.8129 -4.0292 16.6799 -11.7596
# 2 18.5602 118.8992 24.0876 -28.4436 1.6479 12.9659
# 3 12.8129 24.0876 89.4910 -26.9321 -8.4987 3.3117
# 4 -4.0292 -28.4436 -26.9321 46.9281 9.4185 -5.0425
# 5 16.6799 1.6479 -8.4987 9.4185 31.0251 -2.7333
# 6 -11.7596 12.9659 3.3117 -5.0425 -2.7333 41.6707
#
#
#
# Elastic Compliance Matrix: (Units=1/GPa)
#
#
# Indices 1 2 3 4 5 6 
#
# 1 0.011438 -0.001556 -0.001748 0.000708 -0.006451 0.003513
# 2 -0.001556 0.010605 -0.000959 0.005819 -0.002028 -0.003091
# 3 -0.001748 -0.000959 0.013973 0.006701 0.002757 -0.000314
# 4 0.000708 0.005819 0.006701 0.030460 -0.008011 0.001017
# 5 -0.006451 -0.002028 0.002757 -0.008011 0.039011 0.000181
# 6 0.003513 -0.003091 -0.000314 0.001017 0.000181 0.026111
#
#
# Mechanical properties :
#
#
# Convention : Reuss Voigt Hill
#
# Bulk Modulus (GPa) = 36.37763 47.16614 41.77188
# Shear Modulus (GPa) = 33.49297 41.13232 37.31265
#
# Velocity S-wave (km/s) = 3.53286 3.91509 3.72887
# Velocity P-wave (km/s) = 5.49523 6.16552 5.84000
#
# Compressibility (1/GPa) = 0.02748942
#
# Stress axis : x y z
#
# Youngs Moduli (GPa) = 87.43163 94.29721 71.56816
#
# Poissons Ratio (x) = 0.14668 0.12513
# Poissons Ratio (y) = 0.13600 0.06862
# Poissons Ratio (z) = 0.15287 0.09041
#
# Static dielectric constant tensor:
#      x y z
#    x 2.222250 0.061330 -0.049280 
#    y 0.061330 2.144860 0.033190 
#    z -0.049280 0.033190 2.129380 
# 
# From -- ./inp_files/566463.got.cif
#   From: 2010.05.17/outbox.cif.g08.bks.cpg/sg2_284_cif.got.tgz:566463.got - 2010.06.03 11:33:40.
