data_PCOD9101780
_publ_section_title
;
Structure prediction by ZEFSAII (Michael W. Deem and Ramdas Pophale) SiO2 
 PCOD9101780
Probable space group: P -1
;
_chemical_formula_sum "Si O2"
_cell_formula_units_Z 16
_cell_length_a 10.121586
_cell_length_b 16.452542
_cell_length_c 6.323390
_cell_angle_alpha 105.750807
_cell_angle_beta 96.982567
_cell_angle_gamma 43.201465
_cell_volume 689.116953
_symmetry_space_group_name_H-M "P -1"
_symmetry_group_IT_number 2
_symmetry_cell_setting 'triclinic'
loop_
_space_group_symop_operation_xyz
x,y,z
-x,-y,-z
loop_
_atom_site_type_symbol
_atom_site_label
_atom_site_fract_x
_atom_site_fract_y
_atom_site_fract_z
Si Si1 0.561653 0.547513 0.869437
Si Si2 0.653244 0.930086 0.289779
Si Si3 0.524864 0.848109 0.878156
Si Si4 0.777363 0.419760 0.219976
Si Si5 0.003857 0.204131 0.441590
Si Si6 0.666338 0.626034 0.575476
Si Si7 0.826774 0.046411 0.857604
Si Si8 0.302627 0.757432 0.325774
O O1 0.432526 0.530294 0.736819
O O2 0.635469 0.578164 0.732969
O O3 0.746615 0.436340 0.972443
O O4 0.409265 0.663601 0.081356
O O5 0.859164 0.822202 0.367519
O O6 0.500000 0.000000 0.500000
O O7 0.607648 0.038765 0.234827
O O8 0.616199 0.874090 0.072691
O O9 0.689847 0.711416 0.713268
O O10 0.377480 0.858471 0.992314
O O11 0.795860 0.508174 0.363375
O O12 0.931656 0.295187 0.297164
O O13 0.821677 0.246767 0.555442
O O14 0.129413 0.069832 0.274660
O O15 0.465664 0.722998 0.477608
O O16 0.821259 0.109862 0.701245
O O17 0.000000 0.000000 0.000000
#
# Coordination Sequence:
#
# PCOD9101780 Si02
#       8
#     2   2   2   2   2   2   2   2
#     4  10  20  38  60  92 136 170 204 244 324 391
#     4  11  25  47  67  89 123 172 219 265 310 372
#     4  11  24  44  68  92 118 173 217 256 324 373
#     4  10  23  35  59  95 131 173 202 254 314 386
#     4  12  23  40  61  93 136 166 212 261 313 376
#     4  11  21  40  63  93 130 161 213 256 317 382
#     4  12  22  38  63  99 132 158 204 267 328 383
#     4  11  22  36  63  98 130 166 202 262 322 381
#
# _framework density 23.218119999999999
#
# number of rings (size 3 to 8) (size 9 to 14) (size 15 to 20)
#    0.000    1.000    3.750    3.750    3.500    0.000 
#    0.000    0.625    0.000    1.500    0.000    0.000 
#    0.000    0.000    0.000    0.000    0.000    0.000 
#
# Total GULP energy -89407.894686 kJ/mol
# GULP energy per Si atom -5587.993418 kJ/mol
# Density = 2.316527 g / cm^3
# Si number density = 23.218120 Si / 1000 Ang^3
#
#
#
# Elastic Constant Matrix: (Units=GPa)
#
#
# Indices 1 2 3 4 5 6 
#
# 1 30.2161 12.9639 4.2833 2.2126 13.8235 6.2832
# 2 12.9639 130.4185 43.8043 -23.3289 23.4845 14.7701
# 3 4.2833 43.8043 80.6918 -10.5540 16.8214 9.6698
# 4 2.2126 -23.3289 -10.5540 56.9356 1.4274 1.9958
# 5 13.8235 23.4845 16.8214 1.4274 31.8622 3.0213
# 6 6.2832 14.7701 9.6698 1.9958 3.0213 31.5625
#
#
#
# Elastic Compliance Matrix: (Units=1/GPa)
#
#
# Indices 1 2 3 4 5 6 
#
# 1 0.043339 -0.001327 0.003048 -0.000945 -0.018719 -0.007089
# 2 -0.001327 0.011261 -0.003921 0.004201 -0.005506 -0.003543
# 3 0.003048 -0.003921 0.016384 0.001597 -0.006847 -0.003237
# 4 -0.000945 0.004201 0.001597 0.019831 -0.004121 -0.003127
# 5 -0.018719 -0.005506 -0.006847 -0.004121 0.046970 0.004165
# 6 -0.007089 -0.003543 -0.003237 -0.003127 0.004165 0.035543
#
#
# Mechanical properties :
#
#
# Convention : Reuss Voigt Hill
#
# Bulk Modulus (GPa) = 15.01861 40.38106 27.69984
# Shear Modulus (GPa) = 25.00988 36.09037 30.55012
#
# Velocity S-wave (km/s) = 3.28559 3.94687 3.63131
# Velocity P-wave (km/s) = 4.56902 6.18063 5.43490
#
# Compressibility (1/GPa) = 0.06658405
#
# Stress axis : x y z
#
# Youngs Moduli (GPa) = 23.07369 88.80517 61.03695
#
# Poissons Ratio (x) = 0.11788 -0.18605
# Poissons Ratio (y) = 0.03063 0.23930
# Poissons Ratio (z) = -0.07033 0.34817
#
# Static dielectric constant tensor:
#      x y z
#    x 1.869480 0.015800 0.011740 
#    y 0.015800 1.928160 0.038840 
#    z 0.011740 0.038840 1.907380 
# 
# From -- ./inp_files/80711.got.cif
#   From: 2010.05.17/outbox.cif.g08.bks.cpg/sg2_41_cif.got.tgz:80711.got - 2010.06.03 11:33:40.
