data_PCOD9101989
_publ_section_title
;
Structure prediction by ZEFSAII (Michael W. Deem and Ramdas Pophale) SiO2 
 PCOD9101989
Probable space group: P -1
;
_chemical_formula_sum "Si O2"
_cell_formula_units_Z 14
_cell_length_a 7.793612
_cell_length_b 11.658719
_cell_length_c 9.186737
_cell_angle_alpha 140.568173
_cell_angle_beta 72.280281
_cell_angle_gamma 103.124833
_cell_volume 504.994475
_symmetry_space_group_name_H-M "P -1"
_symmetry_group_IT_number 2
_symmetry_cell_setting 'triclinic'
loop_
_space_group_symop_operation_xyz
x,y,z
-x,-y,-z
loop_
_atom_site_type_symbol
_atom_site_label
_atom_site_fract_x
_atom_site_fract_y
_atom_site_fract_z
Si Si1 0.180910 0.636408 0.234752
Si Si2 0.402770 0.216424 0.126095
Si Si3 0.325496 0.995494 0.641213
Si Si4 0.785357 0.050636 0.918668
Si Si5 0.818786 0.835570 0.425192
Si Si6 0.631689 0.503825 0.236848
Si Si7 0.966817 0.400108 0.258093
O O1 0.995195 0.714867 0.291722
O O2 0.127851 0.463041 0.172284
O O3 0.254634 0.793039 0.472884
O O4 0.315075 0.594868 0.025806
O O5 0.368916 0.097746 0.876080
O O6 0.591725 0.150336 0.083889
O O7 0.449337 0.419827 0.265302
O O8 0.240048 0.149047 0.202683
O O9 0.187743 0.100615 0.674698
O O10 0.500000 0.000000 0.500000
O O11 0.811356 0.008935 0.701238
O O12 0.932889 0.185817 0.074599
O O13 0.648994 0.712340 0.393705
O O14 0.788034 0.464376 0.277230
O O15 0.000000 0.500000 0.500000
#
# Coordination Sequence:
#
# PCOD9101989 Si02
#       7
#     2   2   2   2   2   2   2
#     4  11  23  42  65  92 131 165 205 262 319 368
#     4  10  21  40  62  90 128 164 206 256 312 375
#     4  12  21  39  64  97 123 159 216 258 309 375
#     4  10  21  40  64  88 125 171 206 252 318 371
#     4  11  23  39  64  92 129 166 208 258 313 374
#     4  10  22  42  63  91 129 168 207 255 323 367
#     4  10  20  38  61  90 120 163 210 251 307 367
#
# _framework density 27.723075999999999
#
# number of rings (size 3 to 8) (size 9 to 14) (size 15 to 20)
#    0.000    1.429    2.857    3.857    0.000    2.286 
#    0.000   12.143    0.000    0.000    0.000    0.000 
#    0.000    0.000    0.000    0.000    0.000    0.000 
#
# Total GULP energy -78507.427576 kJ/mol
# GULP energy per Si atom -5607.673398 kJ/mol
# Density = 2.765998 g / cm^3
# Si number density = 27.723076 Si / 1000 Ang^3
#
#
#
# Elastic Constant Matrix: (Units=GPa)
#
#
# Indices 1 2 3 4 5 6 
#
# 1 95.4374 38.4567 0.0251 8.1027 19.3153 7.5802
# 2 38.4567 181.3778 58.3924 30.9249 23.6077 54.8039
# 3 0.0251 58.3924 142.3205 9.4458 35.5596 22.9711
# 4 8.1027 30.9249 9.4458 59.4402 7.8013 16.5901
# 5 19.3153 23.6077 35.5596 7.8013 38.4010 8.8330
# 6 7.5802 54.8039 22.9711 16.5901 8.8330 29.8093
#
#
#
# Elastic Compliance Matrix: (Units=1/GPa)
#
#
# Indices 1 2 3 4 5 6 
#
# 1 0.013366 -0.003932 0.002949 -0.000350 -0.007908 0.004095
# 2 -0.003932 0.013966 -0.002165 0.000000 0.000740 -0.023227
# 3 0.002949 -0.002165 0.010695 0.001055 -0.009640 -0.002742
# 4 -0.000350 0.000000 0.001055 0.020147 -0.002305 -0.011253
# 5 -0.007908 0.000740 -0.009640 -0.002305 0.039497 -0.002341
# 6 0.004095 -0.023227 -0.002742 -0.011253 -0.002341 0.084276
#
#
# Mechanical properties :
#
#
# Convention : Reuss Voigt Hill
#
# Bulk Modulus (GPa) = 31.51484 68.09825 49.80654
# Shear Modulus (GPa) = 25.14813 47.01422 36.08118
#
# Velocity S-wave (km/s) = 3.01511 4.12254 3.61152
# Velocity P-wave (km/s) = 4.84908 6.87586 5.94942
#
# Compressibility (1/GPa) = 0.03173108
#
# Stress axis : x y z
#
# Youngs Moduli (GPa) = 74.81391 71.60313 93.49895
#
# Poissons Ratio (x) = 0.28153 -0.27571
# Poissons Ratio (y) = 0.29416 0.20245
# Poissons Ratio (z) = -0.22061 0.15504
#
# Static dielectric constant tensor:
#      x y z
#    x 2.200930 -0.013140 -0.010680 
#    y -0.013140 2.166180 0.030750 
#    z -0.010680 0.030750 2.089410 
# 
# From -- ./inp_files/183183.got.cif
#   From: 2010.05.17/outbox.cif.g08.bks.cpg/sg2_92_cif.got.tgz:183183.got - 2010.06.03 11:33:40.
