data_PCOD9101801
_publ_section_title
;
Structure prediction by ZEFSAII (Michael W. Deem and Ramdas Pophale) SiO2 
 PCOD9101801
Probable space group: P -1
;
_chemical_formula_sum "Si O2"
_cell_formula_units_Z 15
_cell_length_a 11.461413
_cell_length_b 8.652561
_cell_length_c 9.972625
_cell_angle_alpha 66.596054
_cell_angle_beta 122.364895
_cell_angle_gamma 70.488224
_cell_volume 543.561142
_symmetry_space_group_name_H-M "P -1"
_symmetry_group_IT_number 2
_symmetry_cell_setting 'triclinic'
loop_
_space_group_symop_operation_xyz
x,y,z
-x,-y,-z
loop_
_atom_site_type_symbol
_atom_site_label
_atom_site_fract_x
_atom_site_fract_y
_atom_site_fract_z
Si Si1 0.811665 0.362822 0.768615
Si Si2 0.042086 0.285830 0.676758
Si Si3 0.295387 0.593874 0.698659
Si Si4 0.000000 0.000000 0.500000
Si Si5 0.341857 0.081893 0.482180
Si Si6 0.383388 0.724742 0.468972
Si Si7 0.372986 0.186793 0.030103
Si Si8 0.058982 0.633953 0.866389
O O1 0.921033 0.354324 0.714222
O O2 0.581378 0.609454 0.558675
O O3 0.778065 0.195956 0.762892
O O4 0.893791 0.319247 0.980778
O O5 0.947712 0.216951 0.549532
O O6 0.000000 0.500000 0.500000
O O7 0.264055 0.123550 0.914947
O O8 0.254827 0.767581 0.725057
O O9 0.409008 0.551015 0.651567
O O10 0.368592 0.350754 0.873434
O O11 0.009815 0.821379 0.665256
O O12 0.309913 0.924808 0.456635
O O13 0.500000 0.000000 0.500000
O O14 0.124547 0.335018 0.248989
O O15 0.424315 0.025806 0.701222
O O16 0.236928 0.372942 0.004481
#
# Coordination Sequence:
#
# PCOD9101801 Si02
#       8
#     2   2   2   1   2   2   2   2
#     4  10  21  38  65  89 123 165 204 259 311 366
#     4   9  19  38  64  91 118 167 210 247 314 375
#     4   9  19  39  66  89 122 164 207 258 311 365
#     4  10  20  38  60  96 122 154 210 262 298 370
#     4  12  25  38  57  92 127 160 209 253 305 371
#     4  10  21  40  60  94 123 157 212 255 310 370
#     4  10  22  40  64  88 126 167 205 255 311 367
#     4  11  23  39  64  92 124 167 207 255 311 367
#
# _framework density 27.595793
#
# number of rings (size 3 to 8) (size 9 to 14) (size 15 to 20)
#    0.000    1.867    2.667    0.800    1.867    3.200 
#    2.400    0.000    0.000   12.800    0.000    0.000 
#    0.000    0.000    0.000    0.000    0.000    0.000 
#
# Total GULP energy -83670.543937 kJ/mol
# GULP energy per Si atom -5578.036262 kJ/mol
# Density = 2.753298 g / cm^3
# Si number density = 27.595793 Si / 1000 Ang^3
#
#
#
# Elastic Constant Matrix: (Units=GPa)
#
#
# Indices 1 2 3 4 5 6 
#
# 1 130.9467 27.2385 35.7664 -2.1872 -15.5936 -28.3603
# 2 27.2385 44.7884 20.6641 13.3829 -3.6633 -9.6034
# 3 35.7664 20.6641 142.6250 27.4713 6.6210 3.3603
# 4 -2.1872 13.3829 27.4713 42.7461 -1.7879 -2.3363
# 5 -15.5936 -3.6633 6.6210 -1.7879 31.7931 5.1350
# 6 -28.3603 -9.6034 3.3603 -2.3363 5.1350 43.9384
#
#
#
# Elastic Compliance Matrix: (Units=1/GPa)
#
#
# Indices 1 2 3 4 5 6 
#
# 1 0.011794 -0.005255 -0.003572 0.005111 0.005176 0.006404
# 2 -0.005255 0.029244 -0.001374 -0.008390 0.000180 0.002637
# 3 -0.003572 -0.001374 0.009554 -0.006226 -0.003728 -0.003232
# 4 0.005111 -0.008390 -0.006226 0.030622 0.004059 0.003095
# 5 0.005176 0.000180 -0.003728 0.004059 0.035052 -0.000215
# 6 0.006404 0.002637 -0.003232 0.003095 -0.000215 0.027906
#
#
# Mechanical properties :
#
#
# Convention : Reuss Voigt Hill
#
# Bulk Modulus (GPa) = 33.12203 53.96644 43.54423
# Shear Modulus (GPa) = 28.63052 39.34158 33.98605
#
# Velocity S-wave (km/s) = 3.22451 3.77986 3.51318
# Velocity P-wave (km/s) = 5.08841 6.21677 5.68068
#
# Compressibility (1/GPa) = 0.03019139
#
# Stress axis : x y z
#
# Youngs Moduli (GPa) = 84.78741 34.19458 104.66348
#
# Poissons Ratio (x) = 0.17971 0.37384
# Poissons Ratio (y) = 0.44560 0.14376
# Poissons Ratio (z) = 0.30284 0.04697
#
# Static dielectric constant tensor:
#      x y z
#    x 2.144800 0.538220 0.186620 
#    y 0.538220 0.889230 -0.273600 
#    z 0.186620 -0.273600 2.168930 
# 
# From -- ./inp_files/424414.got.cif
#   From: 2010.05.17/outbox.cif.g08.bks.cpg/sg2_213_cif.got.tgz:424414.got - 2010.06.03 11:33:40.
