data_PCOD9101068
_publ_section_title
;
Structure prediction by ZEFSAII (Michael W. Deem and Ramdas Pophale) SiO2 
 PCOD9101068
Probable space group: P -1
;
_chemical_formula_sum "Si O2"
_cell_formula_units_Z 16
_cell_length_a 8.750963
_cell_length_b 21.915961
_cell_length_c 9.626765
_cell_angle_alpha 35.452524
_cell_angle_beta 129.304333
_cell_angle_gamma 142.885907
_cell_volume 645.492694
_symmetry_space_group_name_H-M "P -1"
_symmetry_group_IT_number 2
_symmetry_cell_setting 'triclinic'
loop_
_space_group_symop_operation_xyz
x,y,z
-x,-y,-z
loop_
_atom_site_type_symbol
_atom_site_label
_atom_site_fract_x
_atom_site_fract_y
_atom_site_fract_z
Si Si1 0.389163 0.680896 0.633862
Si Si2 0.027982 0.753746 0.226268
Si Si3 0.789614 0.518187 0.323892
Si Si4 0.195536 0.783028 0.714219
Si Si5 0.276270 0.000836 0.523576
Si Si6 0.705150 0.633171 0.513562
Si Si7 0.291140 0.601475 0.028971
Si Si8 0.190603 0.027617 0.743433
O O1 0.171922 0.698773 0.470870
O O2 0.304732 0.541254 0.776672
O O3 0.446288 0.680298 0.830916
O O4 0.607282 0.809987 0.427449
O O5 0.904487 0.666722 0.173397
O O6 0.817669 0.719373 0.279587
O O7 0.206896 0.916045 0.022433
O O8 0.548422 0.412091 0.477859
O O9 0.000000 0.500000 0.500000
O O10 0.186577 0.853770 0.709929
O O11 0.278892 0.691994 0.962033
O O12 0.935190 0.707808 0.619689
O O13 0.430698 0.897621 0.539702
O O14 0.086818 0.016462 0.303862
O O15 0.229466 0.014344 0.628715
O O16 0.651770 0.493306 0.708137
O O17 0.000000 0.500000 0.000000
#
# Coordination Sequence:
#
# PCOD9101068 Si02
#       8
#     2   2   2   2   2   2   2   2
#     4  11  21  44  63  93 129 169 221 258 327 378
#     4  11  23  41  64  92 132 172 215 257 323 387
#     4  10  25  42  63  94 130 166 215 274 312 384
#     4  10  20  40  64  96 124 165 213 275 307 387
#     4  10  22  39  61  94 132 159 222 260 326 371
#     4  11  22  42  67  92 128 171 215 256 333 383
#     4  10  20  37  70  90 121 167 210 273 310 380
#     4  11  23  40  66  92 132 178 203 272 319 391
#
# _framework density 24.787267
#
# number of rings (size 3 to 8) (size 9 to 14) (size 15 to 20)
#    0.000    1.500    3.750    1.500    1.750    2.500 
#    2.250    5.000    0.000    0.000    0.000    0.000 
#    0.000    0.000    0.000    0.000    0.000    0.000 
#
# Total GULP energy -89361.693978 kJ/mol
# GULP energy per Si atom -5585.105874 kJ/mol
# Density = 2.473085 g / cm^3
# Si number density = 24.787267 Si / 1000 Ang^3
#
#
#
# Elastic Constant Matrix: (Units=GPa)
#
#
# Indices 1 2 3 4 5 6 
#
# 1 115.1914 28.2226 24.5325 -1.7960 13.1636 23.6956
# 2 28.2226 75.8483 11.8823 -14.8804 9.3023 14.0863
# 3 24.5325 11.8823 94.6959 -15.8394 0.9173 -0.6079
# 4 -1.7960 -14.8804 -15.8394 23.1081 1.1729 8.1987
# 5 13.1636 9.3023 0.9173 1.1729 37.3792 -14.2148
# 6 23.6956 14.0863 -0.6079 8.1987 -14.2148 54.9673
#
#
#
# Elastic Compliance Matrix: (Units=1/GPa)
#
#
# Indices 1 2 3 4 5 6 
#
# 1 0.011686 -0.002033 -0.002722 0.000192 -0.005865 -0.006092
# 2 -0.002033 0.019661 0.000856 0.016584 -0.008027 -0.008702
# 3 -0.002722 0.000856 0.012681 0.009118 0.000053 -0.000252
# 4 0.000192 0.016584 0.009118 0.067163 -0.013248 -0.017675
# 5 -0.005865 -0.008027 0.000053 -0.013248 0.037404 0.016235
# 6 -0.006092 -0.008702 -0.000252 -0.017675 0.016235 0.029881
#
#
# Mechanical properties :
#
#
# Convention : Reuss Voigt Hill
#
# Bulk Modulus (GPa) = 27.60353 46.11226 36.85789
# Shear Modulus (GPa) = 25.20781 37.83080 31.51930
#
# Velocity S-wave (km/s) = 3.19245 3.91092 3.56981
# Velocity P-wave (km/s) = 4.97487 6.24799 5.64742
#
# Compressibility (1/GPa) = 0.03622725
#
# Stress axis : x y z
#
# Youngs Moduli (GPa) = 85.57593 50.86237 78.85759
#
# Poissons Ratio (x) = 0.10342 0.21468
# Poissons Ratio (y) = 0.17400 -0.06747
# Poissons Ratio (z) = 0.23297 -0.04352
#
# Static dielectric constant tensor:
#      x y z
#    x 1.957140 0.011340 -0.023250 
#    y 0.011340 2.100050 -0.017410 
#    z -0.023250 -0.017410 2.005510 
# 
# From -- ./inp_files/406575.got.cif
#   From: 2010.05.17/outbox.cif.g08.bks.cpg/sg2_204_cif.got.tgz:406575.got - 2010.06.03 11:33:40.
