data_PCOD9101732
_publ_section_title
;
Structure prediction by ZEFSAII (Michael W. Deem and Ramdas Pophale) SiO2 
 PCOD9101732
Probable space group: P -1
;
_chemical_formula_sum "Si O2"
_cell_formula_units_Z 14
_cell_length_a 9.697840
_cell_length_b 17.887505
_cell_length_c 9.280113
_cell_angle_alpha 35.656333
_cell_angle_beta 81.910314
_cell_angle_gamma 54.688360
_cell_volume 553.151977
_symmetry_space_group_name_H-M "P -1"
_symmetry_group_IT_number 2
_symmetry_cell_setting 'triclinic'
loop_
_space_group_symop_operation_xyz
x,y,z
-x,-y,-z
loop_
_atom_site_type_symbol
_atom_site_label
_atom_site_fract_x
_atom_site_fract_y
_atom_site_fract_z
Si Si1 0.438322 0.396012 0.184931
Si Si2 0.251307 0.062474 0.194209
Si Si3 0.842496 0.185870 0.005400
Si Si4 0.448064 0.581122 0.595801
Si Si5 0.009580 0.122910 0.705181
Si Si6 0.286399 0.167744 0.596537
Si Si7 0.038570 0.367581 0.023028
O O1 0.527734 0.316104 0.464478
O O2 0.592069 0.180320 0.411964
O O3 0.500000 0.500000 0.000000
O O4 0.167569 0.561929 0.980543
O O5 0.152736 0.216541 0.103082
O O6 0.437621 0.006221 0.160473
O O7 0.023357 0.168812 0.983807
O O8 0.696586 0.329053 0.941963
O O9 0.641102 0.313599 0.713772
O O10 0.974595 0.954424 0.333283
O O11 0.247103 0.633520 0.600117
O O12 0.205128 0.082547 0.762956
O O13 0.000000 0.000000 0.000000
O O14 0.228394 0.241406 0.319828
O O15 0.106012 0.393475 0.355832
#
# Coordination Sequence:
#
# PCOD9101732 Si02
#       7
#     2   2   2   2   2   2   2
#     4  11  22  35  61  98 131 164 209 268 321 380
#     4  11  22  39  64  97 127 168 214 261 324 390
#     4  10  21  37  66  91 122 167 213 264 313 381
#     4  10  20  38  60  89 128 161 208 263 318 369
#     4  10  21  40  65  89 122 166 217 263 315 376
#     4  10  23  41  63  91 130 174 210 264 324 384
#     4  10  22  40  61  92 134 170 211 258 325 391
#
# _framework density 25.309501000000001
#
# number of rings (size 3 to 8) (size 9 to 14) (size 15 to 20)
#    0.000    1.714    2.857    1.286    0.000    2.857 
#    0.000    2.857    0.000    7.714    0.000    0.000 
#    0.000    0.000    0.000    0.000    0.000    0.000 
#
# Total GULP energy -78036.859152 kJ/mol
# GULP energy per Si atom -5574.061368 kJ/mol
# Density = 2.525190 g / cm^3
# Si number density = 25.309501 Si / 1000 Ang^3
#
#
#
# Elastic Constant Matrix: (Units=GPa)
#
#
# Indices 1 2 3 4 5 6 
#
# 1 173.3385 41.8561 42.4260 -17.6261 -13.6899 -17.3026
# 2 41.8561 101.4547 45.6173 -52.9167 -24.0250 2.5933
# 3 42.4260 45.6173 79.8730 -32.1221 -17.3806 -1.2983
# 4 -17.6261 -52.9167 -32.1221 51.1752 9.9346 -3.3960
# 5 -13.6899 -24.0250 -17.3806 9.9346 47.0849 -2.9504
# 6 -17.3026 2.5933 -1.2983 -3.3960 -2.9504 55.2173
#
#
#
# Elastic Compliance Matrix: (Units=1/GPa)
#
#
# Indices 1 2 3 4 5 6 
#
# 1 0.007188 -0.002735 -0.003052 -0.002154 0.000159 0.002185
# 2 -0.002735 0.025367 -0.002655 0.022348 0.006429 -0.000393
# 3 -0.003052 -0.002655 0.019541 0.007841 0.003335 0.000288
# 4 -0.002154 0.022348 0.007841 0.046147 0.004029 0.001513
# 5 0.000159 0.006429 0.003335 0.004029 0.025034 0.001412
# 6 0.002185 -0.000393 0.000288 0.001513 0.001412 0.018989
#
#
# Mechanical properties :
#
#
# Convention : Reuss Voigt Hill
#
# Bulk Modulus (GPa) = 28.39911 68.27389 48.33650
# Shear Modulus (GPa) = 29.25892 45.67994 37.46943
#
# Velocity S-wave (km/s) = 3.40375 4.25297 3.85183
# Velocity P-wave (km/s) = 5.16648 7.15200 6.23873
#
# Compressibility (1/GPa) = 0.03521237
#
# Stress axis : x y z
#
# Youngs Moduli (GPa) = 139.11780 39.42093 51.17393
#
# Poissons Ratio (x) = 0.10780 0.15620
# Poissons Ratio (y) = 0.38043 0.13588
# Poissons Ratio (z) = 0.42463 0.10467
#
# Static dielectric constant tensor:
#      x y z
#    x 1.981930 0.070160 0.073740 
#    y 0.070160 2.256740 0.011220 
#    z 0.073740 0.011220 2.605770 
# 
# From -- ./inp_files/404505.got.cif
#   From: 2010.05.17/outbox.cif.g08.bks.cpg/sg2_203_cif.got.tgz:404505.got - 2010.06.03 11:33:40.
