data_PCOD9101886
_publ_section_title
;
Structure prediction by ZEFSAII (Michael W. Deem and Ramdas Pophale) SiO2 
 PCOD9101886
Probable space group: P -1
;
_chemical_formula_sum "Si O2"
_cell_formula_units_Z 16
_cell_length_a 8.886009
_cell_length_b 19.926271
_cell_length_c 7.608521
_cell_angle_alpha 84.398928
_cell_angle_beta 43.813520
_cell_angle_gamma 55.639161
_cell_volume 647.108910
_symmetry_space_group_name_H-M "P -1"
_symmetry_group_IT_number 2
_symmetry_cell_setting 'triclinic'
loop_
_space_group_symop_operation_xyz
x,y,z
-x,-y,-z
loop_
_atom_site_type_symbol
_atom_site_label
_atom_site_fract_x
_atom_site_fract_y
_atom_site_fract_z
Si Si1 0.139940 0.580913 0.318375
Si Si2 0.768282 0.786133 0.651079
Si Si3 0.989229 0.522214 0.756487
Si Si4 0.393924 0.216577 0.821474
Si Si5 0.090285 0.095035 0.401723
Si Si6 0.548453 0.654129 0.353890
Si Si7 0.050969 0.928041 0.111392
Si Si8 0.879451 0.852840 0.999037
O O1 0.082959 0.568416 0.566348
O O2 0.990629 0.686256 0.385816
O O3 0.991140 0.551713 0.346940
O O4 0.500000 0.500000 0.000000
O O5 0.767160 0.764629 0.862669
O O6 0.418024 0.850894 0.864899
O O7 0.875469 0.839630 0.551340
O O8 0.260624 0.446978 0.686659
O O9 0.629234 0.614212 0.096316
O O10 0.339431 0.161792 0.768308
O O11 0.749369 0.152478 0.595116
O O12 0.288536 0.308028 0.789789
O O13 0.253685 0.073661 0.076216
O O14 0.110950 0.039732 0.566154
O O15 0.206961 0.744579 0.691315
O O16 0.947322 0.886162 0.095829
O O17 0.000000 0.000000 0.000000
#
# Coordination Sequence:
#
# PCOD9101886 Si02
#       8
#     2   2   2   2   2   2   2   2
#     4  11  24  36  60  90 128 173 218 264 321 380
#     4  10  21  42  64  92 131 174 215 267 329 386
#     4  10  23  37  54  92 127 165 222 269 317 381
#     4   9  19  38  65  89 125 176 216 261 324 388
#     4   9  22  41  68  92 129 172 211 270 329 392
#     4  10  20  38  61  85 128 169 214 274 319 379
#     4  11  25  44  69 100 130 163 214 274 334 403
#     4  10  22  40  68  95 126 174 218 263 335 394
#
# _framework density 24.725359000000001
#
# number of rings (size 3 to 8) (size 9 to 14) (size 15 to 20)
#    0.000    2.000    1.250    0.750    5.250    7.000 
#    0.000    8.125    0.000    0.000    0.000    0.000 
#    0.000    0.000    0.000    0.000    0.000    0.000 
#
# Total GULP energy -89259.749717 kJ/mol
# GULP energy per Si atom -5578.734357 kJ/mol
# Density = 2.466908 g / cm^3
# Si number density = 24.725359 Si / 1000 Ang^3
#
#
#
# Elastic Constant Matrix: (Units=GPa)
#
#
# Indices 1 2 3 4 5 6 
#
# 1 104.8467 27.0892 17.6495 -4.8293 -13.8991 16.9399
# 2 27.0892 75.9924 26.5954 0.2285 -4.8322 13.8571
# 3 17.6495 26.5954 73.1312 -7.6562 1.6837 0.4057
# 4 -4.8293 0.2285 -7.6562 30.7510 -0.3267 -1.4076
# 5 -13.8991 -4.8322 1.6837 -0.3267 22.2548 -19.1064
# 6 16.9399 13.8571 0.4057 -1.4076 -19.1064 39.1206
#
#
#
# Elastic Compliance Matrix: (Units=1/GPa)
#
#
# Indices 1 2 3 4 5 6 
#
# 1 0.011605 -0.002987 -0.001693 0.001438 0.005859 -0.001036
# 2 -0.002987 0.017171 -0.005658 -0.002332 -0.003231 -0.006392
# 3 -0.001693 -0.005658 0.016592 0.003965 -0.001994 0.001734
# 4 0.001438 -0.002332 0.003965 0.033914 0.003059 0.002877
# 5 0.005859 -0.003231 -0.001994 0.003059 0.080944 0.038271
# 6 -0.001036 -0.006392 0.001734 0.002877 0.038271 0.047052
#
#
# Mechanical properties :
#
#
# Convention : Reuss Voigt Hill
#
# Bulk Modulus (GPa) = 40.49959 44.07095 42.28527
# Shear Modulus (GPa) = 21.16983 30.60103 25.88543
#
# Velocity S-wave (km/s) = 2.92926 3.52182 3.23912
# Velocity P-wave (km/s) = 5.27789 5.86520 5.57928
#
# Compressibility (1/GPa) = 0.02469161
#
# Stress axis : x y z
#
# Youngs Moduli (GPa) = 86.17089 58.23644 60.27102
#
# Poissons Ratio (x) = 0.17396 0.10204
# Poissons Ratio (y) = 0.25740 0.34102
# Poissons Ratio (z) = 0.14589 0.32951
#
# Static dielectric constant tensor:
#      x y z
#    x 2.101560 -0.021280 0.126840 
#    y -0.021280 1.978100 0.020730 
#    z 0.126840 0.020730 2.101750 
# 
# From -- ./inp_files/142684.got.cif
#   From: 2010.05.17/outbox.cif.g08.bks.cpg/sg2_72_cif.got.tgz:142684.got - 2010.06.03 11:33:40.
