data_PCOD9102804
_publ_section_title
;
Structure prediction by ZEFSAII (Michael W. Deem and Ramdas Pophale) SiO2 
 PCOD9102804
Probable space group: P -1
;
_chemical_formula_sum "Si O2"
_cell_formula_units_Z 15
_cell_length_a 16.779704
_cell_length_b 6.337034
_cell_length_c 8.210337
_cell_angle_alpha 122.454462
_cell_angle_beta 73.207609
_cell_angle_gamma 122.668633
_cell_volume 620.143503
_symmetry_space_group_name_H-M "P -1"
_symmetry_group_IT_number 2
_symmetry_cell_setting 'triclinic'
loop_
_space_group_symop_operation_xyz
x,y,z
-x,-y,-z
loop_
_atom_site_type_symbol
_atom_site_label
_atom_site_fract_x
_atom_site_fract_y
_atom_site_fract_z
Si Si1 0.409892 0.545715 0.266730
Si Si2 0.319773 0.106431 0.657725
Si Si3 0.561149 0.911278 0.110711
Si Si4 0.779119 0.541358 0.563096
Si Si5 0.071466 0.386507 0.971548
Si Si6 0.500000 0.500000 0.500000
Si Si7 0.735855 0.463471 0.176008
Si Si8 0.976074 0.747752 0.677983
O O1 0.458094 0.789404 0.202286
O O2 0.297710 0.400761 0.274471
O O3 0.450110 0.641181 0.462969
O O4 0.445963 0.317040 0.113155
O O5 0.376048 0.101696 0.782601
O O6 0.396033 0.282694 0.548181
O O7 0.260709 0.266589 0.802409
O O8 0.252761 0.786765 0.511166
O O9 0.627119 0.215801 0.121113
O O10 0.760274 0.541731 0.383015
O O11 0.886824 0.724596 0.621005
O O12 0.182276 0.601562 0.963280
O O13 0.054405 0.328796 0.148584
O O14 0.050062 0.085326 0.774948
O O15 0.000000 0.500000 0.000000
O O16 0.000000 0.500000 0.500000
#
# Coordination Sequence:
#
# PCOD9102804 Si02
#       8
#     2   2   2   2   2   1   2   2
#     4  10  21  42  60  97 129 179 218 268 323 390
#     4  10  22  38  62  93 128 173 214 272 322 392
#     4   9  23  40  61  88 139 169 215 269 324 388
#     4  11  24  39  70  95 132 172 225 272 331 398
#     4  11  27  46  73 102 135 177 228 287 348 409
#     4  10  20  38  64  88 132 172 224 262 322 390
#     4  11  23  42  66  98 130 169 219 276 333 399
#     4  11  26  49  72 101 138 179 224 287 349 411
#
# _framework density 24.187951000000002
#
# number of rings (size 3 to 8) (size 9 to 14) (size 15 to 20)
#    0.000    1.600    1.333    1.600    5.600    8.000 
#    0.000    2.000    0.000    0.000    0.000    0.000 
#    0.000    0.000    0.000    0.000    0.000    0.000 
#
# Total GULP energy -83624.175203 kJ/mol
# GULP energy per Si atom -5574.945014 kJ/mol
# Density = 2.413290 g / cm^3
# Si number density = 24.187951 Si / 1000 Ang^3
#
#
#
# Elastic Constant Matrix: (Units=GPa)
#
#
# Indices 1 2 3 4 5 6 
#
# 1 81.4317 4.9791 10.1542 -6.5436 -13.3747 0.7957
# 2 4.9791 65.3730 24.3770 1.6892 -3.5640 3.1007
# 3 10.1542 24.3770 59.3446 9.8843 -14.1688 5.2969
# 4 -6.5436 1.6892 9.8843 33.5361 4.0682 -1.2444
# 5 -13.3747 -3.5640 -14.1688 4.0682 33.0555 0.1850
# 6 0.7957 3.1007 5.2969 -1.2444 0.1850 37.6629
#
#
#
# Elastic Compliance Matrix: (Units=1/GPa)
#
#
# Indices 1 2 3 4 5 6 
#
# 1 0.013422 -0.000267 -0.001560 0.002557 0.004419 0.000021
# 2 -0.000267 0.018217 -0.008119 0.001634 -0.001823 -0.000289
# 3 -0.001560 -0.008119 0.024542 -0.008465 0.010072 -0.003079
# 4 0.002557 0.001634 -0.008465 0.033606 -0.006566 0.002145
# 5 0.004419 -0.001823 0.010072 -0.006566 0.036979 -0.001758
# 6 0.000021 -0.000289 -0.003079 0.002145 -0.001758 0.027087
#
#
# Mechanical properties :
#
#
# Convention : Reuss Voigt Hill
#
# Bulk Modulus (GPa) = 27.55573 31.68555 29.62064
# Shear Modulus (GPa) = 26.90483 31.96019 29.43251
#
# Velocity S-wave (km/s) = 3.33877 3.63895 3.49209
# Velocity P-wave (km/s) = 5.12643 5.54834 5.34155
#
# Compressibility (1/GPa) = 0.03629010
#
# Stress axis : x y z
#
# Youngs Moduli (GPa) = 74.50441 54.89465 40.74627
#
# Poissons Ratio (x) = 0.01465 0.06355
# Poissons Ratio (y) = 0.01988 0.33081
# Poissons Ratio (z) = 0.11620 0.44568
#
# Static dielectric constant tensor:
#      x y z
#    x 1.942560 0.020650 -0.031140 
#    y 0.020650 1.984290 0.037120 
#    z -0.031140 0.037120 2.031960 
# 
# From -- ./inp_files/323001.got.cif
#   From: 2010.05.17/outbox.cif.g08.bks.cpg/sg2_162_cif.got.tgz:323001.got - 2010.06.03 11:33:40.
