data_PCOD9102142
_publ_section_title
;
Structure prediction by ZEFSAII (Michael W. Deem and Ramdas Pophale) SiO2 
 PCOD9102142
Probable space group: P -1
;
_chemical_formula_sum "Si O2"
_cell_formula_units_Z 14
_cell_length_a 8.367479
_cell_length_b 7.486091
_cell_length_c 12.214426
_cell_angle_alpha 132.266581
_cell_angle_beta 87.336056
_cell_angle_gamma 92.634273
_cell_volume 565.474259
_symmetry_space_group_name_H-M "P -1"
_symmetry_group_IT_number 2
_symmetry_cell_setting 'triclinic'
loop_
_space_group_symop_operation_xyz
x,y,z
-x,-y,-z
loop_
_atom_site_type_symbol
_atom_site_label
_atom_site_fract_x
_atom_site_fract_y
_atom_site_fract_z
Si Si1 0.130859 0.672338 0.171312
Si Si2 0.303298 0.893248 0.446479
Si Si3 0.662852 0.623240 0.652773
Si Si4 0.061851 0.256408 0.143559
Si Si5 0.142580 0.591552 0.613432
Si Si6 0.546302 0.092476 0.779146
Si Si7 0.208727 0.140249 0.766764
O O1 0.150926 0.830265 0.347498
O O2 0.145605 0.403134 0.104587
O O3 0.288073 0.764236 0.137790
O O4 0.952420 0.713852 0.153135
O O5 0.353604 0.636307 0.394112
O O6 0.429600 0.959285 0.373920
O O7 0.247784 0.084737 0.615380
O O8 0.811103 0.751361 0.765365
O O9 0.711391 0.559682 0.499988
O O10 0.537167 0.836592 0.736957
O O11 0.916908 0.412573 0.262309
O O12 0.000000 0.000000 0.000000
O O13 0.000000 0.500000 0.500000
O O14 0.171760 0.873078 0.704738
O O15 0.378818 0.224436 0.847087
#
# Coordination Sequence:
#
# PCOD9102142 Si02
#       7
#     2   2   2   2   2   2   2
#     4   9  20  34  55  82 117 154 193 250 289 344
#     4   8  19  32  53  85 122 158 188 240 294 348
#     4   9  18  37  57  85 122 155 192 245 299 337
#     4  10  20  38  62  86 116 162 202 238 301 363
#     4   9  19  33  56  88 119 150 196 243 287 348
#     4  10  21  34  59  88 122 159 193 249 293 356
#     4  11  19  35  56  88 121 157 203 237 302 352
#
# _framework density 24.757981000000001
#
# number of rings (size 3 to 8) (size 9 to 14) (size 15 to 20)
#    0.857    1.714    0.000    3.429    2.000    2.286 
#    2.571    2.857    0.000    5.143    0.000    0.000 
#    0.000    0.000    0.000    0.000    0.000    0.000 
#
# Total GULP energy -78090.314354 kJ/mol
# GULP energy per Si atom -5577.879597 kJ/mol
# Density = 2.470163 g / cm^3
# Si number density = 24.757981 Si / 1000 Ang^3
#
#
#
# Elastic Constant Matrix: (Units=GPa)
#
#
# Indices 1 2 3 4 5 6 
#
# 1 129.5330 32.4422 30.3656 13.3726 -4.9922 -11.2208
# 2 32.4422 63.6513 28.2108 8.8175 -7.7144 -6.8851
# 3 30.3656 28.2108 92.3188 1.6822 -3.4853 -7.9392
# 4 13.3726 8.8175 1.6822 35.5254 1.3140 -0.0982
# 5 -4.9922 -7.7144 -3.4853 1.3140 25.1605 10.6039
# 6 -11.2208 -6.8851 -7.9392 -0.0982 10.6039 25.6746
#
#
#
# Elastic Compliance Matrix: (Units=1/GPa)
#
#
# Indices 1 2 3 4 5 6 
#
# 1 0.009501 -0.003431 -0.001801 -0.002613 -0.000488 0.002867
# 2 -0.003431 0.020840 -0.004939 -0.003831 0.005026 0.000471
# 3 -0.001801 -0.004939 0.013073 0.001334 -0.001146 0.002409
# 4 -0.002613 -0.003831 0.001334 0.030126 -0.002894 -0.000447
# 5 -0.000488 0.005026 -0.001146 -0.002894 0.049468 -0.019662
# 6 0.002867 0.000471 0.002409 -0.000447 -0.019662 0.049192
#
#
# Mechanical properties :
#
#
# Convention : Reuss Voigt Hill
#
# Bulk Modulus (GPa) = 43.34503 51.94892 47.64697
# Shear Modulus (GPa) = 24.97088 30.23774 27.60431
#
# Velocity S-wave (km/s) = 3.17929 3.49855 3.34273
# Velocity P-wave (km/s) = 5.56980 6.11130 5.84683
#
# Compressibility (1/GPa) = 0.02307070
#
# Stress axis : x y z
#
# Youngs Moduli (GPa) = 105.25292 47.98554 76.49144
#
# Poissons Ratio (x) = 0.16466 0.13774
# Poissons Ratio (y) = 0.36117 0.37782
# Poissons Ratio (z) = 0.18953 0.23702
#
# Static dielectric constant tensor:
#      x y z
#    x 2.070260 0.009390 0.014790 
#    y 0.009390 1.955760 -0.041240 
#    z 0.014790 -0.041240 1.951360 
# 
# From -- ./inp_files/495843.got.cif
#   From: 2010.05.17/outbox.cif.g08.bks.cpg/sg2_248_cif.got.tgz:495843.got - 2010.06.03 11:33:40.
