data_PCOD9102816
_publ_section_title
;
Structure prediction by ZEFSAII (Michael W. Deem and Ramdas Pophale) SiO2 
 PCOD9102816
Probable space group: P -1
;
_chemical_formula_sum "Si O2"
_cell_formula_units_Z 14
_cell_length_a 12.121737
_cell_length_b 11.234974
_cell_length_c 14.322088
_cell_angle_alpha 150.902247
_cell_angle_beta 42.948968
_cell_angle_gamma 133.276197
_cell_volume 640.033373
_symmetry_space_group_name_H-M "P -1"
_symmetry_group_IT_number 2
_symmetry_cell_setting 'triclinic'
loop_
_space_group_symop_operation_xyz
x,y,z
-x,-y,-z
loop_
_atom_site_type_symbol
_atom_site_label
_atom_site_fract_x
_atom_site_fract_y
_atom_site_fract_z
Si Si1 0.022747 0.839263 0.784668
Si Si2 0.613608 0.163820 0.226174
Si Si3 0.061122 0.813908 0.079930
Si Si4 0.783089 0.349118 0.959006
Si Si5 0.483135 0.631853 0.003915
Si Si6 0.261748 0.493085 0.358001
Si Si7 0.536163 0.642987 0.713487
O O1 0.869610 0.625384 0.717292
O O2 0.184552 0.710513 0.603357
O O3 0.025018 0.984012 0.784051
O O4 0.000000 0.000000 0.000000
O O5 0.791184 0.223454 0.109024
O O6 0.485984 0.153404 0.210898
O O7 0.569477 0.391026 0.470140
O O8 0.589728 0.903374 0.115254
O O9 0.131751 0.845044 0.163606
O O10 0.925620 0.574587 0.008204
O O11 0.635334 0.403103 0.156452
O O12 0.565756 0.446192 0.757584
O O13 0.309312 0.683888 0.106214
O O14 0.500000 0.500000 0.000000
O O15 0.311488 0.298678 0.270539
#
# Coordination Sequence:
#
# PCOD9102816 Si02
#       7
#     2   2   2   2   2   2   2
#     4  11  23  38  64  90 129 165 207 264 317 372
#     4  10  20  38  68  90 123 167 212 263 316 376
#     4  10  20  38  64  89 120 167 207 256 322 373
#     4   9  22  38  61  90 125 159 210 262 318 376
#     4  11  24  40  61  93 131 168 211 265 319 380
#     4  10  23  39  59  96 121 164 217 254 314 384
#     4   9  20  39  64  92 120 162 223 259 310 385
#
# _framework density 21.873857999999998
#
# number of rings (size 3 to 8) (size 9 to 14) (size 15 to 20)
#    0.000    2.000    1.429    0.857    4.000    2.857 
#    0.000    2.857    0.000    4.286    0.000    0.000 
#    0.000    0.000    0.000    0.000    0.000    0.000 
#
# Total GULP energy -77991.893866 kJ/mol
# GULP energy per Si atom -5570.849562 kJ/mol
# Density = 2.182407 g / cm^3
# Si number density = 21.873858 Si / 1000 Ang^3
#
#
#
# Elastic Constant Matrix: (Units=GPa)
#
#
# Indices 1 2 3 4 5 6 
#
# 1 146.6351 51.2955 20.1409 1.1060 -11.1808 -27.5060
# 2 51.2955 106.2372 16.1411 5.8642 -9.5864 -23.3589
# 3 20.1409 16.1411 83.5537 5.6460 -8.6563 -4.9506
# 4 1.1060 5.8642 5.6460 8.1218 -3.6559 -2.6161
# 5 -11.1808 -9.5864 -8.6563 -3.6559 36.1713 7.1503
# 6 -27.5060 -23.3589 -4.9506 -2.6161 7.1503 44.4982
#
#
#
# Elastic Compliance Matrix: (Units=1/GPa)
#
#
# Indices 1 2 3 4 5 6 
#
# 1 0.008952 -0.003420 -0.001425 0.003948 0.001204 0.003619
# 2 -0.003420 0.012451 -0.000855 -0.006407 0.000630 0.003849
# 3 -0.001425 -0.000855 0.013150 -0.007708 0.001822 -0.000612
# 4 0.003948 -0.006407 -0.007708 0.138931 0.010800 0.004652
# 5 0.001204 0.000630 0.001822 0.010800 0.030297 -0.002956
# 6 0.003619 0.003849 -0.000612 0.004652 -0.002956 0.027411
#
#
# Mechanical properties :
#
#
# Convention : Reuss Voigt Hill
#
# Bulk Modulus (GPa) = 43.18813 56.84233 50.01523
# Shear Modulus (GPa) = 19.97526 34.34817 27.16171
#
# Velocity S-wave (km/s) = 3.02520 3.96698 3.52766
# Velocity P-wave (km/s) = 5.65593 6.85751 6.28550
#
# Compressibility (1/GPa) = 0.02315451
#
# Stress axis : x y z
#
# Youngs Moduli (GPa) = 111.70065 80.31668 76.04396
#
# Poissons Ratio (x) = 0.27466 0.10837
# Poissons Ratio (y) = 0.38198 0.06499
# Poissons Ratio (z) = 0.15918 0.06865
#
# Static dielectric constant tensor:
#      x y z
#    x 1.935760 -0.030200 0.038350 
#    y -0.030200 1.818870 -0.008040 
#    z 0.038350 -0.008040 1.820640 
# 
# From -- ./inp_files/532131.got.cif
#   From: 2010.05.17/outbox.cif.g08.bks.cpg/sg2_267_cif.got.tgz:532131.got - 2010.06.03 11:33:40.
