data_PCOD9102890
_publ_section_title
;
Structure prediction by ZEFSAII (Michael W. Deem and Ramdas Pophale) SiO2 
 PCOD9102890
Probable space group: P -1
;
_chemical_formula_sum "Si O2"
_cell_formula_units_Z 16
_cell_length_a 15.136550
_cell_length_b 8.567843
_cell_length_c 19.352333
_cell_angle_alpha 37.257275
_cell_angle_beta 151.339259
_cell_angle_gamma 129.797504
_cell_volume 713.880768
_symmetry_space_group_name_H-M "P -1"
_symmetry_group_IT_number 2
_symmetry_cell_setting 'triclinic'
loop_
_space_group_symop_operation_xyz
x,y,z
-x,-y,-z
loop_
_atom_site_type_symbol
_atom_site_label
_atom_site_fract_x
_atom_site_fract_y
_atom_site_fract_z
Si Si1 0.386352 0.819639 0.663520
Si Si2 0.644449 0.537384 0.445466
Si Si3 0.998048 0.779082 0.479685
Si Si4 0.113990 0.026575 0.178516
Si Si5 0.770622 0.901074 0.923408
Si Si6 0.604355 0.724187 0.200524
Si Si7 0.997268 0.346048 0.315297
Si Si8 0.642221 0.800417 0.617567
O O1 0.201977 0.771778 0.591633
O O2 0.555881 0.903073 0.792898
O O3 0.465974 0.532048 0.785361
O O4 0.332110 0.038337 0.489818
O O5 0.589074 0.708525 0.278716
O O6 0.779339 0.673279 0.537850
O O7 0.462163 0.440115 0.383012
O O8 0.793443 0.262626 0.625703
O O9 0.830090 0.688771 0.355361
O O10 0.023047 0.643033 0.619591
O O11 0.924763 0.090193 0.332783
O O12 0.210911 0.019701 0.171728
O O13 0.171632 0.240409 0.193333
O O14 0.893770 0.054843 0.001693
O O15 0.884099 0.603065 0.111649
O O16 0.500000 0.000000 0.000000
O O17 0.500000 0.000000 0.500000
#
# Coordination Sequence:
#
# PCOD9102890 Si02
#       8
#     2   2   2   2   2   2   2   2
#     4  12  21  35  61  93 116 150 199 243 289 350
#     4   9  16  33  60  84 107 156 192 228 289 357
#     4  10  23  39  56  82 120 162 195 238 297 346
#     4   9  16  30  54  87 115 145 191 233 285 357
#     4  10  18  30  59  88 107 148 200 240 277 344
#     4  11  21  36  60  87 116 153 198 236 285 352
#     4   9  20  39  57  78 120 160 196 240 292 346
#     4  10  16  32  58  87 113 151 189 232 290 357
#
# _framework density 22.412704999999999
#
# number of rings (size 3 to 8) (size 9 to 14) (size 15 to 20)
#    0.000    2.000    5.000    1.125    0.000    0.500 
#    0.000    0.625    0.000    1.500    0.000    0.000 
#    0.000    0.000    0.000    0.000    0.000    0.000 
#
# Total GULP energy -89257.394037 kJ/mol
# GULP energy per Si atom -5578.587127 kJ/mol
# Density = 2.236169 g / cm^3
# Si number density = 22.412705 Si / 1000 Ang^3
#
#
#
# Elastic Constant Matrix: (Units=GPa)
#
#
# Indices 1 2 3 4 5 6 
#
# 1 26.6021 41.5357 25.9650 -3.2564 -0.9294 4.4980
# 2 41.5357 120.6630 48.0200 41.0326 -9.0097 42.0425
# 3 25.9650 48.0200 101.5299 17.1628 -12.5680 1.3658
# 4 -3.2564 41.0326 17.1628 53.4141 9.8421 -9.1967
# 5 -0.9294 -9.0097 -12.5680 9.8421 25.7609 1.6695
# 6 4.4980 42.0425 1.3658 -9.1967 1.6695 7.4775
#
#
#
# Elastic Compliance Matrix: (Units=1/GPa)
#
#
# Indices 1 2 3 4 5 6 
#
# 1 0.055838 0.002182 -0.014718 -0.000896 -0.001209 -0.044001
# 2 0.002182 -0.002246 -0.001714 0.007210 -0.005709 0.021774
# 3 -0.014718 -0.001714 0.016174 -0.004976 0.008169 0.007593
# 4 -0.000896 0.007210 -0.004976 0.010834 -0.002442 -0.025223
# 5 -0.001209 -0.005709 0.008169 -0.002442 0.040446 0.019300
# 6 -0.044001 0.021774 0.007593 -0.025223 0.019300 0.001059
#
#
# Mechanical properties :
#
#
# Convention : Reuss Voigt Hill
#
# Bulk Modulus (GPa) = 24.23349 53.31514 38.77432
# Shear Modulus (GPa) = 30.42116 26.21546 28.31831
#
# Velocity S-wave (km/s) = 3.68818 3.42375 3.55842
# Velocity P-wave (km/s) = 5.38263 6.28244 5.84986
#
# Compressibility (1/GPa) = 0.04126521
#
# Stress axis : x y z
#
# Youngs Moduli (GPa) = 17.90908 -445.15042 61.82719
#
# Poissons Ratio (x) = 0.97133 0.90997
# Poissons Ratio (y) = -0.03908 0.10597
# Poissons Ratio (z) = 0.26359 -0.76301
#
# Static dielectric constant tensor:
#      x y z
#    x 1.829850 -0.020140 0.030570 
#    y -0.020140 1.902190 0.060480 
#    z 0.030570 0.060480 1.845420 
# 
# From -- ./inp_files/399779.got.cif
#   From: 2010.05.17/outbox.cif.g08.bks.cpg/sg2_200_cif.got.tgz:399779.got - 2010.06.03 11:33:40.
