data_PCOD9102692
_publ_section_title
;
Structure prediction by ZEFSAII (Michael W. Deem and Ramdas Pophale) SiO2 
 PCOD9102692
Probable space group: P -1
;
_chemical_formula_sum "Si O2"
_cell_formula_units_Z 16
_cell_length_a 11.564982
_cell_length_b 7.521268
_cell_length_c 14.211154
_cell_angle_alpha 112.240348
_cell_angle_beta 120.229291
_cell_angle_gamma 113.990875
_cell_volume 657.590457
_symmetry_space_group_name_H-M "P -1"
_symmetry_group_IT_number 2
_symmetry_cell_setting 'triclinic'
loop_
_space_group_symop_operation_xyz
x,y,z
-x,-y,-z
loop_
_atom_site_type_symbol
_atom_site_label
_atom_site_fract_x
_atom_site_fract_y
_atom_site_fract_z
Si Si1 0.401847 0.638286 0.963111
Si Si2 0.433627 0.093628 0.112152
Si Si3 0.274591 0.328793 0.368220
Si Si4 0.747389 0.870800 0.287670
Si Si5 0.314840 0.959594 0.537304
Si Si6 0.745663 0.332285 0.719361
Si Si7 0.832462 0.525195 0.482464
Si Si8 0.903338 0.090826 0.937605
O O1 0.549674 0.809699 0.967298
O O2 0.230354 0.316556 0.786297
O O3 0.540125 0.713051 0.120268
O O4 0.337500 0.780602 0.995920
O O5 0.659799 0.317453 0.291067
O O6 0.300105 0.077228 0.123405
O O7 0.500000 0.500000 0.500000
O O8 0.265526 0.500380 0.326052
O O9 0.211838 0.337153 0.444708
O O10 0.143745 0.017298 0.209158
O O11 0.711700 0.867803 0.383824
O O12 0.941642 0.202136 0.405369
O O13 0.251436 0.852215 0.382508
O O14 0.197308 0.682693 0.499342
O O15 0.548077 0.141072 0.664572
O O16 0.939557 0.574529 0.909695
O O17 0.000000 0.000000 0.000000
#
# Coordination Sequence:
#
# PCOD9102692 Si02
#       8
#     2   2   2   2   2   2   2   2
#     4  10  26  42  65 100 136 176 222 279 325 398
#     4  11  23  44  65  97 143 167 222 281 338 387
#     4  10  20  38  63  96 132 165 217 275 333 389
#     4  11  24  42  71  97 130 184 226 264 331 410
#     4  10  21  40  66  93 134 169 229 270 322 402
#     4   9  22  39  64  96 125 177 218 269 334 395
#     4  11  23  40  67  97 133 178 216 273 336 395
#     4  10  22  38  68  96 124 180 221 269 336 397
#
# _framework density 24.331253
#
# number of rings (size 3 to 8) (size 9 to 14) (size 15 to 20)
#    0.000    1.750    2.500    0.375    8.750    2.500 
#    0.000    4.375    0.000    0.000    0.000    0.000 
#    0.000    0.000    0.000    0.000    0.000    0.000 
#
# Total GULP energy -89446.635610 kJ/mol
# GULP energy per Si atom -5590.414726 kJ/mol
# Density = 2.427587 g / cm^3
# Si number density = 24.331253 Si / 1000 Ang^3
#
#
#
# Elastic Constant Matrix: (Units=GPa)
#
#
# Indices 1 2 3 4 5 6 
#
# 1 105.9187 26.6887 42.8749 -0.4738 -30.1282 21.6168
# 2 26.6887 65.1749 22.6364 1.0238 -4.5658 -1.6906
# 3 42.8749 22.6364 154.3246 11.1311 -33.6096 4.0896
# 4 -0.4738 1.0238 11.1311 32.4054 7.8924 7.6553
# 5 -30.1282 -4.5658 -33.6096 7.8924 38.1902 -4.6603
# 6 21.6168 -1.6906 4.0896 7.6553 -4.6603 25.1265
#
#
#
# Elastic Compliance Matrix: (Units=1/GPa)
#
#
# Indices 1 2 3 4 5 6 
#
# 1 0.017095 -0.006182 -0.001610 0.001998 0.009239 -0.013756
# 2 -0.006182 0.018458 -0.001833 -0.000760 -0.003337 0.006471
# 3 -0.001610 -0.001833 0.009364 -0.005951 0.008359 0.003101
# 4 0.001998 -0.000760 -0.005951 0.040028 -0.013925 -0.015580
# 5 0.009239 -0.003337 0.008359 -0.013925 0.043651 0.002805
# 6 -0.013756 0.006471 0.003101 -0.015580 0.002805 0.056831
#
#
# Mechanical properties :
#
#
# Convention : Reuss Voigt Hill
#
# Bulk Modulus (GPa) = 38.96316 56.64645 47.80481
# Shear Modulus (GPa) = 23.44860 34.69230 29.07045
#
# Velocity S-wave (km/s) = 3.10776 3.78012 3.46031
# Velocity P-wave (km/s) = 5.37828 6.51032 5.97119
#
# Compressibility (1/GPa) = 0.02566527
#
# Stress axis : x y z
#
# Youngs Moduli (GPa) = 58.49661 54.17827 106.79599
#
# Poissons Ratio (x) = 0.33493 0.17196
# Poissons Ratio (y) = 0.36163 0.19579
# Poissons Ratio (z) = 0.09419 0.09932
#
# Static dielectric constant tensor:
#      x y z
#    x 1.971160 -0.071820 -0.045210 
#    y -0.071820 1.968170 0.044640 
#    z -0.045210 0.044640 1.924300 
# 
# From -- ./inp_files/516108.got.cif
#   From: 2010.05.17/outbox.cif.g08.bks.cpg/sg2_259_cif.got.tgz:516108.got - 2010.06.03 11:33:40.
