data_PCOD9102055
_publ_section_title
;
Structure prediction by ZEFSAII (Michael W. Deem and Ramdas Pophale) SiO2 
 PCOD9102055
Probable space group: P -1
;
_chemical_formula_sum "Si O2"
_cell_formula_units_Z 14
_cell_length_a 21.602907
_cell_length_b 8.521073
_cell_length_c 11.390641
_cell_angle_alpha 136.461104
_cell_angle_beta 31.616007
_cell_angle_gamma 146.435814
_cell_volume 606.859357
_symmetry_space_group_name_H-M "P -1"
_symmetry_group_IT_number 2
_symmetry_cell_setting 'triclinic'
loop_
_space_group_symop_operation_xyz
x,y,z
-x,-y,-z
loop_
_atom_site_type_symbol
_atom_site_label
_atom_site_fract_x
_atom_site_fract_y
_atom_site_fract_z
Si Si1 0.327535 0.268188 0.622735
Si Si2 0.763917 0.327708 0.979836
Si Si3 0.945011 0.255283 0.810197
Si Si4 0.499999 0.233024 0.762027
Si Si5 0.769925 0.609237 0.661890
Si Si6 0.300082 0.971227 0.739082
Si Si7 0.329821 0.854196 0.226828
O O1 0.500000 0.500000 0.500000
O O2 0.268709 0.072265 0.726942
O O3 0.312973 0.086461 0.435750
O O4 0.255999 0.433869 0.820045
O O5 0.909051 0.385654 0.832838
O O6 0.758079 0.289718 0.829234
O O7 0.623949 0.029622 0.099203
O O8 0.114876 0.386353 0.606452
O O9 0.860129 0.922050 0.737894
O O10 0.852167 0.240201 0.061299
O O11 0.623664 0.524359 0.785390
O O12 0.413410 0.229726 0.787237
O O13 0.605709 0.144724 0.503654
O O14 0.719739 0.378818 0.719069
O O15 0.500000 0.000000 0.000000
#
# Coordination Sequence:
#
# PCOD9102055 Si02
#       7
#     2   2   2   2   2   2   2
#     4  12  21  37  66 100 130 163 215 267 323 387
#     4  11  23  43  62 100 131 165 216 268 324 380
#     4  10  26  41  65  90 130 177 207 268 325 376
#     4  10  20  38  65  94 121 160 219 264 311 386
#     4  11  22  45  62  95 126 167 227 255 321 398
#     4  10  20  38  61  94 124 163 205 268 320 362
#     4  12  22  39  70  96 126 172 210 268 326 371
#
# _framework density 23.069595
#
# number of rings (size 3 to 8) (size 9 to 14) (size 15 to 20)
#    0.000    1.143    5.714    0.857    0.000    4.571 
#    0.000    0.714    0.000    0.000    0.000    0.000 
#    0.000    0.000    0.000    0.000    0.000    0.000 
#
# Total GULP energy -78339.113903 kJ/mol
# GULP energy per Si atom -5595.650993 kJ/mol
# Density = 2.301709 g / cm^3
# Si number density = 23.069595 Si / 1000 Ang^3
#
#
#
# Elastic Constant Matrix: (Units=GPa)
#
#
# Indices 1 2 3 4 5 6 
#
# 1 48.7535 30.6896 48.7126 -4.7401 0.7268 6.1034
# 2 30.6896 76.4208 42.7359 17.7963 -3.4276 0.5155
# 3 48.7126 42.7359 112.3729 3.6009 2.8264 1.5210
# 4 -4.7401 17.7963 3.6009 49.2944 8.7949 -5.6956
# 5 0.7268 -3.4276 2.8264 8.7949 43.5681 -1.7109
# 6 6.1034 0.5155 1.5210 -5.6956 -1.7109 27.7162
#
#
#
# Elastic Compliance Matrix: (Units=1/GPa)
#
#
# Indices 1 2 3 4 5 6 
#
# 1 0.044891 -0.011864 -0.015081 0.009396 -0.002879 -0.007084
# 2 -0.011864 0.021910 -0.002997 -0.009478 0.004056 0.000672
# 3 -0.015081 -0.002997 0.016604 -0.001199 -0.000734 0.002174
# 4 0.009396 -0.009478 -0.001199 0.026132 -0.005975 0.003174
# 5 -0.002879 0.004056 -0.000734 -0.005975 0.024608 0.000890
# 6 -0.007084 0.000672 0.002174 0.003174 0.000890 0.038215
#
#
# Mechanical properties :
#
#
# Convention : Reuss Voigt Hill
#
# Bulk Modulus (GPa) = 42.51426 53.53592 48.02509
# Shear Modulus (GPa) = 20.82604 31.80968 26.31786
#
# Velocity S-wave (km/s) = 3.00784 3.71733 3.38124
# Velocity P-wave (km/s) = 5.52553 6.45611 6.00886
#
# Compressibility (1/GPa) = 0.02352152
#
# Stress axis : x y z
#
# Youngs Moduli (GPa) = 22.27629 45.64055 60.22797
#
# Poissons Ratio (x) = 0.54146 0.90828
# Poissons Ratio (y) = 0.26428 0.18052
# Poissons Ratio (z) = 0.33594 0.13679
#
# Static dielectric constant tensor:
#      x y z
#    x 1.880240 0.051210 0.051080 
#    y 0.051210 1.930320 0.076690 
#    z 0.051080 0.076690 1.905930 
# 
# From -- ./inp_files/353854.got.cif
#   From: 2010.05.17/outbox.cif.g08.bks.cpg/sg2_177_cif.got.tgz:353854.got - 2010.06.03 11:33:40.
