data_PCOD9102198
_publ_section_title
;
Structure prediction by ZEFSAII (Michael W. Deem and Ramdas Pophale) SiO2 
 PCOD9102198
Probable space group: P -1
;
_chemical_formula_sum "Si O2"
_cell_formula_units_Z 16
_cell_length_a 8.116893
_cell_length_b 10.993375
_cell_length_c 17.656057
_cell_angle_alpha 30.848453
_cell_angle_beta 125.461679
_cell_angle_gamma 122.207775
_cell_volume 655.702812
_symmetry_space_group_name_H-M "P -1"
_symmetry_group_IT_number 2
_symmetry_cell_setting 'triclinic'
loop_
_space_group_symop_operation_xyz
x,y,z
-x,-y,-z
loop_
_atom_site_type_symbol
_atom_site_label
_atom_site_fract_x
_atom_site_fract_y
_atom_site_fract_z
Si Si1 0.497028 0.371591 0.734273
Si Si2 0.776538 0.984766 0.649808
Si Si3 0.852538 0.519946 0.844624
Si Si4 0.160687 0.989778 0.830707
Si Si5 0.557543 0.185084 0.624454
Si Si6 0.275669 0.590987 0.698101
Si Si7 0.946902 0.176480 0.824291
Si Si8 0.826659 0.141469 0.332877
O O1 0.732965 0.415188 0.794180
O O2 0.445797 0.559442 0.555336
O O3 0.402332 0.433659 0.758892
O O4 0.386545 0.115499 0.821706
O O5 0.739614 0.719432 0.751909
O O6 0.013729 0.062379 0.686620
O O7 0.663447 0.029781 0.672652
O O8 0.712503 0.162300 0.475195
O O9 0.055274 0.670499 0.791859
O O10 0.862919 0.293746 0.021106
O O11 0.054021 0.075427 0.832603
O O12 0.709399 0.190205 0.733561
O O13 0.333287 0.055591 0.641877
O O14 0.297965 0.689145 0.736625
O O15 0.057836 0.438321 0.724628
O O16 0.000000 0.000000 0.000000
O O17 0.000000 0.000000 0.500000
#
# Coordination Sequence:
#
# PCOD9102198 Si02
#       8
#     2   2   2   2   2   2   2   2
#     4  10  20  38  64  89 117 159 204 249 295 354
#     4  10  20  38  62  88 118 157 206 249 294 355
#     4  12  22  37  59  89 131 160 194 245 302 358
#     4  10  22  38  60  89 120 159 202 251 301 350
#     4  10  21  40  65  92 116 158 208 248 295 358
#     4  10  20  38  64  87 118 159 204 252 297 354
#     4  10  21  41  63  87 122 159 202 251 303 359
#     4  12  22  38  59  91 129 155 196 246 302 358
#
# _framework density 24.401295999999999
#
# number of rings (size 3 to 8) (size 9 to 14) (size 15 to 20)
#    0.000    1.500    2.500    3.000    0.000    5.000 
#    0.000   13.750    0.000    0.000    0.000    0.000 
#    0.000    0.000    0.000    0.000    0.000    0.000 
#
# Total GULP energy -89422.619945 kJ/mol
# GULP energy per Si atom -5588.913747 kJ/mol
# Density = 2.434576 g / cm^3
# Si number density = 24.401296 Si / 1000 Ang^3
#
#
#
# Elastic Constant Matrix: (Units=GPa)
#
#
# Indices 1 2 3 4 5 6 
#
# 1 77.1476 40.0183 14.8136 -4.2969 -18.0848 16.7199
# 2 40.0183 105.5259 53.4040 -17.7058 -16.9618 34.0592
# 3 14.8136 53.4040 54.7073 -5.5306 -8.3302 20.2150
# 4 -4.2969 -17.7058 -5.5306 49.9044 -0.1199 0.3335
# 5 -18.0848 -16.9618 -8.3302 -0.1199 23.3968 -9.1457
# 6 16.7199 34.0592 20.2150 0.3335 -9.1457 45.9831
#
#
#
# Elastic Compliance Matrix: (Units=1/GPa)
#
#
# Indices 1 2 3 4 5 6 
#
# 1 0.018448 -0.006943 0.003714 -0.000431 0.010081 -0.001189
# 2 -0.006943 0.026205 -0.019684 0.006577 0.003708 -0.007542
# 3 0.003714 -0.019684 0.037489 -0.002487 0.000728 -0.003089
# 4 -0.000431 0.006577 -0.002487 0.022087 0.002369 -0.003311
# 5 0.010081 0.003708 0.000728 0.002369 0.055141 0.004218
# 6 -0.001189 -0.007542 -0.003089 -0.003311 0.004218 0.029986
#
#
# Mechanical properties :
#
#
# Convention : Reuss Voigt Hill
#
# Bulk Modulus (GPa) = 27.53761 50.42807 38.98284
# Shear Modulus (GPa) = 20.21928 32.46653 26.34291
#
# Velocity S-wave (km/s) = 2.88169 3.65159 3.28925
# Velocity P-wave (km/s) = 4.73096 6.20402 5.51688
#
# Compressibility (1/GPa) = 0.03631398
#
# Stress axis : x y z
#
# Youngs Moduli (GPa) = 54.20759 38.16095 26.67416
#
# Poissons Ratio (x) = 0.26497 -0.09906
# Poissons Ratio (y) = 0.37638 0.52506
# Poissons Ratio (z) = -0.20130 0.75116
#
# Static dielectric constant tensor:
#      x y z
#    x 2.073140 -0.029270 0.055750 
#    y -0.029270 2.010950 0.046070 
#    z 0.055750 0.046070 1.899390 
# 
# From -- ./inp_files/218880.got.cif
#   From: 2010.05.17/outbox.cif.g08.bks.cpg/sg2_110_cif.got.tgz:218880.got - 2010.06.03 11:33:40.
