data_PCOD9102985
_publ_section_title
;
Structure prediction by ZEFSAII (Michael W. Deem and Ramdas Pophale) SiO2 
 PCOD9102985
Probable space group: P -1
;
_chemical_formula_sum "Si O2"
_cell_formula_units_Z 12
_cell_length_a 14.100871
_cell_length_b 13.496378
_cell_length_c 11.926234
_cell_angle_alpha 140.499766
_cell_angle_beta 139.802881
_cell_angle_gamma 21.381236
_cell_volume 516.189044
_symmetry_space_group_name_H-M "P -1"
_symmetry_group_IT_number 2
_symmetry_cell_setting 'triclinic'
loop_
_space_group_symop_operation_xyz
x,y,z
-x,-y,-z
loop_
_atom_site_type_symbol
_atom_site_label
_atom_site_fract_x
_atom_site_fract_y
_atom_site_fract_z
Si Si1 0.124059 0.485061 0.816438
Si Si2 0.546785 0.898387 0.582904
Si Si3 0.236739 0.701951 0.007752
Si Si4 0.927451 0.884184 0.351766
Si Si5 0.396906 0.383891 0.196823
Si Si6 0.376859 0.739046 0.388600
O O1 0.811692 0.734600 0.736120
O O2 0.292403 0.190336 0.671766
O O3 0.194848 0.556980 0.854500
O O4 0.240668 0.440935 0.002738
O O5 0.557168 0.704108 0.452672
O O6 0.500000 0.000000 0.500000
O O7 0.231869 0.776608 0.192241
O O8 0.500000 0.500000 0.000000
O O9 0.000000 0.000000 0.000000
O O10 0.191405 0.560793 0.270581
O O11 0.677094 0.061002 0.201265
O O12 0.812414 0.994793 0.468867
O O13 0.000000 0.000000 0.500000
O O14 0.469206 0.502644 0.335773
#
# Coordination Sequence:
#
# PCOD9102985 Si02
#       6
#     2   2   2   2   2   2
#     4  11  24  42  61  88 127 163 197 252 309 357
#     4  12  25  42  61  90 128 164 201 249 303 363
#     4  11  23  40  63  89 117 159 210 252 296 356
#     4  10  20  38  64  95 120 152 204 261 301 351
#     4  10  22  41  65  91 121 157 205 255 302 359
#     4  10  23  39  65  91 119 161 206 247 301 362
#
# _framework density 23.247297
#
# number of rings (size 3 to 8) (size 9 to 14) (size 15 to 20)
#    0.000    1.333    0.000    6.500    0.000   13.333 
#    0.000    5.000    0.000    0.000    0.000    0.000 
#    0.000    0.000    0.000    0.000    0.000    0.000 
#
# Total GULP energy -66957.257217 kJ/mol
# GULP energy per Si atom -5579.771435 kJ/mol
# Density = 2.319439 g / cm^3
# Si number density = 23.247297 Si / 1000 Ang^3
#
#
#
# Elastic Constant Matrix: (Units=GPa)
#
#
# Indices 1 2 3 4 5 6 
#
# 1 103.3137 16.5735 27.7883 0.4218 5.7725 -1.1112
# 2 16.5735 103.5371 6.7567 -24.6496 -13.5289 4.2494
# 3 27.7883 6.7567 58.6924 -14.9498 -15.9841 19.7693
# 4 0.4218 -24.6496 -14.9498 31.7261 -2.6131 5.1838
# 5 5.7725 -13.5289 -15.9841 -2.6131 37.7052 7.0940
# 6 -1.1112 4.2494 19.7693 5.1838 7.0940 8.5317
#
#
#
# Elastic Compliance Matrix: (Units=1/GPa)
#
#
# Indices 1 2 3 4 5 6 
#
# 1 0.007962 0.001021 0.004149 0.005630 0.004326 -0.016102
# 2 0.001021 0.008987 -0.007825 0.000344 -0.003295 0.016319
# 3 0.004149 -0.007825 -0.005846 -0.016684 -0.014662 0.040312
# 4 0.005630 0.000344 -0.016684 0.015837 -0.014560 0.041705
# 5 0.004326 -0.003295 -0.014662 -0.014560 0.010647 0.036172
# 6 -0.016102 0.016319 0.040312 0.041705 0.036172 -0.041841
#
#
# Mechanical properties :
#
#
# Convention : Reuss Voigt Hill
#
# Bulk Modulus (GPa) = 172.63779 40.86447 106.75113
# Shear Modulus (GPa) = 1674.07122 29.88759 851.97940
#
# Velocity S-wave (km/s) = 26.86406 3.58947 19.16458
# Velocity P-wave (km/s) = 32.19720 5.89876 23.14579
#
# Compressibility (1/GPa) = 0.00579247
#
# Stress axis : x y z
#
# Youngs Moduli (GPa) = 125.60099 111.27204 -171.05399
#
# Poissons Ratio (x) = -0.11363 0.70963
# Poissons Ratio (y) = -0.12827 -1.33847
# Poissons Ratio (z) = -0.52107 0.87069
#
# Static dielectric constant tensor:
#      x y z
#    x 1.956430 0.066580 0.016000 
#    y 0.066580 1.881400 -0.003930 
#    z 0.016000 -0.003930 1.861310 
# 
# From -- ./inp_files/49883.got.cif
#   From: 2010.05.17/outbox.cif.g08.bks.cpg/sg2_25_cif.got.tgz:49883.got - 2010.06.03 11:33:40.
