data_PCOD9102376
_publ_section_title
;
Structure prediction by ZEFSAII (Michael W. Deem and Ramdas Pophale) SiO2 
 PCOD9102376
Probable space group: P -1
;
_chemical_formula_sum "Si O2"
_cell_formula_units_Z 16
_cell_length_a 12.372116
_cell_length_b 11.595134
_cell_length_c 8.972813
_cell_angle_alpha 70.480218
_cell_angle_beta 122.626253
_cell_angle_gamma 133.459820
_cell_volume 785.474994
_symmetry_space_group_name_H-M "P -1"
_symmetry_group_IT_number 2
_symmetry_cell_setting 'triclinic'
loop_
_space_group_symop_operation_xyz
x,y,z
-x,-y,-z
loop_
_atom_site_type_symbol
_atom_site_label
_atom_site_fract_x
_atom_site_fract_y
_atom_site_fract_z
Si Si1 0.512288 0.653107 0.789856
Si Si2 0.630527 0.904417 0.538841
Si Si3 0.839427 0.509348 0.535920
Si Si4 0.830488 0.255008 0.458217
Si Si5 0.513265 0.378900 0.869823
Si Si6 0.705026 0.327281 0.797036
Si Si7 0.700341 0.127507 0.107747
Si Si8 0.807938 0.922357 0.377253
O O1 0.614254 0.823018 0.714959
O O2 0.335015 0.543435 0.622323
O O3 0.579879 0.558521 0.849379
O O4 0.487688 0.661900 0.941502
O O5 0.448388 0.805212 0.369089
O O6 0.737167 0.892191 0.504840
O O7 0.724073 0.089578 0.536595
O O8 0.851204 0.383653 0.521935
O O9 0.832780 0.478678 0.720709
O O10 0.989760 0.676566 0.502143
O O11 0.736517 0.222251 0.246943
O O12 0.623767 0.365119 0.846249
O O13 0.321468 0.247435 0.727933
O O14 0.766720 0.245073 0.966090
O O15 0.774600 0.036431 0.227656
O O16 0.500000 0.000000 0.000000
O O17 0.000000 0.000000 0.500000
#
# Coordination Sequence:
#
# PCOD9102376 Si02
#       8
#     2   2   2   2   2   2   2   2
#     4  10  22  38  62  91 115 170 206 253 305 371
#     4   9  20  38  61  89 118 161 212 245 304 371
#     4  10  23  36  61  91 127 161 198 255 324 351
#     4  10  21  39  57  90 126 160 195 262 304 370
#     4  10  21  39  63  87 124 161 211 254 300 375
#     4  10  20  38  62  94 115 162 209 251 299 370
#     4  11  19  38  64  89 122 163 207 250 300 365
#     4  10  22  37  62  94 123 165 199 256 314 354
#
# _framework density 20.36984
#
# number of rings (size 3 to 8) (size 9 to 14) (size 15 to 20)
#    0.000    2.000    3.750    0.750    3.500    8.000 
#    0.000    0.625    5.500    0.000    0.000    0.000 
#    0.000    0.000    0.000    0.000    0.000    0.000 
#
# Total GULP energy -89258.811861 kJ/mol
# GULP energy per Si atom -5578.675741 kJ/mol
# Density = 2.032348 g / cm^3
# Si number density = 20.369840 Si / 1000 Ang^3
#
#
#
# Elastic Constant Matrix: (Units=GPa)
#
#
# Indices 1 2 3 4 5 6 
#
# 1 61.7639 24.7232 37.4363 -16.6859 -0.5433 -0.2595
# 2 24.7232 64.8626 22.1705 -14.3373 -6.0037 -8.3430
# 3 37.4363 22.1705 91.6305 -18.6708 -10.5658 1.3676
# 4 -16.6859 -14.3373 -18.6708 29.1285 4.6766 -1.8859
# 5 -0.5433 -6.0037 -10.5658 4.6766 29.9802 7.5558
# 6 -0.2595 -8.3430 1.3676 -1.8859 7.5558 15.3072
#
#
#
# Elastic Compliance Matrix: (Units=1/GPa)
#
#
# Indices 1 2 3 4 5 6 
#
# 1 0.025269 -0.005473 -0.008074 0.007521 -0.005057 0.001590
# 2 -0.005473 0.021277 -0.001735 0.007199 -0.000839 0.012960
# 3 -0.008074 -0.001735 0.016115 0.003583 0.005883 -0.004985
# 4 0.007521 0.007199 0.003583 0.046590 -0.007782 0.013313
# 5 -0.005057 -0.000839 0.005883 -0.007782 0.042136 -0.022826
# 6 0.001590 0.012960 -0.004985 0.013313 -0.022826 0.085772
#
#
# Mechanical properties :
#
#
# Convention : Reuss Voigt Hill
#
# Bulk Modulus (GPa) = 31.15645 42.99076 37.07361
# Shear Modulus (GPa) = 17.95826 23.81165 20.88496
#
# Velocity S-wave (km/s) = 2.97241 3.42272 3.20549
# Velocity P-wave (km/s) = 5.20662 6.06391 5.65154
#
# Compressibility (1/GPa) = 0.03209608
#
# Stress axis : x y z
#
# Youngs Moduli (GPa) = 39.57352 46.99867 62.05478
#
# Poissons Ratio (x) = 0.25723 0.50104
# Poissons Ratio (y) = 0.21659 0.10769
# Poissons Ratio (z) = 0.31952 0.08156
#
# Static dielectric constant tensor:
#      x y z
#    x 1.781030 -0.003170 0.037210 
#    y -0.003170 1.788280 -0.009040 
#    z 0.037210 -0.009040 1.727520 
# 
# From -- ./inp_files/243439.got.cif
#   From: 2010.05.17/outbox.cif.g08.bks.cpg/sg2_122_cif.got.tgz:243439.got - 2010.06.03 11:33:40.
