data_PCOD9102219
_publ_section_title
;
Structure prediction by ZEFSAII (Michael W. Deem and Ramdas Pophale) SiO2 
 PCOD9102219
Probable space group: P -1
;
_chemical_formula_sum "Si O2"
_cell_formula_units_Z 16
_cell_length_a 15.239548
_cell_length_b 9.342130
_cell_length_c 14.383476
_cell_angle_alpha 99.644641
_cell_angle_beta 140.983671
_cell_angle_gamma 49.982559
_cell_volume 715.793807
_symmetry_space_group_name_H-M "P -1"
_symmetry_group_IT_number 2
_symmetry_cell_setting 'triclinic'
loop_
_space_group_symop_operation_xyz
x,y,z
-x,-y,-z
loop_
_atom_site_type_symbol
_atom_site_label
_atom_site_fract_x
_atom_site_fract_y
_atom_site_fract_z
Si Si1 0.025907 0.245121 0.379070
Si Si2 0.377009 0.823133 0.462868
Si Si3 0.778197 0.493157 0.915135
Si Si4 0.694808 0.990653 0.766607
Si Si5 0.476817 0.027573 0.766016
Si Si6 0.905737 0.077665 0.068375
Si Si7 0.501696 0.161091 0.983139
Si Si8 0.231299 0.806382 0.817207
O O1 0.759029 0.542404 0.173858
O O2 0.972405 0.137065 0.374063
O O3 0.178939 0.080145 0.393005
O O4 0.199921 0.207364 0.570880
O O5 0.606829 0.609044 0.697042
O O6 0.442260 0.847410 0.423555
O O7 0.205711 0.834467 0.291818
O O8 0.648720 0.737384 0.888978
O O9 0.804964 0.319394 0.974170
O O10 0.052227 0.304410 0.089405
O O11 0.535558 0.035430 0.712164
O O12 0.798349 0.044674 0.911020
O O13 0.519501 0.120170 0.882574
O O14 0.827790 0.120957 0.114890
O O15 0.725474 0.076750 0.183928
O O16 0.500000 0.000000 0.000000
O O17 0.500000 0.500000 0.000000
#
# Coordination Sequence:
#
# PCOD9102219 Si02
#       8
#     2   2   2   2   2   2   2   2
#     4   9  21  41  63  84 124 165 197 251 306 370
#     4   9  20  38  62  89 125 162 209 245 306 366
#     4  10  22  37  61  91 123 167 208 247 303 378
#     4  11  22  38  61  91 128 166 200 257 310 359
#     4  11  23  41  59  91 127 159 204 257 309 363
#     4  10  20  38  62  88 125 164 203 255 308 361
#     4  11  23  39  66  93 120 155 206 260 308 363
#     4   9  19  39  65  84 117 164 203 245 308 371
#
# _framework density 22.352806000000001
#
# number of rings (size 3 to 8) (size 9 to 14) (size 15 to 20)
#    0.000    2.000    1.250    2.250    7.000    4.000 
#    2.250    4.375    0.000    0.000    0.000    0.000 
#    0.000    0.000    0.000    0.000    0.000    0.000 
#
# Total GULP energy -89311.273004 kJ/mol
# GULP energy per Si atom -5581.954563 kJ/mol
# Density = 2.230193 g / cm^3
# Si number density = 22.352806 Si / 1000 Ang^3
#
#
#
# Elastic Constant Matrix: (Units=GPa)
#
#
# Indices 1 2 3 4 5 6 
#
# 1 104.8188 8.1265 23.8568 -2.4169 22.1870 25.1958
# 2 8.1265 42.6160 -2.9234 13.8804 8.9349 7.2711
# 3 23.8568 -2.9234 84.1167 15.1733 2.3738 13.3509
# 4 -2.4169 13.8804 15.1733 22.1258 6.7185 11.0815
# 5 22.1870 8.9349 2.3738 6.7185 27.3701 9.7001
# 6 25.1958 7.2711 13.3509 11.0815 9.7001 43.1215
#
#
#
# Elastic Compliance Matrix: (Units=1/GPa)
#
#
# Indices 1 2 3 4 5 6 
#
# 1 0.016405 -0.005169 -0.006265 0.017304 -0.012321 -0.008449
# 2 -0.005169 0.033824 0.007254 -0.027525 -0.001613 0.002507
# 3 -0.006265 0.007254 0.017069 -0.019040 0.005628 0.000780
# 4 0.017304 -0.027525 -0.019040 0.092860 -0.019427 -0.019068
# 5 -0.012321 -0.001613 0.005628 -0.019427 0.051649 -0.000897
# 6 -0.008449 0.002507 0.000780 -0.019068 -0.000897 0.032565
#
#
# Mechanical properties :
#
#
# Convention : Reuss Voigt Hill
#
# Bulk Modulus (GPa) = 16.96701 32.18570 24.57636
# Shear Modulus (GPa) = 18.35675 32.02290 25.18982
#
# Velocity S-wave (km/s) = 2.86882 3.78909 3.36060
# Velocity P-wave (km/s) = 4.31051 5.79424 5.10655
#
# Compressibility (1/GPa) = 0.05893790
#
# Stress axis : x y z
#
# Youngs Moduli (GPa) = 60.95722 29.56461 58.58507
#
# Poissons Ratio (x) = 0.15283 0.36704
# Poissons Ratio (y) = 0.31512 -0.42499
# Poissons Ratio (z) = 0.38190 -0.21447
#
# Static dielectric constant tensor:
#      x y z
#    x 1.859890 0.006660 -0.022740 
#    y 0.006660 1.877040 0.036330 
#    z -0.022740 0.036330 1.837110 
# 
# From -- ./inp_files/528645.got.cif
#   From: 2010.05.17/outbox.cif.g08.bks.cpg/sg2_265_cif.got.tgz:528645.got - 2010.06.03 11:33:40.
