data_PCOD9102643
_publ_section_title
;
Structure prediction by ZEFSAII (Michael W. Deem and Ramdas Pophale) SiO2 
 PCOD9102643
Probable space group: P -1
;
_chemical_formula_sum "Si O2"
_cell_formula_units_Z 16
_cell_length_a 8.824483
_cell_length_b 9.334675
_cell_length_c 14.269840
_cell_angle_alpha 80.469741
_cell_angle_beta 127.987923
_cell_angle_gamma 65.277879
_cell_volume 678.931350
_symmetry_space_group_name_H-M "P -1"
_symmetry_group_IT_number 2
_symmetry_cell_setting 'triclinic'
loop_
_space_group_symop_operation_xyz
x,y,z
-x,-y,-z
loop_
_atom_site_type_symbol
_atom_site_label
_atom_site_fract_x
_atom_site_fract_y
_atom_site_fract_z
Si Si1 0.288296 0.914994 0.861334
Si Si2 0.678046 0.759760 0.438280
Si Si3 0.237835 0.820508 0.051696
Si Si4 0.175395 0.140575 0.203287
Si Si5 0.018864 0.315443 0.620551
Si Si6 0.307011 0.323888 0.117746
Si Si7 0.990105 0.787732 0.679629
Si Si8 0.621443 0.423664 0.308253
O O1 0.323846 0.875629 0.990928
O O2 0.554058 0.749203 0.922880
O O3 0.083852 0.896859 0.743959
O O4 0.166223 0.133470 0.766575
O O5 0.844538 0.539133 0.565658
O O6 0.764555 0.866777 0.511351
O O7 0.778546 0.722628 0.373827
O O8 0.371029 0.908226 0.321760
O O9 0.105748 0.751741 0.955852
O O10 0.434155 0.654920 0.218323
O O11 0.000000 0.000000 0.000000
O O12 0.336089 0.148544 0.188704
O O13 0.107332 0.249786 0.263009
O O14 0.821846 0.320321 0.480250
O O15 0.466603 0.354804 0.239675
O O16 0.000000 0.500000 0.000000
O O17 0.235491 0.615018 0.731683
#
# Coordination Sequence:
#
# PCOD9102643 Si02
#       8
#     2   2   2   2   2   2   2   2
#     4  10  23  42  69  93 128 167 220 259 316 380
#     4  10  20  38  63  93 133 164 211 262 323 370
#     4  11  24  44  63  88 129 176 211 260 324 383
#     4  11  21  38  63  91 129 162 217 263 320 368
#     4  10  21  40  65  96 126 172 209 262 316 384
#     4  11  22  38  65  96 128 164 215 271 310 376
#     4   9  22  37  63  92 124 169 209 261 318 376
#     4  10  22  40  65  90 129 169 213 257 323 377
#
# _framework density 23.566448999999999
#
# number of rings (size 3 to 8) (size 9 to 14) (size 15 to 20)
#    0.000    1.750    2.500    1.125    3.500    3.000 
#    2.250    3.750    0.000    0.000    0.000    0.000 
#    0.000    0.000    0.000    0.000    0.000    0.000 
#
# Total GULP energy -89161.965931 kJ/mol
# GULP energy per Si atom -5572.622871 kJ/mol
# Density = 2.351281 g / cm^3
# Si number density = 23.566449 Si / 1000 Ang^3
#
#
#
# Elastic Constant Matrix: (Units=GPa)
#
#
# Indices 1 2 3 4 5 6 
#
# 1 102.8159 9.9987 9.2425 -2.3427 4.1516 -13.0084
# 2 9.9987 41.7814 3.4128 -9.2606 0.4736 -4.6062
# 3 9.2425 3.4128 41.4478 -11.6478 11.5431 0.1536
# 4 -2.3427 -9.2606 -11.6478 37.7702 0.3268 2.7513
# 5 4.1516 0.4736 11.5431 0.3268 37.7122 -1.3653
# 6 -13.0084 -4.6062 0.1536 2.7513 -1.3653 32.8740
#
#
#
# Elastic Compliance Matrix: (Units=1/GPa)
#
#
# Indices 1 2 3 4 5 6 
#
# 1 0.010641 -0.002104 -0.002389 -0.000881 -0.000262 0.003990
# 2 -0.002104 0.026041 0.000055 0.006104 -0.000082 0.002302
# 3 -0.002389 0.000055 0.029785 0.009291 -0.009016 -0.002229
# 4 -0.000881 0.006104 0.009291 0.030975 -0.003174 -0.002261
# 5 -0.000262 -0.000082 -0.009016 -0.003174 0.029385 0.001413
# 6 0.003990 0.002302 -0.002229 -0.002261 0.001413 0.032579
#
#
# Mechanical properties :
#
#
# Convention : Reuss Voigt Hill
#
# Bulk Modulus (GPa) = 17.36410 25.70589 21.53500
# Shear Modulus (GPa) = 26.66976 32.56402 29.61689
#
# Velocity S-wave (km/s) = 3.36770 3.72128 3.54890
# Velocity P-wave (km/s) = 4.74405 5.42176 5.09419
#
# Compressibility (1/GPa) = 0.05759008
#
# Stress axis : x y z
#
# Youngs Moduli (GPa) = 93.97829 38.40146 33.57393
#
# Poissons Ratio (x) = 0.08079 0.08021
# Poissons Ratio (y) = 0.19770 -0.00183
# Poissons Ratio (z) = 0.22452 -0.00210
#
# Static dielectric constant tensor:
#      x y z
#    x 1.929230 0.022820 0.002030 
#    y 0.022820 2.325520 0.099910 
#    z 0.002030 0.099910 1.986820 
# 
# From -- ./inp_files/494961.got.cif
#   From: 2010.05.17/outbox.cif.g08.bks.cpg/sg2_248_cif.got.tgz:494961.got - 2010.06.03 11:33:40.
