data_PCOD9102054
_publ_section_title
;
Structure prediction by ZEFSAII (Michael W. Deem and Ramdas Pophale) SiO2 
 PCOD9102054
Probable space group: P -1
;
_chemical_formula_sum "Si O2"
_cell_formula_units_Z 16
_cell_length_a 11.912115
_cell_length_b 22.190038
_cell_length_c 4.766493
_cell_angle_alpha 95.671936
_cell_angle_beta 114.065880
_cell_angle_gamma 49.309969
_cell_volume 846.530913
_symmetry_space_group_name_H-M "P -1"
_symmetry_group_IT_number 2
_symmetry_cell_setting 'triclinic'
loop_
_space_group_symop_operation_xyz
x,y,z
-x,-y,-z
loop_
_atom_site_type_symbol
_atom_site_label
_atom_site_fract_x
_atom_site_fract_y
_atom_site_fract_z
Si Si1 0.809127 0.323592 0.818346
Si Si2 0.712248 0.662454 0.594619
Si Si3 0.438209 0.415493 0.453543
Si Si4 0.062891 0.420786 0.699389
Si Si5 0.739448 0.466674 0.180803
Si Si6 0.031851 0.235710 0.463308
Si Si7 0.376699 0.096427 0.945576
Si Si8 0.329987 0.192542 0.471277
O O1 0.631558 0.357882 0.554619
O O2 0.928481 0.291048 0.655579
O O3 0.906908 0.250506 0.112556
O O4 0.136961 0.252718 0.409221
O O5 0.605597 0.637264 0.509545
O O6 0.769249 0.650192 0.326410
O O7 0.636269 0.753967 0.609043
O O8 0.876564 0.598518 0.927855
O O9 0.392912 0.480780 0.676736
O O10 0.323357 0.465930 0.090027
O O11 0.000000 0.500000 0.500000
O O12 0.909370 0.427705 0.492448
O O13 0.768224 0.396395 0.999801
O O14 0.187787 0.143409 0.676819
O O15 0.427440 0.136421 0.816666
O O16 0.357603 0.130386 0.247872
O O17 0.500000 0.000000 0.000000
#
# Coordination Sequence:
#
# PCOD9102054 Si02
#       8
#     2   2   2   2   2   2   2   2
#     4  12  23  38  58  78 115 155 202 248 274 331
#     4  12  23  38  54  83 115 147 195 241 288 352
#     4  12  24  40  53  77 113 161 205 245 282 324
#     4  12  22  36  55  76 112 151 199 248 300 331
#     4  12  24  37  54  78 108 156 209 254 293 320
#     4  10  21  38  57  89 111 146 188 224 299 336
#     4  10  20  38  61  94 124 136 169 223 293 365
#     4  10  21  35  60  88 117 144 176 225 292 347
#
# _framework density 18.900669000000001
#
# number of rings (size 3 to 8) (size 9 to 14) (size 15 to 20)
#    0.750    0.000    3.750    5.250    1.750    0.000 
#    0.000    0.000    0.000    0.000    0.000    5.250 
#    0.000    0.000    0.000    0.000    0.000    0.000 
#
# Total GULP energy -89158.161721 kJ/mol
# GULP energy per Si atom -5572.385108 kJ/mol
# Density = 1.885765 g / cm^3
# Si number density = 18.900669 Si / 1000 Ang^3
#
#
#
# Elastic Constant Matrix: (Units=GPa)
#
#
# Indices 1 2 3 4 5 6 
#
# 1 59.9701 39.5067 41.9968 -4.9741 3.9318 -16.0224
# 2 39.5067 101.4172 33.3052 -8.7222 1.9073 -15.6342
# 3 41.9968 33.3052 73.7673 6.4576 -7.3500 -8.1230
# 4 -4.9741 -8.7222 6.4576 26.7658 -7.8043 -6.3232
# 5 3.9318 1.9073 -7.3500 -7.8043 32.7571 7.5746
# 6 -16.0224 -15.6342 -8.1230 -6.3232 7.5746 19.6148
#
#
#
# Elastic Compliance Matrix: (Units=1/GPa)
#
#
# Indices 1 2 3 4 5 6 
#
# 1 0.050803 -0.002694 -0.026571 0.019835 -0.016702 0.041191
# 2 -0.002694 0.014880 -0.004865 0.007411 -0.002404 0.010962
# 3 -0.026571 -0.004865 0.030976 -0.015846 0.011835 -0.022433
# 4 0.019835 0.007411 -0.015846 0.054928 -0.001066 0.033666
# 5 -0.016702 -0.002404 0.011835 -0.001066 0.041306 -0.026953
# 6 0.041191 0.010962 -0.022433 0.033666 -0.026953 0.105337
#
#
# Mechanical properties :
#
#
# Convention : Reuss Voigt Hill
#
# Bulk Modulus (GPa) = 35.21436 51.64136 43.42786
# Shear Modulus (GPa) = 13.29936 23.85060 18.57498
#
# Velocity S-wave (km/s) = 2.65551 3.55617 3.13831
# Velocity P-wave (km/s) = 5.29849 6.65158 6.01322
#
# Compressibility (1/GPa) = 0.02839750
#
# Stress axis : x y z
#
# Youngs Moduli (GPa) = 19.68390 67.20404 32.28279
#
# Poissons Ratio (x) = 0.18107 0.85779
# Poissons Ratio (y) = 0.05303 0.15707
# Poissons Ratio (z) = 0.52302 0.32698
#
# Static dielectric constant tensor:
#      x y z
#    x 1.692560 0.005840 -0.009330 
#    y 0.005840 1.697040 -0.001780 
#    z -0.009330 -0.001780 1.689690 
# 
# From -- ./inp_files/83258.got.cif
#   From: 2010.05.17/outbox.cif.g08.bks.cpg/sg2_42_cif.got.tgz:83258.got - 2010.06.03 11:33:40.
