data_PCOD9102578
_publ_section_title
;
Structure prediction by ZEFSAII (Michael W. Deem and Ramdas Pophale) SiO2 
 PCOD9102578
Probable space group: P -1
;
_chemical_formula_sum "Si O2"
_cell_formula_units_Z 14
_cell_length_a 5.448198
_cell_length_b 5.238257
_cell_length_c 24.413511
_cell_angle_alpha 61.153019
_cell_angle_beta 110.668132
_cell_angle_gamma 82.731421
_cell_volume 532.239862
_symmetry_space_group_name_H-M "P -1"
_symmetry_group_IT_number 2
_symmetry_cell_setting 'triclinic'
loop_
_space_group_symop_operation_xyz
x,y,z
-x,-y,-z
loop_
_atom_site_type_symbol
_atom_site_label
_atom_site_fract_x
_atom_site_fract_y
_atom_site_fract_z
Si Si1 0.028385 0.535561 0.286739
Si Si2 0.560275 0.337545 0.415562
Si Si3 0.939556 0.200438 0.549427
Si Si4 0.809903 0.238055 0.209935
Si Si5 0.103035 0.121509 0.049991
Si Si6 0.356301 0.781651 0.917314
Si Si7 0.691180 0.842950 0.319999
O O1 0.291529 0.321212 0.364771
O O2 0.762323 0.603813 0.299164
O O3 0.020315 0.889174 0.245376
O O4 0.978685 0.410376 0.238116
O O5 0.634517 0.248969 0.494129
O O6 0.541362 0.694733 0.366480
O O7 0.831718 0.102228 0.429512
O O8 0.021419 0.181121 0.621883
O O9 0.000000 0.500000 0.500000
O O10 0.604569 0.167182 0.246585
O O11 0.664254 0.360970 0.128547
O O12 0.438689 0.022883 0.092111
O O13 0.945474 0.041121 0.097270
O O14 0.000000 0.500000 0.000000
O O15 0.000000 0.000000 0.000000
O O16 0.500000 0.500000 0.000000
#
# Coordination Sequence:
#
# PCOD9102578 Si02
#       7
#     2   2   2   2   2   2   2
#     4  10  24  41  62  89 131 168 224 262 337 404
#     4  10  20  38  63  91 127 174 219 279 334 400
#     4   9  19  35  62  94 126 167 223 276 339 397
#     4  10  24  43  62  97 126 175 224 274 342 410
#     4  10  22  41  69 103 137 179 218 286 346 410
#     4  10  23  46  73 105 144 182 238 292 351 415
#     4   9  21  40  59  89 129 167 219 272 330 403
#
# _framework density 26.303930999999999
#
# number of rings (size 3 to 8) (size 9 to 14) (size 15 to 20)
#    0.857    1.429    0.000    1.286    4.000    6.286 
#    2.571    7.143    0.000    0.000    0.000    0.000 
#    0.000    0.000    0.000    0.000    0.000    0.000 
#
# Total GULP energy -78127.297666 kJ/mol
# GULP energy per Si atom -5580.521262 kJ/mol
# Density = 2.624406 g / cm^3
# Si number density = 26.303931 Si / 1000 Ang^3
#
#
#
# Elastic Constant Matrix: (Units=GPa)
#
#
# Indices 1 2 3 4 5 6 
#
# 1 110.7262 16.7291 13.4666 17.2188 -0.3615 6.1079
# 2 16.7291 130.3172 50.6560 43.3394 3.0514 0.5652
# 3 13.4666 50.6560 180.8501 38.3655 -16.2319 -0.8926
# 4 17.2188 43.3394 38.3655 58.6746 4.2821 3.3923
# 5 -0.3615 3.0514 -16.2319 4.2821 30.8244 5.9013
# 6 6.1079 0.5652 -0.8926 3.3923 5.9013 18.8954
#
#
#
# Elastic Compliance Matrix: (Units=1/GPa)
#
#
# Indices 1 2 3 4 5 6 
#
# 1 0.009642 -0.000451 -0.000002 -0.002399 0.001065 -0.003005
# 2 -0.000451 0.010587 -0.001637 -0.006603 -0.001252 0.001328
# 3 -0.000002 -0.001637 0.007204 -0.003813 0.004552 -0.000347
# 4 -0.002399 -0.006603 -0.003813 0.025583 -0.004476 -0.002402
# 5 0.001065 -0.001252 0.004552 -0.004476 0.037716 -0.011068
# 6 -0.003005 0.001328 -0.000347 -0.002402 -0.011068 0.057726
#
#
# Mechanical properties :
#
#
# Convention : Reuss Voigt Hill
#
# Bulk Modulus (GPa) = 43.00503 64.84409 53.92456
# Shear Modulus (GPa) = 31.17427 44.41502 37.79464
#
# Velocity S-wave (km/s) = 3.44634 4.11363 3.79468
# Velocity P-wave (km/s) = 5.67637 6.87517 6.30433
#
# Compressibility (1/GPa) = 0.02325309
#
# Stress axis : x y z
#
# Youngs Moduli (GPa) = 103.71273 94.45299 138.81678
#
# Poissons Ratio (x) = 0.04260 0.00026
# Poissons Ratio (y) = 0.04678 0.22725
# Poissons Ratio (z) = 0.00019 0.15462
#
# Static dielectric constant tensor:
#      x y z
#    x 2.205860 0.016460 0.048230 
#    y 0.016460 2.031100 0.027170 
#    z 0.048230 0.027170 2.034110 
# 
# From -- ./inp_files/121551.got.cif
#   From: 2010.05.17/outbox.cif.g08.bks.cpg/sg2_61_cif.got.tgz:121551.got - 2010.06.03 11:33:40.
