data_PCOD9102586
_publ_section_title
;
Structure prediction by ZEFSAII (Michael W. Deem and Ramdas Pophale) SiO2 
 PCOD9102586
Probable space group: P -1
;
_chemical_formula_sum "Si O2"
_cell_formula_units_Z 16
_cell_length_a 21.496001
_cell_length_b 18.155291
_cell_length_c 13.589256
_cell_angle_alpha 21.596049
_cell_angle_beta 38.585178
_cell_angle_gamma 25.128146
_cell_volume 765.113108
_symmetry_space_group_name_H-M "P -1"
_symmetry_group_IT_number 2
_symmetry_cell_setting 'triclinic'
loop_
_space_group_symop_operation_xyz
x,y,z
-x,-y,-z
loop_
_atom_site_type_symbol
_atom_site_label
_atom_site_fract_x
_atom_site_fract_y
_atom_site_fract_z
Si Si1 0.864136 0.833476 0.810964
Si Si2 0.565749 0.059609 0.639952
Si Si3 0.895807 0.420181 0.027641
Si Si4 0.956615 0.770245 0.437616
Si Si5 0.709227 0.832271 0.177053
Si Si6 0.212092 0.748222 0.775101
Si Si7 0.550522 0.312883 0.942806
Si Si8 0.660584 0.123850 0.250647
O O1 0.766526 0.108642 0.509790
O O2 0.767888 0.835361 0.998002
O O3 0.000000 0.500000 0.000000
O O4 0.961083 0.839200 0.751913
O O5 0.427954 0.113457 0.740253
O O6 0.501146 0.373647 0.369176
O O7 0.632112 0.996996 0.524741
O O8 0.723876 0.726954 0.910069
O O9 0.944185 0.559960 0.750041
O O10 0.869964 0.300991 0.121937
O O11 0.144996 0.502440 0.528981
O O12 0.895044 0.005276 0.309914
O O13 0.823724 0.984305 0.250507
O O14 0.643744 0.112901 0.977620
O O15 0.387004 0.442214 0.981918
O O16 0.654000 0.086110 0.190959
O O17 0.500000 0.500000 0.000000
#
# Coordination Sequence:
#
# PCOD9102586 Si02
#       8
#     2   2   2   2   2   2   2   2
#     4  11  22  43  63  86 126 167 201 253 310 364
#     4  10  20  41  62  92 125 159 203 253 307 362
#     4  10  20  38  63  92 114 161 212 241 301 376
#     4  10  21  41  62  89 129 160 201 257 299 366
#     4  11  24  39  61  94 127 153 206 263 306 352
#     4  12  20  39  68  86 120 168 208 246 301 370
#     4  11  22  40  64  93 127 158 205 260 299 362
#     4   9  18  39  69  87 120 171 202 239 311 373
#
# _framework density 20.911939
#
# number of rings (size 3 to 8) (size 9 to 14) (size 15 to 20)
#    0.000    1.500    7.500    0.375    0.000    3.500 
#    2.250    3.750    0.000    0.000    0.000    0.000 
#    0.000    0.000    0.000    0.000    0.000    0.000 
#
# Total GULP energy -89212.785653 kJ/mol
# GULP energy per Si atom -5575.799103 kJ/mol
# Density = 2.086434 g / cm^3
# Si number density = 20.911939 Si / 1000 Ang^3
#
#
#
# Elastic Constant Matrix: (Units=GPa)
#
#
# Indices 1 2 3 4 5 6 
#
# 1 127.1505 23.4534 18.2403 3.1642 -4.0440 -5.1700
# 2 23.4534 64.8045 0.4709 5.2755 -3.4927 -1.7657
# 3 18.2403 0.4709 26.3143 -7.3329 3.0559 0.1075
# 4 3.1642 5.2755 -7.3329 8.8491 -11.5536 -0.7237
# 5 -4.0440 -3.4927 3.0559 -11.5536 36.3440 -14.4145
# 6 -5.1700 -1.7657 0.1075 -0.7237 -14.4145 43.9535
#
#
#
# Elastic Compliance Matrix: (Units=1/GPa)
#
#
# Indices 1 2 3 4 5 6 
#
# 1 0.010164 -0.002537 -0.010861 -0.015132 -0.003063 -0.000133
# 2 -0.002537 0.017591 -0.003192 -0.018675 -0.004847 -0.001481
# 3 -0.010861 -0.003192 0.071082 0.103889 0.029412 0.009776
# 4 -0.015132 -0.018675 0.103889 0.388672 0.129640 0.046131
# 5 -0.003063 -0.004847 0.029412 0.129640 0.075920 0.026406
# 6 -0.000133 -0.001481 0.009776 0.046131 0.026406 0.032071
#
#
# Mechanical properties :
#
#
# Convention : Reuss Voigt Hill
#
# Bulk Modulus (GPa) = 15.23000 33.62205 24.42602
# Shear Modulus (GPa) = 7.68562 29.56964 18.62763
#
# Velocity S-wave (km/s) = 1.91917 3.76441 2.98781
# Velocity P-wave (km/s) = 3.49423 5.91669 4.85885
#
# Compressibility (1/GPa) = 0.06565989
#
# Stress axis : x y z
#
# Youngs Moduli (GPa) = 98.38332 56.84784 14.06817
#
# Poissons Ratio (x) = 0.14420 0.15279
# Poissons Ratio (y) = 0.24955 0.04490
# Poissons Ratio (z) = 1.06852 0.18143
#
# Static dielectric constant tensor:
#      x y z
#    x 1.795530 -0.001220 0.047760 
#    y -0.001220 1.734560 -0.010930 
#    z 0.047760 -0.010930 1.840420 
# 
# From -- ./inp_files/214267.got.cif
#   From: 2010.05.17/outbox.cif.g08.bks.cpg/sg2_108_cif.got.tgz:214267.got - 2010.06.03 11:33:40.
