data_PCOD9102983
_publ_section_title
;
Structure prediction by ZEFSAII (Michael W. Deem and Ramdas Pophale) SiO2 
 PCOD9102983
Probable space group: P -1
;
_chemical_formula_sum "Si O2"
_cell_formula_units_Z 14
_cell_length_a 8.519826
_cell_length_b 9.632001
_cell_length_c 7.777437
_cell_angle_alpha 95.130291
_cell_angle_beta 105.429903
_cell_angle_gamma 111.354267
_cell_volume 560.524382
_symmetry_space_group_name_H-M "P -1"
_symmetry_group_IT_number 2
_symmetry_cell_setting 'triclinic'
loop_
_space_group_symop_operation_xyz
x,y,z
-x,-y,-z
loop_
_atom_site_type_symbol
_atom_site_label
_atom_site_fract_x
_atom_site_fract_y
_atom_site_fract_z
Si Si1 0.705192 0.546274 0.623091
Si Si2 0.569743 0.728391 0.155668
Si Si3 0.157971 0.624202 0.948984
Si Si4 0.853033 0.132164 0.784713
Si Si5 0.697946 0.817852 0.835874
Si Si6 0.439155 0.796066 0.456990
Si Si7 0.846893 0.612186 0.316406
O O1 0.500000 0.500000 0.500000
O O2 0.735383 0.667585 0.795949
O O3 0.704356 0.380540 0.627020
O O4 0.839030 0.629226 0.518839
O O5 0.583166 0.815172 0.350239
O O6 0.656955 0.608743 0.199345
O O7 0.360401 0.651008 0.050939
O O8 0.660132 0.826723 0.025906
O O9 0.132590 0.542009 0.747781
O O10 0.152531 0.781666 0.028791
O O11 0.000000 0.500000 0.000000
O O12 0.674499 0.109642 0.621442
O O13 0.012589 0.243375 0.726910
O O14 0.846951 0.969373 0.815841
O O15 0.524437 0.801833 0.669326
#
# Coordination Sequence:
#
# PCOD9102983 Si02
#       7
#     2   2   2   2   2   2   2
#     4  10  20  38  64  95 119 158 225 255 303 383
#     4  11  22  37  72  89 125 171 209 260 316 372
#     4   9  20  36  59  93 120 158 209 256 307 366
#     4  10  24  40  62  93 137 165 204 271 318 373
#     4  11  23  40  66  97 126 168 217 255 319 382
#     4  10  22  42  64  95 125 164 218 263 312 375
#     4  11  21  40  67  94 124 172 214 257 321 371
#
# _framework density 24.976610999999998
#
# number of rings (size 3 to 8) (size 9 to 14) (size 15 to 20)
#    0.000    1.714    2.857    2.571    4.000    4.000 
#    0.000    2.857    3.143    0.000    0.000    0.000 
#    0.000    0.000    0.000    0.000    0.000    0.000 
#
# Total GULP energy -78212.382511 kJ/mol
# GULP energy per Si atom -5586.598751 kJ/mol
# Density = 2.491976 g / cm^3
# Si number density = 24.976611 Si / 1000 Ang^3
#
#
#
# Elastic Constant Matrix: (Units=GPa)
#
#
# Indices 1 2 3 4 5 6 
#
# 1 82.8176 6.2293 27.4917 -6.7744 5.3144 10.3231
# 2 6.2293 100.8000 17.4147 -13.8091 -16.5100 -3.7119
# 3 27.4917 17.4147 90.6335 -22.9686 -18.3348 6.0607
# 4 -6.7744 -13.8091 -22.9686 36.6759 6.5863 -6.2941
# 5 5.3144 -16.5100 -18.3348 6.5863 51.0850 -6.7014
# 6 10.3231 -3.7119 6.0607 -6.2941 -6.7014 32.0281
#
#
#
# Elastic Compliance Matrix: (Units=1/GPa)
#
#
# Indices 1 2 3 4 5 6 
#
# 1 0.014614 -0.001032 -0.004977 -0.000905 -0.004172 -0.004939
# 2 -0.001032 0.011259 -0.000409 0.003703 0.003540 0.003183
# 3 -0.004977 -0.000409 0.015599 0.007990 0.005118 0.001246
# 4 -0.000905 0.003703 0.007990 0.034449 0.000516 0.006087
# 5 -0.004172 0.003540 0.005118 0.000516 0.023690 0.005845
# 6 -0.004939 0.003183 0.001246 0.006087 0.005845 0.035367
#
#
# Mechanical properties :
#
#
# Convention : Reuss Voigt Hill
#
# Bulk Modulus (GPa) = 34.92185 41.83583 38.37884
# Shear Modulus (GPa) = 31.77442 38.83216 35.30329
#
# Velocity S-wave (km/s) = 3.57061 3.94730 3.76367
# Velocity P-wave (km/s) = 5.56877 6.12872 5.85544
#
# Compressibility (1/GPa) = 0.02863536
#
# Stress axis : x y z
#
# Youngs Moduli (GPa) = 68.42787 88.81497 64.10829
#
# Poissons Ratio (x) = 0.09168 0.31909
# Poissons Ratio (y) = 0.07064 0.02619
# Poissons Ratio (z) = 0.34059 0.03629
#
# Static dielectric constant tensor:
#      x y z
#    x 1.988250 0.003310 0.050070 
#    y 0.003310 1.998490 0.038150 
#    z 0.050070 0.038150 2.050490 
# 
# From -- ./inp_files/164940.got.cif
#   From: 2010.05.17/outbox.cif.g08.bks.cpg/sg2_83_cif.got.tgz:164940.got - 2010.06.03 11:33:40.
