data_PCOD9102530
_publ_section_title
;
Structure prediction by ZEFSAII (Michael W. Deem and Ramdas Pophale) SiO2 
 PCOD9102530
Probable space group: P -1
;
_chemical_formula_sum "Si O2"
_cell_formula_units_Z 14
_cell_length_a 8.863744
_cell_length_b 12.479455
_cell_length_c 14.316870
_cell_angle_alpha 60.341879
_cell_angle_beta 130.802433
_cell_angle_gamma 147.022838
_cell_volume 647.006405
_symmetry_space_group_name_H-M "P -1"
_symmetry_group_IT_number 2
_symmetry_cell_setting 'triclinic'
loop_
_space_group_symop_operation_xyz
x,y,z
-x,-y,-z
loop_
_atom_site_type_symbol
_atom_site_label
_atom_site_fract_x
_atom_site_fract_y
_atom_site_fract_z
Si Si1 0.825252 0.081383 0.616432
Si Si2 0.765432 0.003853 0.908654
Si Si3 0.149603 0.201063 0.500989
Si Si4 0.555061 0.272701 0.275587
Si Si5 0.097263 0.440883 0.333266
Si Si6 0.269218 0.370020 0.846452
Si Si7 0.759638 0.378201 0.043211
O O1 0.037652 0.178786 0.569225
O O2 0.048816 0.241047 0.721180
O O3 0.500000 0.000000 0.500000
O O4 0.686153 0.878794 0.675081
O O5 0.553346 0.874462 0.786761
O O6 0.518208 0.864921 0.954189
O O7 0.010084 0.233125 0.885964
O O8 0.000000 0.000000 0.000000
O O9 0.041722 0.267805 0.369173
O O10 0.528028 0.368747 0.580299
O O11 0.000000 0.000000 0.500000
O O12 0.558704 0.415227 0.184734
O O13 0.923900 0.410036 0.369625
O O14 0.980054 0.462228 0.187436
O O15 0.538182 0.393546 0.950486
O O16 0.000000 0.500000 0.000000
#
# Coordination Sequence:
#
# PCOD9102530 Si02
#       7
#     2   2   2   2   2   2   2
#     4  11  23  41  64  95 128 162 215 267 307 372
#     4   8  18  35  56  86 124 160 199 253 300 364
#     4  11  25  43  64  91 128 168 209 259 321 377
#     4  10  21  38  65  94 123 165 213 255 319 372
#     4  10  23  41  62  91 127 164 209 260 313 377
#     4  10  22  39  65  93 127 164 210 261 314 379
#     4  10  20  38  63  89 125 165 204 258 318 369
#
# _framework density 21.638116
#
# number of rings (size 3 to 8) (size 9 to 14) (size 15 to 20)
#    0.000    2.000    1.429    0.857    2.000    9.143 
#    0.000    2.857    0.000   17.143    0.000    0.000 
#    0.000    0.000    0.000    0.000    0.000    0.000 
#
# Total GULP energy -78012.662551 kJ/mol
# GULP energy per Si atom -5572.333039 kJ/mol
# Density = 2.158887 g / cm^3
# Si number density = 21.638116 Si / 1000 Ang^3
#
#
#
# Elastic Constant Matrix: (Units=GPa)
#
#
# Indices 1 2 3 4 5 6 
#
# 1 51.8007 24.9665 22.2719 4.2491 11.3992 18.6751
# 2 24.9665 115.7354 28.6533 -23.9230 8.7391 0.3182
# 3 22.2719 28.6533 102.8943 3.6743 22.6475 -9.2367
# 4 4.2491 -23.9230 3.6743 30.6245 4.3843 2.1940
# 5 11.3992 8.7391 22.6475 4.3843 34.2004 -5.6715
# 6 18.6751 0.3182 -9.2367 2.1940 -5.6715 45.2704
#
#
#
# Elastic Compliance Matrix: (Units=1/GPa)
#
#
# Indices 1 2 3 4 5 6 
#
# 1 0.031912 -0.006596 -0.004482 -0.006916 -0.007524 -0.014640
# 2 -0.006596 0.013044 -0.002295 0.011390 -0.000826 0.001506
# 3 -0.004482 -0.002295 0.012989 -0.002210 -0.005587 0.003922
# 4 -0.006916 0.011390 -0.002210 0.043488 -0.004780 -0.000384
# 5 -0.007524 -0.000826 -0.005587 -0.004780 0.037413 0.006889
# 6 -0.014640 0.001506 0.003922 -0.000384 0.006889 0.029800
#
#
# Mechanical properties :
#
#
# Convention : Reuss Voigt Hill
#
# Bulk Modulus (GPa) = 32.05113 46.91266 39.48190
# Shear Modulus (GPa) = 24.29664 34.98829 29.64247
#
# Velocity S-wave (km/s) = 3.35455 4.02552 3.70526
# Velocity P-wave (km/s) = 5.46338 6.58286 6.04907
#
# Compressibility (1/GPa) = 0.03120014
#
# Stress axis : x y z
#
# Youngs Moduli (GPa) = 31.33653 76.66404 76.99072
#
# Poissons Ratio (x) = 0.50565 0.34506
# Poissons Ratio (y) = 0.20668 0.17666
# Poissons Ratio (z) = 0.14044 0.17591
#
# Static dielectric constant tensor:
#      x y z
#    x 1.802490 0.061200 0.006460 
#    y 0.061200 1.919830 0.047510 
#    z 0.006460 0.047510 1.910020 
# 
# From -- ./inp_files/327909.got.cif
#   From: 2010.05.17/outbox.cif.g08.bks.cpg/sg2_164_cif.got.tgz:327909.got - 2010.06.03 11:33:40.
