data_PCOD9102736
_publ_section_title
;
Structure prediction by ZEFSAII (Michael W. Deem and Ramdas Pophale) SiO2 
 PCOD9102736
Probable space group: P -1
;
_chemical_formula_sum "Si O2"
_cell_formula_units_Z 14
_cell_length_a 8.811813
_cell_length_b 14.172162
_cell_length_c 9.533706
_cell_angle_alpha 123.249124
_cell_angle_beta 147.791890
_cell_angle_gamma 67.362016
_cell_volume 522.294681
_symmetry_space_group_name_H-M "P -1"
_symmetry_group_IT_number 2
_symmetry_cell_setting 'triclinic'
loop_
_space_group_symop_operation_xyz
x,y,z
-x,-y,-z
loop_
_atom_site_type_symbol
_atom_site_label
_atom_site_fract_x
_atom_site_fract_y
_atom_site_fract_z
Si Si1 0.178012 0.726377 0.349369
Si Si2 0.278024 0.551901 0.039157
Si Si3 0.393306 0.844453 0.032889
Si Si4 0.188407 0.099359 0.818935
Si Si5 0.236213 0.254596 0.539178
Si Si6 0.317157 0.085918 0.211767
Si Si7 0.644524 0.441406 0.433928
O O1 0.195911 0.634579 0.166496
O O2 0.395208 0.841074 0.570741
O O3 0.274500 0.669759 0.518259
O O4 0.882171 0.773508 0.157425
O O5 0.537676 0.629195 0.220030
O O6 0.419327 0.452175 0.142405
O O7 0.963530 0.509059 0.691658
O O8 0.496066 0.892125 0.998792
O O9 0.646860 0.799607 0.276456
O O10 0.336989 0.957497 0.164638
O O11 0.105959 0.748609 0.725028
O O12 0.120336 0.075001 0.909619
O O13 0.000000 0.000000 0.500000
O O14 0.254614 0.167017 0.353429
O O15 0.500000 0.500000 0.500000
#
# Coordination Sequence:
#
# PCOD9102736 Si02
#       7
#     2   2   2   2   2   2   2
#     4  10  23  36  67  95 134 171 220 275 347 383
#     4  10  22  40  66  98 134 165 226 282 336 386
#     4  12  25  44  64  97 138 185 223 269 334 407
#     4  12  26  43  65  97 144 181 223 274 334 402
#     4  11  26  43  70  95 134 183 227 277 334 391
#     4  11  25  41  68  96 136 173 236 277 327 396
#     4  10  20  38  64 103 131 164 215 293 341 385
#
# _framework density 26.804793
#
# number of rings (size 3 to 8) (size 9 to 14) (size 15 to 20)
#    0.000    1.143    1.429    4.714   14.000    0.000 
#    0.000    0.000    0.000    5.143    0.000    0.000 
#    0.000    0.000    0.000    0.000    0.000    0.000 
#
# Total GULP energy -78393.698476 kJ/mol
# GULP energy per Si atom -5599.549891 kJ/mol
# Density = 2.674378 g / cm^3
# Si number density = 26.804793 Si / 1000 Ang^3
#
#
#
# Elastic Constant Matrix: (Units=GPa)
#
#
# Indices 1 2 3 4 5 6 
#
# 1 82.3462 -22.5661 17.8132 10.1527 -5.9588 16.6129
# 2 -22.5661 78.1543 3.8231 3.6947 -3.8168 2.5246
# 3 17.8132 3.8231 104.1783 1.9911 8.5230 -0.6656
# 4 10.1527 3.6947 1.9911 51.3946 9.1269 6.4955
# 5 -5.9588 -3.8168 8.5230 9.1269 54.0589 8.6131
# 6 16.6129 2.5246 -0.6656 6.4955 8.6131 33.3260
#
#
#
# Elastic Compliance Matrix: (Units=1/GPa)
#
#
# Indices 1 2 3 4 5 6 
#
# 1 0.017276 0.005882 -0.003578 -0.003351 0.005006 -0.009770
# 2 0.005882 0.014977 -0.001794 -0.002148 0.003064 -0.004476
# 3 -0.003578 -0.001794 0.010504 0.000566 -0.002706 0.002718
# 4 -0.003351 -0.002148 0.000566 0.021115 -0.003977 -0.001243
# 5 0.005006 0.003064 -0.002706 -0.003977 0.021573 -0.007582
# 6 -0.009770 -0.004476 0.002718 -0.001243 -0.007582 0.037472
#
#
# Mechanical properties :
#
#
# Convention : Reuss Voigt Hill
#
# Bulk Modulus (GPa) = 22.84237 29.20213 26.02225
# Shear Modulus (GPa) = 36.63301 45.46315 41.04808
#
# Velocity S-wave (km/s) = 3.70085 4.12282 3.91752
# Velocity P-wave (km/s) = 5.17706 5.79496 5.49470
#
# Compressibility (1/GPa) = 0.04377830
#
# Stress axis : x y z
#
# Youngs Moduli (GPa) = 57.88365 66.76918 95.19816
#
# Poissons Ratio (x) = -0.39272 0.34059
# Poissons Ratio (y) = -0.34046 0.17074
# Poissons Ratio (z) = 0.20709 0.11975
#
# Static dielectric constant tensor:
#      x y z
#    x 2.106770 -0.045960 0.035720 
#    y -0.045960 2.108280 -0.000740 
#    z 0.035720 -0.000740 2.227950 
# 
# From -- ./inp_files/208577.got.cif
#   From: 2010.05.17/outbox.cif.g08.bks.cpg/sg2_105_cif.got.tgz:208577.got - 2010.06.03 11:33:40.
