data_PCOD9102003
_publ_section_title
;
Structure prediction by ZEFSAII (Michael W. Deem and Ramdas Pophale) SiO2 
 PCOD9102003
Probable space group: P -1
;
_chemical_formula_sum "Si O2"
_cell_formula_units_Z 16
_cell_length_a 9.652734
_cell_length_b 9.275582
_cell_length_c 14.439884
_cell_angle_alpha 136.035166
_cell_angle_beta 75.091590
_cell_angle_gamma 131.840965
_cell_volume 603.400458
_symmetry_space_group_name_H-M "P -1"
_symmetry_group_IT_number 2
_symmetry_cell_setting 'triclinic'
loop_
_space_group_symop_operation_xyz
x,y,z
-x,-y,-z
loop_
_atom_site_type_symbol
_atom_site_label
_atom_site_fract_x
_atom_site_fract_y
_atom_site_fract_z
Si Si1 0.775320 0.315066 0.763049
Si Si2 0.669166 0.348596 0.605556
Si Si3 0.573623 0.497632 0.352170
Si Si4 0.065776 0.275466 0.742261
Si Si5 0.698042 0.084152 0.965359
Si Si6 0.318309 0.690781 0.608769
Si Si7 0.793898 0.667848 0.076048
Si Si8 0.308056 0.064012 0.909331
O O1 0.792182 0.467244 0.735984
O O2 0.847499 0.535819 0.937109
O O3 0.882155 0.197801 0.683691
O O4 0.540844 0.015871 0.691681
O O5 0.535568 0.410053 0.625215
O O6 0.791494 0.420936 0.523798
O O7 0.500000 0.000000 0.500000
O O8 0.765551 0.645493 0.319003
O O9 0.387150 0.136562 0.205504
O O10 0.662310 0.520256 0.447709
O O11 0.058217 0.130984 0.768928
O O12 0.154213 0.572211 0.916745
O O13 0.760254 0.007982 0.006059
O O14 0.500000 0.000000 0.000000
O O15 0.256921 0.785301 0.744825
O O16 0.554193 0.375678 0.012101
O O17 0.790054 0.866763 0.105848
#
# Coordination Sequence:
#
# PCOD9102003 Si02
#       8
#     2   2   2   2   2   2   2   2
#     4  10  22  39  55  88 123 150 186 243 290 339
#     4  10  23  40  61  83 112 155 204 243 275 334
#     4  11  20  37  64  87 111 153 198 233 283 353
#     4  11  21  35  59  91 123 148 182 238 302 342
#     4  10  16  32  55  86 114 145 182 228 282 350
#     4  10  20  38  62  79 114 155 205 234 276 337
#     4  10  19  30  56  83 118 145 185 229 292 339
#     4  10  17  31  55  87 106 148 195 231 267 343
#
# _framework density 26.516387000000002
#
# number of rings (size 3 to 8) (size 9 to 14) (size 15 to 20)
#    0.000    1.750    5.000    2.250    5.250    0.000 
#    0.000    6.875    0.000    0.000    0.000    0.000 
#    0.000    0.000    0.000    0.000    0.000    0.000 
#
# Total GULP energy -89348.420018 kJ/mol
# GULP energy per Si atom -5584.276251 kJ/mol
# Density = 2.645603 g / cm^3
# Si number density = 26.516387 Si / 1000 Ang^3
#
#
#
# Elastic Constant Matrix: (Units=GPa)
#
#
# Indices 1 2 3 4 5 6 
#
# 1 102.2542 35.2024 2.1004 -17.6344 -2.2912 -19.2960
# 2 35.2024 109.9484 29.2201 -37.1346 13.8625 -35.9387
# 3 2.1004 29.2201 61.0432 -29.8393 12.7670 -9.3758
# 4 -17.6344 -37.1346 -29.8393 54.7008 -21.1117 12.3636
# 5 -2.2912 13.8625 12.7670 -21.1117 32.0331 -4.5145
# 6 -19.2960 -35.9387 -9.3758 12.3636 -4.5145 55.3673
#
#
#
# Elastic Compliance Matrix: (Units=1/GPa)
#
#
# Indices 1 2 3 4 5 6 
#
# 1 0.011986 -0.002851 0.002586 0.004543 0.004351 0.002105
# 2 -0.002851 0.015170 -0.003087 0.005850 -0.000701 0.006967
# 3 0.002586 -0.003087 0.023418 0.011325 -0.000305 0.000309
# 4 0.004543 0.005850 0.011325 0.036483 0.017405 0.000570
# 5 0.004351 -0.000701 -0.000305 0.017405 0.043519 0.000672
# 6 0.002105 0.006967 0.000309 0.000570 0.000672 0.023297
#
#
# Mechanical properties :
#
#
# Convention : Reuss Voigt Hill
#
# Bulk Modulus (GPa) = 22.79482 45.14352 33.96917
# Shear Modulus (GPa) = 28.53877 42.20174 35.37025
#
# Velocity S-wave (km/s) = 3.28421 3.99373 3.65622
# Velocity P-wave (km/s) = 4.79547 6.19098 5.53736
#
# Compressibility (1/GPa) = 0.04386962
#
# Stress axis : x y z
#
# Youngs Moduli (GPa) = 83.42978 65.91989 42.70273
#
# Poissons Ratio (x) = 0.18795 -0.11044
# Poissons Ratio (y) = 0.23788 0.13183
# Poissons Ratio (z) = -0.21578 0.20351
#
# Static dielectric constant tensor:
#      x y z
#    x 2.255120 0.009170 0.109000 
#    y 0.009170 2.090460 0.021470 
#    z 0.109000 0.021470 2.281090 
# 
# From -- ./inp_files/176722.got.cif
#   From: 2010.05.17/outbox.cif.g08.bks.cpg/sg2_89_cif.got.tgz:176722.got - 2010.06.03 11:33:40.
