data_PCOD9102363
_publ_section_title
;
Structure prediction by ZEFSAII (Michael W. Deem and Ramdas Pophale) SiO2 
 PCOD9102363
Probable space group: P -1
;
_chemical_formula_sum "Si O2"
_cell_formula_units_Z 16
_cell_length_a 11.459054
_cell_length_b 8.039586
_cell_length_c 10.358688
_cell_angle_alpha 102.744527
_cell_angle_beta 126.002511
_cell_angle_gamma 72.375550
_cell_volume 734.661450
_symmetry_space_group_name_H-M "P -1"
_symmetry_group_IT_number 2
_symmetry_cell_setting 'triclinic'
loop_
_space_group_symop_operation_xyz
x,y,z
-x,-y,-z
loop_
_atom_site_type_symbol
_atom_site_label
_atom_site_fract_x
_atom_site_fract_y
_atom_site_fract_z
Si Si1 0.888764 0.996694 0.309405
Si Si2 0.076629 0.106461 0.222588
Si Si3 0.611030 0.188322 0.302941
Si Si4 0.312166 0.424087 0.153782
Si Si5 0.385816 0.113763 0.546920
Si Si6 0.857146 0.245353 0.913449
Si Si7 0.025911 0.363959 0.804677
Si Si8 0.714460 0.518983 0.548807
O O1 0.734339 0.123102 0.264617
O O2 0.960979 0.055824 0.238207
O O3 0.886917 0.794820 0.252836
O O4 0.000000 0.000000 0.500000
O O5 0.217762 0.125910 0.394694
O O6 0.143993 0.956204 0.136128
O O7 0.979049 0.259403 0.101549
O O8 0.450826 0.287756 0.167459
O O9 0.666665 0.335995 0.452807
O O10 0.595841 0.012700 0.338775
O O11 0.299104 0.627216 0.144642
O O12 0.320357 0.414832 0.313992
O O13 0.156123 0.402687 0.988768
O O14 0.378507 0.322600 0.572228
O O15 0.500000 0.000000 0.500000
O O16 0.919022 0.295301 0.826112
O O17 0.894816 0.480775 0.651010
#
# Coordination Sequence:
#
# PCOD9102363 Si02
#       8
#     2   2   2   2   2   2   2   2
#     4  11  21  43  64  85 131 183 213 247 321 389
#     4  10  20  38  62  93 123 163 217 263 307 383
#     4  12  25  42  62  95 136 175 204 264 322 386
#     4  11  21  36  61  93 129 158 210 272 329 366
#     4  12  23  35  62  97 129 160 213 263 320 376
#     4   9  19  35  63  91 122 160 208 270 321 368
#     4  10  20  38  65  91 121 171 214 263 315 378
#     4  11  22  40  66  95 129 169 212 265 327 373
#
# _framework density 21.778739000000002
#
# number of rings (size 3 to 8) (size 9 to 14) (size 15 to 20)
#    0.000    1.250    3.750    4.875    1.750    0.500 
#    0.000    4.375    0.000    0.000    0.000    0.000 
#    0.000    0.000    0.000    0.000    0.000    0.000 
#
# Total GULP energy -89111.891827 kJ/mol
# GULP energy per Si atom -5569.493239 kJ/mol
# Density = 2.172917 g / cm^3
# Si number density = 21.778739 Si / 1000 Ang^3
#
#
#
# Elastic Constant Matrix: (Units=GPa)
#
#
# Indices 1 2 3 4 5 6 
#
# 1 68.7164 40.5240 9.3005 -17.1632 9.9398 -28.3880
# 2 40.5240 132.1188 39.4321 -39.1385 4.3921 -29.0971
# 3 9.3005 39.4321 52.2885 -20.6046 10.1115 -5.8662
# 4 -17.1632 -39.1385 -20.6046 44.4354 -9.2420 5.6236
# 5 9.9398 4.3921 10.1115 -9.2420 26.5053 -8.4989
# 6 -28.3880 -29.0971 -5.8662 5.6236 -8.4989 33.2210
#
#
#
# Elastic Compliance Matrix: (Units=1/GPa)
#
#
# Indices 1 2 3 4 5 6 
#
# 1 0.024889 -0.002595 0.002151 0.005640 -0.002017 0.017904
# 2 -0.002595 0.015551 -0.007963 0.009352 0.008053 0.010474
# 3 0.002151 -0.007963 0.028332 0.005415 -0.009525 -0.003487
# 4 0.005640 0.009352 0.005415 0.036241 0.010259 0.010456
# 5 -0.002017 0.008053 -0.009525 0.010259 0.048993 0.014446
# 6 0.017904 0.010474 -0.003487 0.010456 0.014446 0.055885
#
#
# Mechanical properties :
#
#
# Convention : Reuss Voigt Hill
#
# Bulk Modulus (GPa) = 19.24655 47.95965 33.60310
# Shear Modulus (GPa) = 20.48982 31.75679 26.12330
#
# Velocity S-wave (km/s) = 3.07060 3.82272 3.46712
# Velocity P-wave (km/s) = 4.62903 6.44619 5.61166
#
# Compressibility (1/GPa) = 0.05195737
#
# Stress axis : x y z
#
# Youngs Moduli (GPa) = 40.17887 64.30472 35.29628
#
# Poissons Ratio (x) = 0.16688 -0.07593
# Poissons Ratio (y) = 0.10427 0.28106
# Poissons Ratio (z) = -0.08643 0.51205
#
# Static dielectric constant tensor:
#      x y z
#    x 1.801650 0.068840 0.037090 
#    y 0.068840 1.964300 0.030860 
#    z 0.037090 0.030860 1.825880 
# 
# From -- ./inp_files/417929.got.cif
#   From: 2010.05.17/outbox.cif.g08.bks.cpg/sg2_209_cif.got.tgz:417929.got - 2010.06.03 11:33:40.
