data_PCOD9102905
_publ_section_title
;
Structure prediction by ZEFSAII (Michael W. Deem and Ramdas Pophale) SiO2 
 PCOD9102905
Probable space group: P -1
;
_chemical_formula_sum "Si O2"
_cell_formula_units_Z 13
_cell_length_a 10.734787
_cell_length_b 5.589628
_cell_length_c 10.061462
_cell_angle_alpha 100.923831
_cell_angle_beta 124.356406
_cell_angle_gamma 77.789735
_cell_volume 485.279939
_symmetry_space_group_name_H-M "P -1"
_symmetry_group_IT_number 2
_symmetry_cell_setting 'triclinic'
loop_
_space_group_symop_operation_xyz
x,y,z
-x,-y,-z
loop_
_atom_site_type_symbol
_atom_site_label
_atom_site_fract_x
_atom_site_fract_y
_atom_site_fract_z
Si Si1 0.645592 0.989927 0.404316
Si Si2 0.868734 0.547871 0.094034
Si Si3 0.017133 0.221680 0.426756
Si Si4 0.729010 0.029582 0.164023
Si Si5 0.500000 0.500000 0.500000
Si Si6 0.642269 0.179158 0.843473
Si Si7 0.185225 0.288486 0.207909
O O1 0.574763 0.226626 0.465199
O O2 0.812114 0.864151 0.531573
O O3 0.656024 0.084883 0.268602
O O4 0.527960 0.783614 0.314170
O O5 0.801817 0.745861 0.182014
O O6 0.035951 0.409981 0.208804
O O7 0.732966 0.402053 0.950317
O O8 0.885095 0.700601 0.984052
O O9 0.000000 0.500000 0.500000
O O10 0.000000 0.000000 0.500000
O O11 0.866729 0.191655 0.247114
O O12 0.631365 0.068668 0.975010
O O13 0.326467 0.434429 0.341045
O O14 0.741857 0.995285 0.784486
#
# Coordination Sequence:
#
# PCOD9102905 Si02
#       7
#     2   2   2   2   1   2   2
#     4  10  22  42  64  98 136 175 228 286 339 412
#     4  10  20  38  64  92 128 172 218 276 333 407
#     4  10  23  44  67  98 137 182 226 279 345 410
#     4  10  22  39  64  94 130 173 222 278 338 403
#     4  10  20  42  68  88 132 178 222 274 352 400
#     4  10  21  38  64  97 127 172 225 271 348 395
#     4   9  20  39  61  90 129 170 219 276 329 411
#
# _framework density 26.788663
#
# number of rings (size 3 to 8) (size 9 to 14) (size 15 to 20)
#    0.000    2.154    0.000    1.846    4.308    0.615 
#   16.615    3.077    0.000    0.000    0.000    0.000 
#    0.000    0.000    0.000    0.000    0.000    0.000 
#
# Total GULP energy -72493.308174 kJ/mol
# GULP energy per Si atom -5576.408321 kJ/mol
# Density = 2.672769 g / cm^3
# Si number density = 26.788663 Si / 1000 Ang^3
#
#
#
# Elastic Constant Matrix: (Units=GPa)
#
#
# Indices 1 2 3 4 5 6 
#
# 1 102.0365 32.3506 62.3141 -3.6001 25.0074 -16.1723
# 2 32.3506 108.9842 63.8632 21.7108 17.5364 -18.4920
# 3 62.3141 63.8632 169.6707 12.2936 37.2913 -17.2251
# 4 -3.6001 21.7108 12.2936 68.9681 9.5381 5.1191
# 5 25.0074 17.5364 37.2913 9.5381 66.0678 -1.3274
# 6 -16.1723 -18.4920 -17.2251 5.1191 -1.3274 13.4383
#
#
#
# Elastic Compliance Matrix: (Units=1/GPa)
#
#
# Indices 1 2 3 4 5 6 
#
# 1 0.014824 0.000273 -0.003497 0.000835 -0.003568 0.013062
# 2 0.000273 0.015706 -0.003348 -0.005632 -0.001174 0.019680
# 3 -0.003497 -0.003348 0.009472 -0.000649 -0.002974 0.003278
# 4 0.000835 -0.005632 -0.000649 0.017683 -0.001298 -0.014440
# 5 -0.003568 -0.001174 -0.002974 -0.001298 0.018516 -0.007398
# 6 0.013062 0.019680 0.003278 -0.014440 -0.007398 0.126187
#
#
# Mechanical properties :
#
#
# Convention : Reuss Voigt Hill
#
# Bulk Modulus (GPa) = 37.23358 77.52749 57.38054
# Shear Modulus (GPa) = 22.27325 44.50575 33.38950
#
# Velocity S-wave (km/s) = 2.88660 4.08041 3.53427
# Velocity P-wave (km/s) = 5.00391 7.15562 6.17422
#
# Compressibility (1/GPa) = 0.02685748
#
# Stress axis : x y z
#
# Youngs Moduli (GPa) = 67.45921 63.66804 105.57381
#
# Poissons Ratio (x) = -0.01740 0.36924
# Poissons Ratio (y) = -0.01843 0.35348
# Poissons Ratio (z) = 0.23593 0.21317
#
# Static dielectric constant tensor:
#      x y z
#    x 2.324550 0.449340 -0.158210 
#    y 0.449340 3.057240 -0.325620 
#    z -0.158210 -0.325620 2.159700 
# 
# From -- ./inp_files/63376.got.cif
#   From: 2010.05.17/outbox.cif.g08.bks.cpg/sg2_32_cif.got.tgz:63376.got - 2010.06.03 11:33:40.
