data_PCOD9102172
_publ_section_title
;
Structure prediction by ZEFSAII (Michael W. Deem and Ramdas Pophale) SiO2 
 PCOD9102172
Probable space group: P -1
;
_chemical_formula_sum "Si O2"
_cell_formula_units_Z 12
_cell_length_a 20.394033
_cell_length_b 6.247364
_cell_length_c 6.983206
_cell_angle_alpha 59.977442
_cell_angle_beta 126.079563
_cell_angle_gamma 136.745718
_cell_volume 488.621048
_symmetry_space_group_name_H-M "P -1"
_symmetry_group_IT_number 2
_symmetry_cell_setting 'triclinic'
loop_
_space_group_symop_operation_xyz
x,y,z
-x,-y,-z
loop_
_atom_site_type_symbol
_atom_site_label
_atom_site_fract_x
_atom_site_fract_y
_atom_site_fract_z
Si Si1 0.880805 0.804541 0.532633
Si Si2 0.423436 0.630568 0.991944
Si Si3 0.929877 0.140347 0.099292
Si Si4 0.420418 0.449558 0.632287
Si Si5 0.753989 0.590365 0.793488
Si Si6 0.257256 0.706415 0.749132
O O1 0.798614 0.668942 0.621187
O O2 0.841971 0.507325 0.459835
O O3 0.991533 0.943700 0.747699
O O4 0.895375 0.060760 0.298086
O O5 0.429452 0.578676 0.801756
O O6 0.313926 0.547917 0.880830
O O7 0.469460 0.475617 0.248271
O O8 0.500000 0.000000 0.000000
O O9 0.000000 0.500000 0.000000
O O10 0.831337 0.917395 0.894543
O O11 0.365819 0.551403 0.361885
O O12 0.333564 0.069449 0.663356
O O13 0.761764 0.347860 0.032159
#
# Coordination Sequence:
#
# PCOD9102172 Si02
#       6
#     2   2   2   2   2   2
#     4  10  21  39  58  84 126 150 192 256 280 344
#     4   9  19  39  62  85 123 155 194 249 289 346
#     4  10  22  38  59  87 116 158 198 235 300 351
#     4  10  20  38  62  87 119 160 195 242 299 341
#     4  11  22  37  61  89 116 159 199 239 298 349
#     4  10  21  39  59  88 123 155 198 243 289 349
#
# _framework density 24.558907999999999
#
# number of rings (size 3 to 8) (size 9 to 14) (size 15 to 20)
#    0.000    2.000    1.667    1.500    0.000    2.667 
#    3.000    7.500    0.000    0.000    0.000    0.000 
#    0.000    0.000    0.000    0.000    0.000    0.000 
#
# Total GULP energy -67022.146930 kJ/mol
# GULP energy per Si atom -5585.178911 kJ/mol
# Density = 2.450301 g / cm^3
# Si number density = 24.558908 Si / 1000 Ang^3
#
#
#
# Elastic Constant Matrix: (Units=GPa)
#
#
# Indices 1 2 3 4 5 6 
#
# 1 80.7374 -9.5599 14.1844 5.4280 3.4472 2.2236
# 2 -9.5599 60.8707 -2.6175 5.9214 -1.8895 6.7767
# 3 14.1844 -2.6175 117.1169 13.0582 3.7099 -9.9896
# 4 5.4280 5.9214 13.0582 40.2368 16.0202 -1.1299
# 5 3.4472 -1.8895 3.7099 16.0202 43.5848 -2.3041
# 6 2.2236 6.7767 -9.9896 -1.1299 -2.3041 25.7852
#
#
#
# Elastic Compliance Matrix: (Units=1/GPa)
#
#
# Indices 1 2 3 4 5 6 
#
# 1 0.013133 0.002409 -0.001564 -0.001543 -0.000365 -0.002472
# 2 0.002409 0.017771 0.000057 -0.003774 0.001705 -0.004869
# 3 -0.001564 0.000057 0.009354 -0.002976 0.000618 0.003669
# 4 -0.001543 -0.003774 -0.002976 0.031043 -0.011181 0.000333
# 5 -0.000365 0.001705 0.000618 -0.011181 0.027197 0.001763
# 6 -0.002472 -0.004869 0.003669 0.000333 0.001763 0.041868
#
#
# Mechanical properties :
#
#
# Convention : Reuss Voigt Hill
#
# Bulk Modulus (GPa) = 23.77375 29.19322 26.48349
# Shear Modulus (GPa) = 32.76880 39.03590 35.90235
#
# Velocity S-wave (km/s) = 3.65676 3.99115 3.82761
# Velocity P-wave (km/s) = 5.24695 5.75777 5.50829
#
# Compressibility (1/GPa) = 0.04206320
#
# Stress axis : x y z
#
# Youngs Moduli (GPa) = 76.14255 56.27062 106.90206
#
# Poissons Ratio (x) = -0.13557 0.16720
# Poissons Ratio (y) = -0.18345 -0.00608
# Poissons Ratio (z) = 0.11909 -0.00320
#
# Static dielectric constant tensor:
#      x y z
#    x 2.036630 -0.019680 -0.005910 
#    y -0.019680 1.889480 -0.039350 
#    z -0.005910 -0.039350 2.051520 
# 
# From -- ./inp_files/3393.got.cif
#   From: 2010.05.17/outbox.cif.g08.bks.cpg/sg2_2_cif.got.tgz:3393.got - 2010.06.03 11:33:40.
