data_PCOD9102828
_publ_section_title
;
Structure prediction by ZEFSAII (Michael W. Deem and Ramdas Pophale) SiO2 
 PCOD9102828
Probable space group: P -1
;
_chemical_formula_sum "Si O2"
_cell_formula_units_Z 16
_cell_length_a 8.566046
_cell_length_b 14.689293
_cell_length_c 14.856410
_cell_angle_alpha 50.912969
_cell_angle_beta 146.334076
_cell_angle_gamma 124.686044
_cell_volume 800.073430
_symmetry_space_group_name_H-M "P -1"
_symmetry_group_IT_number 2
_symmetry_cell_setting 'triclinic'
loop_
_space_group_symop_operation_xyz
x,y,z
-x,-y,-z
loop_
_atom_site_type_symbol
_atom_site_label
_atom_site_fract_x
_atom_site_fract_y
_atom_site_fract_z
Si Si1 0.801131 0.561591 0.074807
Si Si2 0.050868 0.058032 0.736437
Si Si3 0.817487 0.653756 0.636079
Si Si4 0.723877 0.260910 0.744968
Si Si5 0.357687 0.826566 0.036316
Si Si6 0.847442 0.101906 0.413163
Si Si7 0.251630 0.970831 0.204174
Si Si8 0.093576 0.371543 0.110950
O O1 0.013381 0.459574 0.228666
O O2 0.974046 0.660567 0.158403
O O3 0.500000 0.500000 0.000000
O O4 0.763960 0.624652 0.920932
O O5 0.909448 0.094427 0.554141
O O6 0.841288 0.031997 0.735018
O O7 0.209417 0.941656 0.866011
O O8 0.308145 0.153109 0.831385
O O9 0.532483 0.658455 0.439512
O O10 0.738182 0.657407 0.701613
O O11 0.023319 0.771082 0.638477
O O12 0.681640 0.158731 0.714200
O O13 0.688528 0.196450 0.864945
O O14 0.189776 0.717750 0.973895
O O15 0.517169 0.067602 0.258349
O O16 0.000000 0.000000 0.500000
O O17 0.000000 0.000000 0.000000
O O18 0.000000 0.500000 0.000000
#
# Coordination Sequence:
#
# PCOD9102828 Si02
#       8
#     2   2   2   2   2   2   2   2
#     4  10  24  43  67  92 123 160 208 263 322 372
#     4  11  23  39  61  93 131 168 211 260 318 372
#     4  11  22  42  67  90 123 164 214 259 307 382
#     4  11  22  44  62  93 124 169 210 256 315 380
#     4  10  20  38  64  89 125 171 210 252 316 384
#     4  12  24  42  65  96 130 169 215 255 322 380
#     4  12  26  40  62  96 135 168 211 267 317 373
#     4   9  21  38  63  90 120 160 207 253 316 377
#
# _framework density 19.998163999999999
#
# number of rings (size 3 to 8) (size 9 to 14) (size 15 to 20)
#    0.000    1.250    3.750    1.500    5.250    1.000 
#    2.250    0.625    0.000    0.000    0.000    0.000 
#    0.000    0.000    0.000    0.000    0.000    0.000 
#
# Total GULP energy -89377.270003 kJ/mol
# GULP energy per Si atom -5586.079375 kJ/mol
# Density = 1.995265 g / cm^3
# Si number density = 19.998164 Si / 1000 Ang^3
#
#
#
# Elastic Constant Matrix: (Units=GPa)
#
#
# Indices 1 2 3 4 5 6 
#
# 1 44.1573 -2.5099 10.1783 4.7912 -5.9328 17.5113
# 2 -2.5099 82.1350 8.4536 13.5553 0.9416 19.1126
# 3 10.1783 8.4536 83.6088 -2.5030 -9.6626 17.2002
# 4 4.7912 13.5553 -2.5030 30.8101 9.9247 8.3771
# 5 -5.9328 0.9416 -9.6626 9.9247 32.8488 2.9162
# 6 17.5113 19.1126 17.2002 8.3771 2.9162 34.8761
#
#
#
# Elastic Compliance Matrix: (Units=1/GPa)
#
#
# Indices 1 2 3 4 5 6 
#
# 1 0.032399 0.006243 0.000281 -0.005457 0.009115 -0.019279
# 2 0.006243 0.015812 0.000049 -0.006157 0.003493 -0.010637
# 3 0.000281 0.000049 0.014111 0.001837 0.004349 -0.007932
# 4 -0.005457 -0.006157 0.001837 0.041139 -0.012375 -0.003639
# 5 0.009115 0.003493 0.004349 -0.012375 0.037790 -0.008823
# 6 -0.019279 -0.010637 -0.007932 -0.003639 -0.008823 0.049706
#
#
# Mechanical properties :
#
#
# Convention : Reuss Voigt Hill
#
# Bulk Modulus (GPa) = 13.25074 26.90503 20.07789
# Shear Modulus (GPa) = 24.63462 32.62559 28.63011
#
# Velocity S-wave (km/s) = 3.51357 4.04348 3.78780
# Velocity P-wave (km/s) = 4.80631 5.93991 5.40292
#
# Compressibility (1/GPa) = 0.07546747
#
# Stress axis : x y z
#
# Youngs Moduli (GPa) = 30.86561 63.24251 70.86816
#
# Poissons Ratio (x) = -0.39484 -0.01990
# Poissons Ratio (y) = -0.19270 -0.00347
# Poissons Ratio (z) = -0.00867 -0.00310
#
# Static dielectric constant tensor:
#      x y z
#    x 1.706810 -0.019590 -0.003100 
#    y -0.019590 1.702560 -0.003660 
#    z -0.003100 -0.003660 1.701110 
# 
# From -- ./inp_files/186435.got.cif
#   From: 2010.05.17/outbox.cif.g08.bks.cpg/sg2_94_cif.got.tgz:186435.got - 2010.06.03 11:33:40.
