data_PCOD9102636
_publ_section_title
;
Structure prediction by ZEFSAII (Michael W. Deem and Ramdas Pophale) SiO2 
 PCOD9102636
Probable space group: P -1
;
_chemical_formula_sum "Si O2"
_cell_formula_units_Z 16
_cell_length_a 11.379715
_cell_length_b 9.384312
_cell_length_c 19.094900
_cell_angle_alpha 129.201072
_cell_angle_beta 27.998439
_cell_angle_gamma 122.904049
_cell_volume 741.209153
_symmetry_space_group_name_H-M "P -1"
_symmetry_group_IT_number 2
_symmetry_cell_setting 'triclinic'
loop_
_space_group_symop_operation_xyz
x,y,z
-x,-y,-z
loop_
_atom_site_type_symbol
_atom_site_label
_atom_site_fract_x
_atom_site_fract_y
_atom_site_fract_z
Si Si1 0.298712 0.359999 0.032171
Si Si2 0.389182 0.801829 0.947524
Si Si3 0.099302 0.926944 0.699284
Si Si4 0.026124 0.472506 0.343758
Si Si5 0.638827 0.111233 0.852213
Si Si6 0.459490 0.411614 0.815708
Si Si7 0.118542 0.164689 0.532011
Si Si8 0.529632 0.004155 0.596792
O O1 0.436323 0.164519 0.916072
O O2 0.273087 0.389697 0.973100
O O3 0.500000 0.500000 0.000000
O O4 0.078504 0.395905 0.213434
O O5 0.439831 0.797923 0.003738
O O6 0.371577 0.589238 0.872044
O O7 0.144947 0.940735 0.114775
O O8 0.613158 0.897682 0.818466
O O9 0.252741 0.013039 0.581663
O O10 0.053114 0.715234 0.636643
O O11 0.282346 0.926536 0.669327
O O12 0.269233 0.546356 0.279334
O O13 0.859418 0.656662 0.472533
O O14 0.898695 0.189002 0.714112
O O15 0.481716 0.219897 0.704757
O O16 0.368009 0.097282 0.419278
O O17 0.000000 0.000000 0.500000
#
# Coordination Sequence:
#
# PCOD9102636 Si02
#       8
#     2   2   2   2   2   2   2   2
#     4  10  16  32  57  90 117 141 193 257 299 337
#     4  11  20  34  63  87 117 156 202 250 289 350
#     4  11  25  43  60  85 126 169 200 237 302 372
#     4  11  20  36  65  92 113 157 204 252 296 351
#     4  11  18  32  58  94 116 146 202 253 296 340
#     4  11  21  37  62  94 118 151 203 257 298 343
#     4  12  22  37  63  91 123 157 197 254 305 351
#     4  11  26  43  58  86 129 166 197 241 306 370
#
# _framework density 21.586349999999999
#
# number of rings (size 3 to 8) (size 9 to 14) (size 15 to 20)
#    0.000    1.000    8.750    0.750    0.000    2.500 
#    0.000    0.625    0.000    0.000    0.000    0.000 
#    0.000    0.000    0.000    0.000    0.000    0.000 
#
# Total GULP energy -89232.610233 kJ/mol
# GULP energy per Si atom -5577.038140 kJ/mol
# Density = 2.153722 g / cm^3
# Si number density = 21.586350 Si / 1000 Ang^3
#
#
#
# Elastic Constant Matrix: (Units=GPa)
#
#
# Indices 1 2 3 4 5 6 
#
# 1 54.0586 11.7798 5.3989 9.0496 -12.9035 3.4097
# 2 11.7798 89.7743 16.3856 19.1481 -15.1161 -9.1514
# 3 5.3989 16.3856 42.7063 13.5354 -5.9145 1.5705
# 4 9.0496 19.1481 13.5354 32.3843 -9.3224 -3.1637
# 5 -12.9035 -15.1161 -5.9145 -9.3224 23.3063 7.7531
# 6 3.4097 -9.1514 1.5705 -3.1637 7.7531 30.4789
#
#
#
# Elastic Compliance Matrix: (Units=1/GPa)
#
#
# Indices 1 2 3 4 5 6 
#
# 1 0.022656 -0.000900 0.000431 -0.002845 0.013076 -0.006449
# 2 -0.000900 0.013995 -0.003072 -0.005073 0.004873 0.002695
# 3 0.000431 -0.003072 0.028152 -0.009636 0.002921 -0.004165
# 4 -0.002845 -0.005073 -0.009636 0.041362 0.008785 0.001350
# 5 0.013076 0.004873 0.002921 0.008785 0.062607 -0.015164
# 6 -0.006449 0.002695 -0.004165 0.001350 -0.015164 0.038552
#
#
# Mechanical properties :
#
#
# Convention : Reuss Voigt Hill
#
# Bulk Modulus (GPa) = 17.32506 28.18531 22.75519
# Shear Modulus (GPa) = 21.39979 27.43221 24.41600
#
# Velocity S-wave (km/s) = 3.15200 3.56871 3.36681
# Velocity P-wave (km/s) = 4.61413 5.48328 5.06737
#
# Compressibility (1/GPa) = 0.05771985
#
# Stress axis : x y z
#
# Youngs Moduli (GPa) = 44.13891 71.45266 35.52162
#
# Poissons Ratio (x) = 0.06433 -0.01531
# Poissons Ratio (y) = 0.03974 0.10913
# Poissons Ratio (z) = -0.01902 0.21951
#
# Static dielectric constant tensor:
#      x y z
#    x 1.784180 -0.036840 0.004710 
#    y -0.036840 1.861760 0.037000 
#    z 0.004710 0.037000 1.917300 
# 
# From -- ./inp_files/207772.got.cif
#   From: 2010.05.17/outbox.cif.g08.bks.cpg/sg2_104_cif.got.tgz:207772.got - 2010.06.03 11:33:40.
