data_PCOD9102124
_publ_section_title
;
Structure prediction by ZEFSAII (Michael W. Deem and Ramdas Pophale) SiO2 
 PCOD9102124
Probable space group: P -1
;
_chemical_formula_sum "Si O2"
_cell_formula_units_Z 16
_cell_length_a 5.828703
_cell_length_b 10.867954
_cell_length_c 22.042428
_cell_angle_alpha 147.142488
_cell_angle_beta 118.476833
_cell_angle_gamma 59.964433
_cell_volume 651.100512
_symmetry_space_group_name_H-M "P -1"
_symmetry_group_IT_number 2
_symmetry_cell_setting 'triclinic'
loop_
_space_group_symop_operation_xyz
x,y,z
-x,-y,-z
loop_
_atom_site_type_symbol
_atom_site_label
_atom_site_fract_x
_atom_site_fract_y
_atom_site_fract_z
Si Si1 0.369611 0.225982 0.426400
Si Si2 0.588523 0.706946 0.955742
Si Si3 0.431616 0.020920 0.179257
Si Si4 0.141390 0.536247 0.217267
Si Si5 0.373189 0.271314 0.587259
Si Si6 0.580525 0.753886 0.209348
Si Si7 0.206747 0.489682 0.401234
Si Si8 0.065006 0.829267 0.881929
O O1 0.337993 0.291927 0.519174
O O2 0.170652 0.357403 0.404748
O O3 0.648916 0.301877 0.477625
O O4 0.394228 0.952564 0.307816
O O5 0.842401 0.593255 0.900186
O O6 0.494248 0.494224 0.890582
O O7 0.380269 0.778818 0.903323
O O8 0.564196 0.911631 0.087367
O O9 0.419495 0.288464 0.308161
O O10 0.108870 0.048249 0.144289
O O11 0.543639 0.846187 0.174504
O O12 0.408391 0.611951 0.303942
O O13 0.883459 0.741675 0.263208
O O14 0.061139 0.376968 0.193597
O O15 0.071808 0.398751 0.620764
O O16 0.500000 0.000000 0.500000
O O17 0.000000 0.000000 0.000000
#
# Coordination Sequence:
#
# PCOD9102124 Si02
#       8
#     2   2   2   2   2   2   2   2
#     4  10  22  41  63  86 121 161 201 252 303 355
#     4  10  21  39  61  87 122 159 200 247 300 360
#     4  10  20  38  62  85 118 160 197 247 302 352
#     4  11  23  38  59  89 122 159 203 248 300 362
#     4  12  24  38  63  93 122 159 202 249 305 364
#     4  10  22  40  59  86 121 158 203 250 298 356
#     4  10  22  41  62  89 121 158 203 249 302 361
#     4   9  20  38  59  83 116 154 198 249 296 348
#
# _framework density 24.573778999999998
#
# number of rings (size 3 to 8) (size 9 to 14) (size 15 to 20)
#    0.000    1.750    0.000    3.750    0.000    6.500 
#    0.000   15.000    0.000    0.000    0.000    0.000 
#    0.000    0.000    0.000    0.000    0.000    0.000 
#
# Total GULP energy -89241.007584 kJ/mol
# GULP energy per Si atom -5577.562974 kJ/mol
# Density = 2.451785 g / cm^3
# Si number density = 24.573779 Si / 1000 Ang^3
#
#
#
# Elastic Constant Matrix: (Units=GPa)
#
#
# Indices 1 2 3 4 5 6 
#
# 1 47.8052 34.9743 36.3002 7.9160 -13.8193 -0.2299
# 2 34.9743 146.5949 50.4529 -2.1097 0.1129 -23.8619
# 3 36.3002 50.4529 137.6379 3.4446 -22.8170 9.4802
# 4 7.9160 -2.1097 3.4446 37.4511 0.5308 -10.4627
# 5 -13.8193 0.1129 -22.8170 0.5308 40.9749 -12.2906
# 6 -0.2299 -23.8619 9.4802 -10.4627 -12.2906 24.3878
#
#
#
# Elastic Compliance Matrix: (Units=1/GPa)
#
#
# Indices 1 2 3 4 5 6 
#
# 1 0.033077 -0.007448 -0.004191 -0.008621 0.007352 -0.005340
# 2 -0.007448 0.013036 -0.004170 0.007651 0.000361 0.017770
# 3 -0.004191 -0.004170 0.010910 -0.002741 0.002178 -0.008439
# 4 -0.008621 0.007651 -0.002741 0.036260 0.002688 0.025381
# 5 0.007352 0.000361 0.002178 0.002688 0.033317 0.017520
# 6 -0.005340 0.017770 -0.008439 0.025381 0.017520 0.081339
#
#
# Mechanical properties :
#
#
# Convention : Reuss Voigt Hill
#
# Bulk Modulus (GPa) = 39.36174 63.94365 51.65269
# Shear Modulus (GPa) = 20.15929 34.58346 27.37138
#
# Velocity S-wave (km/s) = 2.86730 3.75551 3.34105
# Velocity P-wave (km/s) = 5.19754 6.69946 5.99571
#
# Compressibility (1/GPa) = 0.02540538
#
# Stress axis : x y z
#
# Youngs Moduli (GPa) = 30.23264 76.71160 91.65844
#
# Poissons Ratio (x) = 0.57134 0.38415
# Poissons Ratio (y) = 0.22517 0.38219
# Poissons Ratio (z) = 0.12671 0.31987
#
# Static dielectric constant tensor:
#      x y z
#    x 2.645290 -0.092390 0.080560 
#    y -0.092390 1.999340 -0.012220 
#    z 0.080560 -0.012220 2.001120 
# 
# From -- ./inp_files/604512.got.cif
#   From: 2010.05.17/outbox.cif.g08.bks.cpg/sg2_303_cif.got.tgz:604512.got - 2010.06.03 11:33:40.
