data_PCOD9102583
_publ_section_title
;
Structure prediction by ZEFSAII (Michael W. Deem and Ramdas Pophale) SiO2 
 PCOD9102583
Probable space group: P -1
;
_chemical_formula_sum "Si O2"
_cell_formula_units_Z 16
_cell_length_a 18.752885
_cell_length_b 12.071368
_cell_length_c 9.094325
_cell_angle_alpha 53.623024
_cell_angle_beta 62.619789
_cell_angle_gamma 28.727562
_cell_volume 786.986538
_symmetry_space_group_name_H-M "P -1"
_symmetry_group_IT_number 2
_symmetry_cell_setting 'triclinic'
loop_
_space_group_symop_operation_xyz
x,y,z
-x,-y,-z
loop_
_atom_site_type_symbol
_atom_site_label
_atom_site_fract_x
_atom_site_fract_y
_atom_site_fract_z
Si Si1 0.680194 0.242007 0.035151
Si Si2 0.848060 0.292484 0.813714
Si Si3 0.178592 0.207233 0.567686
Si Si4 0.662760 0.743206 0.114289
Si Si5 0.893248 0.247024 0.128131
Si Si6 0.118020 0.145498 0.090659
Si Si7 0.852615 0.702635 0.803220
Si Si8 0.657965 0.782073 0.437334
O O1 0.763037 0.026002 0.248274
O O2 0.500000 0.500000 0.000000
O O3 0.754447 0.286902 0.935778
O O4 0.730533 0.104473 0.940509
O O5 0.758600 0.512553 0.612532
O O6 0.860001 0.353523 0.911200
O O7 0.012370 0.023253 0.800401
O O8 0.218799 0.174335 0.384480
O O9 0.262198 0.194440 0.603167
O O10 0.000000 0.500000 0.500000
O O11 0.744326 0.485540 0.178516
O O12 0.650411 0.777585 0.273241
O O13 0.762847 0.721748 0.970039
O O14 0.500000 0.000000 0.000000
O O15 0.017571 0.154993 0.168574
O O16 0.140550 0.166987 0.214914
O O17 0.022168 0.396572 0.890542
O O18 0.500000 0.000000 0.500000
#
# Coordination Sequence:
#
# PCOD9102583 Si02
#       8
#     2   2   2   2   2   2   2   2
#     4  11  23  41  63  95 134 175 213 269 338 394
#     4  10  22  41  63  90 134 173 212 267 330 391
#     4  12  25  40  70 104 127 169 233 273 322 398
#     4  11  23  39  63  94 130 173 217 271 332 389
#     4   9  20  37  60  84 124 169 211 256 323 385
#     4   9  18  36  59  88 122 169 204 264 318 380
#     4  10  20  38  63  91 130 161 219 273 323 379
#     4  12  25  43  68  98 132 173 225 276 328 401
#
# _framework density 20.330715999999999
#
# number of rings (size 3 to 8) (size 9 to 14) (size 15 to 20)
#    0.000    1.500    1.250    4.500    7.000    1.500 
#    0.000    3.125    0.000    0.000    0.000    0.000 
#    0.000    0.000    0.000    0.000    0.000    0.000 
#
# Total GULP energy -89252.784497 kJ/mol
# GULP energy per Si atom -5578.299031 kJ/mol
# Density = 2.028444 g / cm^3
# Si number density = 20.330716 Si / 1000 Ang^3
#
#
#
# Elastic Constant Matrix: (Units=GPa)
#
#
# Indices 1 2 3 4 5 6 
#
# 1 88.8488 33.6677 28.8105 1.5197 11.9982 3.6051
# 2 33.6677 151.9361 24.9776 3.1958 18.7867 -5.5096
# 3 28.8105 24.9776 117.1580 -1.2724 16.4212 6.6939
# 4 1.5197 3.1958 -1.2724 26.6081 3.6215 9.5193
# 5 11.9982 18.7867 16.4212 3.6215 36.6018 5.8942
# 6 3.6051 -5.5096 6.6939 9.5193 5.8942 30.6496
#
#
#
# Elastic Compliance Matrix: (Units=1/GPa)
#
#
# Indices 1 2 3 4 5 6 
#
# 1 0.013226 -0.002342 -0.002427 0.000060 -0.001873 -0.001105
# 2 -0.002342 0.007763 -0.000816 -0.001446 -0.003176 0.002909
# 3 -0.002427 -0.000816 0.009871 0.001842 -0.003075 -0.001998
# 4 0.000060 -0.001446 0.001842 0.043005 -0.002167 -0.013609
# 5 -0.001873 -0.003176 -0.003075 -0.002167 0.031990 -0.005158
# 6 -0.001105 0.002909 -0.001998 -0.013609 -0.005158 0.038935
#
#
# Mechanical properties :
#
#
# Convention : Reuss Voigt Hill
#
# Bulk Modulus (GPa) = 50.78239 59.20605 54.99422
# Shear Modulus (GPa) = 30.76480 36.80436 33.78458
#
# Velocity S-wave (km/s) = 3.89423 4.25936 4.08088
# Velocity P-wave (km/s) = 6.72699 7.30577 7.02234
#
# Compressibility (1/GPa) = 0.01969186
#
# Stress axis : x y z
#
# Youngs Moduli (GPa) = 75.60828 128.80925 101.30273
#
# Poissons Ratio (x) = 0.30161 0.24585
# Poissons Ratio (y) = 0.17704 0.08266
# Poissons Ratio (z) = 0.18350 0.10511
#
# Static dielectric constant tensor:
#      x y z
#    x 2.244090 -0.033710 0.194800 
#    y -0.033710 1.801210 -0.002350 
#    z 0.194800 -0.002350 1.846880 
# 
# From -- ./inp_files/331705.got.cif
#   From: 2010.05.17/outbox.cif.g08.bks.cpg/sg2_166_cif.got.tgz:331705.got - 2010.06.03 11:33:40.
