data_PCOD9102955
_publ_section_title
;
Structure prediction by ZEFSAII (Michael W. Deem and Ramdas Pophale) SiO2 
 PCOD9102955
Probable space group: P -1
;
_chemical_formula_sum "Si O2"
_cell_formula_units_Z 16
_cell_length_a 19.547947
_cell_length_b 7.765628
_cell_length_c 19.711850
_cell_angle_alpha 121.329919
_cell_angle_beta 165.484344
_cell_angle_gamma 58.247782
_cell_volume 636.975119
_symmetry_space_group_name_H-M "P -1"
_symmetry_group_IT_number 2
_symmetry_cell_setting 'triclinic'
loop_
_space_group_symop_operation_xyz
x,y,z
-x,-y,-z
loop_
_atom_site_type_symbol
_atom_site_label
_atom_site_fract_x
_atom_site_fract_y
_atom_site_fract_z
Si Si1 0.494643 0.577474 0.274167
Si Si2 0.419424 0.219585 0.728914
Si Si3 0.865527 0.333682 0.415104
Si Si4 0.601485 0.833232 0.618402
Si Si5 0.092410 0.891996 0.727926
Si Si6 0.959737 0.276796 0.885229
Si Si7 0.956367 0.500721 0.802511
Si Si8 0.350348 0.235926 0.962803
O O1 0.558915 0.767035 0.328809
O O2 0.777791 0.481164 0.559656
O O3 0.383533 0.421821 0.082767
O O4 0.236944 0.603203 0.082797
O O5 0.276302 0.440536 0.660602
O O6 0.216219 0.067080 0.532261
O O7 0.712655 0.180341 0.037343
O O8 0.894957 0.278952 0.353657
O O9 0.150110 0.300885 0.721515
O O10 0.657019 0.184110 0.217057
O O11 0.345853 0.768735 0.401891
O O12 0.743290 0.649997 0.671742
O O13 0.500000 0.000000 0.500000
O O14 0.832778 0.876737 0.903953
O O15 0.218435 0.073489 0.848309
O O16 0.018842 0.299626 0.866905
O O17 0.000000 0.500000 0.000000
#
# Coordination Sequence:
#
# PCOD9102955 Si02
#       8
#     2   2   2   2   2   2   2   2
#     4  11  23  41  60  84 117 169 208 231 287 364
#     4  11  23  38  59  86 121 156 197 249 301 365
#     4  11  21  39  61  87 115 156 200 247 313 373
#     4  11  22  39  65 101 129 147 185 254 306 331
#     4  12  22  38  61  90 116 150 198 264 316 344
#     4  10  20  38  64  94 121 156 197 236 283 346
#     4  11  21  40  67  86 117 166 205 233 280 364
#     4  11  23  39  60  86 119 154 201 256 295 353
#
# _framework density 25.118721000000001
#
# number of rings (size 3 to 8) (size 9 to 14) (size 15 to 20)
#    0.000    1.000    0.000   10.875    0.000    0.000 
#    0.000    5.000    0.000    3.000    0.000    0.000 
#    0.000    0.000    0.000    0.000    0.000    0.000 
#
# Total GULP energy -89630.186096 kJ/mol
# GULP energy per Si atom -5601.886631 kJ/mol
# Density = 2.506155 g / cm^3
# Si number density = 25.118721 Si / 1000 Ang^3
#
#
#
# Elastic Constant Matrix: (Units=GPa)
#
#
# Indices 1 2 3 4 5 6 
#
# 1 89.9552 10.9137 43.5917 -0.8569 9.0781 35.3136
# 2 10.9137 49.3505 -11.8016 -0.2972 -0.0246 8.9203
# 3 43.5917 -11.8016 138.2929 -6.8025 -3.5936 7.4804
# 4 -0.8569 -0.2972 -6.8025 38.1130 25.9735 0.7516
# 5 9.0781 -0.0246 -3.5936 25.9735 50.9601 0.6205
# 6 35.3136 8.9203 7.4804 0.7516 0.6205 36.9303
#
#
#
# Elastic Compliance Matrix: (Units=1/GPa)
#
#
# Indices 1 2 3 4 5 6 
#
# 1 0.023195 -0.003011 -0.006444 0.004144 -0.006455 -0.020123
# 2 -0.003011 0.022223 0.003044 0.000253 0.000671 -0.003121
# 3 -0.006444 0.003044 0.009395 0.000431 0.001550 0.003489
# 4 0.004144 0.000253 0.000431 0.041284 -0.021694 -0.004586
# 5 -0.006455 0.000671 0.001550 -0.021694 0.031871 0.005602
# 6 -0.020123 -0.003121 0.003489 -0.004586 0.005602 0.046367
#
#
# Mechanical properties :
#
#
# Convention : Reuss Voigt Hill
#
# Bulk Modulus (GPa) = 23.81425 40.33402 32.07414
# Shear Modulus (GPa) = 24.85650 40.86032 32.85841
#
# Velocity S-wave (km/s) = 3.14914 4.03760 3.62072
# Velocity P-wave (km/s) = 4.76697 6.15049 5.50239
#
# Compressibility (1/GPa) = 0.04199167
#
# Stress axis : x y z
#
# Youngs Moduli (GPa) = 43.11232 44.99777 106.44208
#
# Poissons Ratio (x) = 0.13551 0.68590
# Poissons Ratio (y) = 0.12983 -0.32406
# Poissons Ratio (z) = 0.27781 -0.13699
#
# Static dielectric constant tensor:
#      x y z
#    x 2.126000 -0.052960 0.012510 
#    y -0.052960 2.356880 -0.066320 
#    z 0.012510 -0.066320 1.991690 
# 
# From -- ./inp_files/614040.got.cif
#   From: 2010.05.17/outbox.cif.g08.bks.cpg/sg2_308_cif.got.tgz:614040.got - 2010.06.03 11:33:40.
