data_PCOD9102134
_publ_section_title
;
Structure prediction by ZEFSAII (Michael W. Deem and Ramdas Pophale) SiO2 
 PCOD9102134
Probable space group: P -1
;
_chemical_formula_sum "Si O2"
_cell_formula_units_Z 16
_cell_length_a 13.694656
_cell_length_b 5.666342
_cell_length_c 10.994153
_cell_angle_alpha 76.032906
_cell_angle_beta 68.417019
_cell_angle_gamma 116.292226
_cell_volume 622.008720
_symmetry_space_group_name_H-M "P -1"
_symmetry_group_IT_number 2
_symmetry_cell_setting 'triclinic'
loop_
_space_group_symop_operation_xyz
x,y,z
-x,-y,-z
loop_
_atom_site_type_symbol
_atom_site_label
_atom_site_fract_x
_atom_site_fract_y
_atom_site_fract_z
Si Si1 0.527044 0.325695 0.914495
Si Si2 0.702054 0.072680 0.091250
Si Si3 0.976098 0.298423 0.918601
Si Si4 0.557906 0.208783 0.329486
Si Si5 0.933116 0.180791 0.357933
Si Si6 0.791823 0.671411 0.296247
Si Si7 0.208251 0.482639 0.232178
Si Si8 0.725512 0.164657 0.593862
O O1 0.678642 0.555428 0.791081
O O2 0.427651 0.224181 0.864008
O O3 0.500000 0.500000 0.000000
O O4 0.500000 0.000000 0.000000
O O5 0.655060 0.156445 0.220517
O O6 0.752612 0.348195 0.937482
O O7 0.822355 0.050502 0.032425
O O8 0.996894 0.478736 0.762329
O O9 0.091113 0.262463 0.852731
O O10 0.000000 0.500000 0.000000
O O11 0.657052 0.535140 0.305339
O O12 0.500000 0.000000 0.500000
O O13 0.429777 0.093863 0.321312
O O14 0.826719 0.096835 0.515906
O O15 0.059208 0.194568 0.331684
O O16 0.852806 0.973322 0.306313
O O17 0.758144 0.425838 0.448326
O O18 0.234771 0.700938 0.305566
#
# Coordination Sequence:
#
# PCOD9102134 Si02
#       8
#     2   2   2   2   2   2   2   2
#     4  10  22  41  63  96 135 171 217 275 341 400
#     4  10  20  39  63  91 125 165 213 273 329 391
#     4  10  20  38  62  85 123 165 206 264 321 391
#     4  10  20  38  63  86 125 166 213 264 323 396
#     4  10  23  39  60  92 126 165 213 266 330 395
#     4  10  22  39  59  91 123 162 212 262 328 391
#     4  10  21  40  63  92 125 164 219 272 332 393
#     4  10  21  41  62  84 123 171 212 264 323 397
#
# _framework density 25.723110999999999
#
# number of rings (size 3 to 8) (size 9 to 14) (size 15 to 20)
#    0.000    2.000    2.500    0.375    1.750    1.500 
#    4.500    0.000    0.000    0.000    0.000    0.000 
#    0.000    0.000    0.000    0.000    0.000    0.000 
#
# Total GULP energy -89383.473727 kJ/mol
# GULP energy per Si atom -5586.467108 kJ/mol
# Density = 2.566456 g / cm^3
# Si number density = 25.723111 Si / 1000 Ang^3
#
#
#
# Elastic Constant Matrix: (Units=GPa)
#
#
# Indices 1 2 3 4 5 6 
#
# 1 144.5550 33.5980 52.7192 -4.3292 -31.3150 19.6857
# 2 33.5980 88.6571 48.9061 11.4276 -17.3479 23.7705
# 3 52.7192 48.9061 182.5988 4.4320 -21.7923 -4.9963
# 4 -4.3292 11.4276 4.4320 65.5819 -7.7498 -2.8643
# 5 -31.3150 -17.3479 -21.7923 -7.7498 55.4169 -2.4519
# 6 19.6857 23.7705 -4.9963 -2.8643 -2.4519 37.0412
#
#
#
# Elastic Compliance Matrix: (Units=1/GPa)
#
#
# Indices 1 2 3 4 5 6 
#
# 1 0.009433 -0.000370 -0.002271 0.001140 0.004273 -0.004712
# 2 -0.000370 0.018205 -0.004709 -0.003095 0.002666 -0.012184
# 3 -0.002271 -0.004709 0.007591 0.000452 0.000526 0.005323
# 4 0.001140 -0.003095 0.000452 0.016222 0.002247 0.002845
# 5 0.004273 0.002666 0.000526 0.002247 0.021714 -0.002300
# 6 -0.004712 -0.012184 0.005323 0.002845 -0.002300 0.038106
#
#
# Mechanical properties :
#
#
# Convention : Reuss Voigt Hill
#
# Bulk Modulus (GPa) = 48.71167 76.25083 62.48125
# Shear Modulus (GPa) = 37.64687 50.31384 43.98035
#
# Velocity S-wave (km/s) = 3.82978 4.42744 4.13941
# Velocity P-wave (km/s) = 6.20760 7.47286 6.86942
#
# Compressibility (1/GPa) = 0.02052896
#
# Stress axis : x y z
#
# Youngs Moduli (GPa) = 106.00673 54.93090 131.73556
#
# Poissons Ratio (x) = 0.02031 0.29920
# Poissons Ratio (y) = 0.03919 0.62036
# Poissons Ratio (z) = 0.24076 0.25868
#
# Static dielectric constant tensor:
#      x y z
#    x 1.866710 0.151880 -0.083940 
#    y 0.151880 1.876830 0.039080 
#    z -0.083940 0.039080 1.961760 
# 
# From -- ./inp_files/441925.got.cif
#   From: 2010.05.17/outbox.cif.g08.bks.cpg/sg2_221_cif.got.tgz:441925.got - 2010.06.03 11:33:40.
