data_PCOD9102677
_publ_section_title
;
Structure prediction by ZEFSAII (Michael W. Deem and Ramdas Pophale) SiO2 
 PCOD9102677
Probable space group: P -1
;
_chemical_formula_sum "Si O2"
_cell_formula_units_Z 12
_cell_length_a 7.618750
_cell_length_b 16.079012
_cell_length_c 6.709217
_cell_angle_alpha 81.376216
_cell_angle_beta 123.653583
_cell_angle_gamma 130.597182
_cell_volume 489.767632
_symmetry_space_group_name_H-M "P -1"
_symmetry_group_IT_number 2
_symmetry_cell_setting 'triclinic'
loop_
_space_group_symop_operation_xyz
x,y,z
-x,-y,-z
loop_
_atom_site_type_symbol
_atom_site_label
_atom_site_fract_x
_atom_site_fract_y
_atom_site_fract_z
Si Si1 0.779459 0.379529 0.287300
Si Si2 0.178069 0.390701 0.263640
Si Si3 0.082791 0.851196 0.737698
Si Si4 0.872875 0.741435 0.054884
Si Si5 0.951246 0.066913 0.671366
Si Si6 0.524405 0.871245 0.771077
O O1 0.469179 0.339645 0.088155
O O2 0.691592 0.265365 0.370869
O O3 0.000000 0.500000 0.500000
O O4 0.946112 0.395589 0.187235
O O5 0.500000 0.500000 0.500000
O O6 0.122327 0.286523 0.377085
O O7 0.118749 0.347746 0.011938
O O8 0.012955 0.839304 0.931627
O O9 0.016691 0.916764 0.551388
O O10 0.389981 0.900961 0.832895
O O11 0.042309 0.829786 0.311743
O O12 0.224776 0.103820 0.945371
O O13 0.668872 0.949024 0.636033
#
# Coordination Sequence:
#
# PCOD9102677 Si02
#       6
#     2   2   2   2   2   2
#     4  10  16  32  58  77 111 153 179 230 289 319
#     4   9  17  33  57  84 112 150 192 229 282 345
#     4   9  19  36  57  83 115 149 190 232 284 343
#     4   9  20  33  59  82 112 152 182 237 288 325
#     4  10  19  38  57  83 119 146 188 240 284 334
#     4   9  20  34  57  84 116 146 191 240 273 344
#
# _framework density 24.501412999999999
#
# number of rings (size 3 to 8) (size 9 to 14) (size 15 to 20)
#    1.000    1.667    1.667    0.500    0.000    0.667 
#    0.000   13.333    0.000   13.000    0.000    0.000 
#    0.000    0.000    0.000    0.000    0.000    0.000 
#
# Total GULP energy -66869.252838 kJ/mol
# GULP energy per Si atom -5572.437737 kJ/mol
# Density = 2.444565 g / cm^3
# Si number density = 24.501413 Si / 1000 Ang^3
#
#
#
# Elastic Constant Matrix: (Units=GPa)
#
#
# Indices 1 2 3 4 5 6 
#
# 1 133.4184 15.2342 16.8613 11.0121 11.3753 -4.3641
# 2 15.2342 79.7829 20.2571 22.0243 -2.5558 -1.5280
# 3 16.8613 20.2571 42.9418 7.6528 -2.2517 6.3189
# 4 11.0121 22.0243 7.6528 42.1114 1.2677 -3.0619
# 5 11.3753 -2.5558 -2.2517 1.2677 29.6114 9.2268
# 6 -4.3641 -1.5280 6.3189 -3.0619 9.2268 43.0455
#
#
#
# Elastic Compliance Matrix: (Units=1/GPa)
#
#
# Indices 1 2 3 4 5 6 
#
# 1 0.008508 -0.000564 -0.003434 -0.001021 -0.004213 0.002177
# 2 -0.000564 0.016260 -0.006191 -0.007222 0.001257 0.000645
# 3 -0.003434 -0.006191 0.029005 -0.001721 0.004936 -0.006006
# 4 -0.001021 -0.007222 -0.001721 0.028348 -0.002326 0.002408
# 5 -0.004213 0.001257 0.004936 -0.002326 0.038972 -0.009626
# 6 0.002177 0.000645 -0.006006 0.002408 -0.009626 0.026591
#
#
# Mechanical properties :
#
#
# Convention : Reuss Voigt Hill
#
# Bulk Modulus (GPa) = 29.94408 40.09425 35.01917
# Shear Modulus (GPa) = 27.90253 36.53971 32.22112
#
# Velocity S-wave (km/s) = 3.37829 3.86596 3.63033
# Velocity P-wave (km/s) = 5.24071 6.02720 5.64766
#
# Compressibility (1/GPa) = 0.03339558
#
# Stress axis : x y z
#
# Youngs Moduli (GPa) = 117.53245 61.50075 34.47638
#
# Poissons Ratio (x) = 0.03470 0.11839
# Poissons Ratio (y) = 0.06631 0.21343
# Poissons Ratio (z) = 0.40361 0.38074
#
# Static dielectric constant tensor:
#      x y z
#    x 2.009020 -0.049660 0.008090 
#    y -0.049660 1.960950 -0.022060 
#    z 0.008090 -0.022060 1.971700 
# 
# From -- ./inp_files/165160.got.cif
#   From: 2010.05.17/outbox.cif.g08.bks.cpg/sg2_83_cif.got.tgz:165160.got - 2010.06.03 11:33:40.
