data_PCOD9102072
_publ_section_title
;
Structure prediction by ZEFSAII (Michael W. Deem and Ramdas Pophale) SiO2 
 PCOD9102072
Probable space group: P -1
;
_chemical_formula_sum "Si O2"
_cell_formula_units_Z 16
_cell_length_a 23.833061
_cell_length_b 21.419742
_cell_length_c 9.514329
_cell_angle_alpha 27.149809
_cell_angle_beta 29.821953
_cell_angle_gamma 18.595521
_cell_volume 696.911598
_symmetry_space_group_name_H-M "P -1"
_symmetry_group_IT_number 2
_symmetry_cell_setting 'triclinic'
loop_
_space_group_symop_operation_xyz
x,y,z
-x,-y,-z
loop_
_atom_site_type_symbol
_atom_site_label
_atom_site_fract_x
_atom_site_fract_y
_atom_site_fract_z
Si Si1 0.030081 0.818799 0.345907
Si Si2 0.440113 0.424045 0.195013
Si Si3 0.252274 0.090748 0.394045
Si Si4 0.207217 0.158028 0.682419
Si Si5 0.552450 0.674515 0.910280
Si Si6 0.969729 0.346537 0.075179
Si Si7 0.381256 0.275343 0.053672
Si Si8 0.715609 0.798368 0.174309
O O1 0.235511 0.586358 0.348372
O O2 0.984393 0.833363 0.578692
O O3 0.906094 0.842050 0.471938
O O4 0.000000 0.000000 0.000000
O O5 0.438807 0.450168 0.976101
O O6 0.579041 0.170849 0.433188
O O7 0.500000 0.500000 0.000000
O O8 0.194085 0.182029 0.495365
O O9 0.288950 0.180606 0.026852
O O10 0.301990 0.208758 0.424433
O O11 0.345816 0.907395 0.910148
O O12 0.035916 0.294099 0.875992
O O13 0.621163 0.608424 0.052344
O O14 0.646379 0.717968 0.542226
O O15 0.089777 0.345429 0.900176
O O16 0.757417 0.560118 0.097053
O O17 0.575352 0.047023 0.034565
#
# Coordination Sequence:
#
# PCOD9102072 Si02
#       8
#     2   2   2   2   2   2   2   2
#     4  11  24  44  65  87 115 166 213 261 307 355
#     4  11  23  42  64  86 118 164 211 254 303 355
#     4  10  23  39  67  91 127 158 206 260 308 359
#     4  10  20  38  61  95 131 164 194 248 311 375
#     4  10  21  37  65  92 129 164 204 246 309 368
#     4  11  22  36  65  91 126 164 200 245 317 370
#     4  11  20  36  61  93 135 161 197 244 310 376
#     4  10  20  39  59  98 129 162 198 252 307 369
#
# _framework density 22.958434
#
# number of rings (size 3 to 8) (size 9 to 14) (size 15 to 20)
#    0.000    1.500    3.750    1.875    1.750    5.500 
#    0.000    3.125    0.000    4.500    0.000    0.000 
#    0.000    0.000    0.000    0.000    0.000    0.000 
#
# Total GULP energy -89391.852571 kJ/mol
# GULP energy per Si atom -5586.990786 kJ/mol
# Density = 2.290618 g / cm^3
# Si number density = 22.958434 Si / 1000 Ang^3
#
#
#
# Elastic Constant Matrix: (Units=GPa)
#
#
# Indices 1 2 3 4 5 6 
#
# 1 165.0315 51.1296 23.0000 -0.5953 16.5075 -2.1416
# 2 51.1296 99.9666 21.4832 1.9223 11.2155 -24.3656
# 3 23.0000 21.4832 46.4975 -6.1088 15.5163 0.4817
# 4 -0.5953 1.9223 -6.1088 17.0826 1.7447 2.2663
# 5 16.5075 11.2155 15.5163 1.7447 33.4515 4.6180
# 6 -2.1416 -24.3656 0.4817 2.2663 4.6180 45.2360
#
#
#
# Elastic Compliance Matrix: (Units=1/GPa)
#
#
# Indices 1 2 3 4 5 6 
#
# 1 0.007566 -0.003774 -0.001353 0.000576 -0.001661 -0.001519
# 2 -0.003774 0.015496 -0.005422 -0.004781 -0.001762 0.008645
# 3 -0.001353 -0.005422 0.030394 0.013013 -0.011912 -0.002744
# 4 0.000576 -0.004781 0.013013 0.065196 -0.007400 -0.005198
# 5 -0.001661 -0.001762 -0.011912 -0.007400 0.037822 -0.004391
# 6 -0.001519 0.008645 -0.002744 -0.005198 -0.004391 0.027429
#
#
# Mechanical properties :
#
#
# Convention : Reuss Voigt Hill
#
# Bulk Modulus (GPa) = 30.90541 55.85792 43.38166
# Shear Modulus (GPa) = 23.17102 33.54621 28.35862
#
# Velocity S-wave (km/s) = 3.18033 3.82667 3.51838
# Velocity P-wave (km/s) = 5.19391 6.62627 5.95332
#
# Compressibility (1/GPa) = 0.03235679
#
# Stress axis : x y z
#
# Youngs Moduli (GPa) = 132.17478 64.53466 32.90079
#
# Poissons Ratio (x) = 0.24355 0.04452
# Poissons Ratio (y) = 0.49882 0.17840
# Poissons Ratio (z) = 0.17885 0.34993
#
# Static dielectric constant tensor:
#      x y z
#    x 1.904080 0.024940 0.024660 
#    y 0.024940 1.870100 0.005050 
#    z 0.024660 0.005050 1.876390 
# 
# From -- ./inp_files/282597.got.cif
#   From: 2010.05.17/outbox.cif.g08.bks.cpg/sg2_142_cif.got.tgz:282597.got - 2010.06.03 11:33:40.
