data_PCOD9102181
_publ_section_title
;
Structure prediction by ZEFSAII (Michael W. Deem and Ramdas Pophale) SiO2 
 PCOD9102181
Probable space group: P -1
;
_chemical_formula_sum "Si O2"
_cell_formula_units_Z 16
_cell_length_a 8.937691
_cell_length_b 13.765445
_cell_length_c 9.132127
_cell_angle_alpha 59.580090
_cell_angle_beta 116.480769
_cell_angle_gamma 90.918384
_cell_volume 834.586745
_symmetry_space_group_name_H-M "P -1"
_symmetry_group_IT_number 2
_symmetry_cell_setting 'triclinic'
loop_
_space_group_symop_operation_xyz
x,y,z
-x,-y,-z
loop_
_atom_site_type_symbol
_atom_site_label
_atom_site_fract_x
_atom_site_fract_y
_atom_site_fract_z
Si Si1 0.469712 0.173227 0.157574
Si Si2 0.370813 0.613078 0.932350
Si Si3 0.633999 0.954424 0.225699
Si Si4 0.818279 0.536359 0.481004
Si Si5 0.812038 0.519081 0.833411
Si Si6 0.833882 0.785115 0.227953
Si Si7 0.769085 0.324400 0.483009
Si Si8 0.449157 0.224160 0.444615
O O1 0.523778 0.292695 0.060786
O O2 0.451106 0.167229 0.328447
O O3 0.618906 0.067012 0.234445
O O4 0.288949 0.173966 0.997700
O O5 0.233003 0.666428 0.701649
O O6 0.500000 0.500000 0.000000
O O7 0.280094 0.569970 0.061743
O O8 0.803519 0.883961 0.264702
O O9 0.580233 0.861233 0.377502
O O10 0.500000 0.000000 0.000000
O O11 0.833884 0.501983 0.682863
O O12 0.765467 0.676257 0.340674
O O13 0.709754 0.457296 0.417325
O O14 0.000000 0.500000 0.500000
O O15 0.696414 0.651414 0.711711
O O16 0.000000 0.500000 0.000000
O O17 0.038789 0.736690 0.327410
O O18 0.631083 0.255779 0.518655
#
# Coordination Sequence:
#
# PCOD9102181 Si02
#       8
#     2   2   2   2   2   2   2   2
#     4  10  22  39  68  85 125 165 207 251 312 366
#     4  11  21  41  62  93 130 160 199 258 318 371
#     4  10  22  42  63  88 120 167 217 255 298 364
#     4  10  21  35  58  88 125 161 203 244 310 365
#     4  12  24  37  64  96 130 161 206 252 316 381
#     4  10  20  38  62  87 121 166 204 251 306 359
#     4  10  22  38  61  91 130 160 202 253 315 371
#     4  11  23  41  63  93 123 163 206 257 310 369
#
# _framework density 19.171164999999998
#
# number of rings (size 3 to 8) (size 9 to 14) (size 15 to 20)
#    0.000    1.500    3.750    2.625    3.500    2.500 
#    0.000    5.000    2.750    0.000    0.000    0.000 
#    0.000    0.000    0.000    0.000    0.000    0.000 
#
# Total GULP energy -89266.983211 kJ/mol
# GULP energy per Si atom -5579.186451 kJ/mol
# Density = 1.912753 g / cm^3
# Si number density = 19.171165 Si / 1000 Ang^3
#
#
#
# Elastic Constant Matrix: (Units=GPa)
#
#
# Indices 1 2 3 4 5 6 
#
# 1 69.7529 32.8708 27.5826 7.8676 -1.7682 -4.1178
# 2 32.8708 106.4195 23.2397 3.1829 6.8163 -17.4389
# 3 27.5826 23.2397 64.9745 10.5067 -3.4292 4.8484
# 4 7.8676 3.1829 10.5067 35.6352 -2.4053 -1.4280
# 5 -1.7682 6.8163 -3.4292 -2.4053 37.3978 1.8197
# 6 -4.1178 -17.4389 4.8484 -1.4280 1.8197 28.9252
#
#
#
# Elastic Compliance Matrix: (Units=1/GPa)
#
#
# Indices 1 2 3 4 5 6 
#
# 1 0.019192 -0.004399 -0.006292 -0.001885 0.000963 0.000981
# 2 -0.004399 0.013092 -0.003761 0.001017 -0.003270 0.008153
# 3 -0.006292 -0.003761 0.020786 -0.004527 0.002344 -0.007018
# 4 -0.001885 0.001017 -0.004527 0.029898 0.001111 0.002509
# 5 0.000963 -0.003270 0.002344 0.001111 0.027859 -0.003925
# 6 0.000981 0.008153 -0.007018 0.002509 -0.003925 0.041174
#
#
# Mechanical properties :
#
#
# Convention : Reuss Voigt Hill
#
# Bulk Modulus (GPa) = 41.37694 45.39256 43.38475
# Shear Modulus (GPa) = 26.46090 30.88856 28.67473
#
# Velocity S-wave (km/s) = 3.71920 4.01833 3.87165
# Velocity P-wave (km/s) = 6.33032 6.72742 6.53189
#
# Compressibility (1/GPa) = 0.02416805
#
# Stress axis : x y z
#
# Youngs Moduli (GPa) = 52.10507 76.38398 48.10928
#
# Poissons Ratio (x) = 0.33598 0.30268
# Poissons Ratio (y) = 0.22919 0.18092
# Poissons Ratio (z) = 0.32782 0.28725
#
# Static dielectric constant tensor:
#      x y z
#    x 1.654130 -0.020640 0.013060 
#    y -0.020640 1.699160 -0.005360 
#    z 0.013060 -0.005360 1.697440 
# 
# From -- ./inp_files/185348.got.cif
#   From: 2010.05.17/outbox.cif.g08.bks.cpg/sg2_93_cif.got.tgz:185348.got - 2010.06.03 11:33:40.
