data_PCOD9102886
_publ_section_title
;
Structure prediction by ZEFSAII (Michael W. Deem and Ramdas Pophale) SiO2 
 PCOD9102886
Probable space group: P -1
;
_chemical_formula_sum "Si O2"
_cell_formula_units_Z 16
_cell_length_a 15.010583
_cell_length_b 9.471383
_cell_length_c 5.894155
_cell_angle_alpha 74.065064
_cell_angle_beta 104.093347
_cell_angle_gamma 63.836050
_cell_volume 655.524753
_symmetry_space_group_name_H-M "P -1"
_symmetry_group_IT_number 2
_symmetry_cell_setting 'triclinic'
loop_
_space_group_symop_operation_xyz
x,y,z
-x,-y,-z
loop_
_atom_site_type_symbol
_atom_site_label
_atom_site_fract_x
_atom_site_fract_y
_atom_site_fract_z
Si Si1 0.223430 0.546310 0.983898
Si Si2 0.389076 0.245534 0.895787
Si Si3 0.250470 0.770521 0.274001
Si Si4 0.941495 0.153474 0.580314
Si Si5 0.310387 0.051307 0.148657
Si Si6 0.461116 0.477680 0.737885
Si Si7 0.914488 0.707448 0.340588
Si Si8 0.769867 0.724525 0.602053
O O1 0.330813 0.380289 0.011935
O O2 0.139499 0.669569 0.687679
O O3 0.249853 0.662534 0.106555
O O4 0.175635 0.456396 0.147205
O O5 0.402823 0.067607 0.073438
O O6 0.474470 0.290589 0.841592
O O7 0.301332 0.299477 0.617655
O O8 0.131347 0.869983 0.272527
O O9 0.333480 0.631903 0.571953
O O10 0.295865 0.891147 0.184829
O O11 0.027793 0.190559 0.725164
O O12 0.000000 0.000000 0.500000
O O13 0.191431 0.217862 0.918352
O O14 0.312412 0.099762 0.388271
O O15 0.500000 0.500000 0.500000
O O16 0.500000 0.500000 0.000000
O O17 0.858306 0.754261 0.532363
O O18 0.000000 0.500000 0.500000
#
# Coordination Sequence:
#
# PCOD9102886 Si02
#       8
#     2   2   2   2   2   2   2   2
#     4  11  20  39  69  89 139 192 234 295 344 425
#     4  10  21  45  69 103 132 182 234 289 363 432
#     4  12  25  45  68 105 141 186 238 304 372 421
#     4  12  25  37  60  97 147 184 235 291 352 428
#     4  10  24  40  67  95 146 186 228 296 364 426
#     4  12  27  49  83 112 138 185 251 310 374 453
#     4  11  22  37  55  98 134 187 247 280 336 431
#     4  10  20  38  64  91 132 186 231 280 353 427
#
# _framework density 24.407927999999998
#
# number of rings (size 3 to 8) (size 9 to 14) (size 15 to 20)
#    0.000    1.000    2.500    5.250    1.750    7.000 
#    0.000    1.250    0.000    0.000    0.000    0.000 
#    0.000    0.000    0.000    0.000    0.000    0.000 
#
# Total GULP energy -89398.494164 kJ/mol
# GULP energy per Si atom -5587.405885 kJ/mol
# Density = 2.435237 g / cm^3
# Si number density = 24.407928 Si / 1000 Ang^3
#
#
#
# Elastic Constant Matrix: (Units=GPa)
#
#
# Indices 1 2 3 4 5 6 
#
# 1 144.8801 48.8793 34.7672 14.6275 -35.3822 35.6484
# 2 48.8793 141.8914 29.4075 8.5419 -16.3827 36.4951
# 3 34.7672 29.4075 85.2152 13.1181 -11.7409 16.8952
# 4 14.6275 8.5419 13.1181 28.6300 9.3016 -3.0582
# 5 -35.3822 -16.3827 -11.7409 9.3016 42.3070 -3.0072
# 6 35.6484 36.4951 16.8952 -3.0582 -3.0072 41.1563
#
#
#
# Elastic Compliance Matrix: (Units=1/GPa)
#
#
# Indices 1 2 3 4 5 6 
#
# 1 0.015275 0.001003 0.000758 -0.015079 0.015664 -0.014407
# 2 0.001003 0.010337 -0.000275 -0.006306 0.005442 -0.009994
# 3 0.000758 -0.000275 0.015388 -0.010233 0.006549 -0.007012
# 4 -0.015079 -0.006306 -0.010233 0.061525 -0.029624 0.025261
# 5 0.015664 0.005442 0.006549 -0.029624 0.045758 -0.019940
# 6 -0.014407 -0.009994 -0.007012 0.025261 -0.019940 0.048937
#
#
# Mechanical properties :
#
#
# Convention : Reuss Voigt Hill
#
# Bulk Modulus (GPa) = 22.74149 66.45496 44.59823
# Shear Modulus (GPa) = 23.93422 39.68084 31.80753
#
# Velocity S-wave (km/s) = 3.13484 4.03642 3.61385
# Velocity P-wave (km/s) = 4.73713 7.00067 5.97703
#
# Compressibility (1/GPa) = 0.04397249
#
# Stress axis : x y z
#
# Youngs Moduli (GPa) = 65.46694 96.73616 64.98394
#
# Poissons Ratio (x) = -0.09701 -0.04924
# Poissons Ratio (y) = -0.06566 0.01785
# Poissons Ratio (z) = -0.04961 0.02657
#
# Static dielectric constant tensor:
#      x y z
#    x 2.018660 -0.039630 -0.054410 
#    y -0.039630 1.950660 -0.004050 
#    z -0.054410 -0.004050 1.968840 
# 
# From -- ./inp_files/90151.got.cif
#   From: 2010.05.17/outbox.cif.g08.bks.cpg/sg2_46_cif.got.tgz:90151.got - 2010.06.03 11:33:40.
