data_PCOD9102620
_publ_section_title
;
Structure prediction by ZEFSAII (Michael W. Deem and Ramdas Pophale) SiO2 
 PCOD9102620
Probable space group: P -1
;
_chemical_formula_sum "Si O2"
_cell_formula_units_Z 16
_cell_length_a 15.475243
_cell_length_b 12.148560
_cell_length_c 9.686500
_cell_angle_alpha 69.125057
_cell_angle_beta 80.177487
_cell_angle_gamma 27.573763
_cell_volume 741.878353
_symmetry_space_group_name_H-M "P -1"
_symmetry_group_IT_number 2
_symmetry_cell_setting 'triclinic'
loop_
_space_group_symop_operation_xyz
x,y,z
-x,-y,-z
loop_
_atom_site_type_symbol
_atom_site_label
_atom_site_fract_x
_atom_site_fract_y
_atom_site_fract_z
Si Si1 0.226213 0.744982 0.505497
Si Si2 0.451647 0.314606 0.254879
Si Si3 0.886588 0.739869 0.504165
Si Si4 0.608943 0.777570 0.170264
Si Si5 0.254892 0.454261 0.496009
Si Si6 0.051979 0.477501 0.844434
Si Si7 0.607959 0.120482 0.005458
Si Si8 0.598755 0.365764 0.756090
O O1 0.282447 0.549608 0.513649
O O2 0.379070 0.603133 0.646189
O O3 0.260470 0.792674 0.346213
O O4 0.000000 0.000000 0.500000
O O5 0.315205 0.392589 0.348337
O O6 0.461060 0.288231 0.100263
O O7 0.401287 0.509437 0.221580
O O8 0.673209 0.023260 0.377872
O O9 0.000000 0.500000 0.500000
O O10 0.032215 0.675981 0.475378
O O11 0.879616 0.704804 0.680260
O O12 0.610179 0.789450 0.330052
O O13 0.835262 0.532683 0.179402
O O14 0.507781 0.781976 0.143443
O O15 0.500000 0.000000 0.000000
O O16 0.207883 0.189476 0.879667
O O17 0.000000 0.500000 0.000000
O O18 0.665032 0.184649 0.924976
#
# Coordination Sequence:
#
# PCOD9102620 Si02
#       8
#     2   2   2   2   2   2   2   2
#     4  10  20  38  63  93 120 160 206 256 305 356
#     4  11  24  40  64  89 127 168 201 254 310 373
#     4  11  23  42  60  92 123 159 210 251 309 374
#     4   9  20  37  58  84 115 152 204 249 294 358
#     4  10  22  40  61  89 120 161 205 253 305 363
#     4  10  23  38  62  90 120 160 204 260 308 359
#     4  11  21  42  59  90 127 160 205 251 311 368
#     4  10  22  38  64  92 123 164 207 251 310 366
#
# _framework density 21.566879
#
# number of rings (size 3 to 8) (size 9 to 14) (size 15 to 20)
#    0.000    1.750    2.500    1.125    3.500    3.500 
#    0.000    0.000    0.000    4.500    0.000    0.000 
#    0.000    0.000    0.000    0.000    0.000    0.000 
#
# Total GULP energy -89239.232290 kJ/mol
# GULP energy per Si atom -5577.452018 kJ/mol
# Density = 2.151779 g / cm^3
# Si number density = 21.566879 Si / 1000 Ang^3
#
#
#
# Elastic Constant Matrix: (Units=GPa)
#
#
# Indices 1 2 3 4 5 6 
#
# 1 30.9596 0.9000 -6.0230 -1.3996 -17.8573 -6.6270
# 2 0.9000 53.0104 13.1435 12.2737 -11.0291 -11.1292
# 3 -6.0230 13.1435 75.0514 9.8975 -22.4607 -7.7126
# 4 -1.3996 12.2737 9.8975 28.9213 -4.6503 -3.5827
# 5 -17.8573 -11.0291 -22.4607 -4.6503 31.5389 1.5921
# 6 -6.6270 -11.1292 -7.7126 -3.5827 1.5921 32.1100
#
#
#
# Elastic Compliance Matrix: (Units=1/GPa)
#
#
# Indices 1 2 3 4 5 6 
#
# 1 0.083013 0.010345 0.027643 0.004399 0.069723 0.024392
# 2 0.010345 0.024887 0.002985 -0.007430 0.015091 0.009901
# 3 0.027643 0.002985 0.026926 -0.002126 0.034990 0.011235
# 4 0.004399 -0.007430 -0.002126 0.039583 0.004112 0.002035
# 5 0.069723 0.015091 0.034990 0.004112 0.100801 0.023486
# 6 0.024392 0.009901 0.011235 0.002035 0.023486 0.041370
#
#
# Mechanical properties :
#
#
# Convention : Reuss Voigt Hill
#
# Bulk Modulus (GPa) = 4.61313 19.45138 12.03225
# Shear Modulus (GPa) = 16.29247 28.58077 22.43662
#
# Velocity S-wave (km/s) = 2.75151 3.64430 3.22891
# Velocity P-wave (km/s) = 3.49829 5.17171 4.41501
#
# Compressibility (1/GPa) = 0.21677247
#
# Stress axis : x y z
#
# Youngs Moduli (GPa) = 12.04636 40.18170 37.13846
#
# Poissons Ratio (x) = -0.41569 -1.02660
# Poissons Ratio (y) = -0.12462 -0.11088
# Poissons Ratio (z) = -0.33299 -0.11996
#
# Static dielectric constant tensor:
#      x y z
#    x 1.842300 0.001150 0.173030 
#    y 0.001150 1.774820 0.183920 
#    z 0.173030 0.183920 -0.139840 
# 
# From -- ./inp_files/307027.got.cif
#   From: 2010.05.17/outbox.cif.g08.bks.cpg/sg2_154_cif.got.tgz:307027.got - 2010.06.03 11:33:40.
