data_PCOD9102006
_publ_section_title
;
Structure prediction by ZEFSAII (Michael W. Deem and Ramdas Pophale) SiO2 
 PCOD9102006
Probable space group: P -1
;
_chemical_formula_sum "Si O2"
_cell_formula_units_Z 14
_cell_length_a 11.030661
_cell_length_b 10.484186
_cell_length_c 9.664277
_cell_angle_alpha 65.124890
_cell_angle_beta 44.223148
_cell_angle_gamma 94.300613
_cell_volume 568.432115
_symmetry_space_group_name_H-M "P -1"
_symmetry_group_IT_number 2
_symmetry_cell_setting 'triclinic'
loop_
_space_group_symop_operation_xyz
x,y,z
-x,-y,-z
loop_
_atom_site_type_symbol
_atom_site_label
_atom_site_fract_x
_atom_site_fract_y
_atom_site_fract_z
Si Si1 0.231381 0.679816 0.265575
Si Si2 0.806058 0.563439 0.097541
Si Si3 0.825395 0.865678 0.308863
Si Si4 0.105204 0.827780 0.540243
Si Si5 0.409158 0.727542 0.819662
Si Si6 0.243299 0.198699 0.322169
Si Si7 0.382842 0.530567 0.422038
O O1 0.367770 0.624827 0.259761
O O2 0.000000 0.500000 0.500000
O O3 0.208138 0.782524 0.358406
O O4 0.310781 0.768842 0.007358
O O5 0.748855 0.420197 0.092156
O O6 0.628860 0.605836 0.221358
O O7 0.752079 0.475603 0.333500
O O8 0.043303 0.733665 0.783716
O O9 0.622496 0.875587 0.492106
O O10 0.921564 0.888262 0.372198
O O11 0.729832 0.671952 0.426309
O O12 0.000000 0.000000 0.000000
O O13 0.863647 0.746851 0.718455
O O14 0.234255 0.035494 0.348250
O O15 0.533666 0.668886 0.839726
#
# Coordination Sequence:
#
# PCOD9102006 Si02
#       7
#     2   2   2   2   2   2   2
#     4  12  23  37  60  94 127 159 197 258 310 355
#     4  10  20  38  61  91 116 161 205 253 291 363
#     4   9  18  36  62  84 115 159 205 250 292 353
#     4  11  21  36  61  89 122 159 206 247 309 358
#     4   9  21  38  61  88 122 157 204 249 299 356
#     4   9  21  37  60  87 117 163 207 251 288 372
#     4  10  22  36  63  92 122 155 208 255 304 350
#
# _framework density 24.629149999999999
#
# number of rings (size 3 to 8) (size 9 to 14) (size 15 to 20)
#    0.857    1.143    1.429    2.571    0.000    2.857 
#    0.000    0.000    0.000    7.714    0.000    0.000 
#    0.000    0.000    0.000    0.000    0.000    0.000 
#
# Total GULP energy -78017.093822 kJ/mol
# GULP energy per Si atom -5572.649559 kJ/mol
# Density = 2.457309 g / cm^3
# Si number density = 24.629150 Si / 1000 Ang^3
#
#
#
# Elastic Constant Matrix: (Units=GPa)
#
#
# Indices 1 2 3 4 5 6 
#
# 1 38.0435 8.2792 -18.8010 2.3400 2.7322 5.3053
# 2 8.2792 98.6291 53.5289 31.1330 7.3889 13.8855
# 3 -18.8010 53.5289 171.8488 35.3013 22.2605 7.9988
# 4 2.3400 31.1330 35.3013 36.0245 12.3310 2.6971
# 5 2.7322 7.3889 22.2605 12.3310 31.7756 10.2763
# 6 5.3053 13.8855 7.9988 2.6971 10.2763 25.9405
#
#
#
# Elastic Compliance Matrix: (Units=1/GPa)
#
#
# Indices 1 2 3 4 5 6 
#
# 1 0.031095 -0.004043 0.005876 -0.002812 -0.003338 -0.004392
# 2 -0.004043 0.017136 -0.003649 -0.012576 0.006551 -0.008508
# 3 0.005876 -0.003649 0.009111 -0.004711 -0.004249 0.000115
# 4 -0.002812 -0.012576 -0.004711 0.047932 -0.015318 0.009844
# 5 -0.003338 0.006551 -0.004249 -0.015318 0.044880 -0.017700
# 6 -0.004392 -0.008508 0.000115 0.009844 -0.017700 0.049955
#
#
# Mechanical properties :
#
#
# Convention : Reuss Voigt Hill
#
# Bulk Modulus (GPa) = 18.61899 43.83726 31.22812
# Shear Modulus (GPa) = 22.55869 36.44905 29.50387
#
# Velocity S-wave (km/s) = 3.02972 3.85114 3.46486
# Velocity P-wave (km/s) = 4.45142 6.13291 5.35853
#
# Compressibility (1/GPa) = 0.05370862
#
# Stress axis : x y z
#
# Youngs Moduli (GPa) = 32.15995 58.35837 109.75469
#
# Poissons Ratio (x) = 0.23594 -0.64489
# Poissons Ratio (y) = 0.13002 0.40051
# Poissons Ratio (z) = -0.18896 0.21296
#
# Static dielectric constant tensor:
#      x y z
#    x 2.066410 -0.054410 -0.044550 
#    y -0.054410 1.978020 0.064750 
#    z -0.044550 0.064750 2.107850 
# 
# From -- ./inp_files/261994.got.cif
#   From: 2010.05.17/outbox.cif.g08.bks.cpg/sg2_131_cif.got.tgz:261994.got - 2010.06.03 11:33:40.
