data_PCOD9102492
_publ_section_title
;
Structure prediction by ZEFSAII (Michael W. Deem and Ramdas Pophale) SiO2 
 PCOD9102492
Probable space group: P -1
;
_chemical_formula_sum "Si O2"
_cell_formula_units_Z 16
_cell_length_a 23.338277
_cell_length_b 8.926357
_cell_length_c 23.184400
_cell_angle_alpha 144.895810
_cell_angle_beta 17.714400
_cell_angle_gamma 138.180347
_cell_volume 828.945383
_symmetry_space_group_name_H-M "P -1"
_symmetry_group_IT_number 2
_symmetry_cell_setting 'triclinic'
loop_
_space_group_symop_operation_xyz
x,y,z
-x,-y,-z
loop_
_atom_site_type_symbol
_atom_site_label
_atom_site_fract_x
_atom_site_fract_y
_atom_site_fract_z
Si Si1 0.565682 0.270360 0.708105
Si Si2 0.492972 0.249749 0.468752
Si Si3 0.698102 0.403549 0.743480
Si Si4 0.155464 0.630528 0.200597
Si Si5 0.869994 0.286774 0.328288
Si Si6 0.834936 0.258288 0.228331
Si Si7 0.046783 0.202282 0.430631
Si Si8 0.077962 0.332710 0.927335
O O1 0.644097 0.241854 0.688995
O O2 0.724085 0.360716 0.543792
O O3 0.524277 0.000394 0.633759
O O4 0.372565 0.490715 0.960847
O O5 0.500000 0.500000 0.500000
O O6 0.671018 0.196875 0.324582
O O7 0.302958 0.318697 0.711951
O O8 0.794662 0.642446 0.699258
O O9 0.867024 0.240900 0.570592
O O10 0.500000 0.500000 0.000000
O O11 0.047651 0.431025 0.207053
O O12 0.045485 0.680045 0.383031
O O13 0.135680 0.899601 0.267377
O O14 0.765629 0.353541 0.387934
O O15 0.941290 0.969508 0.162758
O O16 0.950580 0.441360 0.138585
O O17 0.000000 0.000000 0.000000
O O18 0.000000 0.500000 0.000000
#
# Coordination Sequence:
#
# PCOD9102492 Si02
#       8
#     2   2   2   2   2   2   2   2
#     4  11  23  39  66  90 128 170 207 263 322 372
#     4  11  23  39  62  94 127 168 216 255 313 383
#     4  11  22  44  66  97 127 164 206 269 328 381
#     4  11  22  42  65  94 124 169 212 261 318 385
#     4  10  23  39  62  90 130 163 217 258 309 381
#     4  10  21  39  61  87 124 166 210 262 309 365
#     4  10  24  41  67  93 125 163 211 263 324 386
#     4  10  20  38  63  87 120 172 206 262 318 362
#
# _framework density 19.301634
#
# number of rings (size 3 to 8) (size 9 to 14) (size 15 to 20)
#    0.000    1.500    3.750    1.500    0.000    8.000 
#    0.000    1.250    0.000    0.000    0.000    0.000 
#    0.000    0.000    0.000    0.000    0.000    0.000 
#
# Total GULP energy -89244.094256 kJ/mol
# GULP energy per Si atom -5577.755891 kJ/mol
# Density = 1.925770 g / cm^3
# Si number density = 19.301634 Si / 1000 Ang^3
#
#
#
# Elastic Constant Matrix: (Units=GPa)
#
#
# Indices 1 2 3 4 5 6 
#
# 1 153.9322 40.9840 35.8847 -7.5062 -12.7409 -1.3873
# 2 40.9840 77.3595 29.7670 -2.2268 -11.2327 -12.1651
# 3 35.8847 29.7670 83.5696 -16.0680 -8.5878 -2.4808
# 4 -7.5062 -2.2268 -16.0680 21.8402 -5.0915 -3.1495
# 5 -12.7409 -11.2327 -8.5878 -5.0915 39.8398 -8.6517
# 6 -1.3873 -12.1651 -2.4808 -3.1495 -8.6517 32.0411
#
#
#
# Elastic Compliance Matrix: (Units=1/GPa)
#
#
# Indices 1 2 3 4 5 6 
#
# 1 0.007994 -0.003402 -0.001886 0.001200 0.001203 -0.000649
# 2 -0.003402 0.018322 -0.004408 -0.000320 0.004764 0.007723
# 3 -0.001886 -0.004408 0.017265 0.012793 0.003923 0.001898
# 4 0.001200 -0.000320 0.012793 0.060093 0.012975 0.010331
# 5 0.001203 0.004764 0.003923 0.012975 0.031953 0.012068
# 6 -0.000649 0.007723 0.001898 0.010331 0.012068 0.038535
#
#
# Mechanical properties :
#
#
# Convention : Reuss Voigt Hill
#
# Bulk Modulus (GPa) = 41.34041 58.68139 50.01090
# Shear Modulus (GPa) = 24.79943 32.62595 28.71269
#
# Velocity S-wave (km/s) = 3.58835 4.11581 3.86110
# Velocity P-wave (km/s) = 6.21554 7.28387 6.77081
#
# Compressibility (1/GPa) = 0.02418941
#
# Stress axis : x y z
#
# Youngs Moduli (GPa) = 125.09259 54.57848 57.92060
#
# Poissons Ratio (x) = 0.18570 0.10921
# Poissons Ratio (y) = 0.42561 0.25532
# Poissons Ratio (z) = 0.23587 0.24058
#
# Static dielectric constant tensor:
#      x y z
#    x 1.683070 -0.003750 0.024160 
#    y -0.003750 1.684270 -0.023010 
#    z 0.024160 -0.023010 1.701460 
# 
# From -- ./inp_files/495206.got.cif
#   From: 2010.05.17/outbox.cif.g08.bks.cpg/sg2_248_cif.got.tgz:495206.got - 2010.06.03 11:33:40.
