data_PCOD9102827
_publ_section_title
;
Structure prediction by ZEFSAII (Michael W. Deem and Ramdas Pophale) SiO2 
 PCOD9102827
Probable space group: P -1
;
_chemical_formula_sum "Si O2"
_cell_formula_units_Z 16
_cell_length_a 18.815698
_cell_length_b 8.799467
_cell_length_c 6.659062
_cell_angle_alpha 76.684161
_cell_angle_beta 55.477346
_cell_angle_gamma 50.075170
_cell_volume 680.918360
_symmetry_space_group_name_H-M "P -1"
_symmetry_group_IT_number 2
_symmetry_cell_setting 'triclinic'
loop_
_space_group_symop_operation_xyz
x,y,z
-x,-y,-z
loop_
_atom_site_type_symbol
_atom_site_label
_atom_site_fract_x
_atom_site_fract_y
_atom_site_fract_z
Si Si1 0.966489 0.586805 0.256572
Si Si2 0.975010 0.197394 0.069893
Si Si3 0.886195 0.362822 0.573036
Si Si4 0.746477 0.004550 0.658819
Si Si5 0.377882 0.714870 0.595192
Si Si6 0.655913 0.782508 0.872180
Si Si7 0.449188 0.970799 0.405394
Si Si8 0.168943 0.902566 0.122645
O O1 0.967565 0.422231 0.426705
O O2 0.844137 0.801480 0.438549
O O3 0.041948 0.656249 0.123247
O O4 0.000000 0.500000 0.000000
O O5 0.881853 0.325212 0.351099
O O6 0.089797 0.093047 0.044603
O O7 0.000000 0.000000 0.000000
O O8 0.769270 0.559847 0.781716
O O9 0.899292 0.177211 0.702225
O O10 0.672452 0.203230 0.574202
O O11 0.801551 0.039314 0.738960
O O12 0.671266 0.944684 0.871552
O O13 0.500000 0.500000 0.500000
O O14 0.388979 0.882623 0.592547
O O15 0.284276 0.739067 0.870923
O O16 0.631115 0.829836 0.661010
O O17 0.552827 0.818800 0.134883
O O18 0.500000 0.000000 0.500000
#
# Coordination Sequence:
#
# PCOD9102827 Si02
#       8
#     2   2   2   2   2   2   2   2
#     4   9  19  41  66  91 131 168 211 265 318 380
#     4  11  23  44  68  93 131 174 213 267 329 387
#     4  10  22  39  62  96 127 162 216 263 315 385
#     4  10  21  41  66  91 134 172 213 270 317 385
#     4  11  24  40  64  94 132 171 217 265 326 381
#     4   9  20  40  60  91 130 163 211 268 313 378
#     4  10  20  38  64  89 125 169 212 258 322 379
#     4  12  24  41  68  95 130 173 218 264 329 382
#
# _framework density 23.497679999999999
#
# number of rings (size 3 to 8) (size 9 to 14) (size 15 to 20)
#    0.000    1.750    1.250    2.625    0.000    1.500 
#    2.250   12.500    0.000    0.000    0.000    0.000 
#    0.000    0.000    0.000    0.000    0.000    0.000 
#
# Total GULP energy -89253.999384 kJ/mol
# GULP energy per Si atom -5578.374962 kJ/mol
# Density = 2.344420 g / cm^3
# Si number density = 23.497680 Si / 1000 Ang^3
#
#
#
# Elastic Constant Matrix: (Units=GPa)
#
#
# Indices 1 2 3 4 5 6 
#
# 1 118.6846 35.4422 18.1478 -9.5780 24.1683 8.2404
# 2 35.4422 109.2170 47.4531 -10.6293 0.8586 -8.0877
# 3 18.1478 47.4531 86.0157 -17.8174 -12.9230 2.2904
# 4 -9.5780 -10.6293 -17.8174 42.3758 0.0690 -16.8468
# 5 24.1683 0.8586 -12.9230 0.0690 44.7725 -3.4460
# 6 8.2404 -8.0877 2.2904 -16.8468 -3.4460 51.8672
#
#
#
# Elastic Compliance Matrix: (Units=1/GPa)
#
#
# Indices 1 2 3 4 5 6 
#
# 1 0.011104 -0.003058 -0.001562 0.000068 -0.006585 -0.002587
# 2 -0.003058 0.013379 -0.006622 0.001163 -0.000271 0.003224
# 3 -0.001562 -0.006622 0.017687 0.005686 0.006120 0.000688
# 4 0.000068 0.001163 0.005686 0.030224 0.002297 0.009889
# 5 -0.006585 -0.000271 0.006120 0.002297 0.027915 0.003334
# 6 -0.002587 0.003224 0.000688 0.009889 0.003334 0.023597
#
#
# Mechanical properties :
#
#
# Convention : Reuss Voigt Hill
#
# Bulk Modulus (GPa) = 50.79391 57.33371 54.06381
# Shear Modulus (GPa) = 32.68994 41.99472 37.34233
#
# Velocity S-wave (km/s) = 3.73392 4.23210 3.99079
# Velocity P-wave (km/s) = 6.34453 6.95224 6.65532
#
# Compressibility (1/GPa) = 0.01968740
#
# Stress axis : x y z
#
# Youngs Moduli (GPa) = 90.05887 74.74146 56.53732
#
# Poissons Ratio (x) = 0.22854 0.08832
# Poissons Ratio (y) = 0.27538 0.37437
# Poissons Ratio (z) = 0.14069 0.49491
#
# Static dielectric constant tensor:
#      x y z
#    x 1.948830 0.031890 0.005700 
#    y 0.031890 1.891350 -0.031670 
#    z 0.005700 -0.031670 1.933800 
# 
# From -- ./inp_files/116897.got.cif
#   From: 2010.05.17/outbox.cif.g08.bks.cpg/sg2_59_cif.got.tgz:116897.got - 2010.06.03 11:33:40.
