data_PCOD9102880
_publ_section_title
;
Structure prediction by ZEFSAII (Michael W. Deem and Ramdas Pophale) SiO2 
 PCOD9102880
Probable space group: P -1
;
_chemical_formula_sum "Si O2"
_cell_formula_units_Z 16
_cell_length_a 5.212405
_cell_length_b 8.363565
_cell_length_c 14.183770
_cell_angle_alpha 76.887379
_cell_angle_beta 85.325031
_cell_angle_gamma 92.106524
_cell_volume 599.232539
_symmetry_space_group_name_H-M "P -1"
_symmetry_group_IT_number 2
_symmetry_cell_setting 'triclinic'
loop_
_space_group_symop_operation_xyz
x,y,z
-x,-y,-z
loop_
_atom_site_type_symbol
_atom_site_label
_atom_site_fract_x
_atom_site_fract_y
_atom_site_fract_z
Si Si1 0.654089 0.743358 0.723802
Si Si2 0.305302 0.466191 0.736504
Si Si3 0.025297 0.235206 0.917657
Si Si4 0.502070 0.830510 0.968647
Si Si5 0.274448 0.012227 0.630558
Si Si6 0.420176 0.657704 0.423372
Si Si7 0.041536 0.710989 0.568800
Si Si8 0.097374 0.045046 0.189834
O O1 0.472144 0.590224 0.782715
O O2 0.908440 0.778649 0.777505
O O3 0.759316 0.693995 0.624008
O O4 0.495438 0.903271 0.683377
O O5 0.090654 0.361482 0.814856
O O6 0.503667 0.356314 0.687140
O O7 0.182154 0.579887 0.646924
O O8 0.263406 0.256899 0.979165
O O9 0.770927 0.256304 0.985163
O O10 0.002516 0.055595 0.886940
O O11 0.603662 0.901409 0.856014
O O12 0.500000 0.000000 0.000000
O O13 0.415015 0.179698 0.570249
O O14 0.146525 0.893825 0.571233
O O15 0.056429 0.052531 0.709456
O O16 0.500000 0.500000 0.500000
O O17 0.127006 0.680448 0.463282
#
# Coordination Sequence:
#
# PCOD9102880 Si02
#       8
#     2   2   2   2   2   2   2   2
#     4  10  23  39  63  89 134 174 220 265 330 407
#     4  10  22  41  63  94 130 175 216 278 339 390
#     4  11  23  40  69 102 135 171 225 283 336 391
#     4  10  23  39  66 102 136 170 223 283 329 401
#     4  10  20  38  64  91 126 174 216 265 331 403
#     4  10  20  38  64  92 128 167 218 279 330 393
#     4   9  21  40  60  89 130 173 217 274 324 404
#     4  10  21  39  65  94 125 173 216 268 329 398
#
# _framework density 26.700821000000001
#
# number of rings (size 3 to 8) (size 9 to 14) (size 15 to 20)
#    0.000    2.000    1.250    1.875    7.000    1.000 
#    0.000    3.750    0.000    0.000    0.000    0.000 
#    0.000    0.000    0.000    0.000    0.000    0.000 
#
# Total GULP energy -89139.931796 kJ/mol
# GULP energy per Si atom -5571.245737 kJ/mol
# Density = 2.664005 g / cm^3
# Si number density = 26.700821 Si / 1000 Ang^3
#
#
#
# Elastic Constant Matrix: (Units=GPa)
#
#
# Indices 1 2 3 4 5 6 
#
# 1 125.2897 30.3159 73.3112 -12.2414 -25.8693 2.5116
# 2 30.3159 84.9110 22.8580 -25.5964 -11.2866 18.9673
# 3 73.3112 22.8580 131.5024 -16.3354 -46.9999 -16.7718
# 4 -12.2414 -25.5964 -16.3354 34.3308 9.8281 -12.9595
# 5 -25.8693 -11.2866 -46.9999 9.8281 52.3596 0.2608
# 6 2.5116 18.9673 -16.7718 -12.9595 0.2608 32.7602
#
#
#
# Elastic Compliance Matrix: (Units=1/GPa)
#
#
# Indices 1 2 3 4 5 6 
#
# 1 0.012889 -0.002230 -0.007994 -0.002430 -0.000808 -0.004744
# 2 -0.002230 0.017209 -0.001840 0.008564 -0.000615 -0.007342
# 3 -0.007994 -0.001840 0.019143 0.006939 0.011464 0.014132
# 4 -0.002430 0.008564 0.006939 0.044607 -0.001581 0.016439
# 5 -0.000808 -0.000615 0.011464 -0.001581 0.029127 0.005430
# 6 -0.004744 -0.007342 0.014132 0.016439 0.005430 0.048834
#
#
# Mechanical properties :
#
#
# Convention : Reuss Voigt Hill
#
# Bulk Modulus (GPa) = 39.82226 66.07482 52.94854
# Shear Modulus (GPa) = 24.47291 38.23798 31.35544
#
# Velocity S-wave (km/s) = 3.03076 3.78840 3.43056
# Velocity P-wave (km/s) = 5.21478 6.62843 5.96364
#
# Compressibility (1/GPa) = 0.02511158
#
# Stress axis : x y z
#
# Youngs Moduli (GPa) = 77.58295 58.11059 52.23970
#
# Poissons Ratio (x) = 0.12959 0.41760
# Poissons Ratio (y) = 0.17302 0.09614
# Poissons Ratio (z) = 0.62019 0.10695
#
# Static dielectric constant tensor:
#      x y z
#    x 2.204310 -0.051920 -0.038440 
#    y -0.051920 1.966510 -0.167010 
#    z -0.038440 -0.167010 1.723140 
# 
# From -- ./inp_files/548022.got.cif
#   From: 2010.05.17/outbox.cif.g08.bks.cpg/sg2_275_cif.got.tgz:548022.got - 2010.06.03 11:33:40.
