data_PCOD9103339
_publ_section_title
;
Structure prediction by ZEFSAII (Michael W. Deem and Ramdas Pophale) SiO2 
 PCOD9103339
Probable space group: P -1
;
_chemical_formula_sum "Si O2"
_cell_formula_units_Z 12
_cell_length_a 10.899314
_cell_length_b 13.371996
_cell_length_c 8.615735
_cell_angle_alpha 124.492076
_cell_angle_beta 133.870586
_cell_angle_gamma 33.068616
_cell_volume 493.606754
_symmetry_space_group_name_H-M "P -1"
_symmetry_group_IT_number 2
_symmetry_cell_setting 'triclinic'
loop_
_space_group_symop_operation_xyz
x,y,z
-x,-y,-z
loop_
_atom_site_type_symbol
_atom_site_label
_atom_site_fract_x
_atom_site_fract_y
_atom_site_fract_z
Si Si1 0.124259 0.200744 0.458381
Si Si2 0.731197 0.516060 0.839479
Si Si3 0.326852 0.471000 0.837379
Si Si4 0.249931 0.941707 0.110544
Si Si5 0.731918 0.798124 0.096049
Si Si6 0.162424 0.856169 0.654187
O O1 0.283463 0.183286 0.714449
O O2 0.894541 0.406264 0.375393
O O3 0.007585 0.147955 0.402332
O O4 0.239006 0.079891 0.297111
O O5 0.430749 0.646858 0.661635
O O6 0.974756 0.322035 0.801753
O O7 0.770821 0.480695 0.028559
O O8 0.727248 0.660922 0.918778
O O9 0.510150 0.259321 0.787138
O O10 0.500000 0.500000 0.000000
O O11 0.239461 0.923102 0.900932
O O12 0.000000 0.000000 0.000000
O O13 0.500000 0.000000 0.000000
O O14 0.000000 0.000000 0.500000
#
# Coordination Sequence:
#
# PCOD9103339 Si02
#       6
#     2   2   2   2   2   2
#     4  11  23  40  66  97 129 175 215 273 341 388
#     4  10  24  45  67  95 134 176 222 280 323 403
#     4  11  20  41  67  97 131 164 217 275 338 391
#     4   9  19  36  59  93 134 160 205 270 323 394
#     4  11  26  47  65  93 137 181 229 268 331 398
#     4  10  20  38  66 100 129 169 219 275 334 386
#
# _framework density 24.310851
#
# number of rings (size 3 to 8) (size 9 to 14) (size 15 to 20)
#    0.000    1.667    5.000    1.000    0.000   10.667 
#    0.000    5.833    0.000    0.000    0.000    0.000 
#    0.000    0.000    0.000    0.000    0.000    0.000 
#
# Total GULP energy -67122.757831 kJ/mol
# GULP energy per Si atom -5593.563153 kJ/mol
# Density = 2.425552 g / cm^3
# Si number density = 24.310851 Si / 1000 Ang^3
#
#
#
# Elastic Constant Matrix: (Units=GPa)
#
#
# Indices 1 2 3 4 5 6 
#
# 1 72.3203 28.6173 -0.0978 -15.8029 -7.7592 -4.5233
# 2 28.6173 174.7350 74.4654 -23.4001 -34.1122 -5.3713
# 3 -0.0978 74.4654 128.9841 -28.1919 -21.7027 7.9445
# 4 -15.8029 -23.4001 -28.1919 50.8911 15.5938 -13.7132
# 5 -7.7592 -34.1122 -21.7027 15.5938 38.3772 -2.0778
# 6 -4.5233 -5.3713 7.9445 -13.7132 -2.0778 45.3750
#
#
#
# Elastic Compliance Matrix: (Units=1/GPa)
#
#
# Indices 1 2 3 4 5 6 
#
# 1 0.016534 -0.003083 0.002949 0.006067 -0.000054 0.002598
# 2 -0.003083 0.009221 -0.004648 -0.000429 0.005211 0.001707
# 3 0.002949 -0.004648 0.011706 0.004691 0.001134 -0.000836
# 4 0.006067 -0.000429 0.004691 0.028417 -0.007617 0.007972
# 5 -0.000054 0.005211 0.001134 -0.007617 0.034397 -0.000314
# 6 0.002598 0.001707 -0.000836 0.007972 -0.000314 0.025041
#
#
# Mechanical properties :
#
#
# Convention : Reuss Voigt Hill
#
# Bulk Modulus (GPa) = 35.84543 64.66768 50.25656
# Shear Modulus (GPa) = 34.67926 45.13229 39.90577
#
# Velocity S-wave (km/s) = 3.78099 4.31335 4.05591
# Velocity P-wave (km/s) = 5.81703 7.17389 6.53079
#
# Compressibility (1/GPa) = 0.02789756
#
# Stress axis : x y z
#
# Youngs Moduli (GPa) = 60.48263 108.44839 85.42670
#
# Poissons Ratio (x) = 0.33434 -0.25195
# Poissons Ratio (y) = 0.18646 0.39705
# Poissons Ratio (z) = -0.17838 0.50406
#
# Static dielectric constant tensor:
#      x y z
#    x 2.062830 -0.057700 0.076710 
#    y -0.057700 1.928590 0.030170 
#    z 0.076710 0.030170 1.971730 
# 
# From -- ./inp_files/231390.got.cif
#   From: 2010.05.17/outbox.cif.g08.bks.cpg/sg2_116_cif.got.tgz:231390.got - 2010.06.03 11:33:40.
