data_PCOD9103961
_publ_section_title
;
Structure prediction by ZEFSAII (Michael W. Deem and Ramdas Pophale) SiO2 
 PCOD9103961
Probable space group: P -1
;
_chemical_formula_sum "Si O2"
_cell_formula_units_Z 11
_cell_length_a 9.255478
_cell_length_b 8.169193
_cell_length_c 11.190816
_cell_angle_alpha 135.193485
_cell_angle_beta 55.348205
_cell_angle_gamma 134.480414
_cell_volume 421.122647
_symmetry_space_group_name_H-M "P -1"
_symmetry_group_IT_number 2
_symmetry_cell_setting 'triclinic'
loop_
_space_group_symop_operation_xyz
x,y,z
-x,-y,-z
loop_
_atom_site_type_symbol
_atom_site_label
_atom_site_fract_x
_atom_site_fract_y
_atom_site_fract_z
Si Si1 0.064347 0.188327 0.715687
Si Si2 0.500000 0.000000 0.000000
Si Si3 0.931963 0.301655 0.082430
Si Si4 0.662228 0.640114 0.661377
Si Si5 0.422537 0.067116 0.448918
Si Si6 0.308527 0.499720 0.153194
O O1 0.062950 0.417771 0.756101
O O2 0.236885 0.112838 0.587557
O O3 0.854182 0.903344 0.652616
O O4 0.064510 0.308659 0.908632
O O5 0.704629 0.076331 0.030914
O O6 0.498775 0.263762 0.189284
O O7 0.076276 0.296751 0.114857
O O8 0.588765 0.365371 0.479982
O O9 0.700355 0.559580 0.733037
O O10 0.500000 0.000000 0.500000
O O11 0.360150 0.807194 0.263352
O O12 0.500000 0.500000 0.000000
#
# Coordination Sequence:
#
# PCOD9103961 Si02
#       6
#     2   1   2   2   2   2
#     4  10  21  39  69  92 125 176 218 260 328 389
#     4  10  20  38  70  92 126 172 220 256 322 390
#     4  10  21  40  67  96 131 172 218 268 319 395
#     4  10  22  41  68  95 126 175 217 264 326 396
#     4  10  21  41  65  93 134 169 214 271 325 393
#     4  11  25  41  66  98 135 169 219 278 324 380
#
# _framework density 26.120657999999999
#
# number of rings (size 3 to 8) (size 9 to 14) (size 15 to 20)
#    0.000    1.818    1.818    2.182    5.091    6.545 
#    0.000    4.545    0.000    0.000    0.000    0.000 
#    0.000    0.000    0.000    0.000    0.000    0.000 
#
# Total GULP energy -61255.306952 kJ/mol
# GULP energy per Si atom -5568.664268 kJ/mol
# Density = 2.606121 g / cm^3
# Si number density = 26.120658 Si / 1000 Ang^3
#
#
#
# Elastic Constant Matrix: (Units=GPa)
#
#
# Indices 1 2 3 4 5 6 
#
# 1 164.7530 27.2310 60.0832 2.6321 -13.1316 26.9264
# 2 27.2310 101.2700 53.1303 36.8759 -12.4647 15.7487
# 3 60.0832 53.1303 183.5466 47.3452 -37.2029 5.9140
# 4 2.6321 36.8759 47.3452 56.0655 -3.8077 2.4279
# 5 -13.1316 -12.4647 -37.2029 -3.8077 44.8169 -0.6747
# 6 26.9264 15.7487 5.9140 2.4279 -0.6747 30.3863
#
#
#
# Elastic Compliance Matrix: (Units=1/GPa)
#
#
# Indices 1 2 3 4 5 6 
#
# 1 0.008351 -0.000667 -0.003127 0.002965 -0.000183 -0.006687
# 2 -0.000667 0.015004 -0.001380 -0.008265 0.002036 -0.006211
# 3 -0.003127 -0.001380 0.009878 -0.006954 0.006343 0.002260
# 4 0.002965 -0.008265 -0.006954 0.028656 -0.004759 0.000615
# 5 -0.000183 0.002036 0.006343 -0.004759 0.027670 -0.001133
# 6 -0.006687 -0.006211 0.002260 0.000615 -0.001133 0.041540
#
#
# Mechanical properties :
#
#
# Convention : Reuss Voigt Hill
#
# Bulk Modulus (GPa) = 43.69756 81.16207 62.42981
# Shear Modulus (GPa) = 33.54022 46.86208 40.20115
#
# Velocity S-wave (km/s) = 3.58725 4.24023 3.92734
# Velocity P-wave (km/s) = 5.82437 7.42376 6.67216
#
# Compressibility (1/GPa) = 0.02288457
#
# Stress axis : x y z
#
# Youngs Moduli (GPa) = 119.74264 66.64921 101.23654
#
# Poissons Ratio (x) = 0.04447 0.31656
# Poissons Ratio (y) = 0.07989 0.13971
# Poissons Ratio (z) = 0.37443 0.09198
#
# Static dielectric constant tensor:
#      x y z
#    x 1.998800 -0.030340 0.041740 
#    y -0.030340 2.173470 -0.013280 
#    z 0.041740 -0.013280 2.033570 
# 
# From -- ./inp_files/301826.got.cif
#   From: 2010.05.17/outbox.cif.g08.bks.cpg/sg2_151_cif.got.tgz:301826.got - 2010.06.03 11:33:40.
