data_PCOD9103263
_publ_section_title
;
Structure prediction by ZEFSAII (Michael W. Deem and Ramdas Pophale) SiO2 
 PCOD9103263
Probable space group: P -1
;
_chemical_formula_sum "Si O2"
_cell_formula_units_Z 16
_cell_length_a 14.740599
_cell_length_b 17.043353
_cell_length_c 11.776374
_cell_angle_alpha 160.914857
_cell_angle_beta 47.404991
_cell_angle_gamma 128.186505
_cell_volume 709.320110
_symmetry_space_group_name_H-M "P -1"
_symmetry_group_IT_number 2
_symmetry_cell_setting 'triclinic'
loop_
_space_group_symop_operation_xyz
x,y,z
-x,-y,-z
loop_
_atom_site_type_symbol
_atom_site_label
_atom_site_fract_x
_atom_site_fract_y
_atom_site_fract_z
Si Si1 0.709347 0.217881 0.445245
Si Si2 0.192167 0.424183 0.701353
Si Si3 0.927008 0.026862 0.715567
Si Si4 0.220284 0.499427 0.436941
Si Si5 0.403076 0.249104 0.128292
Si Si6 0.925124 0.788658 0.701739
Si Si7 0.136851 0.919181 0.561236
Si Si8 0.391896 0.856042 0.338623
O O1 0.732887 0.428693 0.627447
O O2 0.830104 0.023246 0.078876
O O3 0.662198 0.290065 0.710369
O O4 0.609999 0.037480 0.238052
O O5 0.142692 0.211915 0.528199
O O6 0.331527 0.368334 0.459609
O O7 0.108037 0.400788 0.627613
O O8 0.170145 0.675125 0.126601
O O9 0.033281 0.063248 0.769474
O O10 0.000000 0.000000 0.500000
O O11 0.823688 0.246908 0.119389
O O12 0.322079 0.355420 0.233762
O O13 0.103522 0.339728 0.331919
O O14 0.540575 0.278078 0.008555
O O15 0.061925 0.847510 0.638246
O O16 0.268720 0.008128 0.604304
O O17 0.500000 0.000000 0.500000
#
# Coordination Sequence:
#
# PCOD9103263 Si02
#       8
#     2   2   2   2   2   2   2   2
#     4   9  17  36  58  83 110 155 193 240 284 334
#     4   9  17  33  55  85 120 143 177 239 295 348
#     4  11  18  31  60  94 122 143 175 235 309 364
#     4  10  16  32  61  85 115 149 184 230 300 345
#     4   9  19  36  58  85 110 155 201 233 282 335
#     4   9  18  33  57  93 119 141 179 237 305 360
#     4  11  20  35  58  89 120 152 187 237 293 346
#     4  10  23  40  61  76 110 168 210 234 270 326
#
# _framework density 22.556811
#
# number of rings (size 3 to 8) (size 9 to 14) (size 15 to 20)
#    0.000    2.500    3.750    3.750    0.000    1.500 
#    0.000    0.625   24.750    1.500    0.000    0.000 
#    0.000    0.000    0.000    0.000    0.000    0.000 
#
# Total GULP energy -89195.619020 kJ/mol
# GULP energy per Si atom -5574.726189 kJ/mol
# Density = 2.250547 g / cm^3
# Si number density = 22.556811 Si / 1000 Ang^3
#
#
#
# Elastic Constant Matrix: (Units=GPa)
#
#
# Indices 1 2 3 4 5 6 
#
# 1 69.4001 39.2780 8.3411 8.2984 5.0777 13.1362
# 2 39.2780 201.9975 43.7161 -26.8148 -12.0294 -14.7108
# 3 8.3411 43.7161 58.9862 1.7593 -4.8370 7.1366
# 4 8.2984 -26.8148 1.7593 43.0738 5.4084 -12.9287
# 5 5.0777 -12.0294 -4.8370 5.4084 27.2684 -2.8295
# 6 13.1362 -14.7108 7.1366 -12.9287 -2.8295 34.9705
#
#
#
# Elastic Compliance Matrix: (Units=1/GPa)
#
#
# Indices 1 2 3 4 5 6 
#
# 1 0.028051 -0.012143 0.008042 -0.019896 -0.007831 -0.025276
# 2 -0.012143 0.013389 -0.010533 0.016083 0.005050 0.018698
# 3 0.008042 -0.010533 0.026224 -0.014590 -0.000491 -0.018237
# 4 -0.019896 0.016083 -0.014590 0.047902 0.002355 0.035116
# 5 -0.007831 0.005050 -0.000491 0.002355 0.040773 0.009335
# 6 -0.025276 0.018698 -0.018237 0.035116 0.009335 0.063415
#
#
# Mechanical properties :
#
#
# Convention : Reuss Voigt Hill
#
# Bulk Modulus (GPa) = 26.04487 57.00602 41.52544
# Shear Modulus (GPa) = 19.09704 36.99910 28.04807
#
# Velocity S-wave (km/s) = 2.91283 4.05441 3.53007
# Velocity P-wave (km/s) = 4.78374 6.87348 5.92152
#
# Compressibility (1/GPa) = 0.03839528
#
# Stress axis : x y z
#
# Youngs Moduli (GPa) = 35.64884 74.68947 38.13336
#
# Poissons Ratio (x) = 0.90697 -0.30668
# Poissons Ratio (y) = 0.43289 0.40167
# Poissons Ratio (z) = -0.28670 0.78673
#
# Static dielectric constant tensor:
#      x y z
#    x 1.881160 0.020500 0.050580 
#    y 0.020500 1.899450 -0.030700 
#    z 0.050580 -0.030700 1.896220 
# 
# From -- ./inp_files/457036.got.cif
#   From: 2010.05.17/outbox.cif.g08.bks.cpg/sg2_229_cif.got.tgz:457036.got - 2010.06.03 11:33:40.
