data_PCOD9103707
_publ_section_title
;
Structure prediction by ZEFSAII (Michael W. Deem and Ramdas Pophale) SiO2 
 PCOD9103707
Probable space group: P -1
;
_chemical_formula_sum "Si O2"
_cell_formula_units_Z 16
_cell_length_a 20.082126
_cell_length_b 24.514513
_cell_length_c 8.010580
_cell_angle_alpha 43.380999
_cell_angle_beta 145.628105
_cell_angle_gamma 159.398246
_cell_volume 762.305541
_symmetry_space_group_name_H-M "P -1"
_symmetry_group_IT_number 2
_symmetry_cell_setting 'triclinic'
loop_
_space_group_symop_operation_xyz
x,y,z
-x,-y,-z
loop_
_atom_site_type_symbol
_atom_site_label
_atom_site_fract_x
_atom_site_fract_y
_atom_site_fract_z
Si Si1 0.468650 0.240344 0.659287
Si Si2 0.337618 0.474135 0.650014
Si Si3 0.574703 0.181385 0.719286
Si Si4 0.824912 0.176589 0.351227
Si Si5 0.255517 0.894194 0.295885
Si Si6 0.446084 0.179378 0.132982
Si Si7 0.770882 0.651142 0.657065
Si Si8 0.061059 0.071070 0.650137
O O1 0.549919 0.373513 0.466283
O O2 0.578860 0.239543 0.762402
O O3 0.522519 0.258198 0.932357
O O4 0.181291 0.072394 0.429266
O O5 0.257130 0.407464 0.445783
O O6 0.101782 0.330230 0.587963
O O7 0.500000 0.500000 0.000000
O O8 0.619164 0.251498 0.478719
O O9 0.317566 0.986413 0.628080
O O10 0.748888 0.207640 0.018136
O O11 0.752846 0.153969 0.438611
O O12 0.500000 0.000000 0.500000
O O13 0.303367 0.016180 0.150977
O O14 0.994366 0.739110 0.016663
O O15 0.282718 0.144067 0.982416
O O16 0.500000 0.500000 0.500000
O O17 0.853356 0.789542 0.494748
O O18 0.000000 0.000000 0.500000
#
# Coordination Sequence:
#
# PCOD9103707 Si02
#       8
#     2   2   2   2   2   2   2   2
#     4  11  23  44  66  98 138 185 238 284 349 430
#     4  12  29  44  65 100 147 185 230 296 365 419
#     4  10  23  42  73  95 135 178 233 292 349 413
#     4  10  24  44  67 104 139 173 238 290 353 425
#     4  11  23  42  75 104 138 184 235 290 351 426
#     4  10  22  39  70  99 129 174 239 288 339 416
#     4  12  24  42  72 103 142 184 232 294 361 412
#     4  10  20  38  67  98 133 174 238 290 341 423
#
# _framework density 20.988959999999999
#
# number of rings (size 3 to 8) (size 9 to 14) (size 15 to 20)
#    0.000    1.250    2.500    3.750   10.500    1.000 
#    2.250    0.625    0.000    0.000    0.000    0.000 
#    0.000    0.000    0.000    0.000    0.000    0.000 
#
# Total GULP energy -89128.879853 kJ/mol
# GULP energy per Si atom -5570.554991 kJ/mol
# Density = 2.094119 g / cm^3
# Si number density = 20.988960 Si / 1000 Ang^3
#
#
#
# Elastic Constant Matrix: (Units=GPa)
#
#
# Indices 1 2 3 4 5 6 
#
# 1 84.8144 8.4440 10.4301 5.2454 6.4975 0.1927
# 2 8.4440 68.6284 17.9529 3.9074 22.4317 -17.9550
# 3 10.4301 17.9529 101.8409 -10.5451 4.2005 0.4574
# 4 5.2454 3.9074 -10.5451 25.9992 2.3390 11.0602
# 5 6.4975 22.4317 4.2005 2.3390 27.3729 3.9964
# 6 0.1927 -17.9550 0.4574 11.0602 3.9964 29.4035
#
#
#
# Elastic Compliance Matrix: (Units=1/GPa)
#
#
# Indices 1 2 3 4 5 6 
#
# 1 0.012426 0.000990 -0.001743 -0.004147 -0.003517 0.002588
# 2 0.000990 0.038198 -0.007823 -0.021428 -0.033776 0.036092
# 3 -0.001743 -0.007823 0.012232 0.010025 0.005474 -0.009471
# 4 -0.004147 -0.021428 0.010025 0.061487 0.017404 -0.038708
# 5 -0.003517 -0.033776 0.005474 0.017404 0.068045 -0.036482
# 6 0.002588 0.036092 -0.009471 -0.038708 -0.036482 0.075697
#
#
# Mechanical properties :
#
#
# Convention : Reuss Voigt Hill
#
# Bulk Modulus (GPa) = 21.88007 36.54864 29.21435
# Shear Modulus (GPa) = 16.64045 31.11892 23.87968
#
# Velocity S-wave (km/s) = 2.81876 3.85467 3.37668
# Velocity P-wave (km/s) = 4.58705 6.10430 5.39924
#
# Compressibility (1/GPa) = 0.04570370
#
# Stress axis : x y z
#
# Youngs Moduli (GPa) = 80.47453 26.17915 81.75547
#
# Poissons Ratio (x) = -0.02591 0.14251
# Poissons Ratio (y) = -0.07965 0.63956
# Poissons Ratio (z) = 0.14028 0.20480
#
# Static dielectric constant tensor:
#      x y z
#    x 1.857300 -0.067050 0.125840 
#    y -0.067050 1.873820 0.007790 
#    z 0.125840 0.007790 1.962390 
# 
# From -- ./inp_files/273615.got.cif
#   From: 2010.05.17/outbox.cif.g08.bks.cpg/sg2_137_cif.got.tgz:273615.got - 2010.06.03 11:33:40.
