data_PCOD9103402
_publ_section_title
;
Structure prediction by ZEFSAII (Michael W. Deem and Ramdas Pophale) SiO2 
 PCOD9103402
Probable space group: P -1
;
_chemical_formula_sum "Si O2"
_cell_formula_units_Z 16
_cell_length_a 11.930239
_cell_length_b 22.573048
_cell_length_c 9.603416
_cell_angle_alpha 36.264221
_cell_angle_beta 60.949361
_cell_angle_gamma 35.344841
_cell_volume 764.891262
_symmetry_space_group_name_H-M "P -1"
_symmetry_group_IT_number 2
_symmetry_cell_setting 'triclinic'
loop_
_space_group_symop_operation_xyz
x,y,z
-x,-y,-z
loop_
_atom_site_type_symbol
_atom_site_label
_atom_site_fract_x
_atom_site_fract_y
_atom_site_fract_z
Si Si1 0.544085 0.347841 0.343108
Si Si2 0.705895 0.563722 0.117813
Si Si3 0.353866 0.662309 0.990710
Si Si4 0.893726 0.456799 0.914186
Si Si5 0.946212 0.279500 0.743475
Si Si6 0.626887 0.092595 0.933060
Si Si7 0.172028 0.324622 0.633612
Si Si8 0.382355 0.174203 0.185614
O O1 0.525034 0.462945 0.221010
O O2 0.293821 0.481369 0.180550
O O3 0.615127 0.213332 0.656161
O O4 0.698230 0.259482 0.279586
O O5 0.473711 0.669377 0.997283
O O6 0.780523 0.449880 0.421242
O O7 0.870246 0.444147 0.113580
O O8 0.690791 0.690824 0.921117
O O9 0.170818 0.724964 0.076230
O O10 0.833416 0.612008 0.629727
O O11 0.152790 0.281901 0.048562
O O12 0.072461 0.279903 0.760611
O O13 0.132883 0.106909 0.864350
O O14 0.425941 0.165637 0.832869
O O15 0.548481 0.126134 0.073354
O O16 0.000000 0.500000 0.500000
O O17 0.500000 0.000000 0.500000
#
# Coordination Sequence:
#
# PCOD9103402 Si02
#       8
#     2   2   2   2   2   2   2   2
#     4   9  21  43  67  91 121 162 220 255 304 377
#     4  11  23  42  62  92 127 169 212 251 313 380
#     4  10  22  42  67  88 120 175 215 249 307 375
#     4  10  20  38  66  89 122 162 206 260 314 365
#     4  12  23  38  64  91 132 165 206 259 312 375
#     4  11  24  39  60  99 125 159 210 264 316 366
#     4  11  20  39  63  90 123 165 206 259 312 368
#     4  12  24  39  63  93 130 160 207 261 321 375
#
# _framework density 20.918005000000001
#
# number of rings (size 3 to 8) (size 9 to 14) (size 15 to 20)
#    0.000    1.250    2.500    4.125    1.750    0.500 
#    2.250    6.250    0.000    0.000    0.000    0.000 
#    0.000    0.000    0.000    0.000    0.000    0.000 
#
# Total GULP energy -89325.153713 kJ/mol
# GULP energy per Si atom -5582.822107 kJ/mol
# Density = 2.087040 g / cm^3
# Si number density = 20.918005 Si / 1000 Ang^3
#
#
#
# Elastic Constant Matrix: (Units=GPa)
#
#
# Indices 1 2 3 4 5 6 
#
# 1 52.8409 -10.7264 6.2462 1.5286 -16.9124 -3.0045
# 2 -10.7264 73.7424 13.3440 14.3273 -8.1629 -12.5294
# 3 6.2462 13.3440 91.3042 9.9684 -12.0471 1.1070
# 4 1.5286 14.3273 9.9684 32.2269 -6.7908 -8.1077
# 5 -16.9124 -8.1629 -12.0471 -6.7908 21.6721 5.8909
# 6 -3.0045 -12.5294 1.1070 -8.1077 5.8909 31.5091
#
#
#
# Elastic Compliance Matrix: (Units=1/GPa)
#
#
# Indices 1 2 3 4 5 6 
#
# 1 0.028223 0.006774 0.000217 0.001055 0.024750 0.001021
# 2 0.006774 0.017465 -0.001478 -0.004656 0.008252 0.004902
# 3 0.000217 -0.001478 0.012314 -0.002522 0.006443 -0.002853
# 4 0.001055 -0.004656 -0.002522 0.037040 0.007517 0.006463
# 5 0.024750 0.008252 0.006443 0.007517 0.076386 -0.006932
# 6 0.001021 0.004902 -0.002853 0.006463 -0.006932 0.036843
#
#
# Mechanical properties :
#
#
# Convention : Reuss Voigt Hill
#
# Bulk Modulus (GPa) = 14.48675 26.17944 20.33309
# Shear Modulus (GPa) = 22.70118 31.01654 26.85886
#
# Velocity S-wave (km/s) = 3.29788 3.85485 3.58719
# Velocity P-wave (km/s) = 4.63054 5.68820 5.18640
#
# Compressibility (1/GPa) = 0.06902860
#
# Stress axis : x y z
#
# Youngs Moduli (GPa) = 35.43158 57.25894 81.21071
#
# Poissons Ratio (x) = -0.38789 -0.01765
# Poissons Ratio (y) = -0.24003 0.12004
# Poissons Ratio (z) = -0.00770 0.08464
#
# Static dielectric constant tensor:
#      x y z
#    x 1.749220 -0.002920 0.008940 
#    y -0.002920 1.798390 0.055220 
#    z 0.008940 0.055220 1.759720 
# 
# From -- ./inp_files/282733.got.cif
#   From: 2010.05.17/outbox.cif.g08.bks.cpg/sg2_142_cif.got.tgz:282733.got - 2010.06.03 11:33:40.
