data_PCOD9103935
_publ_section_title
;
Structure prediction by ZEFSAII (Michael W. Deem and Ramdas Pophale) SiO2 
 PCOD9103935
Probable space group: P -1
;
_chemical_formula_sum "Si O2"
_cell_formula_units_Z 16
_cell_length_a 17.309166
_cell_length_b 11.180793
_cell_length_c 7.551252
_cell_angle_alpha 65.482182
_cell_angle_beta 79.697987
_cell_angle_gamma 32.900038
_cell_volume 678.365516
_symmetry_space_group_name_H-M "P -1"
_symmetry_group_IT_number 2
_symmetry_cell_setting 'triclinic'
loop_
_space_group_symop_operation_xyz
x,y,z
-x,-y,-z
loop_
_atom_site_type_symbol
_atom_site_label
_atom_site_fract_x
_atom_site_fract_y
_atom_site_fract_z
Si Si1 0.789043 0.012738 0.886244
Si Si2 0.969657 0.904493 0.168761
Si Si3 0.253580 0.331375 0.297635
Si Si4 0.641885 0.656001 0.276766
Si Si5 0.816661 0.132720 0.460480
Si Si6 0.483881 0.552098 0.769004
Si Si7 0.525034 0.795975 0.627321
Si Si8 0.289580 0.165912 0.013503
O O1 0.795056 0.846079 0.005343
O O2 0.866222 0.978158 0.708965
O O3 0.610534 0.295933 0.762843
O O4 0.840132 0.015651 0.040381
O O5 0.110072 0.605018 0.271507
O O6 0.933010 0.979366 0.343913
O O7 0.000000 0.000000 0.000000
O O8 0.366156 0.291971 0.221262
O O9 0.226560 0.285011 0.163004
O O10 0.354984 0.091560 0.525598
O O11 0.745496 0.378183 0.381933
O O12 0.598369 0.736005 0.449727
O O13 0.473572 0.879408 0.120394
O O14 0.722702 0.675111 0.173383
O O15 0.679045 0.247090 0.362010
O O16 0.522876 0.647459 0.694541
O O17 0.500000 0.500000 0.000000
#
# Coordination Sequence:
#
# PCOD9103935 Si02
#       8
#     2   2   2   2   2   2   2   2
#     4  12  25  46  72 109 148 183 243 299 360 426
#     4  12  28  48  71 103 147 194 243 291 360 439
#     4  10  23  45  67  96 142 178 238 290 352 428
#     4  10  20  38  70 103 138 178 235 289 355 418
#     4  12  24  44  74 107 141 192 237 301 358 421
#     4  12  23  40  75 109 143 183 242 301 361 416
#     4  10  22  43  73 103 134 185 237 307 353 418
#     4  10  22  40  67 102 140 183 226 297 354 412
#
# _framework density 23.586106999999998
#
# number of rings (size 3 to 8) (size 9 to 14) (size 15 to 20)
#    0.000    1.000    3.750    3.375    1.750    3.000 
#    4.500    2.500    0.000    0.000    0.000    0.000 
#    0.000    0.000    0.000    0.000    0.000    0.000 
#
# Total GULP energy -89435.299883 kJ/mol
# GULP energy per Si atom -5589.706243 kJ/mol
# Density = 2.353242 g / cm^3
# Si number density = 23.586107 Si / 1000 Ang^3
#
#
#
# Elastic Constant Matrix: (Units=GPa)
#
#
# Indices 1 2 3 4 5 6 
#
# 1 100.6244 -25.8723 12.1602 -2.8948 -23.0990 18.5073
# 2 -25.8723 88.3082 1.8985 11.3036 3.7063 2.5857
# 3 12.1602 1.8985 63.9964 21.3729 -14.8722 1.5903
# 4 -2.8948 11.3036 21.3729 31.3491 -0.0209 1.0974
# 5 -23.0990 3.7063 -14.8722 -0.0209 36.7553 -7.0134
# 6 18.5073 2.5857 1.5903 1.0974 -7.0134 31.6260
#
#
#
# Elastic Compliance Matrix: (Units=1/GPa)
#
#
# Indices 1 2 3 4 5 6 
#
# 1 0.013912 0.003898 -0.001471 0.001131 0.006419 -0.007002
# 2 0.003898 0.013113 0.000731 -0.004760 0.000841 -0.003039
# 3 -0.001471 0.000731 0.023366 -0.016399 0.008859 0.002160
# 4 0.001131 -0.004760 -0.016399 0.044977 -0.005859 -0.002308
# 5 0.006419 0.000841 0.008859 -0.005859 0.035462 0.003797
# 6 -0.007002 -0.003039 0.002160 -0.002308 0.003797 0.036779
#
#
# Mechanical properties :
#
#
# Convention : Reuss Voigt Hill
#
# Bulk Modulus (GPa) = 17.63466 25.47796 21.55631
# Shear Modulus (GPa) = 27.74769 37.59556 32.67162
#
# Velocity S-wave (km/s) = 3.43365 3.99679 3.72587
# Velocity P-wave (km/s) = 4.81798 5.66786 5.26011
#
# Compressibility (1/GPa) = 0.05670650
#
# Stress axis : x y z
#
# Youngs Moduli (GPa) = 71.88047 76.25841 42.79796
#
# Poissons Ratio (x) = -0.29728 0.06296
# Poissons Ratio (y) = -0.28021 -0.03127
# Poissons Ratio (z) = 0.10575 -0.05572
#
# Static dielectric constant tensor:
#      x y z
#    x 1.941800 -0.054000 0.018070 
#    y -0.054000 1.902410 -0.007070 
#    z 0.018070 -0.007070 1.961140 
# 
# From -- ./inp_files/332866.got.cif
#   From: 2010.05.17/outbox.cif.g08.bks.cpg/sg2_167_cif.got.tgz:332866.got - 2010.06.03 11:33:40.
