data_PCOD9103164
_publ_section_title
;
Structure prediction by ZEFSAII (Michael W. Deem and Ramdas Pophale) SiO2 
 PCOD9103164
Probable space group: P -1
;
_chemical_formula_sum "Si O2"
_cell_formula_units_Z 14
_cell_length_a 11.644139
_cell_length_b 9.013244
_cell_length_c 11.848113
_cell_angle_alpha 35.823541
_cell_angle_beta 99.732482
_cell_angle_gamma 83.968694
_cell_volume 651.069081
_symmetry_space_group_name_H-M "P -1"
_symmetry_group_IT_number 2
_symmetry_cell_setting 'triclinic'
loop_
_space_group_symop_operation_xyz
x,y,z
-x,-y,-z
loop_
_atom_site_type_symbol
_atom_site_label
_atom_site_fract_x
_atom_site_fract_y
_atom_site_fract_z
Si Si1 0.423730 0.139223 0.515226
Si Si2 0.480551 0.626127 0.190829
Si Si3 0.845282 0.342953 0.060101
Si Si4 0.084902 0.243335 0.323292
Si Si5 0.104107 0.288508 0.562682
Si Si6 0.614981 0.791468 0.295157
Si Si7 0.302830 0.718241 0.735975
O O1 0.390555 0.464038 0.289216
O O2 0.475583 0.106832 0.672081
O O3 0.500000 0.000000 0.500000
O O4 0.335273 0.975608 0.618285
O O5 0.565511 0.603384 0.329347
O O6 0.584334 0.482377 0.198718
O O7 0.403375 0.944982 0.948305
O O8 0.720823 0.426753 0.067908
O O9 0.959268 0.311360 0.185823
O O10 0.870474 0.035399 0.207881
O O11 0.843365 0.576996 0.828921
O O12 0.060963 0.322938 0.402403
O O13 0.169867 0.907946 0.533947
O O14 0.235233 0.334455 0.568483
O O15 0.000000 0.500000 0.500000
#
# Coordination Sequence:
#
# PCOD9103164 Si02
#       7
#     2   2   2   2   2   2   2
#     4  10  21  39  62  90 118 161 207 256 300 358
#     4  10  25  39  63  89 130 166 207 247 313 367
#     4  10  22  41  64  90 127 156 213 258 303 377
#     4  10  22  41  63  94 121 161 209 260 310 360
#     4  11  24  40  68  91 127 162 205 256 313 365
#     4  11  23  43  59  93 126 169 201 256 307 371
#     4  10  20  38  65  91 119 165 203 260 307 362
#
# _framework density 21.503094999999998
#
# number of rings (size 3 to 8) (size 9 to 14) (size 15 to 20)
#    0.000    1.714    2.857    2.143    6.000    5.143 
#    0.000    0.000    0.000    0.000    0.000    0.000 
#    0.000    0.000    0.000    0.000    0.000    0.000 
#
# Total GULP energy -78014.047987 kJ/mol
# GULP energy per Si atom -5572.431999 kJ/mol
# Density = 2.145415 g / cm^3
# Si number density = 21.503095 Si / 1000 Ang^3
#
#
#
# Elastic Constant Matrix: (Units=GPa)
#
#
# Indices 1 2 3 4 5 6 
#
# 1 84.5174 44.1685 14.7209 3.2109 -20.2777 6.1604
# 2 44.1685 79.3545 1.2751 -1.6885 0.1254 2.5975
# 3 14.7209 1.2751 67.8261 0.4909 -30.6951 6.9750
# 4 3.2109 -1.6885 0.4909 21.5735 3.5411 -7.1072
# 5 -20.2777 0.1254 -30.6951 3.5411 42.6406 -3.6571
# 6 6.1604 2.5975 6.9750 -7.1072 -3.6571 31.6534
#
#
#
# Elastic Compliance Matrix: (Units=1/GPa)
#
#
# Indices 1 2 3 4 5 6 
#
# 1 0.020967 -0.011736 0.001114 -0.007095 0.011082 -0.003676
# 2 -0.011736 0.019222 -0.000975 0.004766 -0.006630 0.001226
# 3 0.001114 -0.000975 0.022628 -0.004936 0.016865 -0.004283
# 4 -0.007095 0.004766 -0.004936 0.053862 -0.010301 0.012981
# 5 0.011082 -0.006630 0.016865 -0.010301 0.041492 -0.002848
# 6 -0.003676 0.001226 -0.004283 0.012981 -0.002848 0.035736
#
#
# Mechanical properties :
#
#
# Convention : Reuss Voigt Hill
#
# Bulk Modulus (GPa) = 25.23815 39.11410 32.17613
# Shear Modulus (GPa) = 21.70986 30.60909 26.15948
#
# Velocity S-wave (km/s) = 3.18089 3.77699 3.49168
# Velocity P-wave (km/s) = 5.02526 6.10330 5.59033
#
# Compressibility (1/GPa) = 0.03962255
#
# Stress axis : x y z
#
# Youngs Moduli (GPa) = 47.69310 52.02491 44.19217
#
# Poissons Ratio (x) = 0.61059 -0.04924
# Poissons Ratio (y) = 0.55975 0.04310
# Poissons Ratio (z) = -0.05315 0.05074
#
# Static dielectric constant tensor:
#      x y z
#    x 1.895670 0.034820 0.031340 
#    y 0.034820 1.769090 0.037290 
#    z 0.031340 0.037290 1.820620 
# 
# From -- ./inp_files/387305.got.cif
#   From: 2010.05.17/outbox.cif.g08.bks.cpg/sg2_194_cif.got.tgz:387305.got - 2010.06.03 11:33:40.
