data_PCOD9103064
_publ_section_title
;
Structure prediction by ZEFSAII (Michael W. Deem and Ramdas Pophale) SiO2 
 PCOD9103064
Probable space group: P -1
;
_chemical_formula_sum "Si O2"
_cell_formula_units_Z 15
_cell_length_a 12.482128
_cell_length_b 4.877394
_cell_length_c 12.752126
_cell_angle_alpha 118.293829
_cell_angle_beta 121.790027
_cell_angle_gamma 59.657349
_cell_volume 546.153117
_symmetry_space_group_name_H-M "P -1"
_symmetry_group_IT_number 2
_symmetry_cell_setting 'triclinic'
loop_
_space_group_symop_operation_xyz
x,y,z
-x,-y,-z
loop_
_atom_site_type_symbol
_atom_site_label
_atom_site_fract_x
_atom_site_fract_y
_atom_site_fract_z
Si Si1 0.414155 0.263378 0.383536
Si Si2 0.222981 0.849666 0.871377
Si Si3 0.791856 0.513030 0.517956
Si Si4 0.000000 0.500000 0.000000
Si Si5 0.476000 0.712817 0.868505
Si Si6 0.670940 0.939814 0.356177
Si Si7 0.742109 0.526767 0.871954
Si Si8 0.040459 0.442476 0.771451
O O1 0.500000 0.500000 0.500000
O O2 0.321049 0.214112 0.419048
O O3 0.534278 0.945673 0.347454
O O4 0.320133 0.414278 0.263931
O O5 0.138857 0.065711 0.771491
O O6 0.369817 0.617130 0.867665
O O7 0.140725 0.639598 0.837533
O O8 0.227814 0.141254 0.008157
O O9 0.751262 0.194026 0.466459
O O10 0.934987 0.478368 0.632036
O O11 0.773576 0.613271 0.404911
O O12 0.892663 0.286553 0.913595
O O13 0.972135 0.533300 0.865387
O O14 0.397392 0.898977 0.759264
O O15 0.625572 0.476754 0.874161
O O16 0.500000 0.000000 0.000000
#
# Coordination Sequence:
#
# PCOD9103064 Si02
#       8
#     2   2   2   1   2   2   2   2
#     4   9  18  36  60  91 129 167 207 259 319 390
#     4  10  23  42  63  94 129 170 221 266 316 376
#     4  11  21  40  59  95 129 170 208 261 324 390
#     4  10  20  38  64  98 130 164 214 256 334 378
#     4   9  20  44  68  92 128 169 222 272 321 371
#     4  10  22  38  64  91 127 166 219 260 319 384
#     4   9  18  38  64  98 128 168 210 270 324 383
#     4  11  23  41  65  93 135 172 213 267 323 385
#
# _framework density 27.464825000000001
#
# number of rings (size 3 to 8) (size 9 to 14) (size 15 to 20)
#    0.000    2.133    1.333    1.200    0.000    3.200 
#    2.400   43.333    0.000    0.000    0.000    0.000 
#    0.000    0.000    0.000    0.000    0.000    0.000 
#
# Total GULP energy -83663.981069 kJ/mol
# GULP energy per Si atom -5577.598738 kJ/mol
# Density = 2.740231 g / cm^3
# Si number density = 27.464825 Si / 1000 Ang^3
#
#
#
# Elastic Constant Matrix: (Units=GPa)
#
#
# Indices 1 2 3 4 5 6 
#
# 1 147.4206 38.2775 31.6487 2.5481 23.4347 34.2172
# 2 38.2775 111.1863 14.7884 -5.2929 12.5571 18.9857
# 3 31.6487 14.7884 156.9868 -10.9796 48.7453 -1.2396
# 4 2.5481 -5.2929 -10.9796 24.3371 -0.9460 12.0020
# 5 23.4347 12.5571 48.7453 -0.9460 41.4073 7.4313
# 6 34.2172 18.9857 -1.2396 12.0020 7.4313 26.6491
#
#
#
# Elastic Compliance Matrix: (Units=1/GPa)
#
#
# Indices 1 2 3 4 5 6 
#
# 1 0.011139 -0.000372 -0.001499 0.006171 -0.001321 -0.016518
# 2 -0.000372 0.011507 -0.000319 0.007818 -0.000742 -0.011050
# 3 -0.001499 -0.000319 0.010821 0.001821 -0.012718 0.005382
# 4 0.006171 0.007818 0.001821 0.063979 0.001087 -0.042526
# 5 -0.001321 -0.000742 -0.012718 0.001087 0.042017 -0.010573
# 6 -0.016518 -0.011050 0.005382 -0.042526 -0.010573 0.088957
#
#
# Mechanical properties :
#
#
# Convention : Reuss Voigt Hill
#
# Bulk Modulus (GPa) = 34.38002 65.00255 49.69129
# Shear Modulus (GPa) = 20.61885 40.53733 30.57809
#
# Velocity S-wave (km/s) = 2.74293 3.84601 3.34032
# Velocity P-wave (km/s) = 4.75148 6.59100 5.74534
#
# Compressibility (1/GPa) = 0.02908666
#
# Stress axis : x y z
#
# Youngs Moduli (GPa) = 89.77457 86.90302 92.41245
#
# Poissons Ratio (x) = 0.03231 0.13855
# Poissons Ratio (y) = 0.03338 0.02949
# Poissons Ratio (z) = 0.13460 0.02774
#
# Static dielectric constant tensor:
#      x y z
#    x 0.020740 1.849960 -0.336950 
#    y 1.849960 0.439160 0.366060 
#    z -0.336950 0.366060 2.151900 
# 
# From -- ./inp_files/410904.got.cif
#   From: 2010.05.17/outbox.cif.g08.bks.cpg/sg2_206_cif.got.tgz:410904.got - 2010.06.03 11:33:40.
