data_PCOD9103000
_publ_section_title
;
Structure prediction by ZEFSAII (Michael W. Deem and Ramdas Pophale) SiO2 
 PCOD9103000
Probable space group: P -1
;
_chemical_formula_sum "Si O2"
_cell_formula_units_Z 16
_cell_length_a 9.670194
_cell_length_b 12.362697
_cell_length_c 11.404197
_cell_angle_alpha 121.110326
_cell_angle_beta 134.753567
_cell_angle_gamma 45.356333
_cell_volume 688.203883
_symmetry_space_group_name_H-M "P -1"
_symmetry_group_IT_number 2
_symmetry_cell_setting 'triclinic'
loop_
_space_group_symop_operation_xyz
x,y,z
-x,-y,-z
loop_
_atom_site_type_symbol
_atom_site_label
_atom_site_fract_x
_atom_site_fract_y
_atom_site_fract_z
Si Si1 0.855494 0.310827 0.626104
Si Si2 0.460788 0.798748 0.896717
Si Si3 0.404059 0.411195 0.827905
Si Si4 0.354445 0.017523 0.755278
Si Si5 0.595043 0.572345 0.435720
Si Si6 0.796981 0.759706 0.757604
Si Si7 0.850844 0.161253 0.059486
Si Si8 0.102570 0.477400 0.902788
O O1 0.711769 0.411747 0.483393
O O2 0.671549 0.321891 0.615944
O O3 0.082050 0.144009 0.636290
O O4 0.953199 0.406224 0.793122
O O5 0.243965 0.832858 0.864923
O O6 0.381397 0.878329 0.768396
O O7 0.566565 0.886948 0.070816
O O8 0.664955 0.619791 0.933436
O O9 0.368588 0.450806 0.693937
O O10 0.199357 0.434443 0.801990
O O11 0.500000 0.500000 0.000000
O O12 0.624820 0.242516 0.885346
O O13 0.561927 0.924847 0.732794
O O14 0.715882 0.659733 0.594140
O O15 0.991405 0.770131 0.811638
O O16 0.937799 0.660814 0.904011
O O17 0.000000 0.000000 0.000000
#
# Coordination Sequence:
#
# PCOD9103000 Si02
#       8
#     2   2   2   2   2   2   2   2
#     4   9  21  44  66  92 131 178 217 262 327 394
#     4   9  20  36  61  96 134 174 211 274 320 376
#     4  11  23  44  69  97 128 171 220 270 326 387
#     4  10  20  38  64  95 131 173 220 265 324 382
#     4  10  24  45  68  94 133 174 217 273 326 388
#     4  11  22  40  64  96 135 171 217 268 324 391
#     4  11  22  40  65  96 134 168 218 269 325 389
#     4   9  20  41  62  99 127 169 224 265 323 387
#
# _framework density 23.248923000000001
#
# number of rings (size 3 to 8) (size 9 to 14) (size 15 to 20)
#    0.000    2.000    2.500    0.000    1.750    4.000 
#   13.500    1.875    0.000    0.000    0.000    0.000 
#    0.000    0.000    0.000    0.000    0.000    0.000 
#
# Total GULP energy -89396.973840 kJ/mol
# GULP energy per Si atom -5587.310865 kJ/mol
# Density = 2.319601 g / cm^3
# Si number density = 23.248923 Si / 1000 Ang^3
#
#
#
# Elastic Constant Matrix: (Units=GPa)
#
#
# Indices 1 2 3 4 5 6 
#
# 1 180.9698 28.9684 53.0640 -10.0533 16.1473 -2.3018
# 2 28.9684 110.5689 14.8019 -22.9377 8.3674 -27.2555
# 3 53.0640 14.8019 42.3149 -1.1440 8.6462 -13.3964
# 4 -10.0533 -22.9377 -1.1440 28.9060 -0.9332 16.1114
# 5 16.1473 8.3674 8.6462 -0.9332 45.2022 -0.0093
# 6 -2.3018 -27.2555 -13.3964 16.1114 -0.0093 42.3592
#
#
#
# Elastic Compliance Matrix: (Units=1/GPa)
#
#
# Indices 1 2 3 4 5 6 
#
# 1 0.010207 -0.001216 -0.014317 0.005902 -0.000562 -0.007001
# 2 -0.001216 0.012132 -0.000590 0.006244 -0.001569 0.005179
# 3 -0.014317 -0.000590 0.048550 -0.014694 -0.004362 0.019785
# 4 0.005902 0.006244 -0.014694 0.052300 0.000622 -0.020201
# 5 -0.000562 -0.001569 -0.004362 0.000622 0.023461 -0.002651
# 6 -0.007001 0.005179 0.019785 -0.020201 -0.002651 0.040499
#
#
# Mechanical properties :
#
#
# Convention : Reuss Voigt Hill
#
# Bulk Modulus (GPa) = 25.87730 58.61358 42.24544
# Shear Modulus (GPa) = 21.52598 39.09478 30.31038
#
# Velocity S-wave (km/s) = 3.04615 4.10515 3.61464
# Velocity P-wave (km/s) = 4.85044 6.90910 5.96919
#
# Compressibility (1/GPa) = 0.03864391
#
# Stress axis : x y z
#
# Youngs Moduli (GPa) = 97.96719 82.42442 20.59730
#
# Poissons Ratio (x) = 0.10027 0.29489
# Poissons Ratio (y) = 0.11918 0.01215
# Poissons Ratio (z) = 1.40258 0.04860
#
# Static dielectric constant tensor:
#      x y z
#    x 1.888260 0.017740 -0.009170 
#    y 0.017740 2.069210 -0.099790 
#    z -0.009170 -0.099790 1.930480 
# 
# From -- ./inp_files/382212.got.cif
#   From: 2010.05.17/outbox.cif.g08.bks.cpg/sg2_192_cif.got.tgz:382212.got - 2010.06.03 11:33:40.
