data_PCOD9103035
_publ_section_title
;
Structure prediction by ZEFSAII (Michael W. Deem and Ramdas Pophale) SiO2 
 PCOD9103035
Probable space group: P -1
;
_chemical_formula_sum "Si O2"
_cell_formula_units_Z 12
_cell_length_a 7.239077
_cell_length_b 16.332822
_cell_length_c 9.059149
_cell_angle_alpha 40.923290
_cell_angle_beta 54.527363
_cell_angle_gamma 52.051608
_cell_volume 539.227907
_symmetry_space_group_name_H-M "P -1"
_symmetry_group_IT_number 2
_symmetry_cell_setting 'triclinic'
loop_
_space_group_symop_operation_xyz
x,y,z
-x,-y,-z
loop_
_atom_site_type_symbol
_atom_site_label
_atom_site_fract_x
_atom_site_fract_y
_atom_site_fract_z
Si Si1 0.419050 0.314157 0.868903
Si Si2 0.454701 0.694685 0.690526
Si Si3 0.958640 0.159215 0.795030
Si Si4 0.128447 0.342303 0.679478
Si Si5 0.257824 0.505773 0.911827
Si Si6 0.394737 0.148434 0.393799
O O1 0.678835 0.235512 0.788268
O O2 0.210378 0.327927 0.829877
O O3 0.409791 0.452306 0.764706
O O4 0.375179 0.233376 0.140086
O O5 0.630340 0.694259 0.477466
O O6 0.250933 0.647559 0.779628
O O7 0.405130 0.826960 0.624286
O O8 0.612408 0.588915 0.883265
O O9 0.001057 0.240135 0.812201
O O10 0.147789 0.177560 0.561272
O O11 0.000000 0.000000 0.000000
O O12 0.000000 0.500000 0.500000
O O13 0.000000 0.500000 0.000000
O O14 0.500000 0.000000 0.500000
#
# Coordination Sequence:
#
# PCOD9103035 Si02
#       6
#     2   2   2   2   2   2
#     4  11  24  41  72 100 135 178 230 276 348 406
#     4   9  21  37  60  92 132 172 215 277 335 393
#     4  11  24  46  71  98 142 181 226 288 340 405
#     4  11  24  42  67 101 138 177 230 283 341 409
#     4  10  20  38  64  96 135 171 222 276 341 401
#     4  10  21  44  69  95 134 183 229 278 337 406
#
# _framework density 22.254042999999999
#
# number of rings (size 3 to 8) (size 9 to 14) (size 15 to 20)
#    0.000    1.667    1.667    2.000    0.000   10.000 
#    0.000    2.500    0.000    0.000    0.000    0.000 
#    0.000    0.000    0.000    0.000    0.000    0.000 
#
# Total GULP energy -66962.826650 kJ/mol
# GULP energy per Si atom -5580.235554 kJ/mol
# Density = 2.220339 g / cm^3
# Si number density = 22.254043 Si / 1000 Ang^3
#
#
#
# Elastic Constant Matrix: (Units=GPa)
#
#
# Indices 1 2 3 4 5 6 
#
# 1 149.3768 69.3068 52.5839 -16.6308 -11.8843 33.0984
# 2 69.3068 132.8098 42.3615 -15.9519 -9.6161 29.9985
# 3 52.5839 42.3615 67.9340 8.1504 0.2241 25.1182
# 4 -16.6308 -15.9519 8.1504 39.5399 11.3512 -14.9991
# 5 -11.8843 -9.6161 0.2241 11.3512 35.9896 2.3846
# 6 33.0984 29.9985 25.1182 -14.9991 2.3846 47.8065
#
#
#
# Elastic Compliance Matrix: (Units=1/GPa)
#
#
# Indices 1 2 3 4 5 6 
#
# 1 0.011355 -0.002748 -0.007156 0.004182 0.001817 -0.001156
# 2 -0.002748 0.011358 -0.004725 0.003397 0.001200 -0.001736
# 3 -0.007156 -0.004725 0.030155 -0.016880 0.002395 -0.013340
# 4 0.004182 0.003397 -0.016880 0.042044 -0.012035 0.017633
# 5 0.001817 0.001200 0.002395 -0.012035 0.033064 -0.008695
# 6 -0.001156 -0.001736 -0.013340 0.017633 -0.008695 0.035782
#
#
# Mechanical properties :
#
#
# Convention : Reuss Voigt Hill
#
# Bulk Modulus (GPa) = 42.35522 75.40277 58.87900
# Shear Modulus (GPa) = 24.88975 37.05842 30.97408
#
# Velocity S-wave (km/s) = 3.34793 4.08517 3.73479
# Velocity P-wave (km/s) = 5.83256 7.49718 6.71664
#
# Compressibility (1/GPa) = 0.02360984
#
# Stress axis : x y z
#
# Youngs Moduli (GPa) = 88.06801 88.04557 33.16166
#
# Poissons Ratio (x) = 0.24196 0.23731
# Poissons Ratio (y) = 0.24202 0.15669
# Poissons Ratio (z) = 0.63022 0.41601
#
# Static dielectric constant tensor:
#      x y z
#    x 1.864020 0.040720 -0.089340 
#    y 0.040720 1.935840 -0.087080 
#    z -0.089340 -0.087080 1.947050 
# 
# From -- ./inp_files/43156.got.cif
#   From: 2010.05.17/outbox.cif.g08.bks.cpg/sg2_22_cif.got.tgz:43156.got - 2010.06.03 11:33:40.
