data_PCOD9103342
_publ_section_title
;
Structure prediction by ZEFSAII (Michael W. Deem and Ramdas Pophale) SiO2 
 PCOD9103342
Probable space group: P -1
;
_chemical_formula_sum "Si O2"
_cell_formula_units_Z 16
_cell_length_a 13.179080
_cell_length_b 8.819910
_cell_length_c 14.356142
_cell_angle_alpha 40.441553
_cell_angle_beta 52.396219
_cell_angle_gamma 81.151168
_cell_volume 683.259138
_symmetry_space_group_name_H-M "P -1"
_symmetry_group_IT_number 2
_symmetry_cell_setting 'triclinic'
loop_
_space_group_symop_operation_xyz
x,y,z
-x,-y,-z
loop_
_atom_site_type_symbol
_atom_site_label
_atom_site_fract_x
_atom_site_fract_y
_atom_site_fract_z
Si Si1 0.562354 0.744721 0.215830
Si Si2 0.612013 0.419815 0.111106
Si Si3 0.186793 0.425985 0.897036
Si Si4 0.391078 0.551698 0.214194
Si Si5 0.949476 0.688314 0.706392
Si Si6 0.443388 0.763430 0.465985
Si Si7 0.125612 0.649116 0.272163
Si Si8 0.130504 0.883570 0.707393
O O1 0.480337 0.732647 0.172403
O O2 0.499739 0.830047 0.297480
O O3 0.497440 0.415159 0.437386
O O4 0.756556 0.997131 0.977663
O O5 0.687468 0.540888 0.115218
O O6 0.523355 0.566850 0.068014
O O7 0.499949 0.067194 0.338058
O O8 0.763092 0.513803 0.920073
O O9 0.256440 0.524084 0.708860
O O10 0.172316 0.679919 0.821335
O O11 0.007673 0.138841 0.145589
O O12 0.263110 0.600137 0.229762
O O13 0.282566 0.211980 0.461946
O O14 0.966180 0.522877 0.690763
O O15 0.054149 0.756725 0.707470
O O16 0.000000 0.000000 0.500000
O O17 0.000000 0.500000 0.500000
#
# Coordination Sequence:
#
# PCOD9103342 Si02
#       8
#     2   2   2   2   2   2   2   2
#     4  11  26  44  65 103 142 178 229 270 356 416
#     4  11  22  42  75 101 136 171 238 293 335 398
#     4  10  20  38  66 100 134 171 214 285 346 390
#     4  12  24  44  70 101 132 184 232 284 342 402
#     4  11  24  46  69 100 134 183 235 287 331 397
#     4  11  21  41  70  98 138 177 217 288 337 409
#     4  12  29  49  68  94 144 191 228 277 344 420
#     4  10  22  38  67 103 132 166 229 281 337 403
#
# _framework density 23.417178
#
# number of rings (size 3 to 8) (size 9 to 14) (size 15 to 20)
#    0.000    1.000    5.000    1.500    3.500    1.500 
#    2.250    0.625    0.000    0.000    0.000    0.000 
#    0.000    0.000    0.000    0.000    0.000    0.000 
#
# Total GULP energy -89289.613943 kJ/mol
# GULP energy per Si atom -5580.600871 kJ/mol
# Density = 2.336388 g / cm^3
# Si number density = 23.417178 Si / 1000 Ang^3
#
#
#
# Elastic Constant Matrix: (Units=GPa)
#
#
# Indices 1 2 3 4 5 6 
#
# 1 71.6906 20.9741 5.8458 0.7427 1.7398 -8.8019
# 2 20.9741 104.6066 41.0244 16.1360 -3.0969 16.1990
# 3 5.8458 41.0244 102.5683 11.7007 -2.3846 21.5122
# 4 0.7427 16.1360 11.7007 52.3883 -8.6063 3.5910
# 5 1.7398 -3.0969 -2.3846 -8.6063 28.9799 -3.5621
# 6 -8.8019 16.1990 21.5122 3.5910 -3.5621 40.1320
#
#
#
# Elastic Compliance Matrix: (Units=1/GPa)
#
#
# Indices 1 2 3 4 5 6 
#
# 1 0.015771 -0.003877 -0.000524 0.000637 -0.000576 0.005197
# 2 -0.003877 0.012842 -0.003812 -0.002792 0.000002 -0.003740
# 3 -0.000524 -0.003812 0.012540 -0.001324 -0.000378 -0.005213
# 4 0.000637 -0.002792 -0.001324 0.021165 0.005915 0.000607
# 5 -0.000576 0.000002 -0.000378 0.005915 0.036610 0.002796
# 6 0.005197 -0.003740 -0.005213 0.000607 0.002796 0.030555
#
#
# Mechanical properties :
#
#
# Convention : Reuss Voigt Hill
#
# Bulk Modulus (GPa) = 40.44252 46.06157 43.25204
# Shear Modulus (GPa) = 32.43536 38.36812 35.40174
#
# Velocity S-wave (km/s) = 3.72574 4.05218 3.89239
# Velocity P-wave (km/s) = 5.98466 6.45029 6.22183
#
# Compressibility (1/GPa) = 0.02472645
#
# Stress axis : x y z
#
# Youngs Moduli (GPa) = 63.40694 77.86927 79.74503
#
# Poissons Ratio (x) = 0.30187 0.04181
# Poissons Ratio (y) = 0.24580 0.30403
# Poissons Ratio (z) = 0.03324 0.29687
#
# Static dielectric constant tensor:
#      x y z
#    x 1.919570 -0.081980 -0.006870 
#    y -0.081980 1.993870 0.026320 
#    z -0.006870 0.026320 1.928690 
# 
# From -- ./inp_files/529287.got.cif
#   From: 2010.05.17/outbox.cif.g08.bks.cpg/sg2_265_cif.got.tgz:529287.got - 2010.06.03 11:33:40.
