data_PCOD9103690
_publ_section_title
;
Structure prediction by ZEFSAII (Michael W. Deem and Ramdas Pophale) SiO2 
 PCOD9103690
Probable space group: P -1
;
_chemical_formula_sum "Si O2"
_cell_formula_units_Z 14
_cell_length_a 9.630495
_cell_length_b 5.094323
_cell_length_c 14.595880
_cell_angle_alpha 72.514298
_cell_angle_beta 90.653933
_cell_angle_gamma 78.565325
_cell_volume 667.508398
_symmetry_space_group_name_H-M "P -1"
_symmetry_group_IT_number 2
_symmetry_cell_setting 'triclinic'
loop_
_space_group_symop_operation_xyz
x,y,z
-x,-y,-z
loop_
_atom_site_type_symbol
_atom_site_label
_atom_site_fract_x
_atom_site_fract_y
_atom_site_fract_z
Si Si1 0.598835 0.274163 0.296102
Si Si2 0.421964 0.483386 0.096094
Si Si3 0.217633 0.326706 0.666003
Si Si4 0.871035 0.200135 0.529006
Si Si5 0.075231 0.676302 0.273725
Si Si6 0.320301 0.116906 0.349193
Si Si7 0.725626 0.005957 0.837279
O O1 0.535797 0.329968 0.187659
O O2 0.660499 0.534093 0.304638
O O3 0.464739 0.217096 0.358698
O O4 0.722654 0.996206 0.324295
O O5 0.356631 0.781207 0.110788
O O6 0.299629 0.301141 0.106379
O O7 0.500000 0.500000 0.000000
O O8 0.167109 0.509449 0.555840
O O9 0.084913 0.362390 0.731169
O O10 0.915860 0.233373 0.630035
O O11 0.735592 0.056271 0.553433
O O12 0.000000 0.000000 0.500000
O O13 0.193315 0.386536 0.297234
O O14 0.122315 0.910416 0.185416
O O15 0.339180 0.941436 0.272267
#
# Coordination Sequence:
#
# PCOD9103690 Si02
#       7
#     2   2   2   2   2   2   2
#     4  11  25  42  59  97 128 159 202 271 336 365
#     4  11  22  42  72  98 122 159 207 261 316 399
#     4  12  26  39  62  92 136 165 210 271 315 350
#     4  11  23  39  62  93 124 178 234 256 290 365
#     4  11  22  41  67  87 126 182 220 248 298 380
#     4  10  22  40  66  85 130 172 222 254 299 381
#     4  10  20  38  67  97 117 159 218 252 299 377
#
# _framework density 20.973519
#
# number of rings (size 3 to 8) (size 9 to 14) (size 15 to 20)
#    0.000    1.143    4.286    3.429    6.000    1.143 
#    0.000    0.000    0.000    5.143    0.000    0.000 
#    0.000    0.000    0.000    0.000    0.000    0.000 
#
# Total GULP energy -78244.916945 kJ/mol
# GULP energy per Si atom -5588.922639 kJ/mol
# Density = 2.092578 g / cm^3
# Si number density = 20.973519 Si / 1000 Ang^3
#
#
#
# Elastic Constant Matrix: (Units=GPa)
#
#
# Indices 1 2 3 4 5 6 
#
# 1 114.0971 4.2626 12.9299 8.7318 -31.7651 8.7379
# 2 4.2626 87.7002 8.1214 21.9481 -5.1962 0.4686
# 3 12.9299 8.1214 69.1652 19.3761 -27.0165 4.5202
# 4 8.7318 21.9481 19.3761 30.4482 -4.8690 -5.9890
# 5 -31.7651 -5.1962 -27.0165 -4.8690 30.0464 -5.7531
# 6 8.7379 0.4686 4.5202 -5.9890 -5.7531 33.7861
#
#
#
# Elastic Compliance Matrix: (Units=1/GPa)
#
#
# Indices 1 2 3 4 5 6 
#
# 1 0.014233 0.001623 0.007163 -0.007077 0.020145 -0.002486
# 2 0.001623 0.014555 0.003777 -0.013068 0.005015 -0.002589
# 3 0.007163 0.003777 0.031221 -0.020321 0.032201 -0.004201
# 4 -0.007077 -0.013068 -0.020321 0.056952 -0.016484 0.012019
# 5 0.020145 0.005015 0.032201 -0.016484 0.082007 0.001455
# 6 -0.002486 -0.002589 -0.004201 0.012019 0.001455 0.033217
#
#
# Mechanical properties :
#
#
# Convention : Reuss Voigt Hill
#
# Bulk Modulus (GPa) = 11.74630 35.73224 23.73927
# Shear Modulus (GPa) = 21.23697 35.23271 28.23484
#
# Velocity S-wave (km/s) = 3.18553 4.10306 3.67306
# Velocity P-wave (km/s) = 4.37525 6.28655 5.41588
#
# Compressibility (1/GPa) = 0.08513316
#
# Stress axis : x y z
#
# Youngs Moduli (GPa) = 70.26159 68.70348 32.02974
#
# Poissons Ratio (x) = -0.11150 -0.22941
# Poissons Ratio (y) = -0.11403 -0.12097
# Poissons Ratio (z) = -0.50325 -0.25947
#
# Static dielectric constant tensor:
#      x y z
#    x 1.841720 0.040090 -0.014960 
#    y 0.040090 1.771700 -0.002000 
#    z -0.014960 -0.002000 1.731060 
# 
# From -- ./inp_files/41186.got.cif
#   From: 2010.05.17/outbox.cif.g08.bks.cpg/sg2_21_cif.got.tgz:41186.got - 2010.06.03 11:33:40.
