data_PCOD9103343
_publ_section_title
;
Structure prediction by ZEFSAII (Michael W. Deem and Ramdas Pophale) SiO2 
 PCOD9103343
Probable space group: P -1
;
_chemical_formula_sum "Si O2"
_cell_formula_units_Z 14
_cell_length_a 7.338163
_cell_length_b 20.558807
_cell_length_c 10.036307
_cell_angle_alpha 31.678072
_cell_angle_beta 97.038431
_cell_angle_gamma 120.151398
_cell_volume 509.489039
_symmetry_space_group_name_H-M "P -1"
_symmetry_group_IT_number 2
_symmetry_cell_setting 'triclinic'
loop_
_space_group_symop_operation_xyz
x,y,z
-x,-y,-z
loop_
_atom_site_type_symbol
_atom_site_label
_atom_site_fract_x
_atom_site_fract_y
_atom_site_fract_z
Si Si1 0.000000 0.500000 0.500000
Si Si2 0.523000 0.290217 0.628284
Si Si3 0.958298 0.731946 0.117433
Si Si4 0.331104 0.424591 0.253233
Si Si5 0.379724 0.251689 0.125028
Si Si6 0.237053 0.953154 0.032202
Si Si7 0.817073 0.012760 0.643024
Si Si8 0.500000 0.000000 0.500000
O O1 0.825546 0.402246 0.511633
O O2 0.197061 0.479790 0.508930
O O3 0.503408 0.425048 0.369744
O O4 0.312156 0.127188 0.004987
O O5 0.380392 0.159768 0.709741
O O6 0.093203 0.855638 0.047416
O O7 0.765629 0.734368 0.023619
O O8 0.220162 0.818315 0.898050
O O9 0.012908 0.209441 0.601839
O O10 0.500000 0.500000 0.000000
O O11 0.355481 0.568806 0.077822
O O12 0.381463 0.116311 0.289592
O O13 0.125729 0.129812 0.424724
O O14 0.500000 0.000000 0.000000
O O15 0.734063 0.112064 0.455237
#
# Coordination Sequence:
#
# PCOD9103343 Si02
#       8
#     1   2   2   2   2   2   2   1
#     4  12  22  42  72 106 138 188 242 298 362 424
#     4  12  25  46  71 100 146 191 241 291 374 428
#     4  11  23  42  71 101 140 185 237 298 351 432
#     4  12  28  46  72 103 148 192 243 304 359 427
#     4  10  23  41  67 104 134 183 246 290 354 426
#     4  12  26  46  70 105 145 193 238 295 366 434
#     4  10  21  39  66  98 137 182 228 294 351 427
#     4  10  20  38  66 100 136 178 230 280 356 424
#
# _framework density 27.478508999999999
#
# number of rings (size 3 to 8) (size 9 to 14) (size 15 to 20)
#    0.000    0.857    4.286    2.143    2.000    5.714 
#    0.000    0.714    0.000    0.000    0.000    0.000 
#    0.000    0.000    0.000    0.000    0.000    0.000 
#
# Total GULP energy -77975.399133 kJ/mol
# GULP energy per Si atom -5569.671367 kJ/mol
# Density = 2.741597 g / cm^3
# Si number density = 27.478509 Si / 1000 Ang^3
#
#
#
# Elastic Constant Matrix: (Units=GPa)
#
#
# Indices 1 2 3 4 5 6 
#
# 1 115.0623 15.1111 26.1731 4.3973 -27.2918 20.7987
# 2 15.1111 149.5495 50.0805 -14.2874 4.5783 -5.6762
# 3 26.1731 50.0805 58.5969 0.6095 -27.9293 8.9743
# 4 4.3973 -14.2874 0.6095 63.4502 -3.0881 13.1659
# 5 -27.2918 4.5783 -27.9293 -3.0881 47.7862 0.4969
# 6 20.7987 -5.6762 8.9743 13.1659 0.4969 44.2611
#
#
#
# Elastic Compliance Matrix: (Units=1/GPa)
#
#
# Indices 1 2 3 4 5 6 
#
# 1 0.011571 -0.001891 0.000901 0.000381 0.007404 -0.006059
# 2 -0.001891 0.013578 -0.017742 0.001512 -0.012714 0.005920
# 3 0.000901 -0.017742 0.048359 -0.000392 0.030585 -0.012730
# 4 0.000381 0.001512 -0.000392 0.017170 0.001006 -0.005024
# 5 0.007404 -0.012714 0.030585 0.001006 0.044440 -0.012109
# 6 -0.006059 0.005920 -0.012730 -0.005024 -0.012109 0.030411
#
#
# Mechanical properties :
#
#
# Convention : Reuss Voigt Hill
#
# Bulk Modulus (GPa) = 27.74502 56.21537 41.98020
# Shear Modulus (GPa) = 23.25496 46.55576 34.90536
#
# Velocity S-wave (km/s) = 2.91227 4.12061 3.56796
# Velocity P-wave (km/s) = 4.62897 6.56822 5.68194
#
# Compressibility (1/GPa) = 0.03604250
#
# Stress axis : x y z
#
# Youngs Moduli (GPa) = 86.42140 73.65064 20.67877
#
# Poissons Ratio (x) = 0.13928 -0.01862
# Poissons Ratio (y) = 0.16343 0.36689
# Poissons Ratio (z) = -0.07784 1.30672
#
# Static dielectric constant tensor:
#      x y z
#    x 2.701730 -0.124010 0.354470 
#    y -0.124010 2.234490 0.011420 
#    z 0.354470 0.011420 1.922410 
# 
# From -- ./inp_files/184060.got.cif
#   From: 2010.05.17/outbox.cif.g08.bks.cpg/sg2_93_cif.got.tgz:184060.got - 2010.06.03 11:33:40.
