data_PCOD9103374
_publ_section_title
;
Structure prediction by ZEFSAII (Michael W. Deem and Ramdas Pophale) SiO2 
 PCOD9103374
Probable space group: P -1
;
_chemical_formula_sum "Si O2"
_cell_formula_units_Z 16
_cell_length_a 16.859692
_cell_length_b 9.561939
_cell_length_c 8.017600
_cell_angle_alpha 74.141452
_cell_angle_beta 88.619401
_cell_angle_gamma 33.063303
_cell_volume 624.471246
_symmetry_space_group_name_H-M "P -1"
_symmetry_group_IT_number 2
_symmetry_cell_setting 'triclinic'
loop_
_space_group_symop_operation_xyz
x,y,z
-x,-y,-z
loop_
_atom_site_type_symbol
_atom_site_label
_atom_site_fract_x
_atom_site_fract_y
_atom_site_fract_z
Si Si1 0.464118 0.661336 0.607115
Si Si2 0.180038 0.602664 0.914981
Si Si3 0.433089 0.007988 0.146220
Si Si4 0.760967 0.157980 0.224911
Si Si5 0.367066 0.330003 0.448413
Si Si6 0.921988 0.844225 0.985090
Si Si7 0.204537 0.171805 0.230117
Si Si8 0.067774 0.734341 0.529090
O O1 0.500000 0.500000 0.500000
O O2 0.599112 0.566752 0.672022
O O3 0.394317 0.670548 0.751273
O O4 0.313105 0.997245 0.443902
O O5 0.154503 0.553822 0.757113
O O6 0.241507 0.663706 0.850191
O O7 0.305706 0.326440 0.121485
O O8 0.013507 0.846919 0.935613
O O9 0.318690 0.052749 0.115921
O O10 0.572351 0.733830 0.343864
O O11 0.500000 0.000000 0.000000
O O12 0.803411 0.038135 0.078624
O O13 0.915792 0.885845 0.424114
O O14 0.190675 0.555482 0.426784
O O15 0.500000 0.000000 0.500000
O O16 0.053938 0.514048 0.133659
O O17 0.844122 0.909836 0.798758
O O18 0.000000 0.000000 0.500000
#
# Coordination Sequence:
#
# PCOD9103374 Si02
#       8
#     2   2   2   2   2   2   2   2
#     4  11  24  45  65  91 133 176 210 261 331 399
#     4  10  20  39  62  93 124 168 208 262 323 386
#     4  10  20  38  66  85 121 170 210 253 313 393
#     4  11  24  38  68  96 128 163 218 267 315 384
#     4  11  25  43  66  99 132 166 219 274 326 378
#     4  10  21  41  62  94 124 157 214 271 319 368
#     4   9  22  40  63  86 125 169 205 261 323 380
#     4  10  21  39  65  95 126 171 216 257 323 395
#
# _framework density 25.621676999999998
#
# number of rings (size 3 to 8) (size 9 to 14) (size 15 to 20)
#    0.000    1.750    1.250    2.625    7.000    2.500 
#    4.500    0.625    0.000    0.000    0.000    0.000 
#    0.000    0.000    0.000    0.000    0.000    0.000 
#
# Total GULP energy -89342.794358 kJ/mol
# GULP energy per Si atom -5583.924647 kJ/mol
# Density = 2.556336 g / cm^3
# Si number density = 25.621677 Si / 1000 Ang^3
#
#
#
# Elastic Constant Matrix: (Units=GPa)
#
#
# Indices 1 2 3 4 5 6 
#
# 1 122.1511 29.6278 6.9940 22.2451 -35.1182 -13.0332
# 2 29.6278 98.0932 8.3947 28.2469 -15.3964 -13.7518
# 3 6.9940 8.3947 75.5988 -4.7407 -12.8302 -6.7435
# 4 22.2451 28.2469 -4.7407 52.9818 -17.3873 -7.7595
# 5 -35.1182 -15.3964 -12.8302 -17.3873 40.5430 10.6411
# 6 -13.0332 -13.7518 -6.7435 -7.7595 10.6411 35.4142
#
#
#
# Elastic Compliance Matrix: (Units=1/GPa)
#
#
# Indices 1 2 3 4 5 6 
#
# 1 0.011337 -0.001770 0.000672 -0.000740 0.008834 0.000796
# 2 -0.001770 0.012919 -0.001458 -0.005987 -0.000418 0.002901
# 3 0.000672 -0.001458 0.014737 0.004013 0.006002 0.001563
# 4 -0.000740 -0.005987 0.004013 0.025908 0.009181 0.001085
# 5 0.008834 -0.000418 0.006002 0.009181 0.039469 -0.005616
# 6 0.000796 0.002901 0.001563 0.001085 -0.005616 0.031880
#
#
# Mechanical properties :
#
#
# Convention : Reuss Voigt Hill
#
# Bulk Modulus (GPa) = 29.51677 42.87514 36.19595
# Shear Modulus (GPa) = 32.75299 42.50958 37.63128
#
# Velocity S-wave (km/s) = 3.57925 4.07766 3.83656
# Velocity P-wave (km/s) = 5.35039 6.24019 5.81234
#
# Compressibility (1/GPa) = 0.03387905
#
# Stress axis : x y z
#
# Youngs Moduli (GPa) = 88.20657 77.40493 67.85517
#
# Poissons Ratio (x) = 0.13703 -0.04557
# Poissons Ratio (y) = 0.15615 0.09896
# Poissons Ratio (z) = -0.05923 0.11289
#
# Static dielectric constant tensor:
#      x y z
#    x 2.047970 0.006510 0.026530 
#    y 0.006510 2.117380 -0.019330 
#    z 0.026530 -0.019330 2.149670 
# 
# From -- ./inp_files/297864.got.cif
#   From: 2010.05.17/outbox.cif.g08.bks.cpg/sg2_149_cif.got.tgz:297864.got - 2010.06.03 11:33:40.
