data_PCOD9103917
_publ_section_title
;
Structure prediction by ZEFSAII (Michael W. Deem and Ramdas Pophale) SiO2 
 PCOD9103917
Probable space group: P -1
;
_chemical_formula_sum "Si O2"
_cell_formula_units_Z 15
_cell_length_a 14.259534
_cell_length_b 8.638018
_cell_length_c 10.392025
_cell_angle_alpha 93.504795
_cell_angle_beta 152.653677
_cell_angle_gamma 82.030149
_cell_volume 576.886828
_symmetry_space_group_name_H-M "P -1"
_symmetry_group_IT_number 2
_symmetry_cell_setting 'triclinic'
loop_
_space_group_symop_operation_xyz
x,y,z
-x,-y,-z
loop_
_atom_site_type_symbol
_atom_site_label
_atom_site_fract_x
_atom_site_fract_y
_atom_site_fract_z
Si Si1 0.908826 0.653289 0.220278
Si Si2 0.913902 0.691406 0.514194
Si Si3 0.724431 0.990359 0.704783
Si Si4 0.496433 0.525834 0.683875
Si Si5 0.500000 0.500000 0.000000
Si Si6 0.483886 0.141923 0.888452
Si Si7 0.892390 0.225028 0.769887
Si Si8 0.302304 0.804253 0.091608
O O1 0.851955 0.729584 0.293627
O O2 0.077265 0.493948 0.456031
O O3 0.026615 0.749801 0.273179
O O4 0.698538 0.606130 0.904097
O O5 0.758622 0.793421 0.425943
O O6 0.137838 0.725685 0.810600
O O7 0.751980 0.092031 0.617960
O O8 0.500000 0.000000 0.500000
O O9 0.811603 0.091659 0.928980
O O10 0.886619 0.827450 0.891205
O O11 0.268763 0.619745 0.375344
O O12 0.499472 0.513550 0.842238
O O13 0.536775 0.347644 0.669910
O O14 0.454677 0.699092 0.968536
O O15 0.593552 0.101759 0.883509
O O16 0.500000 0.000000 0.000000
#
# Coordination Sequence:
#
# PCOD9103917 Si02
#       8
#     2   2   2   2   1   2   2   2
#     4  10  20  38  69  99 136 180 223 274 351 436
#     4  10  22  40  63 104 144 179 222 280 359 434
#     4  11  27  51  66  92 133 185 241 305 356 411
#     4  10  21  40  69 103 136 182 225 280 351 432
#     4  10  20  40  64 100 152 186 220 274 352 430
#     4  11  24  38  64 102 141 191 229 287 348 429
#     4  11  25  42  74  96 125 185 238 284 347 422
#     4  10  25  44  65  97 142 177 231 298 348 419
#
# _framework density 26.001633000000002
#
# number of rings (size 3 to 8) (size 9 to 14) (size 15 to 20)
#    0.000    1.600    1.333    2.400    9.333    5.333 
#    0.000    3.333    0.000    0.000    0.000    0.000 
#    0.000    0.000    0.000    0.000    0.000    0.000 
#
# Total GULP energy -83623.657124 kJ/mol
# GULP energy per Si atom -5574.910475 kJ/mol
# Density = 2.594245 g / cm^3
# Si number density = 26.001633 Si / 1000 Ang^3
#
#
#
# Elastic Constant Matrix: (Units=GPa)
#
#
# Indices 1 2 3 4 5 6 
#
# 1 164.9420 40.8491 28.6285 7.9669 10.9794 32.4168
# 2 40.8491 87.8149 33.7274 -9.1850 -1.4468 20.4723
# 3 28.6285 33.7274 89.6992 -20.3383 22.0655 15.9820
# 4 7.9669 -9.1850 -20.3383 37.7643 1.9884 4.5947
# 5 10.9794 -1.4468 22.0655 1.9884 28.9296 3.1238
# 6 32.4168 20.4723 15.9820 4.5947 3.1238 53.4008
#
#
#
# Elastic Compliance Matrix: (Units=1/GPa)
#
#
# Indices 1 2 3 4 5 6 
#
# 1 0.007760 -0.002814 -0.000957 -0.002370 -0.001866 -0.003033
# 2 -0.002814 0.015922 -0.005831 0.001364 0.006558 -0.003151
# 3 -0.000957 -0.005831 0.020790 0.011249 -0.016189 -0.003427
# 4 -0.002370 0.001364 0.011249 0.034460 -0.009456 -0.004863
# 5 -0.001866 0.006558 -0.016189 -0.009456 0.048445 0.001443
# 6 -0.003033 -0.003151 -0.003427 -0.004863 0.001443 0.023135
#
#
# Mechanical properties :
#
#
# Convention : Reuss Voigt Hill
#
# Bulk Modulus (GPa) = 39.57517 60.98513 50.28015
# Shear Modulus (GPa) = 28.06825 39.96900 34.01863
#
# Velocity S-wave (km/s) = 3.28911 3.92493 3.62100
# Velocity P-wave (km/s) = 5.44772 6.63667 6.07137
#
# Compressibility (1/GPa) = 0.02526837
#
# Stress axis : x y z
#
# Youngs Moduli (GPa) = 128.85918 62.80795 48.10061
#
# Poissons Ratio (x) = 0.17675 0.04601
# Poissons Ratio (y) = 0.36262 0.28047
# Poissons Ratio (z) = 0.12327 0.36623
#
# Static dielectric constant tensor:
#      x y z
#    x 1.972280 0.060950 0.069820 
#    y 0.060950 2.161580 0.105690 
#    z 0.069820 0.105690 2.344530 
# 
# From -- ./inp_files/447566.got.cif
#   From: 2010.05.17/outbox.cif.g08.bks.cpg/sg2_224_cif.got.tgz:447566.got - 2010.06.03 11:33:40.
