data_PCOD9103904
_publ_section_title
;
Structure prediction by ZEFSAII (Michael W. Deem and Ramdas Pophale) SiO2 
 PCOD9103904
Probable space group: P -1
;
_chemical_formula_sum "Si O2"
_cell_formula_units_Z 14
_cell_length_a 15.065435
_cell_length_b 7.711502
_cell_length_c 9.016786
_cell_angle_alpha 47.047205
_cell_angle_beta 54.021404
_cell_angle_gamma 83.383454
_cell_volume 543.853598
_symmetry_space_group_name_H-M "P -1"
_symmetry_group_IT_number 2
_symmetry_cell_setting 'triclinic'
loop_
_space_group_symop_operation_xyz
x,y,z
-x,-y,-z
loop_
_atom_site_type_symbol
_atom_site_label
_atom_site_fract_x
_atom_site_fract_y
_atom_site_fract_z
Si Si1 0.382492 0.165023 0.187261
Si Si2 0.634886 0.311287 0.991198
Si Si3 0.900797 0.956708 0.913394
Si Si4 0.888793 0.544218 0.421399
Si Si5 0.639357 0.679592 0.197277
Si Si6 0.009376 0.329985 0.228828
Si Si7 0.278452 0.735359 0.773491
O O1 0.381516 0.440877 0.070732
O O2 0.283549 0.945737 0.524203
O O3 0.510350 0.160609 0.104273
O O4 0.363217 0.149101 0.040946
O O5 0.761093 0.429864 0.704539
O O6 0.643898 0.149209 0.219619
O O7 0.969533 0.900752 0.737319
O O8 0.888256 0.741000 0.177345
O O9 0.756492 0.872991 0.072052
O O10 0.992212 0.251842 0.715324
O O11 0.905146 0.309351 0.458363
O O12 0.500000 0.500000 0.500000
O O13 0.675545 0.453784 0.240854
O O14 0.136841 0.529028 0.072340
O O15 0.000000 0.500000 0.000000
#
# Coordination Sequence:
#
# PCOD9103904 Si02
#       7
#     2   2   2   2   2   2   2
#     4  10  22  40  66  95 130 178 217 280 338 386
#     4  10  22  40  64  97 130 172 227 275 327 405
#     4   9  20  38  65  99 133 176 216 280 338 394
#     4  10  20  38  69  96 133 178 223 273 337 395
#     4  10  21  42  65  95 133 174 225 272 333 406
#     4   9  20  39  62  95 134 173 218 277 326 403
#     4  10  22  41  63  93 132 172 225 273 334 395
#
# _framework density 25.742221000000001
#
# number of rings (size 3 to 8) (size 9 to 14) (size 15 to 20)
#    0.000    2.286    0.000    1.286    6.000    1.143 
#    5.143    2.143    0.000    0.000    0.000    0.000 
#    0.000    0.000    0.000    0.000    0.000    0.000 
#
# Total GULP energy -78402.980221 kJ/mol
# GULP energy per Si atom -5600.212873 kJ/mol
# Density = 2.568363 g / cm^3
# Si number density = 25.742221 Si / 1000 Ang^3
#
#
#
# Elastic Constant Matrix: (Units=GPa)
#
#
# Indices 1 2 3 4 5 6 
#
# 1 141.7959 51.6396 54.2310 5.3646 -7.0756 28.4333
# 2 51.6396 104.2043 33.3904 11.6899 -11.0340 -2.6217
# 3 54.2310 33.3904 134.8784 14.5510 -11.8415 10.8267
# 4 5.3646 11.6899 14.5510 39.2138 -13.2918 1.2727
# 5 -7.0756 -11.0340 -11.8415 -13.2918 63.7820 1.7924
# 6 28.4333 -2.6217 10.8267 1.2727 1.7924 33.6636
#
#
#
# Elastic Compliance Matrix: (Units=1/GPa)
#
#
# Indices 1 2 3 4 5 6 
#
# 1 0.012032 -0.005419 -0.002834 0.001492 0.000456 -0.009754
# 2 -0.005419 0.013205 -0.001223 -0.002693 0.000725 0.006062
# 3 -0.002834 -0.001223 0.009228 -0.002414 0.000701 -0.000615
# 4 0.001492 -0.002693 -0.002414 0.028868 0.005326 -0.002069
# 5 0.000456 0.000725 0.000701 0.005326 0.017141 -0.001669
# 6 -0.009754 0.006062 -0.000615 -0.002069 -0.001669 0.038781
#
#
# Mechanical properties :
#
#
# Convention : Reuss Voigt Hill
#
# Bulk Modulus (GPa) = 64.46169 73.26672 68.86420
# Shear Modulus (GPa) = 34.87291 43.43974 39.15632
#
# Velocity S-wave (km/s) = 3.68461 4.11236 3.90435
# Velocity P-wave (km/s) = 6.57248 7.14648 6.86548
#
# Compressibility (1/GPa) = 0.01551309
#
# Stress axis : x y z
#
# Youngs Moduli (GPa) = 83.11159 75.72857 108.36869
#
# Poissons Ratio (x) = 0.41037 0.30714
# Poissons Ratio (y) = 0.45037 0.13250
# Poissons Ratio (z) = 0.23556 0.09259
#
# Static dielectric constant tensor:
#      x y z
#    x 2.073240 0.015890 -0.003420 
#    y 0.015890 2.002190 -0.017350 
#    z -0.003420 -0.017350 2.040280 
# 
# From -- ./inp_files/293929.got.cif
#   From: 2010.05.17/outbox.cif.g08.bks.cpg/sg2_147_cif.got.tgz:293929.got - 2010.06.03 11:33:40.
