data_PCOD9103224
_publ_section_title
;
Structure prediction by ZEFSAII (Michael W. Deem and Ramdas Pophale) SiO2 
 PCOD9103224
Probable space group: P -1
;
_chemical_formula_sum "Si O2"
_cell_formula_units_Z 15
_cell_length_a 21.867554
_cell_length_b 13.205137
_cell_length_c 9.170273
_cell_angle_alpha 34.716635
_cell_angle_beta 50.495826
_cell_angle_gamma 23.980140
_cell_volume 532.080593
_symmetry_space_group_name_H-M "P -1"
_symmetry_group_IT_number 2
_symmetry_cell_setting 'triclinic'
loop_
_space_group_symop_operation_xyz
x,y,z
-x,-y,-z
loop_
_atom_site_type_symbol
_atom_site_label
_atom_site_fract_x
_atom_site_fract_y
_atom_site_fract_z
Si Si1 0.425536 0.849761 0.014857
Si Si2 0.316194 0.974402 0.733064
Si Si3 0.470380 0.177977 0.542540
Si Si4 0.759985 0.331052 0.431357
Si Si5 0.083868 0.657001 0.960249
Si Si6 0.247301 0.799289 0.889097
Si Si7 0.000000 0.000000 0.000000
Si Si8 0.175420 0.150497 0.247395
O O1 0.293252 0.078539 0.809499
O O2 0.608136 0.415625 0.189173
O O3 0.458456 0.993491 0.804590
O O4 0.331602 0.950376 0.172722
O O5 0.348761 0.089567 0.457280
O O6 0.500000 0.500000 0.000000
O O7 0.188367 0.081198 0.743961
O O8 0.395762 0.407005 0.532818
O O9 0.353453 0.455546 0.247148
O O10 0.767085 0.508785 0.133692
O O11 0.770872 0.159890 0.495791
O O12 0.921349 0.006361 0.682606
O O13 0.131411 0.355246 0.215333
O O14 0.020429 0.860744 0.969782
O O15 0.104725 0.967822 0.827421
O O16 0.000000 0.500000 0.000000
#
# Coordination Sequence:
#
# PCOD9103224 Si02
#       8
#     2   2   2   2   2   2   1   2
#     4  10  18  32  58  92 117 147 203 258 301 344
#     4   8  16  28  50  83 113 146 192 245 295 337
#     4  10  16  32  60  89 117 145 200 262 301 342
#     4  10  18  36  61  87 117 147 207 252 292 345
#     4  10  22  37  57  88 117 162 194 247 301 349
#     4  10  20  34  55  84 120 165 195 239 305 359
#     4  12  24  40  60  80 132 164 198 234 302 382
#     4  10  20  33  60  91 118 148 196 259 305 344
#
# _framework density 28.191217999999999
#
# number of rings (size 3 to 8) (size 9 to 14) (size 15 to 20)
#    0.000    2.400    2.667    4.000    1.867    0.000 
#    0.000    1.333    5.867    1.600    0.000    0.000 
#    0.000    0.000    0.000    0.000    0.000    0.000 
#
# Total GULP energy -83716.311642 kJ/mol
# GULP energy per Si atom -5581.087443 kJ/mol
# Density = 2.812705 g / cm^3
# Si number density = 28.191218 Si / 1000 Ang^3
#
#
#
# Elastic Constant Matrix: (Units=GPa)
#
#
# Indices 1 2 3 4 5 6 
#
# 1 243.7778 55.8959 43.0307 0.7992 -40.2226 41.6896
# 2 55.8959 95.0598 23.1833 32.3201 12.1764 23.1190
# 3 43.0307 23.1833 84.5516 0.6849 -5.2102 10.5378
# 4 0.7992 32.3201 0.6849 44.6337 0.5443 4.6326
# 5 -40.2226 12.1764 -5.2102 0.5443 48.2176 4.3896
# 6 41.6896 23.1190 10.5378 4.6326 4.3896 62.4422
#
#
#
# Elastic Compliance Matrix: (Units=1/GPa)
#
#
# Indices 1 2 3 4 5 6 
#
# 1 0.007544 -0.005695 -0.001384 0.004284 0.007858 -0.003565
# 2 -0.005695 0.021569 -0.003301 -0.015156 -0.010220 -0.001784
# 3 -0.001384 -0.003301 0.013537 0.002233 0.001151 -0.000385
# 4 0.004284 -0.015156 0.002233 0.033242 0.007322 -0.000606
# 5 0.007858 -0.010220 0.001151 0.007322 0.030311 -0.004331
# 6 -0.003565 -0.001784 -0.000385 -0.000606 -0.004331 0.019470
#
#
# Mechanical properties :
#
#
# Convention : Reuss Voigt Hill
#
# Bulk Modulus (GPa) = 45.67860 74.17878 59.92869
# Shear Modulus (GPa) = 32.52428 51.14399 41.83414
#
# Velocity S-wave (km/s) = 3.40030 4.26394 3.85638
# Velocity P-wave (km/s) = 5.62622 7.11417 6.41350
#
# Compressibility (1/GPa) = 0.02189209
#
# Stress axis : x y z
#
# Youngs Moduli (GPa) = 132.54890 46.36223 73.86918
#
# Poissons Ratio (x) = 0.26401 0.10226
# Poissons Ratio (y) = 0.75481 0.24382
# Poissons Ratio (z) = 0.18348 0.15303
#
# Static dielectric constant tensor:
#      x y z
#    x 2.251920 -0.081680 0.054950 
#    y -0.081680 2.250540 -0.067490 
#    z 0.054950 -0.067490 2.453650 
# 
# From -- ./inp_files/345845.got.cif
#   From: 2010.05.17/outbox.cif.g08.bks.cpg/sg2_173_cif.got.tgz:345845.got - 2010.06.03 11:33:40.
