data_PCOD9103485
_publ_section_title
;
Structure prediction by ZEFSAII (Michael W. Deem and Ramdas Pophale) SiO2 
 PCOD9103485
Probable space group: P -1
;
_chemical_formula_sum "Si O2"
_cell_formula_units_Z 16
_cell_length_a 11.004521
_cell_length_b 8.919522
_cell_length_c 10.999063
_cell_angle_alpha 131.318867
_cell_angle_beta 115.172890
_cell_angle_gamma 87.378967
_cell_volume 688.537764
_symmetry_space_group_name_H-M "P -1"
_symmetry_group_IT_number 2
_symmetry_cell_setting 'triclinic'
loop_
_space_group_symop_operation_xyz
x,y,z
-x,-y,-z
loop_
_atom_site_type_symbol
_atom_site_label
_atom_site_fract_x
_atom_site_fract_y
_atom_site_fract_z
Si Si1 0.712388 0.901081 0.658040
Si Si2 0.834961 0.736896 0.212345
Si Si3 0.777898 0.526936 0.581590
Si Si4 0.856561 0.074122 0.596746
Si Si5 0.407156 0.869686 0.571072
Si Si6 0.063374 0.807334 0.935053
Si Si7 0.537986 0.693681 0.025322
Si Si8 0.227621 0.582602 0.751642
O O1 0.719376 0.721626 0.657163
O O2 0.549114 0.877720 0.566330
O O3 0.788912 0.877300 0.553723
O O4 0.822467 0.126178 0.871822
O O5 0.693744 0.696942 0.048941
O O6 0.815324 0.567843 0.224819
O O7 0.983685 0.775036 0.228212
O O8 0.855845 0.965430 0.407522
O O9 0.652371 0.319785 0.460390
O O10 0.824126 0.498569 0.448537
O O11 0.921173 0.598660 0.762747
O O12 0.730014 0.168722 0.593421
O O13 0.443634 0.092871 0.776566
O O14 0.162943 0.769433 0.850362
O O15 0.000000 0.000000 0.000000
O O16 0.500000 0.500000 0.000000
O O17 0.401282 0.655225 0.861044
#
# Coordination Sequence:
#
# PCOD9103485 Si02
#       8
#     2   2   2   2   2   2   2   2
#     4  11  22  44  64  93 133 179 213 267 333 385
#     4   9  19  37  64  97 127 155 218 275 310 384
#     4  11  24  40  66  96 128 177 224 263 323 388
#     4  10  20  38  66  94 123 167 218 263 324 384
#     4  11  22  41  65  97 135 168 218 271 325 388
#     4  10  23  41  61  90 135 173 215 268 322 384
#     4   9  20  38  66  95 131 166 207 278 327 374
#     4  11  19  41  66  91 129 174 217 263 330 383
#
# _framework density 23.237651
#
# number of rings (size 3 to 8) (size 9 to 14) (size 15 to 20)
#    0.000    1.750    2.500    1.875    0.000    0.500 
#    6.750    5.000    0.000    0.000    0.000    0.000 
#    0.000    0.000    0.000    0.000    0.000    0.000 
#
# Total GULP energy -89167.450573 kJ/mol
# GULP energy per Si atom -5572.965661 kJ/mol
# Density = 2.318476 g / cm^3
# Si number density = 23.237651 Si / 1000 Ang^3
#
#
#
# Elastic Constant Matrix: (Units=GPa)
#
#
# Indices 1 2 3 4 5 6 
#
# 1 162.7535 46.6324 42.8276 -4.7934 45.4483 -12.5515
# 2 46.6324 60.0393 22.8583 9.6931 17.6854 8.1767
# 3 42.8276 22.8583 60.8585 7.9841 21.9047 -11.6550
# 4 -4.7934 9.6931 7.9841 18.7749 -4.2820 8.3455
# 5 45.4483 17.6854 21.9047 -4.2820 40.3719 -5.7766
# 6 -12.5515 8.1767 -11.6550 8.3455 -5.7766 28.1736
#
#
#
# Elastic Compliance Matrix: (Units=1/GPa)
#
#
# Indices 1 2 3 4 5 6 
#
# 1 0.011146 -0.006573 -0.002793 0.004481 -0.007262 0.002901
# 2 -0.006573 0.028329 -0.005000 -0.010348 -0.004994 -0.011177
# 3 -0.002793 -0.005000 0.030059 -0.020744 -0.010803 0.016571
# 4 0.004481 -0.010348 -0.020744 0.083327 0.016007 -0.024983
# 5 -0.007262 -0.004994 -0.010803 0.016007 0.042361 -0.002311
# 6 0.002901 -0.011177 0.016571 -0.024983 -0.002311 0.053813
#
#
# Mechanical properties :
#
#
# Convention : Reuss Voigt Hill
#
# Bulk Modulus (GPa) = 24.50942 56.47644 40.49293
# Shear Modulus (GPa) = 17.16044 28.88628 23.02336
#
# Velocity S-wave (km/s) = 2.72044 3.52956 3.15108
# Velocity P-wave (km/s) = 4.52083 6.40055 5.54098
#
# Compressibility (1/GPa) = 0.04080065
#
# Stress axis : x y z
#
# Youngs Moduli (GPa) = 89.71447 35.29987 33.26826
#
# Poissons Ratio (x) = 0.23204 0.09293
# Poissons Ratio (y) = 0.58972 0.16634
# Poissons Ratio (z) = 0.25061 0.17649
#
# Static dielectric constant tensor:
#      x y z
#    x 1.929100 -0.000260 -0.005420 
#    y -0.000260 1.995290 -0.001310 
#    z -0.005420 -0.001310 1.918720 
# 
# From -- ./inp_files/415850.got.cif
#   From: 2010.05.17/outbox.cif.g08.bks.cpg/sg2_208_cif.got.tgz:415850.got - 2010.06.03 11:33:40.
