data_PCOD9103262
_publ_section_title
;
Structure prediction by ZEFSAII (Michael W. Deem and Ramdas Pophale) SiO2 
 PCOD9103262
Probable space group: P -1
;
_chemical_formula_sum "Si O2"
_cell_formula_units_Z 14
_cell_length_a 5.547242
_cell_length_b 8.635972
_cell_length_c 19.939400
_cell_angle_alpha 45.401784
_cell_angle_beta 54.868363
_cell_angle_gamma 66.380561
_cell_volume 556.245416
_symmetry_space_group_name_H-M "P -1"
_symmetry_group_IT_number 2
_symmetry_cell_setting 'triclinic'
loop_
_space_group_symop_operation_xyz
x,y,z
-x,-y,-z
loop_
_atom_site_type_symbol
_atom_site_label
_atom_site_fract_x
_atom_site_fract_y
_atom_site_fract_z
Si Si1 0.303336 0.543919 0.722016
Si Si2 0.800070 0.208267 0.918422
Si Si3 0.888508 0.193848 0.056063
Si Si4 0.231998 0.270541 0.607256
Si Si5 0.726983 0.117274 0.477339
Si Si6 0.326679 0.581888 0.852688
Si Si7 0.666107 0.333997 0.623373
O O1 0.146068 0.687536 0.647579
O O2 0.346610 0.666322 0.747920
O O3 0.600493 0.476838 0.656726
O O4 0.118238 0.327740 0.831984
O O5 0.580443 0.400714 0.874910
O O6 0.857196 0.993459 0.929179
O O7 0.722932 0.146138 0.026800
O O8 0.697960 0.235114 0.141207
O O9 0.032359 0.432769 0.949637
O O10 0.510037 0.176614 0.553432
O O11 0.342444 0.262718 0.668703
O O12 0.221624 0.515228 0.502397
O O13 0.922048 0.176186 0.657491
O O14 0.500000 0.000000 0.500000
O O15 0.000000 0.000000 0.500000
#
# Coordination Sequence:
#
# PCOD9103262 Si02
#       7
#     2   2   2   2   2   2   2
#     4  10  24  38  60  94 126 168 226 281 340 394
#     4  10  20  38  65  94 131 172 214 273 330 409
#     4   9  20  39  62  98 128 172 219 255 341 415
#     4   9  18  35  58  82 111 159 215 261 321 389
#     4  11  24  42  64  90 131 181 226 281 343 406
#     4  10  20  38  65  94 134 171 212 274 332 407
#     4   9  18  34  58  84 113 155 209 268 318 380
#
# _framework density 25.168747
#
# number of rings (size 3 to 8) (size 9 to 14) (size 15 to 20)
#    0.000    2.286    0.000    1.714    4.000    2.286 
#    2.571    2.857    0.000    0.000    0.000    0.000 
#    0.000    0.000    0.000    0.000    0.000    0.000 
#
# Total GULP energy -78042.337123 kJ/mol
# GULP energy per Si atom -5574.452652 kJ/mol
# Density = 2.511146 g / cm^3
# Si number density = 25.168747 Si / 1000 Ang^3
#
#
#
# Elastic Constant Matrix: (Units=GPa)
#
#
# Indices 1 2 3 4 5 6 
#
# 1 133.3917 53.5204 23.4295 8.8002 28.0190 -21.4263
# 2 53.5204 152.3268 58.7087 28.0889 39.4826 -2.1815
# 3 23.4295 58.7087 87.9987 22.2290 21.7541 1.7172
# 4 8.8002 28.0889 22.2290 49.4605 10.6573 4.3143
# 5 28.0190 39.4826 21.7541 10.6573 29.5598 -14.0118
# 6 -21.4263 -2.1815 1.7172 4.3143 -14.0118 42.4127
#
#
#
# Elastic Compliance Matrix: (Units=1/GPa)
#
#
# Indices 1 2 3 4 5 6 
#
# 1 0.009936 -0.002152 -0.000099 0.000309 -0.005060 0.003209
# 2 -0.002152 0.012564 -0.004000 -0.001690 -0.013326 -0.004510
# 3 -0.000099 -0.004000 0.016718 -0.003467 -0.006986 -0.002888
# 4 0.000309 -0.001690 -0.003467 0.024436 -0.006371 -0.004381
# 5 -0.005060 -0.013326 -0.006986 -0.006371 0.074423 0.022276
# 6 0.003209 -0.004510 -0.002888 -0.004381 0.022276 0.032889
#
#
# Mechanical properties :
#
#
# Convention : Reuss Voigt Hill
#
# Bulk Modulus (GPa) = 37.43265 71.67050 54.55157
# Shear Modulus (GPa) = 25.99129 40.15716 33.07423
#
# Velocity S-wave (km/s) = 3.21702 3.99873 3.62898
# Velocity P-wave (km/s) = 5.35760 7.06099 6.26743
#
# Compressibility (1/GPa) = 0.02671465
#
# Stress axis : x y z
#
# Youngs Moduli (GPa) = 100.64723 79.59522 59.81651
#
# Poissons Ratio (x) = 0.17130 0.00595
# Poissons Ratio (y) = 0.21660 0.23925
# Poissons Ratio (z) = 0.01001 0.31836
#
# Static dielectric constant tensor:
#      x y z
#    x 2.133040 0.036230 -0.013580 
#    y 0.036230 2.019930 -0.057980 
#    z -0.013580 -0.057980 1.996340 
# 
# From -- ./inp_files/547703.got.cif
#   From: 2010.05.17/outbox.cif.g08.bks.cpg/sg2_274_cif.got.tgz:547703.got - 2010.06.03 11:33:40.
