data_PCOD9104853
_publ_section_title
;
Structure prediction by ZEFSAII (Michael W. Deem and Ramdas Pophale) SiO2 
 PCOD9104853
Probable space group: P -1
;
_chemical_formula_sum "Si O2"
_cell_formula_units_Z 13
_cell_length_a 7.041563
_cell_length_b 7.829158
_cell_length_c 11.850121
_cell_angle_alpha 54.284658
_cell_angle_beta 108.909422
_cell_angle_gamma 85.291968
_cell_volume 469.466335
_symmetry_space_group_name_H-M "P -1"
_symmetry_group_IT_number 2
_symmetry_cell_setting 'triclinic'
loop_
_space_group_symop_operation_xyz
x,y,z
-x,-y,-z
loop_
_atom_site_type_symbol
_atom_site_label
_atom_site_fract_x
_atom_site_fract_y
_atom_site_fract_z
Si Si1 0.321464 0.554996 0.793316
Si Si2 0.000000 0.500000 0.000000
Si Si3 0.788681 0.175605 0.545306
Si Si4 0.189022 0.306989 0.312471
Si Si5 0.406079 0.866029 0.878112
Si Si6 0.185497 0.284599 0.563417
Si Si7 0.953218 0.975887 0.870890
O O1 0.337248 0.622347 0.640495
O O2 0.073428 0.620135 0.761286
O O3 0.408806 0.705851 0.833857
O O4 0.421116 0.291686 0.941949
O O5 0.806268 0.538521 0.850796
O O6 0.886520 0.761870 0.915845
O O7 0.034146 0.135871 0.566547
O O8 0.729010 0.958790 0.589582
O O9 0.803854 0.177437 0.683513
O O10 0.260356 0.346316 0.434810
O O11 0.182723 0.914448 0.879786
O O12 0.382246 0.116019 0.736499
O O13 0.000000 0.500000 0.500000
O O14 0.000000 0.000000 0.000000
#
# Coordination Sequence:
#
# PCOD9104853 Si02
#       7
#     2   1   2   2   2   2   2
#     4  10  16  33  59  77 108 132 182 231 272 317
#     4  10  20  32  54  80 104 142 184 216 262 316
#     4   9  17  34  51  77 100 140 181 214 268 311
#     4  10  17  33  52  76 103 139 180 210 266 320
#     4  10  19  32  55  86 101 140 180 226 276 311
#     4  10  18  29  51  78 104 130 177 223 259 317
#     4  10  21  36  56  78 109 144 189 219 259 334
#
# _framework density 27.691018
#
# number of rings (size 3 to 8) (size 9 to 14) (size 15 to 20)
#    0.000    2.154    6.154    0.923    4.308    0.000 
#    0.000    3.846    0.000    8.308    0.000    0.000 
#    0.000    0.000    0.000    0.000    0.000    0.000 
#
# Total GULP energy -72383.479023 kJ/mol
# GULP energy per Si atom -5567.959925 kJ/mol
# Density = 2.762799 g / cm^3
# Si number density = 27.691018 Si / 1000 Ang^3
#
#
#
# Elastic Constant Matrix: (Units=GPa)
#
#
# Indices 1 2 3 4 5 6 
#
# 1 62.8475 8.8296 52.3179 0.2399 -14.0606 -17.7323
# 2 8.8296 118.8999 32.6426 9.1512 14.4647 -5.9848
# 3 52.3179 32.6426 24.3650 22.9383 119.0550 -21.5821
# 4 0.2399 9.1512 22.9383 57.3270 -17.2469 -6.4378
# 5 -14.0606 14.4647 119.0550 -17.2469 -18.1036 3.1963
# 6 -17.7323 -5.9848 -21.5821 -6.4378 3.1963 23.0264
#
#
#
# Elastic Compliance Matrix: (Units=1/GPa)
#
#
# Indices 1 2 3 4 5 6 
#
# 1 0.018390 -0.000161 0.000921 -0.000268 -0.005337 0.015649
# 2 -0.000161 0.009210 -0.001609 -0.001283 -0.001761 0.000648
# 3 0.000921 -0.001609 0.001774 0.002090 0.007931 0.001438
# 4 -0.000268 -0.001283 0.002090 0.016919 -0.002052 0.006434
# 5 -0.005337 -0.001761 0.007931 -0.002052 0.001966 0.002019
# 6 0.015649 0.000648 0.001438 0.006434 0.002019 0.058514
#
#
# Mechanical properties :
#
#
# Convention : Reuss Voigt Hill
#
# Bulk Modulus (GPa) = 36.13217 43.74362 39.93789
# Shear Modulus (GPa) = 42.48244 19.93813 31.21028
#
# Velocity S-wave (km/s) = 3.92108 2.68623 3.36086
# Velocity P-wave (km/s) = 5.79453 5.04504 5.43272
#
# Compressibility (1/GPa) = 0.02767617
#
# Stress axis : x y z
#
# Youngs Moduli (GPa) = 54.37784 108.58262 563.57442
#
# Poissons Ratio (x) = 0.01746 -0.51898
# Poissons Ratio (y) = 0.00875 0.90671
# Poissons Ratio (z) = -0.05007 0.17469
#
# Static dielectric constant tensor:
#      x y z
#    x 2.372420 0.039010 -0.082830 
#    y 0.039010 2.175050 0.006370 
#    z -0.082830 0.006370 2.235820 
# 
# From -- ./inp_files/152137.got.cif
#   From: 2010.05.17/outbox.cif.g08.bks.cpg/sg2_77_cif.got.tgz:152137.got - 2010.06.03 11:33:40.
