data_PCOD9104578
_publ_section_title
;
Structure prediction by ZEFSAII (Michael W. Deem and Ramdas Pophale) SiO2 
 PCOD9104578
Probable space group: P -1
;
_chemical_formula_sum "Si O2"
_cell_formula_units_Z 15
_cell_length_a 14.362940
_cell_length_b 7.228791
_cell_length_c 9.493047
_cell_angle_alpha 47.065967
_cell_angle_beta 72.772620
_cell_angle_gamma 97.880514
_cell_volume 602.926391
_symmetry_space_group_name_H-M "P -1"
_symmetry_group_IT_number 2
_symmetry_cell_setting 'triclinic'
loop_
_space_group_symop_operation_xyz
x,y,z
-x,-y,-z
loop_
_atom_site_type_symbol
_atom_site_label
_atom_site_fract_x
_atom_site_fract_y
_atom_site_fract_z
Si Si1 0.125334 0.132822 0.724214
Si Si2 0.547771 0.153485 0.750588
Si Si3 0.359294 0.659892 0.932960
Si Si4 0.231213 0.799497 0.343692
Si Si5 0.500000 0.000000 0.500000
Si Si6 0.030970 0.883432 0.411378
Si Si7 0.351056 0.299138 0.394990
Si Si8 0.167530 0.718509 0.110333
O O1 0.162406 0.458414 0.585617
O O2 0.006547 0.009586 0.764881
O O3 0.218323 0.162507 0.552365
O O4 0.135300 0.938834 0.940237
O O5 0.649913 0.097632 0.698122
O O6 0.596572 0.486067 0.602921
O O7 0.460289 0.998176 0.743803
O O8 0.500000 0.000000 0.000000
O O9 0.404493 0.648259 0.766313
O O10 0.373612 0.477954 0.146443
O O11 0.238307 0.632643 0.016747
O O12 0.247978 0.833663 0.149477
O O13 0.156089 0.944424 0.333821
O O14 0.397329 0.078079 0.484615
O O15 0.943777 0.542121 0.640100
O O16 0.000000 0.000000 0.500000
#
# Coordination Sequence:
#
# PCOD9104578 Si02
#       8
#     2   2   2   2   1   2   2   2
#     4  10  20  40  68  89 119 163 214 255 304 370
#     4   9  18  39  65  90 122 161 211 256 295 361
#     4  11  21  40  63  90 127 169 204 258 307 366
#     4  10  21  41  65  94 118 165 209 255 312 361
#     4  12  24  34  56  96 128 170 210 238 318 376
#     4  11  25  42  64  92 129 160 202 263 320 373
#     4  10  20  39  61  89 127 165 207 254 308 368
#     4  11  20  41  69  87 120 165 213 254 308 369
#
# _framework density 24.878658000000001
#
# number of rings (size 3 to 8) (size 9 to 14) (size 15 to 20)
#    0.000    1.600    6.667    2.000    0.000    4.267 
#    4.800    0.000    0.000    0.000    0.000    0.000 
#    0.000    0.000    0.000    0.000    0.000    0.000 
#
# Total GULP energy -83654.159889 kJ/mol
# GULP energy per Si atom -5576.943993 kJ/mol
# Density = 2.482203 g / cm^3
# Si number density = 24.878658 Si / 1000 Ang^3
#
#
#
# Elastic Constant Matrix: (Units=GPa)
#
#
# Indices 1 2 3 4 5 6 
#
# 1 129.7599 46.5801 33.9179 -8.0201 14.9689 -22.0645
# 2 46.5801 58.2600 -1.9385 -1.4132 -1.5796 -17.8402
# 3 33.9179 -1.9385 76.4015 5.8475 20.6110 -8.2613
# 4 -8.0201 -1.4132 5.8475 21.0669 -20.8153 -7.0184
# 5 14.9689 -1.5796 20.6110 -20.8153 51.8817 9.2181
# 6 -22.0645 -17.8402 -8.2613 -7.0184 9.2181 44.8990
#
#
#
# Elastic Compliance Matrix: (Units=1/GPa)
#
#
# Indices 1 2 3 4 5 6 
#
# 1 0.014316 -0.010645 -0.007644 0.009693 0.002028 0.002498
# 2 -0.010645 0.027903 0.006687 -0.002825 -0.001089 0.006868
# 3 -0.007644 0.006687 0.023763 -0.025754 -0.017882 0.002918
# 4 0.009693 -0.002825 -0.025754 0.109811 0.050389 0.005722
# 5 0.002028 -0.001089 -0.017882 0.050389 0.046768 -0.004452
# 6 0.002498 0.006868 0.002918 0.005722 -0.004452 0.028574
#
#
# Mechanical properties :
#
#
# Convention : Reuss Voigt Hill
#
# Bulk Modulus (GPa) = 23.37773 46.83781 35.10777
# Shear Modulus (GPa) = 17.32503 35.96030 26.64266
#
# Velocity S-wave (km/s) = 2.64177 3.80600 3.27602
# Velocity P-wave (km/s) = 4.32693 6.17912 5.33404
#
# Compressibility (1/GPa) = 0.04277576
#
# Stress axis : x y z
#
# Youngs Moduli (GPa) = 69.85177 35.83822 42.08233
#
# Poissons Ratio (x) = 0.38151 0.32169
# Poissons Ratio (y) = 0.74360 -0.28138
# Poissons Ratio (z) = 0.53397 -0.23963
#
# Static dielectric constant tensor:
#      x y z
#    x 1.944390 0.022420 -0.122670 
#    y 0.022420 1.799040 -0.240170 
#    z -0.122670 -0.240170 1.958390 
# 
# From -- ./inp_files/253400.got.cif
#   From: 2010.05.17/outbox.cif.g08.bks.cpg/sg2_127_cif.got.tgz:253400.got - 2010.06.03 11:33:40.
