data_PCOD9104619
_publ_section_title
;
Structure prediction by ZEFSAII (Michael W. Deem and Ramdas Pophale) SiO2 
 PCOD9104619
Probable space group: P -1
;
_chemical_formula_sum "Si O2"
_cell_formula_units_Z 16
_cell_length_a 11.610993
_cell_length_b 14.797819
_cell_length_c 11.882162
_cell_angle_alpha 58.450397
_cell_angle_beta 48.003272
_cell_angle_gamma 29.233761
_cell_volume 730.574694
_symmetry_space_group_name_H-M "P -1"
_symmetry_group_IT_number 2
_symmetry_cell_setting 'triclinic'
loop_
_space_group_symop_operation_xyz
x,y,z
-x,-y,-z
loop_
_atom_site_type_symbol
_atom_site_label
_atom_site_fract_x
_atom_site_fract_y
_atom_site_fract_z
Si Si1 0.722990 0.595128 0.143646
Si Si2 0.393662 0.405176 0.033616
Si Si3 0.374705 0.990343 0.178773
Si Si4 0.438506 0.036248 0.685788
Si Si5 0.963283 0.303767 0.551545
Si Si6 0.819444 0.337840 0.392297
Si Si7 0.934997 0.547624 0.379826
Si Si8 0.116579 0.748251 0.122132
O O1 0.518704 0.796038 0.199370
O O2 0.818023 0.454866 0.261925
O O3 0.615111 0.610847 0.083742
O O4 0.000000 0.500000 0.000000
O O5 0.202885 0.426815 0.209195
O O6 0.247158 0.599632 0.037060
O O7 0.701658 0.248900 0.982562
O O8 0.444666 0.012928 0.233608
O O9 0.048409 0.154825 0.282692
O O10 0.500000 0.000000 0.000000
O O11 0.279079 0.236877 0.637041
O O12 0.210322 0.072564 0.801727
O O13 0.707850 0.867474 0.544196
O O14 0.835535 0.484127 0.467789
O O15 0.912583 0.255200 0.512191
O O16 0.850877 0.330295 0.726939
O O17 0.500000 0.500000 0.500000
O O18 0.000000 0.500000 0.500000
#
# Coordination Sequence:
#
# PCOD9104619 Si02
#       8
#     2   2   2   2   2   2   2   2
#     4  12  22  42  70  94 133 177 225 275 330 394
#     4  10  22  37  61  94 130 163 210 266 326 381
#     4  11  24  42  67 102 127 176 231 274 323 404
#     4  10  22  39  65  91 127 162 218 266 318 382
#     4  11  21  40  66  89 124 168 216 259 318 395
#     4  11  25  42  67  99 132 174 219 278 342 383
#     4  11  21  38  62  91 120 167 216 255 311 390
#     4  10  20  39  61  91 130 167 202 265 330 381
#
# _framework density 21.900566999999999
#
# number of rings (size 3 to 8) (size 9 to 14) (size 15 to 20)
#    0.000    1.250    3.750    4.125    1.750    0.500 
#    0.000    1.875    0.000    0.000    0.000    0.000 
#    0.000    0.000    0.000    0.000    0.000    0.000 
#
# Total GULP energy -89189.692182 kJ/mol
# GULP energy per Si atom -5574.355761 kJ/mol
# Density = 2.185072 g / cm^3
# Si number density = 21.900567 Si / 1000 Ang^3
#
#
#
# Elastic Constant Matrix: (Units=GPa)
#
#
# Indices 1 2 3 4 5 6 
#
# 1 66.4946 -7.9357 16.3587 14.4331 11.4806 -10.4935
# 2 -7.9357 91.3540 15.9925 24.5798 -8.6729 0.8571
# 3 16.3587 15.9925 90.3665 10.2471 5.8782 1.3633
# 4 14.4331 24.5798 10.2471 39.0066 -6.9600 -6.0752
# 5 11.4806 -8.6729 5.8782 -6.9600 37.6458 5.7469
# 6 -10.4935 0.8571 1.3633 -6.0752 5.7469 32.3505
#
#
#
# Elastic Compliance Matrix: (Units=1/GPa)
#
#
# Indices 1 2 3 4 5 6 
#
# 1 0.020741 0.004209 -0.002966 -0.009947 -0.007684 0.006238
# 2 0.004209 0.014500 -0.002207 -0.010143 0.000671 -0.000950
# 3 -0.002966 -0.002207 0.012252 -0.001218 -0.001532 -0.001376
# 4 -0.009947 -0.010143 -0.001218 0.037803 0.007438 0.002871
# 5 -0.007684 0.000671 -0.001532 0.007438 0.031695 -0.006679
# 6 0.006238 -0.000950 -0.001376 0.002871 -0.006679 0.034744
#
#
# Mechanical properties :
#
#
# Convention : Reuss Voigt Hill
#
# Bulk Modulus (GPa) = 21.94633 33.00514 27.47573
# Shear Modulus (GPa) = 29.61167 36.72056 33.16611
#
# Velocity S-wave (km/s) = 3.68107 4.09919 3.89574
# Velocity P-wave (km/s) = 5.30186 6.12435 5.72789
#
# Compressibility (1/GPa) = 0.04556570
#
# Stress axis : x y z
#
# Youngs Moduli (GPa) = 48.21348 68.96432 81.61830
#
# Poissons Ratio (x) = -0.29030 0.24208
# Poissons Ratio (y) = -0.20295 0.18016
# Poissons Ratio (z) = 0.14300 0.15223
#
# Static dielectric constant tensor:
#      x y z
#    x 1.934610 0.026580 -0.009510 
#    y 0.026580 1.632510 0.021170 
#    z -0.009510 0.021170 1.771810 
# 
# From -- ./inp_files/432690.got.cif
#   From: 2010.05.17/outbox.cif.g08.bks.cpg/sg2_217_cif.got.tgz:432690.got - 2010.06.03 11:33:40.
