data_PCOD9104411
_publ_section_title
;
Structure prediction by ZEFSAII (Michael W. Deem and Ramdas Pophale) SiO2 
 PCOD9104411
Probable space group: P -1
;
_chemical_formula_sum "Si O2"
_cell_formula_units_Z 16
_cell_length_a 31.679436
_cell_length_b 5.302781
_cell_length_c 9.613894
_cell_angle_alpha 114.249928
_cell_angle_beta 149.862794
_cell_angle_gamma 82.805886
_cell_volume 639.251712
_symmetry_space_group_name_H-M "P -1"
_symmetry_group_IT_number 2
_symmetry_cell_setting 'triclinic'
loop_
_space_group_symop_operation_xyz
x,y,z
-x,-y,-z
loop_
_atom_site_type_symbol
_atom_site_label
_atom_site_fract_x
_atom_site_fract_y
_atom_site_fract_z
Si Si1 0.099132 0.174321 0.912695
Si Si2 0.208149 0.227973 0.977200
Si Si3 0.154218 0.366809 0.585497
Si Si4 0.011237 0.544711 0.204420
Si Si5 0.664165 0.010068 0.825049
Si Si6 0.499013 0.166588 0.890323
Si Si7 0.336742 0.799812 0.838536
Si Si8 0.206129 0.081693 0.426065
O O1 0.189083 0.308867 0.093530
O O2 0.079115 0.430594 0.991241
O O3 0.120550 0.966751 0.038710
O O4 0.000000 0.000000 0.500000
O O5 0.199752 0.442565 0.884781
O O6 0.109674 0.882364 0.594588
O O7 0.305984 0.230101 0.216690
O O8 0.046751 0.299058 0.292253
O O9 0.163675 0.107450 0.461665
O O10 0.227834 0.683739 0.783750
O O11 0.000000 0.500000 0.000000
O O12 0.594889 0.040659 0.523231
O O13 0.622775 0.971187 0.854778
O O14 0.500000 0.500000 0.000000
O O15 0.586221 0.199847 0.049176
O O16 0.500000 0.000000 0.000000
O O17 0.277694 0.440359 0.651422
O O18 0.272047 0.924344 0.604262
#
# Coordination Sequence:
#
# PCOD9104411 Si02
#       8
#     2   2   2   2   2   2   2   2
#     4  10  23  42  59  96 138 180 227 284 349 397
#     4  10  22  40  63  93 132 176 223 283 347 395
#     4  10  21  40  68  96 130 179 236 283 337 401
#     4  10  20  39  60  92 134 175 233 281 336 405
#     4  10  24  45  70  98 137 179 228 277 340 417
#     4  12  29  47  72 109 145 176 222 282 348 414
#     4  11  25  47  75 101 134 185 228 281 340 406
#     4  11  23  45  71 102 136 179 237 280 336 408
#
# _framework density 25.029263
#
# number of rings (size 3 to 8) (size 9 to 14) (size 15 to 20)
#    0.000    1.500    2.500    1.125    5.250    1.000 
#    9.000    3.125    0.000    0.000    0.000    0.000 
#    0.000    0.000    0.000    0.000    0.000    0.000 
#
# Total GULP energy -89286.777519 kJ/mol
# GULP energy per Si atom -5580.423595 kJ/mol
# Density = 2.497229 g / cm^3
# Si number density = 25.029263 Si / 1000 Ang^3
#
#
#
# Elastic Constant Matrix: (Units=GPa)
#
#
# Indices 1 2 3 4 5 6 
#
# 1 250.7977 70.5223 60.4942 -29.0934 1.1222 -26.3516
# 2 70.5223 117.4505 45.9271 -35.0767 3.9068 -16.3714
# 3 60.4942 45.9271 122.3285 -36.0922 -1.7263 -10.0449
# 4 -29.0934 -35.0767 -36.0922 45.9056 0.2220 -0.7253
# 5 1.1222 3.9068 -1.7263 0.2220 50.0418 -4.4627
# 6 -26.3516 -16.3714 -10.0449 -0.7253 -4.4627 42.7085
#
#
#
# Elastic Compliance Matrix: (Units=1/GPa)
#
#
# Indices 1 2 3 4 5 6 
#
# 1 0.005215 -0.002103 -0.001437 0.000601 0.000183 0.002103
# 2 -0.002103 0.013103 -0.001338 0.007686 -0.000747 0.003463
# 3 -0.001437 -0.001338 0.011664 0.007259 0.000644 0.001535
# 4 0.000601 0.007686 0.007259 0.033833 -0.000014 0.005597
# 5 0.000183 -0.000747 0.000644 -0.000014 0.020246 0.002093
# 6 0.002103 0.003463 0.001535 0.005597 0.002093 0.026714
#
#
# Mechanical properties :
#
#
# Convention : Reuss Voigt Hill
#
# Bulk Modulus (GPa) = 49.43947 93.82931 71.63439
# Shear Modulus (GPa) = 39.28528 48.64006 43.96267
#
# Velocity S-wave (km/s) = 3.96608 4.41310 4.19555
# Velocity P-wave (km/s) = 6.38503 7.97098 7.22167
#
# Compressibility (1/GPa) = 0.02022675
#
# Stress axis : x y z
#
# Youngs Moduli (GPa) = 191.75294 76.31820 85.73072
#
# Poissons Ratio (x) = 0.16049 0.12318
# Poissons Ratio (y) = 0.40325 0.11471
# Poissons Ratio (z) = 0.27553 0.10212
#
# Static dielectric constant tensor:
#      x y z
#    x 1.921040 -0.069800 0.043070 
#    y -0.069800 2.074810 0.134240 
#    z 0.043070 0.134240 2.148070 
# 
# From -- ./inp_files/104971.got.cif
#   From: 2010.05.17/outbox.cif.g08.bks.cpg/sg2_53_cif.got.tgz:104971.got - 2010.06.03 11:33:40.
