data_PCOD9104736
_publ_section_title
;
Structure prediction by ZEFSAII (Michael W. Deem and Ramdas Pophale) SiO2 
 PCOD9104736
Probable space group: P -1
;
_chemical_formula_sum "Si O2"
_cell_formula_units_Z 16
_cell_length_a 10.621011
_cell_length_b 13.230261
_cell_length_c 11.291514
_cell_angle_alpha 113.250092
_cell_angle_beta 94.242202
_cell_angle_gamma 32.043351
_cell_volume 653.627179
_symmetry_space_group_name_H-M "P -1"
_symmetry_group_IT_number 2
_symmetry_cell_setting 'triclinic'
loop_
_space_group_symop_operation_xyz
x,y,z
-x,-y,-z
loop_
_atom_site_type_symbol
_atom_site_label
_atom_site_fract_x
_atom_site_fract_y
_atom_site_fract_z
Si Si1 0.605453 0.730204 0.451964
Si Si2 0.565962 0.163559 0.118009
Si Si3 0.949062 0.247058 0.221826
Si Si4 0.001635 0.883682 0.380870
Si Si5 0.465128 0.984772 0.767244
Si Si6 0.503656 0.561914 0.651536
Si Si7 0.551600 0.154902 0.772559
Si Si8 0.815662 0.419826 0.911646
O O1 0.845715 0.451096 0.336066
O O2 0.635421 0.805024 0.582448
O O3 0.522602 0.824923 0.355683
O O4 0.321069 0.893556 0.551596
O O5 0.445275 0.152329 0.173379
O O6 0.615624 0.222952 0.243806
O O7 0.356731 0.378692 0.106995
O O8 0.852238 0.914418 0.953412
O O9 0.683062 0.373237 0.248953
O O10 0.135266 0.060195 0.260953
O O11 0.176625 0.676465 0.392539
O O12 0.159791 0.725437 0.197799
O O13 0.000000 0.000000 0.500000
O O14 0.133111 0.216652 0.841675
O O15 0.489908 0.095840 0.821474
O O16 0.500000 0.500000 0.500000
O O17 0.352322 0.413708 0.906837
#
# Coordination Sequence:
#
# PCOD9104736 Si02
#       8
#     2   2   2   2   2   2   2   2
#     4  11  23  40  62  93 125 160 210 255 313 367
#     4  10  23  40  62  94 122 163 209 254 310 367
#     4  11  23  40  61  92 129 160 203 257 313 371
#     4  10  20  39  62  87 122 159 204 248 303 375
#     4  11  23  41  66  88 124 167 213 254 305 365
#     4  11  21  38  64  89 125 163 201 255 310 373
#     4  11  24  42  61  94 125 165 209 257 307 366
#     4   9  22  40  63  89 124 157 212 252 305 364
#
# _framework density 24.478784999999998
#
# number of rings (size 3 to 8) (size 9 to 14) (size 15 to 20)
#    0.000    1.500    1.250    3.375    1.750    5.500 
#    0.000    0.625    0.000    0.000    0.000    0.000 
#    0.000    0.000    0.000    0.000    0.000    0.000 
#
# Total GULP energy -89372.753730 kJ/mol
# GULP energy per Si atom -5585.797108 kJ/mol
# Density = 2.442307 g / cm^3
# Si number density = 24.478785 Si / 1000 Ang^3
#
#
#
# Elastic Constant Matrix: (Units=GPa)
#
#
# Indices 1 2 3 4 5 6 
#
# 1 55.4221 -16.9595 25.7943 2.9700 17.4320 6.4902
# 2 -16.9595 86.2246 21.1686 15.5600 -4.2729 4.6557
# 3 25.7943 21.1686 160.4799 13.2713 25.2996 11.8258
# 4 2.9700 15.5600 13.2713 42.7730 8.8992 -0.9019
# 5 17.4320 -4.2729 25.2996 8.8992 33.3283 -2.5266
# 6 6.4902 4.6557 11.8258 -0.9019 -2.5266 31.0121
#
#
#
# Elastic Compliance Matrix: (Units=1/GPa)
#
#
# Indices 1 2 3 4 5 6 
#
# 1 0.025014 0.005494 -0.002553 -0.000850 -0.010667 -0.005980
# 2 0.005494 0.014499 -0.002518 -0.005372 0.002153 -0.002347
# 3 -0.002553 -0.002518 0.008008 -0.000372 -0.005162 -0.002573
# 4 -0.000850 -0.005372 -0.000372 0.027007 -0.007072 0.001335
# 5 -0.010667 0.002153 -0.005162 -0.007072 0.042206 0.007111
# 6 -0.005980 -0.002347 -0.002573 0.001335 0.007111 0.035449
#
#
# Mechanical properties :
#
#
# Convention : Reuss Voigt Hill
#
# Bulk Modulus (GPa) = 20.67451 40.23704 30.45578
# Shear Modulus (GPa) = 29.85816 39.56425 34.71120
#
# Velocity S-wave (km/s) = 3.49629 4.02464 3.76973
# Velocity P-wave (km/s) = 4.97624 6.17011 5.60505
#
# Compressibility (1/GPa) = 0.04836874
#
# Stress axis : x y z
#
# Youngs Moduli (GPa) = 39.97801 68.96861 124.87697
#
# Poissons Ratio (x) = -0.37894 0.31876
# Poissons Ratio (y) = -0.21965 0.31442
# Poissons Ratio (z) = 0.10205 0.17365
#
# Static dielectric constant tensor:
#      x y z
#    x 1.940860 0.012020 0.026150 
#    y 0.012020 2.016340 -0.039550 
#    z 0.026150 -0.039550 2.037780 
# 
# From -- ./inp_files/308783.got.cif
#   From: 2010.05.17/outbox.cif.g08.bks.cpg/sg2_155_cif.got.tgz:308783.got - 2010.06.03 11:33:40.
