data_PCOD9104903
_publ_section_title
;
Structure prediction by ZEFSAII (Michael W. Deem and Ramdas Pophale) SiO2 
 PCOD9104903
Probable space group: P -1
;
_chemical_formula_sum "Si O2"
_cell_formula_units_Z 14
_cell_length_a 11.558381
_cell_length_b 7.972017
_cell_length_c 16.332656
_cell_angle_alpha 112.907948
_cell_angle_beta 139.944767
_cell_angle_gamma 38.954610
_cell_volume 524.070378
_symmetry_space_group_name_H-M "P -1"
_symmetry_group_IT_number 2
_symmetry_cell_setting 'triclinic'
loop_
_space_group_symop_operation_xyz
x,y,z
-x,-y,-z
loop_
_atom_site_type_symbol
_atom_site_label
_atom_site_fract_x
_atom_site_fract_y
_atom_site_fract_z
Si Si1 0.746685 0.964863 0.625047
Si Si2 0.173266 0.111281 0.801283
Si Si3 0.678053 0.603450 0.088824
Si Si4 0.275247 0.665333 0.530098
Si Si5 0.836420 0.442609 0.383839
Si Si6 0.266438 0.008137 0.087140
Si Si7 0.244910 0.458376 0.185623
O O1 0.992090 0.756033 0.792465
O O2 0.970227 0.778403 0.632472
O O3 0.500000 0.000000 0.500000
O O4 0.549301 0.306796 0.583116
O O5 0.252107 0.239403 0.827638
O O6 0.976088 0.155515 0.641476
O O7 0.989650 0.323636 0.823831
O O8 0.483472 0.758059 0.930206
O O9 0.437524 0.757381 0.059185
O O10 0.160347 0.681504 0.557243
O O11 0.440939 0.718547 0.645786
O O12 0.000000 0.500000 0.500000
O O13 0.477925 0.771012 0.231134
O O14 0.291594 0.209711 0.140475
O O15 0.907438 0.296970 0.923691
#
# Coordination Sequence:
#
# PCOD9104903 Si02
#       7
#     2   2   2   2   2   2   2
#     4  11  21  41  70  98 130 177 226 268 329 397
#     4  10  20  39  62  94 136 170 218 268 324 397
#     4   9  19  39  67  95 124 177 229 262 321 403
#     4  12  24  41  69 105 137 169 223 282 331 388
#     4  11  23  41  70  96 134 175 222 270 333 398
#     4   9  21  44  67  92 128 178 226 271 332 402
#     4  10  23  42  68  95 132 177 223 276 331 394
#
# _framework density 26.713971000000001
#
# number of rings (size 3 to 8) (size 9 to 14) (size 15 to 20)
#    0.000    1.714    2.857    1.286    4.000    0.571 
#    2.571    7.857    0.000    0.857    0.000    0.000 
#    0.000    0.000    0.000    0.000    0.000    0.000 
#
# Total GULP energy -78405.704541 kJ/mol
# GULP energy per Si atom -5600.407467 kJ/mol
# Density = 2.665317 g / cm^3
# Si number density = 26.713971 Si / 1000 Ang^3
#
#
#
# Elastic Constant Matrix: (Units=GPa)
#
#
# Indices 1 2 3 4 5 6 
#
# 1 44.1278 12.3353 11.1687 -12.2643 12.6369 -19.3067
# 2 12.3353 109.3884 44.7778 -22.4262 -4.1202 -27.6522
# 3 11.1687 44.7778 200.6303 -13.0634 -34.6216 7.3335
# 4 -12.2643 -22.4262 -13.0634 33.0409 3.1816 11.5487
# 5 12.6369 -4.1202 -34.6216 3.1816 33.6020 -7.0227
# 6 -19.3067 -27.6522 7.3335 11.5487 -7.0227 42.2963
#
#
#
# Elastic Compliance Matrix: (Units=1/GPa)
#
#
# Indices 1 2 3 4 5 6 
#
# 1 0.037425 0.003235 -0.005669 0.010495 -0.017501 0.014410
# 2 0.003235 0.013673 -0.003477 0.006119 -0.001811 0.009048
# 3 -0.005669 -0.003477 0.007711 -0.000664 0.008760 -0.004562
# 4 0.010495 0.006119 -0.000664 0.040056 -0.008389 -0.003424
# 5 -0.017501 -0.001811 0.008760 -0.008389 0.045773 -0.000801
# 6 0.014410 0.009048 -0.004562 -0.003424 -0.000801 0.037728
#
#
# Mechanical properties :
#
#
# Convention : Reuss Voigt Hill
#
# Bulk Modulus (GPa) = 21.28152 54.52333 37.90243
# Shear Modulus (GPa) = 23.82661 40.84550 32.33606
#
# Velocity S-wave (km/s) = 2.98974 3.91448 3.48293
# Velocity P-wave (km/s) = 4.46114 6.39415 5.51303
#
# Compressibility (1/GPa) = 0.04698912
#
# Stress axis : x y z
#
# Youngs Moduli (GPa) = 26.72019 73.13451 129.68574
#
# Poissons Ratio (x) = -0.23662 0.73517
# Poissons Ratio (y) = -0.08645 0.45086
# Poissons Ratio (z) = 0.15147 0.25426
#
# Static dielectric constant tensor:
#      x y z
#    x 2.173700 -0.008700 -0.040740 
#    y -0.008700 2.081730 -0.041670 
#    z -0.040740 -0.041670 2.075140 
# 
# From -- ./inp_files/594147.got.cif
#   From: 2010.05.17/outbox.cif.g08.bks.cpg/sg2_298_cif.got.tgz:594147.got - 2010.06.03 11:33:40.
