data_PCOD9104643
_publ_section_title
;
Structure prediction by ZEFSAII (Michael W. Deem and Ramdas Pophale) SiO2 
 PCOD9104643
Probable space group: P -1
;
_chemical_formula_sum "Si O2"
_cell_formula_units_Z 15
_cell_length_a 7.304454
_cell_length_b 15.532816
_cell_length_c 8.151399
_cell_angle_alpha 66.895480
_cell_angle_beta 100.693019
_cell_angle_gamma 54.907493
_cell_volume 582.992806
_symmetry_space_group_name_H-M "P -1"
_symmetry_group_IT_number 2
_symmetry_cell_setting 'triclinic'
loop_
_space_group_symop_operation_xyz
x,y,z
-x,-y,-z
loop_
_atom_site_type_symbol
_atom_site_label
_atom_site_fract_x
_atom_site_fract_y
_atom_site_fract_z
Si Si1 0.805286 0.667375 0.560687
Si Si2 0.000000 0.500000 0.000000
Si Si3 0.286180 0.960340 0.385895
Si Si4 0.656232 0.349762 0.809347
Si Si5 0.422682 0.635971 0.856609
Si Si6 0.112567 0.573994 0.377222
Si Si7 0.940131 0.912153 0.068549
Si Si8 0.079891 0.091398 0.582919
O O1 0.989469 0.597330 0.805218
O O2 0.545264 0.815145 0.467366
O O3 0.868857 0.534780 0.618353
O O4 0.872571 0.683288 0.377640
O O5 0.670326 0.607156 0.853108
O O6 0.071288 0.953734 0.383780
O O7 0.193110 0.062038 0.147234
O O8 0.282504 0.011101 0.524990
O O9 0.365378 0.488685 0.604738
O O10 0.849720 0.369025 0.809207
O O11 0.643733 0.305196 0.014300
O O12 0.768510 0.240873 0.771020
O O13 0.157288 0.750579 0.620234
O O14 0.500000 0.500000 0.000000
O O15 0.801428 0.934373 0.197744
O O16 0.000000 0.000000 0.000000
#
# Coordination Sequence:
#
# PCOD9104643 Si02
#       8
#     2   1   2   2   2   2   2   2
#     4  11  22  42  63  95 137 167 225 284 343 405
#     4  12  24  40  64 104 130 178 218 280 342 400
#     4  10  20  39  61  93 130 177 226 275 335 407
#     4  11  22  40  64  93 129 173 227 276 343 403
#     4  12  25  42  70 100 140 178 223 286 344 404
#     4  10  23  39  63  94 126 178 219 281 342 406
#     4  10  21  36  64  94 124 172 230 271 325 412
#     4  10  21  38  64  96 129 173 229 274 332 412
#
# _framework density 25.729305
#
# number of rings (size 3 to 8) (size 9 to 14) (size 15 to 20)
#    0.000    1.333    4.000    2.400    3.733    0.000 
#    4.800    0.667    0.000    1.600    0.000    0.000 
#    0.000    0.000    0.000    0.000    0.000    0.000 
#
# Total GULP energy -83514.907740 kJ/mol
# GULP energy per Si atom -5567.660516 kJ/mol
# Density = 2.567074 g / cm^3
# Si number density = 25.729305 Si / 1000 Ang^3
#
#
#
# Elastic Constant Matrix: (Units=GPa)
#
#
# Indices 1 2 3 4 5 6 
#
# 1 64.6830 38.4322 7.3080 -1.0930 -19.0162 -15.3231
# 2 38.4322 199.0047 60.3932 25.3596 -4.2682 -37.6415
# 3 7.3080 60.3932 123.7580 22.8224 -12.6556 -12.4268
# 4 -1.0930 25.3596 22.8224 47.6998 -3.1168 -13.5173
# 5 -19.0162 -4.2682 -12.6556 -3.1168 21.5384 -3.7257
# 6 -15.3231 -37.6415 -12.4268 -13.5173 -3.7257 34.2245
#
#
#
# Elastic Compliance Matrix: (Units=1/GPa)
#
#
# Indices 1 2 3 4 5 6 
#
# 1 0.032039 -0.004313 0.003953 0.008496 0.034116 0.018105
# 2 -0.004313 0.007794 -0.003157 -0.001713 -0.003601 0.004427
# 3 0.003953 -0.003157 0.011002 -0.002182 0.009438 0.002458
# 4 0.008496 -0.001713 -0.002182 0.027709 0.012207 0.013400
# 5 0.034116 -0.003601 0.009438 0.012207 0.088194 0.029164
# 6 0.018105 0.004427 0.002458 0.013400 0.029164 0.051553
#
#
# Mechanical properties :
#
#
# Convention : Reuss Voigt Hill
#
# Bulk Modulus (GPa) = 22.83076 66.63472 44.73274
# Shear Modulus (GPa) = 20.83983 39.44669 30.14326
#
# Velocity S-wave (km/s) = 2.84908 3.91978 3.42651
# Velocity P-wave (km/s) = 4.44024 6.81475 5.75137
#
# Compressibility (1/GPa) = 0.04380055
#
# Stress axis : x y z
#
# Youngs Moduli (GPa) = 31.21222 128.29784 90.89534
#
# Poissons Ratio (x) = 0.55340 -0.35931
# Poissons Ratio (y) = 0.13463 0.28693
# Poissons Ratio (z) = -0.12338 0.40500
#
# Static dielectric constant tensor:
#      x y z
#    x 2.171790 -0.002420 0.049600 
#    y -0.002420 2.104690 0.077550 
#    z 0.049600 0.077550 2.126840 
# 
# From -- ./inp_files/217020.got.cif
#   From: 2010.05.17/outbox.cif.g08.bks.cpg/sg2_109_cif.got.tgz:217020.got - 2010.06.03 11:33:40.
