data_PCOD9104304
_publ_section_title
;
Structure prediction by ZEFSAII (Michael W. Deem and Ramdas Pophale) SiO2 
 PCOD9104304
Probable space group: P -1
;
_chemical_formula_sum "Si O2"
_cell_formula_units_Z 16
_cell_length_a 7.253890
_cell_length_b 19.278186
_cell_length_c 9.441786
_cell_angle_alpha 33.027820
_cell_angle_beta 116.401895
_cell_angle_gamma 120.748147
_cell_volume 618.126704
_symmetry_space_group_name_H-M "P -1"
_symmetry_group_IT_number 2
_symmetry_cell_setting 'triclinic'
loop_
_space_group_symop_operation_xyz
x,y,z
-x,-y,-z
loop_
_atom_site_type_symbol
_atom_site_label
_atom_site_fract_x
_atom_site_fract_y
_atom_site_fract_z
Si Si1 0.122239 0.135002 0.389304
Si Si2 0.894623 0.174696 0.524030
Si Si3 0.705853 0.040988 0.095376
Si Si4 0.868576 0.330705 0.736815
Si Si5 0.172058 0.119970 0.958177
Si Si6 0.733891 0.437700 0.989900
Si Si7 0.318533 0.323221 0.878619
Si Si8 0.087708 0.496423 0.787334
O O1 0.215993 0.238773 0.124791
O O2 0.979530 0.174393 0.393301
O O3 0.312784 0.092506 0.598834
O O4 0.000000 0.000000 0.500000
O O5 0.770572 0.289237 0.288238
O O6 0.101088 0.184309 0.682723
O O7 0.767030 0.019661 0.783808
O O8 0.736520 0.177777 0.955502
O O9 0.940216 0.076869 0.035775
O O10 0.500000 0.000000 0.000000
O O11 0.929833 0.387071 0.817790
O O12 0.775269 0.403519 0.456080
O O13 0.109421 0.364876 0.688883
O O14 0.343999 0.226937 0.926166
O O15 0.527790 0.420210 0.849033
O O16 0.742049 0.513522 0.013426
O O17 0.920774 0.519161 0.809077
#
# Coordination Sequence:
#
# PCOD9104304 Si02
#       8
#     2   2   2   2   2   2   2   2
#     4  11  20  39  58  94 124 161 191 243 319 376
#     4  10  20  39  60  83 129 166 193 243 314 364
#     4  10  21  36  65  96 125 157 198 246 308 374
#     4  10  21  44  66  84 127 167 199 257 299 368
#     4   9  20  39  57  91 127 168 188 244 319 376
#     4  11  24  39  63  91 116 162 211 267 290 355
#     4  11  22  38  63  92 124 155 205 255 309 358
#     4  10  24  44  62  85 119 169 216 247 308 345
#
# _framework density 25.884663
#
# number of rings (size 3 to 8) (size 9 to 14) (size 15 to 20)
#    0.000    1.750    3.750    2.250    3.500    1.500 
#    6.750    0.000    0.000    0.000    0.000    0.000 
#    0.000    0.000    0.000    0.000    0.000    0.000 
#
# Total GULP energy -89092.460830 kJ/mol
# GULP energy per Si atom -5568.278802 kJ/mol
# Density = 2.582575 g / cm^3
# Si number density = 25.884663 Si / 1000 Ang^3
#
#
#
# Elastic Constant Matrix: (Units=GPa)
#
#
# Indices 1 2 3 4 5 6 
#
# 1 56.5711 20.0422 9.9586 0.1966 -1.2116 -3.7014
# 2 20.0422 154.6742 5.1723 18.2758 2.2267 -10.3301
# 3 9.9586 5.1723 101.1447 15.3440 3.9546 -21.0966
# 4 0.1966 18.2758 15.3440 39.6958 -6.9966 -6.1348
# 5 -1.2116 2.2267 3.9546 -6.9966 36.5221 11.9649
# 6 -3.7014 -10.3301 -21.0966 -6.1348 11.9649 40.3090
#
#
#
# Elastic Compliance Matrix: (Units=1/GPa)
#
#
# Indices 1 2 3 4 5 6 
#
# 1 0.019024 -0.002690 -0.002172 0.002222 0.001519 -0.000192
# 2 -0.002690 0.007410 0.001012 -0.003817 -0.002112 0.002228
# 3 -0.002172 0.001012 0.012519 -0.005021 -0.004837 0.007284
# 4 0.002222 -0.003817 -0.005021 0.029955 0.006879 -0.000885
# 5 0.001519 -0.002112 -0.004837 0.006879 0.033253 -0.011757
# 6 -0.000192 0.002228 0.007284 -0.000885 -0.011757 0.032529
#
#
# Mechanical properties :
#
#
# Convention : Reuss Voigt Hill
#
# Bulk Modulus (GPa) = 31.99534 42.52626 37.26080
# Shear Modulus (GPa) = 32.72097 41.78653 37.25375
#
# Velocity S-wave (km/s) = 3.55928 4.02224 3.79782
# Velocity P-wave (km/s) = 5.41100 6.16733 5.80150
#
# Compressibility (1/GPa) = 0.03125456
#
# Stress axis : x y z
#
# Youngs Moduli (GPa) = 52.56413 134.95091 79.87834
#
# Poissons Ratio (x) = 0.36297 0.17350
# Poissons Ratio (y) = 0.14138 -0.08085
# Poissons Ratio (z) = 0.11417 -0.13660
#
# Static dielectric constant tensor:
#      x y z
#    x 1.460290 -0.475250 -0.559290 
#    y -0.475250 1.905440 -0.473340 
#    z -0.559290 -0.473340 1.768210 
# 
# From -- ./inp_files/223057.got.cif
#   From: 2010.05.17/outbox.cif.g08.bks.cpg/sg2_112_cif.got.tgz:223057.got - 2010.06.03 11:33:40.
