data_PCOD9104299
_publ_section_title
;
Structure prediction by ZEFSAII (Michael W. Deem and Ramdas Pophale) SiO2 
 PCOD9104299
Probable space group: P -1
;
_chemical_formula_sum "Si O2"
_cell_formula_units_Z 16
_cell_length_a 16.089551
_cell_length_b 9.363549
_cell_length_c 19.935574
_cell_angle_alpha 120.425831
_cell_angle_beta 20.022919
_cell_angle_gamma 108.150436
_cell_volume 736.747241
_symmetry_space_group_name_H-M "P -1"
_symmetry_group_IT_number 2
_symmetry_cell_setting 'triclinic'
loop_
_space_group_symop_operation_xyz
x,y,z
-x,-y,-z
loop_
_atom_site_type_symbol
_atom_site_label
_atom_site_fract_x
_atom_site_fract_y
_atom_site_fract_z
Si Si1 0.136141 0.615416 0.742620
Si Si2 0.187025 0.113817 0.829586
Si Si3 0.265359 0.185746 0.562057
Si Si4 0.297954 0.732107 0.217985
Si Si5 0.194751 0.036851 0.261358
Si Si6 0.415410 0.760332 0.483073
Si Si7 0.996856 0.961171 0.737729
Si Si8 0.404636 0.094910 0.876641
O O1 0.182255 0.408018 0.676369
O O2 0.404431 0.598268 0.495382
O O3 0.067911 0.747149 0.892698
O O4 0.857993 0.739760 0.932996
O O5 0.293920 0.241215 0.742187
O O6 0.460833 0.950894 0.628872
O O7 0.169750 0.973992 0.755502
O O8 0.015742 0.153323 0.767908
O O9 0.371245 0.083707 0.384565
O O10 0.448972 0.811693 0.170718
O O11 0.995923 0.796381 0.498489
O O12 0.243958 0.842511 0.214396
O O13 0.500000 0.500000 0.000000
O O14 0.017478 0.090219 0.339929
O O15 0.500000 0.000000 0.000000
O O16 0.292620 0.784492 0.507304
O O17 0.734957 0.979517 0.982100
#
# Coordination Sequence:
#
# PCOD9104299 Si02
#       8
#     2   2   2   2   2   2   2   2
#     4  10  21  34  60  86 115 156 202 239 294 353
#     4   9  19  38  58  82 120 158 193 243 299 346
#     4  10  21  37  60  86 116 158 199 248 291 358
#     4  11  25  41  66  93 121 158 205 255 304 368
#     4  11  23  43  65  90 125 161 200 253 306 363
#     4   9  19  37  59  84 120 156 192 246 297 351
#     4  10  20  39  60  82 120 160 194 241 308 354
#     4  10  21  40  57  84 123 155 194 248 302 353
#
# _framework density 21.717084
#
# number of rings (size 3 to 8) (size 9 to 14) (size 15 to 20)
#    0.000    2.000    2.500    0.375    1.750    2.000 
#    0.000    6.875    0.000    0.000    0.000    0.000 
#    0.000    0.000    0.000    0.000    0.000    0.000 
#
# Total GULP energy -89417.788017 kJ/mol
# GULP energy per Si atom -5588.611751 kJ/mol
# Density = 2.166765 g / cm^3
# Si number density = 21.717084 Si / 1000 Ang^3
#
#
#
# Elastic Constant Matrix: (Units=GPa)
#
#
# Indices 1 2 3 4 5 6 
#
# 1 87.4005 17.7530 24.5959 0.3541 18.0583 -8.6040
# 2 17.7530 110.4723 56.5420 -14.8308 9.8863 -18.4222
# 3 24.5959 56.5420 81.1721 -11.1296 12.2983 -18.2615
# 4 0.3541 -14.8308 -11.1296 38.2445 -3.6560 1.5209
# 5 18.0583 9.8863 12.2983 -3.6560 24.5125 -8.2034
# 6 -8.6040 -18.4222 -18.2615 1.5209 -8.2034 31.9037
#
#
#
# Elastic Compliance Matrix: (Units=1/GPa)
#
#
# Indices 1 2 3 4 5 6 
#
# 1 0.014249 -0.000178 -0.003140 -0.001986 -0.009262 -0.000344
# 2 -0.000178 0.014607 -0.009055 0.002932 0.000268 0.003133
# 3 -0.003140 -0.009055 0.021525 0.002310 -0.002666 0.005450
# 4 -0.001986 0.002932 0.002310 0.028278 0.004068 0.002178
# 5 -0.009262 0.000268 -0.002666 0.004068 0.052623 0.009469
# 6 -0.000344 0.003133 0.005450 0.002178 0.009469 0.038511
#
#
# Mechanical properties :
#
#
# Convention : Reuss Voigt Hill
#
# Bulk Modulus (GPa) = 39.00851 52.98073 45.99462
# Shear Modulus (GPa) = 24.62036 30.94241 27.78139
#
# Velocity S-wave (km/s) = 3.37068 3.77874 3.58053
# Velocity P-wave (km/s) = 5.75758 6.59449 6.19020
#
# Compressibility (1/GPa) = 0.02563543
#
# Stress axis : x y z
#
# Youngs Moduli (GPa) = 70.17936 68.45978 46.45759
#
# Poissons Ratio (x) = 0.01217 0.14589
# Poissons Ratio (y) = 0.01248 0.42066
# Poissons Ratio (z) = 0.22039 0.61989
#
# Static dielectric constant tensor:
#      x y z
#    x 1.826050 0.002710 -0.009030 
#    y 0.002710 1.787040 -0.037600 
#    z -0.009030 -0.037600 1.811080 
# 
# From -- ./inp_files/140715.got.cif
#   From: 2010.05.17/outbox.cif.g08.bks.cpg/sg2_71_cif.got.tgz:140715.got - 2010.06.03 11:33:40.
