data_PCOD9104561
_publ_section_title
;
Structure prediction by ZEFSAII (Michael W. Deem and Ramdas Pophale) SiO2 
 PCOD9104561
Probable space group: P -1
;
_chemical_formula_sum "Si O2"
_cell_formula_units_Z 16
_cell_length_a 7.939262
_cell_length_b 18.155406
_cell_length_c 13.031234
_cell_angle_alpha 155.156414
_cell_angle_beta 109.353093
_cell_angle_gamma 84.496901
_cell_volume 637.477803
_symmetry_space_group_name_H-M "P -1"
_symmetry_group_IT_number 2
_symmetry_cell_setting 'triclinic'
loop_
_space_group_symop_operation_xyz
x,y,z
-x,-y,-z
loop_
_atom_site_type_symbol
_atom_site_label
_atom_site_fract_x
_atom_site_fract_y
_atom_site_fract_z
Si Si1 0.638613 0.922464 0.115961
Si Si2 0.561291 0.451912 0.274846
Si Si3 0.517119 0.217047 0.760327
Si Si4 0.756617 0.818142 0.655924
Si Si5 0.330060 0.671652 0.281875
Si Si6 0.856368 0.531477 0.807863
Si Si7 0.951272 0.032514 0.648063
Si Si8 0.181588 0.873933 0.789164
O O1 0.858250 0.944064 0.218087
O O2 0.641068 0.105740 0.410650
O O3 0.645097 0.974496 0.064590
O O4 0.458284 0.694607 0.821870
O O5 0.738747 0.684686 0.585309
O O6 0.352228 0.462513 0.248314
O O7 0.564848 0.334098 0.024903
O O8 0.672424 0.351483 0.870029
O O9 0.500000 0.000000 0.500000
O O10 0.277575 0.147283 0.594939
O O11 0.546319 0.694418 0.393135
O O12 0.963496 0.856806 0.693683
O O13 0.769631 0.022468 0.958751
O O14 0.157489 0.515053 0.130510
O O15 0.849031 0.346149 0.512437
O O16 0.036842 0.750355 0.081566
O O17 0.000000 0.000000 0.500000
#
# Coordination Sequence:
#
# PCOD9104561 Si02
#       8
#     2   2   2   2   2   2   2   2
#     4  10  20  39  61  89 118 154 198 237 290 355
#     4  10  21  39  58  89 120 154 198 237 289 351
#     4  12  22  37  61  88 126 159 187 242 293 345
#     4  10  23  41  62  85 119 151 198 252 290 350
#     4  10  21  39  60  89 119 156 200 236 294 347
#     4   9  21  37  60  85 117 153 198 235 287 353
#     4  11  20  39  60  85 124 156 190 240 285 351
#     4  10  22  42  61  86 116 156 196 246 301 336
#
# _framework density 25.098913
#
# number of rings (size 3 to 8) (size 9 to 14) (size 15 to 20)
#    0.000    1.750    3.750    0.750    1.750    7.000 
#    2.250    3.125    0.000    8.250    0.000    0.000 
#    0.000    0.000    0.000    0.000    0.000    0.000 
#
# Total GULP energy -89536.744777 kJ/mol
# GULP energy per Si atom -5596.046549 kJ/mol
# Density = 2.504179 g / cm^3
# Si number density = 25.098913 Si / 1000 Ang^3
#
#
#
# Elastic Constant Matrix: (Units=GPa)
#
#
# Indices 1 2 3 4 5 6 
#
# 1 85.2304 26.4991 24.5561 2.9805 -12.0310 12.1286
# 2 26.4991 77.3166 21.7003 16.9873 -1.3090 0.8757
# 3 24.5561 21.7003 96.9951 14.4904 -28.8086 9.8327
# 4 2.9805 16.9873 14.4904 35.3064 2.8541 6.0933
# 5 -12.0310 -1.3090 -28.8086 2.8541 52.7969 2.8335
# 6 12.1286 0.8757 9.8327 6.0933 2.8335 35.8299
#
#
#
# Elastic Compliance Matrix: (Units=1/GPa)
#
#
# Indices 1 2 3 4 5 6 
#
# 1 0.014773 -0.005033 -0.001777 0.002575 0.002402 -0.005018
# 2 -0.005033 0.016800 -0.002270 -0.007149 -0.001758 0.003271
# 3 -0.001777 -0.002270 0.014693 -0.004886 0.007990 -0.003176
# 4 0.002575 -0.007149 -0.004886 0.034719 -0.003867 -0.004955
# 5 0.002402 -0.001758 0.007990 -0.003867 0.024240 -0.004222
# 6 -0.005018 0.003271 -0.003176 -0.004955 -0.004222 0.031577
#
#
# Mechanical properties :
#
#
# Convention : Reuss Voigt Hill
#
# Bulk Modulus (GPa) = 35.57972 45.00591 40.29281
# Shear Modulus (GPa) = 30.42702 37.23908 33.83305
#
# Velocity S-wave (km/s) = 3.48556 3.85605 3.67548
# Velocity P-wave (km/s) = 5.51411 6.14783 5.83958
#
# Compressibility (1/GPa) = 0.02810590
#
# Stress axis : x y z
#
# Youngs Moduli (GPa) = 67.69274 59.52467 68.06161
#
# Poissons Ratio (x) = 0.29958 0.12092
# Poissons Ratio (y) = 0.34068 0.15451
# Poissons Ratio (z) = 0.12026 0.13513
#
# Static dielectric constant tensor:
#      x y z
#    x 2.004890 -0.005090 0.011330 
#    y -0.005090 2.014150 0.014200 
#    z 0.011330 0.014200 1.975380 
# 
# From -- ./inp_files/217485.got.cif
#   From: 2010.05.17/outbox.cif.g08.bks.cpg/sg2_109_cif.got.tgz:217485.got - 2010.06.03 11:33:40.
