data_PCOD9104660
_publ_section_title
;
Structure prediction by ZEFSAII (Michael W. Deem and Ramdas Pophale) SiO2 
 PCOD9104660
Probable space group: P -1
;
_chemical_formula_sum "Si O2"
_cell_formula_units_Z 16
_cell_length_a 17.763335
_cell_length_b 24.782841
_cell_length_c 9.463669
_cell_angle_alpha 140.855308
_cell_angle_beta 142.655570
_cell_angle_gamma 20.247327
_cell_volume 865.816764
_symmetry_space_group_name_H-M "P -1"
_symmetry_group_IT_number 2
_symmetry_cell_setting 'triclinic'
loop_
_space_group_symop_operation_xyz
x,y,z
-x,-y,-z
loop_
_atom_site_type_symbol
_atom_site_label
_atom_site_fract_x
_atom_site_fract_y
_atom_site_fract_z
Si Si1 0.289553 0.057284 0.796300
Si Si2 0.008459 0.139918 0.324507
Si Si3 0.028764 0.605448 0.959672
Si Si4 0.550949 0.661298 0.736375
Si Si5 0.786476 0.107713 0.061492
Si Si6 0.612062 0.724752 0.675009
Si Si7 0.377170 0.394427 0.825132
Si Si8 0.523520 0.491113 0.344852
O O1 0.925979 0.761031 0.105338
O O2 0.385023 0.915921 0.723064
O O3 0.220271 0.068713 0.558568
O O4 0.500000 0.000000 0.000000
O O5 0.789117 0.326019 0.367031
O O6 0.065004 0.058874 0.100302
O O7 0.936531 0.106577 0.261135
O O8 0.825444 0.662214 0.825382
O O9 0.140936 0.509531 0.785896
O O10 0.237602 0.480746 0.130214
O O11 0.633422 0.670353 0.749047
O O12 0.453856 0.625820 0.470170
O O13 0.347477 0.820474 0.847118
O O14 0.588314 0.232555 0.900330
O O15 0.604923 0.654890 0.403412
O O16 0.404159 0.480605 0.067863
O O17 0.500000 0.500000 0.500000
#
# Coordination Sequence:
#
# PCOD9104660 Si02
#       8
#     2   2   2   2   2   2   2   2
#     4  10  20  34  57  81 107 145 186 224 268 329
#     4  10  16  33  58  79 102 139 198 219 254 325
#     4  10  20  38  62  77 106 158 193 212 269 347
#     4  11  21  37  57  85 112 146 182 235 281 323
#     4   9  19  31  59  80 102 148 188 223 264 335
#     4  11  23  36  54  86 121 137 179 243 285 310
#     4  10  19  35  58  85 106 144 194 229 265 328
#     4  11  18  34  61  83 106 147 194 224 262 342
#
# _framework density 18.479661
#
# number of rings (size 3 to 8) (size 9 to 14) (size 15 to 20)
#    0.000    1.750    6.250    0.750    0.000    0.500 
#    0.000    1.875    0.000    1.500    0.000    0.000 
#    0.000    0.000    0.000    0.000    0.000    0.000 
#
# Total GULP energy -89138.321138 kJ/mol
# GULP energy per Si atom -5571.145071 kJ/mol
# Density = 1.843760 g / cm^3
# Si number density = 18.479661 Si / 1000 Ang^3
#
#
#
# Elastic Constant Matrix: (Units=GPa)
#
#
# Indices 1 2 3 4 5 6 
#
# 1 46.3291 32.3752 21.8687 1.0979 -4.5452 -12.3276
# 2 32.3752 84.2962 29.3745 21.9751 -10.3708 -8.4507
# 3 21.8687 29.3745 90.1502 11.3454 0.9765 -10.3150
# 4 1.0979 21.9751 11.3454 26.4952 -5.4647 0.8523
# 5 -4.5452 -10.3708 0.9765 -5.4647 18.5860 -0.1623
# 6 -12.3276 -8.4507 -10.3150 0.8523 -0.1623 18.6350
#
#
#
# Elastic Compliance Matrix: (Units=1/GPa)
#
#
# Indices 1 2 3 4 5 6 
#
# 1 0.037941 -0.014049 -0.004477 0.012631 0.005526 0.015721
# 2 -0.014049 0.022923 -0.001912 -0.016700 0.004553 0.000847
# 3 -0.004477 -0.001912 0.013981 -0.005257 -0.004406 0.004113
# 4 0.012631 -0.016700 -0.005257 0.055604 0.010356 -0.004580
# 5 0.005526 0.004553 -0.004406 0.010356 0.061001 0.003339
# 6 0.015721 0.000847 0.004113 -0.004580 0.003339 0.066961
#
#
# Mechanical properties :
#
#
# Convention : Reuss Voigt Hill
#
# Bulk Modulus (GPa) = 29.43718 43.11246 36.27482
# Shear Modulus (GPa) = 16.09729 21.88705 18.99217
#
# Velocity S-wave (km/s) = 2.95461 3.44522 3.20931
# Velocity P-wave (km/s) = 5.25392 6.26150 5.77971
#
# Compressibility (1/GPa) = 0.03397064
#
# Stress axis : x y z
#
# Youngs Moduli (GPa) = 26.35668 43.62371 71.52327
#
# Poissons Ratio (x) = 0.61285 0.32020
# Poissons Ratio (y) = 0.37027 0.13676
# Poissons Ratio (z) = 0.11799 0.08341
#
# Static dielectric constant tensor:
#      x y z
#    x 1.621590 -0.002610 0.037070 
#    y -0.002610 1.668800 0.007800 
#    z 0.037070 0.007800 1.669860 
# 
# From -- ./inp_files/338867.got.cif
#   From: 2010.05.17/outbox.cif.g08.bks.cpg/sg2_170_cif.got.tgz:338867.got - 2010.06.03 11:33:40.
