data_PCOD9104796
_publ_section_title
;
Structure prediction by ZEFSAII (Michael W. Deem and Ramdas Pophale) SiO2 
 PCOD9104796
Probable space group: P -1
;
_chemical_formula_sum "Si O2"
_cell_formula_units_Z 16
_cell_length_a 13.556703
_cell_length_b 16.869581
_cell_length_c 9.794955
_cell_angle_alpha 102.184634
_cell_angle_beta 78.341278
_cell_angle_gamma 158.772507
_cell_volume 792.703487
_symmetry_space_group_name_H-M "P -1"
_symmetry_group_IT_number 2
_symmetry_cell_setting 'triclinic'
loop_
_space_group_symop_operation_xyz
x,y,z
-x,-y,-z
loop_
_atom_site_type_symbol
_atom_site_label
_atom_site_fract_x
_atom_site_fract_y
_atom_site_fract_z
Si Si1 0.183919 0.901335 0.855954
Si Si2 0.338916 0.525690 0.986382
Si Si3 0.754577 0.875674 0.215626
Si Si4 0.761067 0.358155 0.924828
Si Si5 0.817575 0.160868 0.452773
Si Si6 0.235405 0.698133 0.403662
Si Si7 0.581197 0.448758 0.569044
Si Si8 0.365156 0.323751 0.293019
O O1 0.162459 0.817753 0.711752
O O2 0.218838 0.012223 0.804916
O O3 0.458071 0.094683 0.936844
O O4 0.917379 0.706253 0.951330
O O5 0.419116 0.551335 0.827405
O O6 0.604304 0.715749 0.077782
O O7 0.264759 0.565367 0.015232
O O8 0.557112 0.714472 0.342132
O O9 0.058024 0.075354 0.240800
O O10 0.807298 0.373576 0.757428
O O11 0.000000 0.500000 0.000000
O O12 0.775771 0.212569 0.564871
O O13 0.105954 0.338756 0.474850
O O14 0.534117 0.900609 0.453568
O O15 0.000000 0.500000 0.500000
O O16 0.413558 0.326135 0.431732
O O17 0.590315 0.546047 0.664268
#
# Coordination Sequence:
#
# PCOD9104796 Si02
#       8
#     2   2   2   2   2   2   2   2
#     4  10  21  41  67  91 124 163 209 251 304 367
#     4  11  23  41  66  89 127 165 205 254 306 370
#     4  11  21  41  67  90 123 165 210 255 296 371
#     4  10  24  42  60  94 126 159 201 255 312 368
#     4  10  20  39  62  90 118 160 205 249 300 361
#     4  10  22  38  66  89 118 158 210 250 301 367
#     4  11  24  41  64  90 131 161 204 258 310 361
#     4  11  25  41  60  96 126 163 204 254 316 364
#
# _framework density 20.184093000000001
#
# number of rings (size 3 to 8) (size 9 to 14) (size 15 to 20)
#    0.000    1.500    2.500    1.500    5.250    4.500 
#    2.250    0.000    0.000    0.000    0.000    0.000 
#    0.000    0.000    0.000    0.000    0.000    0.000 
#
# Total GULP energy -89335.849932 kJ/mol
# GULP energy per Si atom -5583.490621 kJ/mol
# Density = 2.013815 g / cm^3
# Si number density = 20.184093 Si / 1000 Ang^3
#
#
#
# Elastic Constant Matrix: (Units=GPa)
#
#
# Indices 1 2 3 4 5 6 
#
# 1 74.2545 35.5055 32.5682 8.1674 -5.4320 13.0832
# 2 35.5055 124.5239 47.1272 -3.6574 6.9571 26.2890
# 3 32.5682 47.1272 76.9092 -3.5487 -12.6702 6.9442
# 4 8.1674 -3.6574 -3.5487 29.6462 13.5603 4.8201
# 5 -5.4320 6.9571 -12.6702 13.5603 33.8071 4.4518
# 6 13.0832 26.2890 6.9442 4.8201 4.4518 28.7640
#
#
#
# Elastic Compliance Matrix: (Units=1/GPa)
#
#
# Indices 1 2 3 4 5 6 
#
# 1 0.019380 -0.003207 -0.005327 -0.008288 0.005639 -0.004082
# 2 -0.003207 0.014599 -0.007662 0.006996 -0.007882 -0.009987
# 3 -0.005327 -0.007662 0.021038 -0.001503 0.008782 0.003239
# 4 -0.008288 0.006996 -0.001503 0.047678 -0.021548 -0.006916
# 5 0.005639 -0.007882 0.008782 -0.021548 0.044134 -0.000701
# 6 -0.004082 -0.009987 0.003239 -0.006916 -0.000701 0.046236
#
#
# Mechanical properties :
#
#
# Convention : Reuss Voigt Hill
#
# Bulk Modulus (GPa) = 44.19550 56.23213 50.21381
# Shear Modulus (GPa) = 21.45948 29.14257 25.30103
#
# Velocity S-wave (km/s) = 3.26419 3.80391 3.54434
# Velocity P-wave (km/s) = 6.01252 6.87118 6.45614
#
# Compressibility (1/GPa) = 0.02262674
#
# Stress axis : x y z
#
# Youngs Moduli (GPa) = 51.59902 68.49879 47.53364
#
# Poissons Ratio (x) = 0.21965 0.25320
# Poissons Ratio (y) = 0.16546 0.36419
# Poissons Ratio (z) = 0.27485 0.52482
#
# Static dielectric constant tensor:
#      x y z
#    x 1.751370 -0.016760 -0.010050 
#    y -0.016760 1.752050 0.017810 
#    z -0.010050 0.017810 1.689950 
# 
# From -- ./inp_files/317730.got.cif
#   From: 2010.05.17/outbox.cif.g08.bks.cpg/sg2_159_cif.got.tgz:317730.got - 2010.06.03 11:33:40.
