data_PCOD9104144
_publ_section_title
;
Structure prediction by ZEFSAII (Michael W. Deem and Ramdas Pophale) SiO2 
 PCOD9104144
Probable space group: P -1
;
_chemical_formula_sum "Si O2"
_cell_formula_units_Z 16
_cell_length_a 11.256253
_cell_length_b 16.651329
_cell_length_c 11.382502
_cell_angle_alpha 111.645478
_cell_angle_beta 48.323969
_cell_angle_gamma 146.606796
_cell_volume 781.816892
_symmetry_space_group_name_H-M "P -1"
_symmetry_group_IT_number 2
_symmetry_cell_setting 'triclinic'
loop_
_space_group_symop_operation_xyz
x,y,z
-x,-y,-z
loop_
_atom_site_type_symbol
_atom_site_label
_atom_site_fract_x
_atom_site_fract_y
_atom_site_fract_z
Si Si1 0.854310 0.127336 0.089370
Si Si2 0.841468 0.965616 0.372845
Si Si3 0.019698 0.158573 0.728423
Si Si4 0.285250 0.200669 0.998051
Si Si5 0.408158 0.506334 0.378261
Si Si6 0.646600 0.333215 0.618345
Si Si7 0.809883 0.131798 0.618312
Si Si8 0.663481 0.521996 0.008655
O O1 0.057295 0.157997 0.052559
O O2 0.505229 0.970740 0.264048
O O3 0.905172 0.125203 0.918178
O O4 0.996285 0.288016 0.106214
O O5 0.918355 0.914897 0.368958
O O6 0.503336 0.795356 0.452346
O O7 0.869282 0.072027 0.471293
O O8 0.080925 0.069362 0.164352
O O9 0.342590 0.356769 0.614127
O O10 0.803832 0.096399 0.737649
O O11 0.565430 0.380703 0.968909
O O12 0.453230 0.221896 0.801393
O O13 0.416273 0.597212 0.343402
O O14 0.525276 0.485781 0.204115
O O15 0.077493 0.324676 0.533990
O O16 0.000000 0.500000 0.500000
O O17 0.500000 0.500000 0.000000
#
# Coordination Sequence:
#
# PCOD9104144 Si02
#       8
#     2   2   2   2   2   2   2   2
#     4  10  22  37  63  87 123 155 203 249 301 351
#     4  11  24  39  62  92 122 158 197 251 310 352
#     4  10  22  45  59  81 127 168 197 245 311 347
#     4  11  20  39  62  85 122 158 193 241 316 362
#     4  10  20  39  58  86 115 160 202 241 295 356
#     4  11  24  37  60  88 129 157 192 246 311 371
#     4  12  24  36  65  94 115 157 219 251 274 359
#     4   9  16  35  58  81 114 154 185 245 301 347
#
# _framework density 20.465150000000001
#
# number of rings (size 3 to 8) (size 9 to 14) (size 15 to 20)
#    0.000    1.500    6.250    1.500    3.500    0.500 
#    0.000    0.000    0.000    0.750    0.000    0.000 
#    0.000    0.000    0.000    0.000    0.000    0.000 
#
# Total GULP energy -89234.628938 kJ/mol
# GULP energy per Si atom -5577.164309 kJ/mol
# Density = 2.041857 g / cm^3
# Si number density = 20.465150 Si / 1000 Ang^3
#
#
#
# Elastic Constant Matrix: (Units=GPa)
#
#
# Indices 1 2 3 4 5 6 
#
# 1 47.2794 13.4650 16.6791 -2.7264 -0.0961 4.7412
# 2 13.4650 101.9729 19.5288 -6.4688 1.4101 -8.4859
# 3 16.6791 19.5288 64.7887 -17.9711 -2.3937 -2.5239
# 4 -2.7264 -6.4688 -17.9711 32.7003 3.0302 -0.6930
# 5 -0.0961 1.4101 -2.3937 3.0302 23.9435 -4.5757
# 6 4.7412 -8.4859 -2.5239 -0.6930 -4.5757 21.9118
#
#
#
# Elastic Compliance Matrix: (Units=1/GPa)
#
#
# Indices 1 2 3 4 5 6 
#
# 1 0.024873 -0.002783 -0.006490 -0.002058 -0.001577 -0.007602
# 2 -0.002783 0.011035 -0.002197 0.000851 -0.000104 0.004628
# 3 -0.006490 -0.002197 0.020856 0.010418 0.001560 0.003611
# 4 -0.002058 0.000851 0.010418 0.036650 -0.003183 0.002469
# 5 -0.001577 -0.000104 0.001560 -0.003183 0.044158 0.009601
# 6 -0.007602 0.004628 0.003611 0.002469 0.009601 0.051574
#
#
# Mechanical properties :
#
#
# Convention : Reuss Voigt Hill
#
# Bulk Modulus (GPa) = 29.56448 34.82074 32.19261
# Shear Modulus (GPa) = 22.38522 26.66900 24.52711
#
# Velocity S-wave (km/s) = 3.31088 3.61382 3.46567
# Velocity P-wave (km/s) = 5.39384 5.87065 5.63729
#
# Compressibility (1/GPa) = 0.03382438
#
# Stress axis : x y z
#
# Youngs Moduli (GPa) = 40.20381 90.61771 47.94813
#
# Poissons Ratio (x) = 0.25218 0.31117
# Poissons Ratio (y) = 0.11188 0.10536
# Poissons Ratio (z) = 0.26092 0.19912
#
# Static dielectric constant tensor:
#      x y z
#    x 1.739380 -0.010330 0.003620 
#    y -0.010330 1.769930 -0.000480 
#    z 0.003620 -0.000480 1.736840 
# 
# From -- ./inp_files/436804.got.cif
#   From: 2010.05.17/outbox.cif.g08.bks.cpg/sg2_219_cif.got.tgz:436804.got - 2010.06.03 11:33:40.
