data_PCOD9104045
_publ_section_title
;
Structure prediction by ZEFSAII (Michael W. Deem and Ramdas Pophale) SiO2 
 PCOD9104045
Probable space group: P -1
;
_chemical_formula_sum "Si O2"
_cell_formula_units_Z 15
_cell_length_a 9.207975
_cell_length_b 10.742582
_cell_length_c 20.364497
_cell_angle_alpha 37.349426
_cell_angle_beta 30.500239
_cell_angle_gamma 42.266777
_cell_volume 610.259525
_symmetry_space_group_name_H-M "P -1"
_symmetry_group_IT_number 2
_symmetry_cell_setting 'triclinic'
loop_
_space_group_symop_operation_xyz
x,y,z
-x,-y,-z
loop_
_atom_site_type_symbol
_atom_site_label
_atom_site_fract_x
_atom_site_fract_y
_atom_site_fract_z
Si Si1 0.866507 0.670978 0.267082
Si Si2 0.417163 0.990657 0.248856
Si Si3 0.195002 0.680024 0.857008
Si Si4 0.704946 0.019193 0.849876
Si Si5 0.000000 0.000000 0.500000
Si Si6 0.582429 0.314642 0.457256
Si Si7 0.560504 0.599517 0.866045
Si Si8 0.673250 0.507909 0.647640
O O1 0.741881 0.493249 0.349971
O O2 0.721956 0.687756 0.387329
O O3 0.205736 0.585297 0.177869
O O4 0.743149 0.881783 0.186249
O O5 0.309433 0.189544 0.257015
O O6 0.213126 0.848108 0.423174
O O7 0.369337 0.049259 0.167044
O O8 0.270771 0.679847 0.904509
O O9 0.517528 0.615562 0.727776
O O10 0.014380 0.887107 0.807763
O O11 0.000000 0.500000 0.000000
O O12 0.662125 0.265345 0.755249
O O13 0.500000 0.000000 0.000000
O O14 0.775341 0.093964 0.489698
O O15 0.533184 0.370243 0.378310
O O16 0.500000 0.500000 0.000000
O O17 0.000000 0.500000 0.500000
#
# Coordination Sequence:
#
# PCOD9104045 Si02
#       8
#     2   2   2   2   1   2   2   2
#     4  10  22  42  70 104 142 181 239 305 376 426
#     4  11  24  44  75 109 141 192 250 307 373 449
#     4  12  28  50  75 106 154 203 250 314 389 460
#     4  12  27  48  80 108 157 214 254 303 395 467
#     4  10  20  38  76 108 142 184 242 308 378 442
#     4  10  20  41  71 104 146 185 232 309 375 439
#     4  12  28  43  70 106 144 184 251 305 359 442
#     4  12  27  48  79 111 154 199 262 313 379 459
#
# _framework density 24.579709000000001
#
# number of rings (size 3 to 8) (size 9 to 14) (size 15 to 20)
#    0.000    0.800    4.000    2.400    3.733    5.333 
#    0.000    0.000    0.000    0.000    0.000    0.000 
#    0.000    0.000    0.000    0.000    0.000    0.000 
#
# Total GULP energy -83630.740912 kJ/mol
# GULP energy per Si atom -5575.382727 kJ/mol
# Density = 2.452376 g / cm^3
# Si number density = 24.579709 Si / 1000 Ang^3
#
#
#
# Elastic Constant Matrix: (Units=GPa)
#
#
# Indices 1 2 3 4 5 6 
#
# 1 135.3586 43.1827 23.0681 -5.3131 33.5332 -41.9534
# 2 43.1827 147.0346 16.3784 17.4278 7.7294 -46.6385
# 3 23.0681 16.3784 68.7983 11.4476 14.9336 -11.2797
# 4 -5.3131 17.4278 11.4476 27.4013 -7.8360 4.6272
# 5 33.5332 7.7294 14.9336 -7.8360 27.5875 -11.9581
# 6 -41.9534 -46.6385 -11.2797 4.6272 -11.9581 46.3482
#
#
#
# Elastic Compliance Matrix: (Units=1/GPa)
#
#
# Indices 1 2 3 4 5 6 
#
# 1 0.013283 -0.000097 0.000373 -0.002813 -0.013274 0.008873
# 2 -0.000097 0.012313 0.001478 -0.011157 -0.001497 0.013390
# 3 0.000373 0.001478 0.020116 -0.013974 -0.013746 0.004569
# 4 -0.002813 -0.011157 -0.013974 0.058427 0.023343 -0.016984
# 5 -0.013274 -0.001497 -0.013746 0.023343 0.065925 -0.002188
# 6 0.008873 0.013390 0.004569 -0.016984 -0.002188 0.045324
#
#
# Mechanical properties :
#
#
# Convention : Reuss Voigt Hill
#
# Bulk Modulus (GPa) = 20.31652 57.38334 38.84993
# Shear Modulus (GPa) = 21.90216 38.17156 30.03686
#
# Velocity S-wave (km/s) = 2.98831 3.94505 3.49953
# Velocity P-wave (km/s) = 4.49335 6.64438 5.67177
#
# Compressibility (1/GPa) = 0.04922103
#
# Stress axis : x y z
#
# Youngs Moduli (GPa) = 75.28285 81.21299 49.71087
#
# Poissons Ratio (x) = 0.00789 -0.01856
# Poissons Ratio (y) = 0.00731 -0.07347
# Poissons Ratio (z) = -0.02810 -0.12002
#
# Static dielectric constant tensor:
#      x y z
#    x 1.953220 -0.046790 -0.064680 
#    y -0.046790 1.659700 -0.059660 
#    z -0.064680 -0.059660 1.474520 
# 
# From -- ./inp_files/588933.got.cif
#   From: 2010.05.17/outbox.cif.g08.bks.cpg/sg2_295_cif.got.tgz:588933.got - 2010.06.03 11:33:40.
