data_PCOD9104498
_publ_section_title
;
Structure prediction by ZEFSAII (Michael W. Deem and Ramdas Pophale) SiO2 
 PCOD9104498
Probable space group: P -1
;
_chemical_formula_sum "Si O2"
_cell_formula_units_Z 14
_cell_length_a 21.241055
_cell_length_b 5.596129
_cell_length_c 5.024855
_cell_angle_alpha 93.160404
_cell_angle_beta 64.091575
_cell_angle_gamma 92.367211
_cell_volume 536.345410
_symmetry_space_group_name_H-M "P -1"
_symmetry_group_IT_number 2
_symmetry_cell_setting 'triclinic'
loop_
_space_group_symop_operation_xyz
x,y,z
-x,-y,-z
loop_
_atom_site_type_symbol
_atom_site_label
_atom_site_fract_x
_atom_site_fract_y
_atom_site_fract_z
Si Si1 0.336667 0.957550 0.995286
Si Si2 0.895723 0.911862 0.544166
Si Si3 0.961441 0.313971 0.751113
Si Si4 0.476623 0.708074 0.757212
Si Si5 0.610264 0.639654 0.734616
Si Si6 0.145916 0.370964 0.867285
Si Si7 0.282525 0.697044 0.605222
O O1 0.301977 0.793447 0.282108
O O2 0.343222 0.217858 0.129493
O O3 0.417662 0.887412 0.781220
O O4 0.292059 0.912446 0.810038
O O5 0.851311 0.845040 0.362543
O O6 0.976585 0.864246 0.302610
O O7 0.902196 0.170085 0.682756
O O8 0.868129 0.739693 0.822347
O O9 0.000000 0.500000 0.500000
O O10 0.921354 0.462200 0.056974
O O11 0.500000 0.500000 0.500000
O O12 0.551001 0.809513 0.733537
O O13 0.434887 0.568751 0.056613
O O14 0.659874 0.501854 0.434170
O O15 0.210954 0.550185 0.738345
#
# Coordination Sequence:
#
# PCOD9104498 Si02
#       7
#     2   2   2   2   2   2   2
#     4  11  24  40  63  86 117 157 197 242 301 343
#     4  10  22  39  63  90 117 158 196 240 295 342
#     4   9  21  39  63  92 122 151 197 246 290 342
#     4  10  20  39  61  86 117 148 198 247 295 351
#     4  10  23  39  59  87 119 153 193 249 295 352
#     4  11  23  40  61  86 123 158 197 240 289 348
#     4  11  25  41  58  89 120 156 200 241 285 356
#
# _framework density 26.102582000000002
#
# number of rings (size 3 to 8) (size 9 to 14) (size 15 to 20)
#    0.000    1.714    1.429    1.714    2.000   10.286 
#    0.000    0.000    0.000    0.000    0.000    0.000 
#    0.000    0.000    0.000    0.000    0.000    0.000 
#
# Total GULP energy -78352.093711 kJ/mol
# GULP energy per Si atom -5596.578122 kJ/mol
# Density = 2.604317 g / cm^3
# Si number density = 26.102582 Si / 1000 Ang^3
#
#
#
# Elastic Constant Matrix: (Units=GPa)
#
#
# Indices 1 2 3 4 5 6 
#
# 1 56.5719 12.0222 36.8411 -13.1498 0.6318 28.3163
# 2 12.0222 86.2791 25.4488 6.0916 -2.1063 19.8802
# 3 36.8411 25.4488 105.3255 -12.7105 10.0298 6.9728
# 4 -13.1498 6.0916 -12.7105 46.4288 8.8889 17.8451
# 5 0.6318 -2.1063 10.0298 8.8889 39.3511 2.6905
# 6 28.3163 19.8802 6.9728 17.8451 2.6905 38.0140
#
#
#
# Elastic Compliance Matrix: (Units=1/GPa)
#
#
# Indices 1 2 3 4 5 6 
#
# 1 0.086687 0.011271 -0.020497 0.052840 -0.001249 -0.091424
# 2 0.011271 0.015658 -0.005932 0.006269 0.002023 -0.018582
# 3 -0.020497 -0.005932 0.016349 -0.007110 -0.003847 0.018981
# 4 0.052840 0.006269 -0.007110 0.062141 -0.007955 -0.069942
# 5 -0.001249 0.002023 -0.003847 -0.007955 0.028160 0.002319
# 6 -0.091424 -0.018582 0.018981 -0.069942 0.002319 0.133313
#
#
# Mechanical properties :
#
#
# Convention : Reuss Voigt Hill
#
# Bulk Modulus (GPa) = 11.31495 44.08894 27.70195
# Shear Modulus (GPa) = 12.43532 36.34975 24.39253
#
# Velocity S-wave (km/s) = 2.18503 3.73577 3.06025
# Velocity P-wave (km/s) = 3.27262 5.96115 4.80860
#
# Compressibility (1/GPa) = 0.08837864
#
# Stress axis : x y z
#
# Youngs Moduli (GPa) = 11.53578 63.86560 61.16684
#
# Poissons Ratio (x) = -0.71984 1.25373
# Poissons Ratio (y) = -0.13002 0.36282
# Poissons Ratio (z) = 0.23645 0.37883
#
# Static dielectric constant tensor:
#      x y z
#    x 2.251880 -0.060350 0.007910 
#    y -0.060350 2.022280 0.037660 
#    z 0.007910 0.037660 1.979250 
# 
# From -- ./inp_files/7415.got.cif
#   From: 2010.05.17/outbox.cif.g08.bks.cpg/sg2_4_cif.got.tgz:7415.got - 2010.06.03 11:33:40.
