data_PCOD9104906
_publ_section_title
;
Structure prediction by ZEFSAII (Michael W. Deem and Ramdas Pophale) SiO2 
 PCOD9104906
Probable space group: P -1
;
_chemical_formula_sum "Si O2"
_cell_formula_units_Z 12
_cell_length_a 17.952233
_cell_length_b 15.925833
_cell_length_c 9.549536
_cell_angle_alpha 34.663400
_cell_angle_beta 39.125655
_cell_angle_gamma 19.434679
_cell_volume 516.680395
_symmetry_space_group_name_H-M "P -1"
_symmetry_group_IT_number 2
_symmetry_cell_setting 'triclinic'
loop_
_space_group_symop_operation_xyz
x,y,z
-x,-y,-z
loop_
_atom_site_type_symbol
_atom_site_label
_atom_site_fract_x
_atom_site_fract_y
_atom_site_fract_z
Si Si1 0.038004 0.548386 0.660231
Si Si2 0.298743 0.562173 0.659479
Si Si3 0.969103 0.733446 0.082074
Si Si4 0.670719 0.943961 0.870525
Si Si5 0.552370 0.356411 0.843074
Si Si6 0.162449 0.697523 0.123988
O O1 0.979275 0.495338 0.694687
O O2 0.173191 0.550332 0.418706
O O3 0.819821 0.830959 0.675813
O O4 0.175022 0.296060 0.909382
O O5 0.371280 0.561335 0.700485
O O6 0.273806 0.698675 0.377433
O O7 0.514861 0.236870 0.753223
O O8 0.088860 0.684500 0.839915
O O9 0.064830 0.714504 0.105880
O O10 0.704447 0.048692 0.037256
O O11 0.500000 0.000000 0.000000
O O12 0.402343 0.510485 0.988186
O O13 0.000000 0.000000 0.000000
#
# Coordination Sequence:
#
# PCOD9104906 Si02
#       6
#     2   2   2   2   2   2
#     4  11  24  41  64  97 127 160 213 256 311 374
#     4  10  20  39  62  95 124 159 212 250 308 370
#     4  11  22  41  66  95 124 166 207 260 314 363
#     4  11  22  39  66  93 125 163 205 260 309 364
#     4  10  22  39  64  89 126 165 203 257 308 371
#     4  11  26  44  62  91 128 168 210 255 313 378
#
# _framework density 23.225190999999999
#
# number of rings (size 3 to 8) (size 9 to 14) (size 15 to 20)
#    0.000    1.333    3.333    2.000    0.000    4.000 
#    0.000    0.000    0.000    0.000    0.000    0.000 
#    0.000    0.000    0.000    0.000    0.000    0.000 
#
# Total GULP energy -67004.166681 kJ/mol
# GULP energy per Si atom -5583.680557 kJ/mol
# Density = 2.317233 g / cm^3
# Si number density = 23.225191 Si / 1000 Ang^3
#
#
#
# Elastic Constant Matrix: (Units=GPa)
#
#
# Indices 1 2 3 4 5 6 
#
# 1 72.4564 1.3174 7.0741 3.1492 -5.4894 13.8039
# 2 1.3174 147.1027 45.1660 22.2887 -1.1538 31.0266
# 3 7.0741 45.1660 116.1352 24.6559 -15.3863 23.2656
# 4 3.1492 22.2887 24.6559 36.5632 3.8796 -3.1191
# 5 -5.4894 -1.1538 -15.3863 3.8796 22.6339 -3.7322
# 6 13.8039 31.0266 23.2656 -3.1191 -3.7322 33.3836
#
#
#
# Elastic Compliance Matrix: (Units=1/GPa)
#
#
# Indices 1 2 3 4 5 6 
#
# 1 0.016069 0.002240 0.001912 -0.005382 0.004577 -0.010051
# 2 0.002240 0.010268 -0.000426 -0.007110 0.000213 -0.010813
# 3 0.001912 -0.000426 0.014719 -0.011871 0.010741 -0.010561
# 4 -0.005382 -0.007110 -0.011871 0.043303 -0.013929 0.019596
# 5 0.004577 0.000213 0.010741 -0.013929 0.054197 -0.004818
# 6 -0.010051 -0.010813 -0.010561 0.019596 -0.004818 0.052813
#
#
# Mechanical properties :
#
#
# Convention : Reuss Voigt Hill
#
# Bulk Modulus (GPa) = 20.61427 49.20103 34.90765
# Shear Modulus (GPa) = 24.98925 37.32525 31.15725
#
# Velocity S-wave (km/s) = 3.28373 4.01322 3.66666
# Velocity P-wave (km/s) = 4.82414 6.53490 5.74357
#
# Compressibility (1/GPa) = 0.04851009
#
# Stress axis : x y z
#
# Youngs Moduli (GPa) = 62.23002 97.38574 67.94011
#
# Poissons Ratio (x) = -0.21816 -0.12993
# Poissons Ratio (y) = -0.13940 0.02894
# Poissons Ratio (z) = -0.11901 0.04148
#
# Static dielectric constant tensor:
#      x y z
#    x 1.957340 -0.011640 0.040090 
#    y -0.011640 1.798990 0.040990 
#    z 0.040090 0.040990 1.888930 
# 
# From -- ./inp_files/21101.got.cif
#   From: 2010.05.17/outbox.cif.g08.bks.cpg/sg2_11_cif.got.tgz:21101.got - 2010.06.03 11:33:40.
