data_PCOD9104206
_publ_section_title
;
Structure prediction by ZEFSAII (Michael W. Deem and Ramdas Pophale) SiO2 
 PCOD9104206
Probable space group: P -1
;
_chemical_formula_sum "Si O2"
_cell_formula_units_Z 14
_cell_length_a 21.151542
_cell_length_b 5.281926
_cell_length_c 8.792708
_cell_angle_alpha 118.193376
_cell_angle_beta 137.483047
_cell_angle_gamma 62.756789
_cell_volume 575.124658
_symmetry_space_group_name_H-M "P -1"
_symmetry_group_IT_number 2
_symmetry_cell_setting 'triclinic'
loop_
_space_group_symop_operation_xyz
x,y,z
-x,-y,-z
loop_
_atom_site_type_symbol
_atom_site_label
_atom_site_fract_x
_atom_site_fract_y
_atom_site_fract_z
Si Si1 0.292858 0.893000 0.656500
Si Si2 0.188775 0.393868 0.389793
Si Si3 0.992146 0.481260 0.723274
Si Si4 0.438999 0.143575 0.198765
Si Si5 0.144693 0.560442 0.814387
Si Si6 0.560424 0.583267 0.400825
Si Si7 0.181119 0.118474 0.979744
O O1 0.218739 0.709237 0.547739
O O2 0.358854 0.647709 0.601841
O O3 0.242148 0.154838 0.533339
O O4 0.361601 0.020593 0.928720
O O5 0.076690 0.421696 0.232692
O O6 0.209100 0.280984 0.222492
O O7 0.919313 0.476902 0.453851
O O8 0.071824 0.662396 0.856419
O O9 0.064096 0.174249 0.786823
O O10 0.480023 0.394757 0.251611
O O11 0.408464 0.280053 0.348755
O O12 0.520236 0.858439 0.299809
O O13 0.199858 0.259439 0.894514
O O14 0.214056 0.778127 0.960994
#
# Coordination Sequence:
#
# PCOD9104206 Si02
#       7
#     2   2   2   2   2   2   2
#     4  12  25  42  58 101 137 163 197 257 324 382
#     4  12  26  38  58  89 136 166 201 253 337 369
#     4   9  22  38  62  85 113 163 225 266 300 370
#     4  10  21  42  73  95 119 167 210 253 294 370
#     4   9  20  36  65  81 109 147 237 269 307 339
#     4  10  21  42  73  95 121 162 216 246 298 375
#     4  10  20  39  59  85 110 167 216 264 298 366
#
# _framework density 24.342549999999999
#
# number of rings (size 3 to 8) (size 9 to 14) (size 15 to 20)
#    0.857    0.857    0.000    4.286    2.000    0.571 
#    7.714    0.000    0.000    0.000    0.000    0.000 
#    0.000    0.000    0.000    0.000    0.000    0.000 
#
# Total GULP energy -78256.706774 kJ/mol
# GULP energy per Si atom -5589.764770 kJ/mol
# Density = 2.428714 g / cm^3
# Si number density = 24.342550 Si / 1000 Ang^3
#
#
#
# Elastic Constant Matrix: (Units=GPa)
#
#
# Indices 1 2 3 4 5 6 
#
# 1 49.9323 24.5300 24.8913 2.0231 -0.1286 -7.8251
# 2 24.5300 124.9058 63.7232 7.4456 -5.5253 28.7868
# 3 24.8913 63.7232 109.8177 -4.0622 2.1290 15.6855
# 4 2.0231 7.4456 -4.0622 25.0821 -0.2285 6.9587
# 5 -0.1286 -5.5253 2.1290 -0.2285 12.7347 -1.7112
# 6 -7.8251 28.7868 15.6855 6.9587 -1.7112 45.8928
#
#
#
# Elastic Compliance Matrix: (Units=1/GPa)
#
#
# Indices 1 2 3 4 5 6 
#
# 1 0.026450 -0.004732 -0.004806 -0.004215 0.000255 0.009769
# 2 -0.004732 0.014260 -0.006451 -0.002934 0.006242 -0.006869
# 3 -0.004806 -0.006451 0.014647 0.005403 -0.005576 -0.002806
# 4 -0.004215 -0.002934 0.005403 0.044011 -0.002435 -0.007489
# 5 0.000255 0.006242 -0.005576 -0.002435 0.082323 0.001473
# 6 0.009769 -0.006869 -0.002806 -0.007489 0.001473 0.029914
#
#
# Mechanical properties :
#
#
# Convention : Reuss Voigt Hill
#
# Bulk Modulus (GPa) = 42.76933 56.77165 49.77049
# Shear Modulus (GPa) = 19.89064 28.17599 24.03331
#
# Velocity S-wave (km/s) = 2.86162 3.40587 3.14554
# Velocity P-wave (km/s) = 5.34101 6.23211 5.80369
#
# Compressibility (1/GPa) = 0.02338124
#
# Stress axis : x y z
#
# Youngs Moduli (GPa) = 37.80784 70.12436 68.27273
#
# Poissons Ratio (x) = 0.33180 0.32810
# Poissons Ratio (y) = 0.17889 0.44040
# Poissons Ratio (z) = 0.18169 0.45235
#
# Static dielectric constant tensor:
#      x y z
#    x 1.951770 0.022400 0.000460 
#    y 0.022400 1.984260 0.002990 
#    z 0.000460 0.002990 1.886660 
# 
# From -- ./inp_files/350860.got.cif
#   From: 2010.05.17/outbox.cif.g08.bks.cpg/sg2_176_cif.got.tgz:350860.got - 2010.06.03 11:33:40.
