data_PCOD9104689
_publ_section_title
;
Structure prediction by ZEFSAII (Michael W. Deem and Ramdas Pophale) SiO2 
 PCOD9104689
Probable space group: P -1
;
_chemical_formula_sum "Si O2"
_cell_formula_units_Z 16
_cell_length_a 14.397722
_cell_length_b 12.587899
_cell_length_c 8.729169
_cell_angle_alpha 91.124679
_cell_angle_beta 33.210471
_cell_angle_gamma 79.982847
_cell_volume 812.314789
_symmetry_space_group_name_H-M "P -1"
_symmetry_group_IT_number 2
_symmetry_cell_setting 'triclinic'
loop_
_space_group_symop_operation_xyz
x,y,z
-x,-y,-z
loop_
_atom_site_type_symbol
_atom_site_label
_atom_site_fract_x
_atom_site_fract_y
_atom_site_fract_z
Si Si1 0.696686 0.943921 0.656641
Si Si2 0.805235 0.086601 0.730156
Si Si3 0.243658 0.665988 0.128074
Si Si4 0.199775 0.536822 0.468998
Si Si5 0.399035 0.463485 0.498744
Si Si6 0.841025 0.673673 0.111033
Si Si7 0.087357 0.316694 0.633537
Si Si8 0.537344 0.907129 0.576577
O O1 0.791842 0.813903 0.578214
O O2 0.669118 0.936200 0.516071
O O3 0.780913 0.034791 0.599126
O O4 0.500000 0.000000 0.000000
O O5 0.815691 0.210555 0.713421
O O6 0.643387 0.088904 0.075741
O O7 0.000000 0.000000 0.500000
O O8 0.271881 0.570126 0.214212
O O9 0.099303 0.658945 0.200004
O O10 0.440162 0.645949 0.786790
O O11 0.318700 0.535018 0.457271
O O12 0.173556 0.414513 0.485549
O O13 0.005014 0.635449 0.765862
O O14 0.500000 0.500000 0.500000
O O15 0.233270 0.430171 0.786204
O O16 0.921442 0.682415 0.168941
O O17 0.664458 0.784788 0.333065
O O18 0.500000 0.000000 0.500000
#
# Coordination Sequence:
#
# PCOD9104689 Si02
#       8
#     2   2   2   2   2   2   2   2
#     4   9  20  38  62  85 117 165 200 241 306 364
#     4  11  22  41  62  90 123 159 198 248 318 352
#     4  12  23  39  62  93 125 152 202 261 300 357
#     4  11  24  38  61  94 119 162 204 248 300 366
#     4  11  22  42  61  86 123 160 198 248 311 356
#     4  10  21  41  61  84 120 161 203 241 302 370
#     4  10  20  39  62  84 119 165 204 239 303 370
#     4  10  22  41  64  89 118 158 212 247 290 367
#
# _framework density 19.696795999999999
#
# number of rings (size 3 to 8) (size 9 to 14) (size 15 to 20)
#    0.000    1.500    2.500    3.750    3.500    0.000 
#    2.250    0.625    0.000    0.000    0.000    0.000 
#    0.000    0.000    0.000    0.000    0.000    0.000 
#
# Total GULP energy -89088.524449 kJ/mol
# GULP energy per Si atom -5568.032778 kJ/mol
# Density = 1.965197 g / cm^3
# Si number density = 19.696796 Si / 1000 Ang^3
#
#
#
# Elastic Constant Matrix: (Units=GPa)
#
#
# Indices 1 2 3 4 5 6 
#
# 1 91.5161 29.3964 8.2922 -7.1804 -21.4400 -0.7157
# 2 29.3964 95.8062 21.6411 12.1234 5.0960 -3.8827
# 3 8.2922 21.6411 71.7049 15.5733 -11.0611 -3.0118
# 4 -7.1804 12.1234 15.5733 34.3631 -2.2767 -0.3656
# 5 -21.4400 5.0960 -11.0611 -2.2767 19.8942 3.6775
# 6 -0.7157 -3.8827 -3.0118 -0.3656 3.6775 36.0721
#
#
#
# Elastic Compliance Matrix: (Units=1/GPa)
#
#
# Indices 1 2 3 4 5 6 
#
# 1 0.021147 -0.009873 0.002973 0.008411 0.028530 -0.003218
# 2 -0.009873 0.016652 -0.005234 -0.006803 -0.019156 0.003044
# 3 0.002973 -0.005234 0.018446 -0.004948 0.014322 -0.000475
# 4 0.008411 -0.006803 -0.004948 0.036313 0.012561 -0.001891
# 5 0.028530 -0.019156 0.014322 0.012561 0.097184 -0.010081
# 6 -0.003218 0.003044 -0.000475 -0.001891 -0.010081 0.028955
#
#
# Mechanical properties :
#
#
# Convention : Reuss Voigt Hill
#
# Bulk Modulus (GPa) = 31.27018 41.96516 36.61767
# Shear Modulus (GPa) = 19.71425 31.37904 25.54664
#
# Velocity S-wave (km/s) = 3.16711 3.99570 3.60529
# Velocity P-wave (km/s) = 5.41150 6.52988 5.99682
#
# Compressibility (1/GPa) = 0.03197934
#
# Stress axis : x y z
#
# Youngs Moduli (GPa) = 47.28692 60.05172 54.21271
#
# Poissons Ratio (x) = 0.59286 -0.16119
# Poissons Ratio (y) = 0.46684 0.28374
# Poissons Ratio (z) = -0.14059 0.31430
#
# Static dielectric constant tensor:
#      x y z
#    x 1.745030 0.011190 -0.006290 
#    y 0.011190 1.692320 0.038050 
#    z -0.006290 0.038050 1.689450 
# 
# From -- ./inp_files/226526.got.cif
#   From: 2010.05.17/outbox.cif.g08.bks.cpg/sg2_114_cif.got.tgz:226526.got - 2010.06.03 11:33:40.
