data_PCOD9104910
_publ_section_title
;
Structure prediction by ZEFSAII (Michael W. Deem and Ramdas Pophale) SiO2 
 PCOD9104910
Probable space group: P -1
;
_chemical_formula_sum "Si O2"
_cell_formula_units_Z 16
_cell_length_a 19.893458
_cell_length_b 11.199007
_cell_length_c 5.417775
_cell_angle_alpha 58.174283
_cell_angle_beta 69.748071
_cell_angle_gamma 42.014200
_cell_volume 684.195906
_symmetry_space_group_name_H-M "P -1"
_symmetry_group_IT_number 2
_symmetry_cell_setting 'triclinic'
loop_
_space_group_symop_operation_xyz
x,y,z
-x,-y,-z
loop_
_atom_site_type_symbol
_atom_site_label
_atom_site_fract_x
_atom_site_fract_y
_atom_site_fract_z
Si Si1 0.533086 0.576262 0.688456
Si Si2 0.923102 0.182391 0.213115
Si Si3 0.924118 0.796211 0.138080
Si Si4 0.259451 0.369741 0.957396
Si Si5 0.662032 0.228259 0.536607
Si Si6 0.657775 0.653586 0.611583
Si Si7 0.789909 0.211462 0.000666
Si Si8 0.145914 0.236053 0.220906
O O1 0.627659 0.381606 0.629087
O O2 0.439137 0.716327 0.468940
O O3 0.562039 0.683163 0.662255
O O4 0.500000 0.500000 0.000000
O O5 0.817507 0.391687 0.214105
O O6 0.887862 0.110930 0.149693
O O7 0.000000 0.000000 0.500000
O O8 0.978250 0.240452 0.960609
O O9 0.906042 0.746179 0.478595
O O10 0.831703 0.034749 0.962248
O O11 0.919149 0.700634 0.012688
O O12 0.326372 0.273722 0.729264
O O13 0.327497 0.292100 0.202606
O O14 0.187361 0.334712 0.095598
O O15 0.701671 0.270580 0.216972
O O16 0.752482 0.994868 0.701264
O O17 0.750194 0.415214 0.744673
#
# Coordination Sequence:
#
# PCOD9104910 Si02
#       8
#     2   2   2   2   2   2   2   2
#     4  11  21  37  66 101 124 153 204 266 318 368
#     4  11  22  39  65  98 129 162 210 269 318 361
#     4  11  23  39  65  92 126 166 216 259 307 368
#     4  11  26  43  65  87 129 174 211 255 306 376
#     4  10  22  38  63  94 130 162 203 257 315 377
#     4  11  22  41  63  93 126 162 207 256 319 368
#     4  10  20  39  62  95 128 163 201 261 323 375
#     4  11  25  45  62  89 127 176 215 247 308 376
#
# _framework density 23.385114999999999
#
# number of rings (size 3 to 8) (size 9 to 14) (size 15 to 20)
#    0.000    1.250    1.250    5.625    3.500    5.000 
#    0.000    1.250    0.000    0.000    0.000    0.000 
#    0.000    0.000    0.000    0.000    0.000    0.000 
#
# Total GULP energy -89427.511022 kJ/mol
# GULP energy per Si atom -5589.219439 kJ/mol
# Density = 2.333189 g / cm^3
# Si number density = 23.385115 Si / 1000 Ang^3
#
#
#
# Elastic Constant Matrix: (Units=GPa)
#
#
# Indices 1 2 3 4 5 6 
#
# 1 156.4343 9.9481 42.0685 10.4563 9.7546 9.4587
# 2 9.9481 61.8787 21.9604 19.1581 8.7715 3.2733
# 3 42.0685 21.9604 63.2007 11.1285 1.7755 6.1586
# 4 10.4563 19.1581 11.1285 24.0897 -1.0933 -2.9244
# 5 9.7546 8.7715 1.7755 -1.0933 38.9957 5.0518
# 6 9.4587 3.2733 6.1586 -2.9244 5.0518 35.3121
#
#
#
# Elastic Compliance Matrix: (Units=1/GPa)
#
#
# Indices 1 2 3 4 5 6 
#
# 1 0.008113 0.001816 -0.005359 -0.002748 -0.002098 -0.001334
# 2 0.001816 0.024619 -0.006189 -0.018060 -0.005914 -0.002339
# 3 -0.005359 -0.006189 0.022296 -0.003258 0.001940 -0.002427
# 4 -0.002748 -0.018060 -0.003258 0.059692 0.005650 0.007113
# 5 -0.002098 -0.005914 0.001940 0.005650 0.027926 -0.002755
# 6 -0.001334 -0.002339 -0.002427 0.007113 -0.002755 0.030300
#
#
# Mechanical properties :
#
#
# Convention : Reuss Voigt Hill
#
# Bulk Modulus (GPa) = 28.11792 47.71863 37.91828
# Shear Modulus (GPa) = 24.47816 33.51529 28.99672
#
# Velocity S-wave (km/s) = 3.23885 3.78986 3.52513
# Velocity P-wave (km/s) = 5.10263 6.29289 5.72876
#
# Compressibility (1/GPa) = 0.03556450
#
# Stress axis : x y z
#
# Youngs Moduli (GPa) = 123.25585 40.61946 44.85163
#
# Poissons Ratio (x) = -0.07377 0.24035
# Poissons Ratio (y) = -0.22385 0.27759
# Poissons Ratio (z) = 0.66049 0.25140
#
# Static dielectric constant tensor:
#      x y z
#    x 1.890020 -0.007720 0.051230 
#    y -0.007720 1.908180 -0.012860 
#    z 0.051230 -0.012860 1.906540 
# 
# From -- ./inp_files/85365.got.cif
#   From: 2010.05.17/outbox.cif.g08.bks.cpg/sg2_43_cif.got.tgz:85365.got - 2010.06.03 11:33:40.
