data_PCOD9104449
_publ_section_title
;
Structure prediction by ZEFSAII (Michael W. Deem and Ramdas Pophale) SiO2 
 PCOD9104449
Probable space group: P -1
;
_chemical_formula_sum "Si O2"
_cell_formula_units_Z 16
_cell_length_a 14.556702
_cell_length_b 20.685197
_cell_length_c 10.732868
_cell_angle_alpha 147.361648
_cell_angle_beta 133.265524
_cell_angle_gamma 26.297933
_cell_volume 738.773286
_symmetry_space_group_name_H-M "P -1"
_symmetry_group_IT_number 2
_symmetry_cell_setting 'triclinic'
loop_
_space_group_symop_operation_xyz
x,y,z
-x,-y,-z
loop_
_atom_site_type_symbol
_atom_site_label
_atom_site_fract_x
_atom_site_fract_y
_atom_site_fract_z
Si Si1 0.587590 0.623162 0.817227
Si Si2 0.218673 0.846088 0.032070
Si Si3 0.388301 0.455363 0.561808
Si Si4 0.701095 0.792608 0.270116
Si Si5 0.719256 0.818636 0.778916
Si Si6 0.992188 0.443896 0.605407
Si Si7 0.935368 0.827431 0.401797
Si Si8 0.646525 0.071683 0.311476
O O1 0.522731 0.616234 0.613126
O O2 0.810979 0.387159 0.684892
O O3 0.403912 0.751731 0.959008
O O4 0.633722 0.729913 0.025319
O O5 0.161860 0.982277 0.308948
O O6 0.301209 0.652310 0.836516
O O7 0.000000 0.000000 0.000000
O O8 0.557082 0.270725 0.517352
O O9 0.186781 0.517982 0.471139
O O10 0.882046 0.612693 0.247259
O O11 0.811591 0.809645 0.318262
O O12 0.500000 0.000000 0.500000
O O13 0.835162 0.744789 0.636430
O O14 0.528095 0.868898 0.673300
O O15 0.880616 0.636343 0.736146
O O16 0.646006 0.998868 0.063552
O O17 0.869121 0.893357 0.303381
#
# Coordination Sequence:
#
# PCOD9104449 Si02
#       8
#     2   2   2   2   2   2   2   2
#     4  12  26  44  73 100 134 175 228 286 336 402
#     4  12  26  49  71  97 135 180 236 276 331 396
#     4  11  25  43  69  95 132 187 226 269 328 407
#     4  12  23  37  67 106 135 167 224 279 352 390
#     4   9  20  37  65  89 144 172 215 270 342 408
#     4  10  20  39  60  99 129 180 217 276 335 404
#     4  12  25  45  70 101 139 176 217 291 336 398
#     4  10  23  40  63 102 133 176 219 273 340 398
#
# _framework density 21.657523000000001
#
# number of rings (size 3 to 8) (size 9 to 14) (size 15 to 20)
#    0.000    1.000    3.750    2.250    7.000    0.500 
#    2.250    0.625    0.000    0.000    0.000    0.000 
#    0.000    0.000    0.000    0.000    0.000    0.000 
#
# Total GULP energy -89558.191838 kJ/mol
# GULP energy per Si atom -5597.386990 kJ/mol
# Density = 2.160823 g / cm^3
# Si number density = 21.657523 Si / 1000 Ang^3
#
#
#
# Elastic Constant Matrix: (Units=GPa)
#
#
# Indices 1 2 3 4 5 6 
#
# 1 40.8730 16.4210 21.1821 -0.2780 -4.0227 -4.5767
# 2 16.4210 84.9506 8.8274 6.5928 2.6391 14.8882
# 3 21.1821 8.8274 115.2934 4.9640 11.5481 0.0245
# 4 -0.2780 6.5928 4.9640 24.3024 -1.0900 -2.8194
# 5 -4.0227 2.6391 11.5481 -1.0900 31.8310 7.5384
# 6 -4.5767 14.8882 0.0245 -2.8194 7.5384 26.4575
#
#
#
# Elastic Compliance Matrix: (Units=1/GPa)
#
#
# Indices 1 2 3 4 5 6 
#
# 1 0.032235 -0.007729 -0.006040 0.004971 0.004932 0.009056
# 2 -0.007729 0.015521 0.000488 -0.005638 -0.000114 -0.010640
# 3 -0.006040 0.000488 0.010313 -0.002547 -0.004561 -0.000301
# 4 0.004971 -0.005638 -0.002547 0.044289 0.001569 0.008307
# 5 0.004932 -0.000114 -0.004561 0.001569 0.035923 -0.009147
# 6 0.009056 -0.010640 -0.000301 0.008307 -0.009147 0.048842
#
#
# Mechanical properties :
#
#
# Convention : Reuss Voigt Hill
#
# Bulk Modulus (GPa) = 31.74122 37.10865 34.42493
# Shear Modulus (GPa) = 22.30276 29.49729 25.90003
#
# Velocity S-wave (km/s) = 3.21252 3.69452 3.46192
# Velocity P-wave (km/s) = 5.33368 5.94733 5.64885
#
# Compressibility (1/GPa) = 0.03150477
#
# Stress axis : x y z
#
# Youngs Moduli (GPa) = 31.02216 64.43001 96.96960
#
# Poissons Ratio (x) = 0.49801 0.58574
# Poissons Ratio (y) = 0.23979 -0.04734
# Poissons Ratio (z) = 0.18739 -0.03145
#
# Static dielectric constant tensor:
#      x y z
#    x 1.784290 -0.006140 -0.006740 
#    y -0.006140 1.775940 0.027140 
#    z -0.006740 0.027140 1.799340 
# 
# From -- ./inp_files/457752.got.cif
#   From: 2010.05.17/outbox.cif.g08.bks.cpg/sg2_229_cif.got.tgz:457752.got - 2010.06.03 11:33:40.
