data_PCOD9104356
_publ_section_title
;
Structure prediction by ZEFSAII (Michael W. Deem and Ramdas Pophale) SiO2 
 PCOD9104356
Probable space group: P -1
;
_chemical_formula_sum "Si O2"
_cell_formula_units_Z 16
_cell_length_a 20.612710
_cell_length_b 5.343052
_cell_length_c 12.500096
_cell_angle_alpha 94.292815
_cell_angle_beta 29.299384
_cell_angle_gamma 86.413914
_cell_volume 648.370347
_symmetry_space_group_name_H-M "P -1"
_symmetry_group_IT_number 2
_symmetry_cell_setting 'triclinic'
loop_
_space_group_symop_operation_xyz
x,y,z
-x,-y,-z
loop_
_atom_site_type_symbol
_atom_site_label
_atom_site_fract_x
_atom_site_fract_y
_atom_site_fract_z
Si Si1 0.157414 0.174214 0.866297
Si Si2 0.123688 0.557767 0.730032
Si Si3 0.423260 0.037171 0.997599
Si Si4 0.313506 0.691734 0.003276
Si Si5 0.049594 0.791630 0.515244
Si Si6 0.339471 0.811992 0.426918
Si Si7 0.161870 0.139909 0.505948
Si Si8 0.222092 0.241125 0.020701
O O1 0.140476 0.419362 0.816965
O O2 0.268032 0.936622 0.643574
O O3 0.208448 0.210004 0.912396
O O4 0.996231 0.174432 0.094985
O O5 0.081638 0.400018 0.687269
O O6 0.277587 0.572031 0.484729
O O7 0.502271 0.203424 0.817900
O O8 0.427397 0.776413 0.915565
O O9 0.500000 0.000000 0.000000
O O10 0.263618 0.158475 0.262363
O O11 0.201727 0.660121 0.251875
O O12 0.314210 0.441006 0.920941
O O13 0.270493 0.954695 0.998265
O O14 0.933186 0.647030 0.704107
O O15 0.067231 0.962916 0.597287
O O16 0.000000 0.000000 0.500000
O O17 0.261297 0.005954 0.453882
#
# Coordination Sequence:
#
# PCOD9104356 Si02
#       8
#     2   2   2   2   2   2   2   2
#     4  10  23  37  60  92 125 169 208 266 316 380
#     4  10  21  36  62  92 126 160 216 267 313 386
#     4   9  20  44  65  90 127 162 214 268 318 379
#     4  10  23  43  61  99 127 169 213 267 316 391
#     4   9  19  36  59  89 129 162 204 253 322 386
#     4  10  20  39  60  88 121 166 213 263 319 372
#     4   9  19  37  57  95 123 157 208 262 326 375
#     4  11  23  40  66  90 135 169 214 259 327 386
#
# _framework density 24.677256
#
# number of rings (size 3 to 8) (size 9 to 14) (size 15 to 20)
#    0.000    2.250    0.000    1.500    5.250    1.500 
#   29.250    1.250    0.000    0.000    0.000    0.000 
#    0.000    0.000    0.000    0.000    0.000    0.000 
#
# Total GULP energy -89223.425669 kJ/mol
# GULP energy per Si atom -5576.464104 kJ/mol
# Density = 2.462109 g / cm^3
# Si number density = 24.677256 Si / 1000 Ang^3
#
#
#
# Elastic Constant Matrix: (Units=GPa)
#
#
# Indices 1 2 3 4 5 6 
#
# 1 141.7704 64.5982 24.2921 -1.5171 15.3043 24.7587
# 2 64.5982 107.9271 15.2173 -17.4689 13.7227 19.1263
# 3 24.2921 15.2173 81.8533 -17.7386 8.5595 9.1961
# 4 -1.5171 -17.4689 -17.7386 32.1941 8.7581 -0.1102
# 5 15.3043 13.7227 8.5595 8.7581 31.9755 1.2952
# 6 24.7587 19.1263 9.1961 -0.1102 1.2952 45.8925
#
#
#
# Elastic Compliance Matrix: (Units=1/GPa)
#
#
# Indices 1 2 3 4 5 6 
#
# 1 0.010831 -0.006236 -0.002591 -0.004157 -0.000565 -0.002719
# 2 -0.006236 0.016238 0.002701 0.012137 -0.007882 -0.003693
# 3 -0.002591 0.002701 0.016255 0.012342 -0.007540 -0.002743
# 4 -0.004157 0.012137 0.012342 0.049660 -0.019938 -0.004607
# 5 -0.000565 -0.007882 -0.007540 -0.019938 0.042250 0.003860
# 6 -0.002719 -0.003693 -0.002743 -0.004607 0.003860 0.025225
#
#
# Mechanical properties :
#
#
# Convention : Reuss Voigt Hill
#
# Bulk Modulus (GPa) = 32.18366 59.97398 46.07882
# Shear Modulus (GPa) = 27.31214 37.17528 32.24371
#
# Velocity S-wave (km/s) = 3.33043 3.88552 3.61864
# Velocity P-wave (km/s) = 5.27818 6.66977 6.01436
#
# Compressibility (1/GPa) = 0.03107167
#
# Stress axis : x y z
#
# Youngs Moduli (GPa) = 92.33144 61.58248 61.51978
#
# Poissons Ratio (x) = 0.38404 0.15941
# Poissons Ratio (y) = 0.57580 -0.16618
# Poissons Ratio (z) = 0.23924 -0.16635
#
# Static dielectric constant tensor:
#      x y z
#    x 1.863150 -0.105170 -0.034560 
#    y -0.105170 1.993430 0.030390 
#    z -0.034560 0.030390 2.054540 
# 
# From -- ./inp_files/468391.got.cif
#   From: 2010.05.17/outbox.cif.g08.bks.cpg/sg2_235_cif.got.tgz:468391.got - 2010.06.03 11:33:40.
