data_PCOD9104204
_publ_section_title
;
Structure prediction by ZEFSAII (Michael W. Deem and Ramdas Pophale) SiO2 
 PCOD9104204
Probable space group: P -1
;
_chemical_formula_sum "Si O2"
_cell_formula_units_Z 14
_cell_length_a 21.687624
_cell_length_b 19.159820
_cell_length_c 22.715591
_cell_angle_alpha 19.751937
_cell_angle_beta 19.329369
_cell_angle_gamma 12.402403
_cell_volume 645.141737
_symmetry_space_group_name_H-M "P -1"
_symmetry_group_IT_number 2
_symmetry_cell_setting 'triclinic'
loop_
_space_group_symop_operation_xyz
x,y,z
-x,-y,-z
loop_
_atom_site_type_symbol
_atom_site_label
_atom_site_fract_x
_atom_site_fract_y
_atom_site_fract_z
Si Si1 0.693836 0.093997 0.183326
Si Si2 0.850781 0.657062 0.590479
Si Si3 0.064399 0.625984 0.048774
Si Si4 0.597158 0.973559 0.690514
Si Si5 0.875853 0.194814 0.831496
Si Si6 0.744283 0.784538 0.899133
Si Si7 0.414604 0.372831 0.641370
O O1 0.448785 0.195548 0.280373
O O2 0.476746 0.421879 0.160606
O O3 0.881988 0.078973 0.981995
O O4 0.889565 0.741606 0.315497
O O5 0.790183 0.812831 0.585020
O O6 0.941964 0.756130 0.384491
O O7 0.273488 0.325841 0.147119
O O8 0.177769 0.497221 0.981290
O O9 0.744265 0.786671 0.210391
O O10 0.993795 0.919329 0.899026
O O11 0.559719 0.214907 0.571229
O O12 0.056000 0.630879 0.757027
O O13 0.578135 0.053084 0.784521
O O14 0.500000 0.000000 0.000000
O O15 0.500000 0.500000 0.500000
#
# Coordination Sequence:
#
# PCOD9104204 Si02
#       7
#     2   2   2   2   2   2   2
#     4  11  26  42  61  93 131 157 214 269 305 367
#     4  12  23  42  64  91 125 166 213 258 311 374
#     4  10  21  40  59  86 123 161 203 252 316 363
#     4  10  20  39  59  84 123 161 199 262 304 362
#     4  11  24  41  67  91 122 175 206 255 324 372
#     4  10  21  38  62  88 123 161 202 259 304 367
#     4  10  21  37  61  87 123 163 200 252 318 365
#
# _framework density 21.700657
#
# number of rings (size 3 to 8) (size 9 to 14) (size 15 to 20)
#    0.000    1.429    2.857    1.714    0.000    6.857 
#    0.000    1.429    0.000    0.000    0.000    0.000 
#    0.000    0.000    0.000    0.000    0.000    0.000 
#
# Total GULP energy -78184.261112 kJ/mol
# GULP energy per Si atom -5584.590079 kJ/mol
# Density = 2.165126 g / cm^3
# Si number density = 21.700657 Si / 1000 Ang^3
#
#
#
# Elastic Constant Matrix: (Units=GPa)
#
#
# Indices 1 2 3 4 5 6 
#
# 1 111.3014 64.7685 44.3526 -0.4743 -4.0744 31.6200
# 2 64.7685 115.5752 28.2763 2.6530 0.1326 21.6590
# 3 44.3526 28.2763 98.1479 -1.4944 0.7174 25.1441
# 4 -0.4743 2.6530 -1.4944 26.4083 11.5343 -3.4979
# 5 -4.0744 0.1326 0.7174 11.5343 41.6022 -2.4674
# 6 31.6200 21.6590 25.1441 -3.4979 -2.4674 62.4547
#
#
#
# Elastic Compliance Matrix: (Units=1/GPa)
#
#
# Indices 1 2 3 4 5 6 
#
# 1 0.016003 -0.007211 -0.004177 -0.000414 0.001547 -0.003882
# 2 -0.007211 0.012947 -0.000279 -0.001376 -0.000410 -0.000820
# 3 -0.004177 -0.000279 0.012944 0.000730 -0.001012 -0.002998
# 4 -0.000414 -0.001376 0.000730 0.043590 -0.011994 0.002360
# 5 0.001547 -0.000410 -0.001012 -0.011994 0.027544 0.000183
# 6 -0.003882 -0.000820 -0.002998 0.002360 0.000183 0.019608
#
#
# Mechanical properties :
#
#
# Convention : Reuss Voigt Hill
#
# Bulk Modulus (GPa) = 53.88346 66.64659 60.26502
# Shear Modulus (GPa) = 30.83414 38.60150 34.71782
#
# Velocity S-wave (km/s) = 3.77355 4.22218 4.00415
# Velocity P-wave (km/s) = 6.62348 7.38563 7.01491
#
# Compressibility (1/GPa) = 0.01855857
#
# Stress axis : x y z
#
# Youngs Moduli (GPa) = 62.48784 77.23502 77.25824
#
# Poissons Ratio (x) = 0.55694 0.32274
# Poissons Ratio (y) = 0.45060 0.02159
# Poissons Ratio (z) = 0.26104 0.02158
#
# Static dielectric constant tensor:
#      x y z
#    x 1.894670 0.083410 -0.020520 
#    y 0.083410 1.837130 0.001910 
#    z -0.020520 0.001910 1.755590 
# 
# From -- ./inp_files/605418.got.cif
#   From: 2010.05.17/outbox.cif.g08.bks.cpg/sg2_303_cif.got.tgz:605418.got - 2010.06.03 11:33:40.
