data_PCOD9104243
_publ_section_title
;
Structure prediction by ZEFSAII (Michael W. Deem and Ramdas Pophale) SiO2 
 PCOD9104243
Probable space group: P -1
;
_chemical_formula_sum "Si O2"
_cell_formula_units_Z 14
_cell_length_a 9.525077
_cell_length_b 22.477673
_cell_length_c 9.151955
_cell_angle_alpha 152.602355
_cell_angle_beta 116.695012
_cell_angle_gamma 54.149449
_cell_volume 717.578408
_symmetry_space_group_name_H-M "P -1"
_symmetry_group_IT_number 2
_symmetry_cell_setting 'triclinic'
loop_
_space_group_symop_operation_xyz
x,y,z
-x,-y,-z
loop_
_atom_site_type_symbol
_atom_site_label
_atom_site_fract_x
_atom_site_fract_y
_atom_site_fract_z
Si Si1 0.308661 0.125436 0.652307
Si Si2 0.122690 0.839849 0.138738
Si Si3 0.451399 0.548186 0.333262
Si Si4 0.979707 0.984426 0.788428
Si Si5 0.464426 0.319146 0.058846
Si Si6 0.009557 0.346247 0.143308
Si Si7 0.754721 0.324944 0.774679
O O1 0.181649 0.056309 0.394962
O O2 0.500000 0.000000 0.500000
O O3 0.344699 0.237073 0.812735
O O4 0.208663 0.221398 0.954774
O O5 0.064958 0.873304 0.016134
O O6 0.332676 0.785701 0.121679
O O7 0.000000 0.000000 0.500000
O O8 0.084634 0.715661 0.922566
O O9 0.393548 0.459128 0.226327
O O10 0.522669 0.632401 0.661348
O O11 0.309466 0.645800 0.358668
O O12 0.601238 0.428674 0.038420
O O13 0.161255 0.846032 0.522232
O O14 0.000000 0.000000 0.000000
O O15 0.000000 0.500000 0.500000
O O16 0.917145 0.356511 0.964830
#
# Coordination Sequence:
#
# PCOD9104243 Si02
#       7
#     2   2   2   2   2   2   2
#     4  11  22  39  63  93 128 161 214 271 309 376
#     4  12  20  41  67  87 123 175 212 251 321 390
#     4  10  21  36  62  88 125 163 206 256 325 379
#     4  11  23  41  63  91 125 168 213 259 319 379
#     4  11  21  37  63  94 118 163 214 256 314 384
#     4  11  23  40  63  94 128 167 218 263 318 381
#     4  10  20  39  59  88 124 166 203 265 312 376
#
# _framework density 19.510062000000001
#
# number of rings (size 3 to 8) (size 9 to 14) (size 15 to 20)
#    0.000    1.143    5.714    1.714    2.000    0.000 
#    2.571    1.429    0.000    2.571    0.000    0.000 
#    0.000    0.000    0.000    0.000    0.000    0.000 
#
# Total GULP energy -78013.772463 kJ/mol
# GULP energy per Si atom -5572.412319 kJ/mol
# Density = 1.946566 g / cm^3
# Si number density = 19.510062 Si / 1000 Ang^3
#
#
#
# Elastic Constant Matrix: (Units=GPa)
#
#
# Indices 1 2 3 4 5 6 
#
# 1 94.9301 29.4394 29.5866 8.6167 1.5978 7.0013
# 2 29.4394 140.6942 29.7558 4.1586 9.0639 8.8236
# 3 29.5866 29.7558 79.6563 -0.7797 2.9160 5.6623
# 4 8.6167 4.1586 -0.7797 25.1550 8.9332 -5.4089
# 5 1.5978 9.0639 2.9160 8.9332 32.5568 10.2777
# 6 7.0013 8.8236 5.6623 -5.4089 10.2777 23.2823
#
#
#
# Elastic Compliance Matrix: (Units=1/GPa)
#
#
# Indices 1 2 3 4 5 6 
#
# 1 0.013323 -0.001591 -0.004157 -0.007060 0.003917 -0.005762
# 2 -0.001591 0.008134 -0.002290 -0.000798 -0.001229 -0.001690
# 3 -0.004157 -0.002290 0.015052 0.002535 -0.001047 -0.000491
# 4 -0.007060 -0.000798 0.002535 0.055832 -0.022825 0.024855
# 5 0.003917 -0.001229 -0.001047 -0.022825 0.045362 -0.025785
# 6 -0.005762 -0.001690 -0.000491 0.024855 -0.025785 0.062600
#
#
# Mechanical properties :
#
#
# Convention : Reuss Voigt Hill
#
# Bulk Modulus (GPa) = 48.94345 54.76047 51.85196
# Shear Modulus (GPa) = 22.40256 31.29875 26.85065
#
# Velocity S-wave (km/s) = 3.39227 4.00964 3.71380
# Velocity P-wave (km/s) = 6.36271 7.04024 6.71003
#
# Compressibility (1/GPa) = 0.02043174
#
# Stress axis : x y z
#
# Youngs Moduli (GPa) = 75.05890 122.94723 66.43832
#
# Poissons Ratio (x) = 0.19559 0.27619
# Poissons Ratio (y) = 0.11941 0.15215
# Poissons Ratio (z) = 0.31203 0.28156
#
# Static dielectric constant tensor:
#      x y z
#    x 1.719750 -0.003870 -0.045930 
#    y -0.003870 1.707890 0.008410 
#    z -0.045930 0.008410 1.764050 
# 
# From -- ./inp_files/185245.got.cif
#   From: 2010.05.17/outbox.cif.g08.bks.cpg/sg2_93_cif.got.tgz:185245.got - 2010.06.03 11:33:40.
