data_PCOD9104492
_publ_section_title
;
Structure prediction by ZEFSAII (Michael W. Deem and Ramdas Pophale) SiO2 
 PCOD9104492
Probable space group: P -1
;
_chemical_formula_sum "Si O2"
_cell_formula_units_Z 15
_cell_length_a 18.260998
_cell_length_b 12.375381
_cell_length_c 14.729035
_cell_angle_alpha 28.173455
_cell_angle_beta 156.939258
_cell_angle_gamma 148.311328
_cell_volume 601.140449
_symmetry_space_group_name_H-M "P -1"
_symmetry_group_IT_number 2
_symmetry_cell_setting 'triclinic'
loop_
_space_group_symop_operation_xyz
x,y,z
-x,-y,-z
loop_
_atom_site_type_symbol
_atom_site_label
_atom_site_fract_x
_atom_site_fract_y
_atom_site_fract_z
Si Si1 0.262329 0.742561 0.645980
Si Si2 0.646583 0.747030 0.864461
Si Si3 0.998204 0.777990 0.898127
Si Si4 0.212756 0.764509 0.379960
Si Si5 0.000000 0.000000 0.500000
Si Si6 0.014956 0.739217 0.543762
Si Si7 0.642312 0.747951 0.641433
Si Si8 0.740812 0.570025 0.584254
O O1 0.136991 0.771842 0.391411
O O2 0.164981 0.726100 0.645121
O O3 0.405182 0.997463 0.621960
O O4 0.314799 0.492594 0.875180
O O5 0.438442 0.771423 0.641696
O O6 0.643530 0.720266 0.771508
O O7 0.788791 0.000614 0.852498
O O8 0.849306 0.755998 0.827380
O O9 0.859657 0.663178 0.741323
O O10 0.075405 0.044625 0.754874
O O11 0.166688 0.639180 0.193767
O O12 0.118488 0.514839 0.418146
O O13 0.800093 0.796068 0.420465
O O14 0.095981 0.831597 0.665525
O O15 0.480728 0.536987 0.575682
#
# Coordination Sequence:
#
# PCOD9104492 Si02
#       8
#     2   2   2   2   1   2   2   2
#     4  10  22  39  62  92 123 161 207 257 306 375
#     4  10  22  38  59  93 122 157 207 254 313 377
#     4   9  21  38  60  87 120 163 215 250 305 377
#     4  10  21  40  60  88 127 159 207 257 307 378
#     4  10  22  38  60  92 128 152 212 258 296 390
#     4  10  21  39  61  89 123 162 205 259 311 366
#     4  10  21  39  62  90 126 159 206 259 309 373
#     4  10  20  39  61  85 123 169 201 258 315 355
#
# _framework density 24.952569
#
# number of rings (size 3 to 8) (size 9 to 14) (size 15 to 20)
#    0.000    2.133    0.000    2.000    3.733    0.533 
#    4.800    0.667    0.000    0.000    0.000    0.000 
#    0.000    0.000    0.000    0.000    0.000    0.000 
#
# Total GULP energy -83568.797828 kJ/mol
# GULP energy per Si atom -5571.253189 kJ/mol
# Density = 2.489578 g / cm^3
# Si number density = 24.952569 Si / 1000 Ang^3
#
#
#
# Elastic Constant Matrix: (Units=GPa)
#
#
# Indices 1 2 3 4 5 6 
#
# 1 115.0069 20.2189 16.5695 -6.1478 5.1162 -4.3736
# 2 20.2189 173.7516 56.7516 -49.1970 1.3974 18.1367
# 3 16.5695 56.7516 82.5561 -31.9472 11.5281 17.5574
# 4 -6.1478 -49.1970 -31.9472 39.0205 -2.7628 0.3553
# 5 5.1162 1.3974 11.5281 -2.7628 30.8489 -9.3878
# 6 -4.3736 18.1367 17.5574 0.3553 -9.3878 42.2471
#
#
#
# Elastic Compliance Matrix: (Units=1/GPa)
#
#
# Indices 1 2 3 4 5 6 
#
# 1 0.009214 -0.001085 -0.002314 -0.001836 -0.000053 0.002385
# 2 -0.001085 0.009929 -0.001489 0.011173 0.000124 -0.003823
# 3 -0.002314 -0.001489 0.024294 0.016993 -0.010832 -0.012247
# 4 -0.001836 0.011173 0.016993 0.053038 -0.006011 -0.013830
# 5 -0.000053 0.000124 -0.010832 -0.006011 0.040001 0.013383
# 6 0.002385 -0.003823 -0.012247 -0.013830 0.013383 0.033738
#
#
# Mechanical properties :
#
#
# Convention : Reuss Voigt Hill
#
# Bulk Modulus (GPa) = 29.70654 62.04384 45.87519
# Shear Modulus (GPa) = 26.14919 40.94159 33.54539
#
# Velocity S-wave (km/s) = 3.24073 4.05504 3.67054
# Velocity P-wave (km/s) = 5.09256 6.84421 6.03230
#
# Compressibility (1/GPa) = 0.03366262
#
# Stress axis : x y z
#
# Youngs Moduli (GPa) = 108.52909 100.71102 41.16268
#
# Poissons Ratio (x) = 0.10925 0.09524
# Poissons Ratio (y) = 0.11773 0.06128
# Poissons Ratio (z) = 0.25112 0.14993
#
# Static dielectric constant tensor:
#      x y z
#    x 5.377230 0.766530 0.882650 
#    y 0.766530 2.164380 0.223460 
#    z 0.882650 0.223460 2.323980 
# 
# From -- ./inp_files/538175.got.cif
#   From: 2010.05.17/outbox.cif.g08.bks.cpg/sg2_270_cif.got.tgz:538175.got - 2010.06.03 11:33:40.
