data_PCOD9104322
_publ_section_title
;
Structure prediction by ZEFSAII (Michael W. Deem and Ramdas Pophale) SiO2 
 PCOD9104322
Probable space group: P -1
;
_chemical_formula_sum "Si O2"
_cell_formula_units_Z 16
_cell_length_a 27.559652
_cell_length_b 5.056420
_cell_length_c 8.121097
_cell_angle_alpha 96.231382
_cell_angle_beta 138.844054
_cell_angle_gamma 72.796228
_cell_volume 699.635681
_symmetry_space_group_name_H-M "P -1"
_symmetry_group_IT_number 2
_symmetry_cell_setting 'triclinic'
loop_
_space_group_symop_operation_xyz
x,y,z
-x,-y,-z
loop_
_atom_site_type_symbol
_atom_site_label
_atom_site_fract_x
_atom_site_fract_y
_atom_site_fract_z
Si Si1 0.324381 0.211736 0.624532
Si Si2 0.839818 0.699152 0.951861
Si Si3 0.759921 0.143259 0.015415
Si Si4 0.545450 0.683554 0.542556
Si Si5 0.982557 0.673161 0.132293
Si Si6 0.983050 0.195078 0.310439
Si Si7 0.376793 0.621621 0.587446
Si Si8 0.711489 0.700742 0.082493
O O1 0.246139 0.276202 0.320659
O O2 0.361362 0.449343 0.689999
O O3 0.382753 0.911933 0.691761
O O4 0.296859 0.222820 0.742355
O O5 0.832518 0.911617 0.098882
O O6 0.889664 0.776440 0.939389
O O7 0.891376 0.379482 0.097958
O O8 0.723172 0.955898 0.025122
O O9 0.699573 0.279656 0.721311
O O10 0.773941 0.399624 0.168526
O O11 0.500000 0.500000 0.500000
O O12 0.557338 0.582227 0.375826
O O13 0.631455 0.644945 0.827353
O O14 0.500000 0.000000 0.500000
O O15 0.015042 0.445854 0.349825
O O16 0.005979 0.951151 0.214729
O O17 0.000000 0.500000 0.000000
O O18 0.000000 0.000000 0.500000
#
# Coordination Sequence:
#
# PCOD9104322 Si02
#       8
#     2   2   2   2   2   2   2   2
#     4  11  22  40  60  89 123 151 196 251 303 345
#     4   9  23  36  67  81 119 157 202 228 310 364
#     4  10  20  39  60  86 117 153 206 240 295 348
#     4  11  21  38  62  87 118 162 203 231 282 359
#     4  10  22  40  61  84 121 156 192 238 306 352
#     4  10  22  40  61  84 116 154 198 238 290 345
#     4  10  21  38  64  84 121 165 187 242 302 341
#     4  11  23  39  60  93 120 150 195 262 287 330
#
# _framework density 22.869043999999999
#
# number of rings (size 3 to 8) (size 9 to 14) (size 15 to 20)
#    0.750    1.000    0.000    6.750    5.250    0.000 
#    2.250    3.750    0.000    0.000    0.000    0.000 
#    0.000    0.000    0.000    0.000    0.000    0.000 
#
# Total GULP energy -89253.770265 kJ/mol
# GULP energy per Si atom -5578.360642 kJ/mol
# Density = 2.281699 g / cm^3
# Si number density = 22.869044 Si / 1000 Ang^3
#
#
#
# Elastic Constant Matrix: (Units=GPa)
#
#
# Indices 1 2 3 4 5 6 
#
# 1 105.6780 39.8645 -1.9777 -0.3734 -18.8659 2.4843
# 2 39.8645 189.6316 15.3153 11.2223 -13.8811 -6.3361
# 3 -1.9777 15.3153 17.9507 -0.9568 -7.6949 -3.3048
# 4 -0.3734 11.2223 -0.9568 19.4064 -4.9310 0.8987
# 5 -18.8659 -13.8811 -7.6949 -4.9310 30.1479 10.1567
# 6 2.4843 -6.3361 -3.3048 0.8987 10.1567 57.1150
#
#
#
# Elastic Compliance Matrix: (Units=1/GPa)
#
#
# Indices 1 2 3 4 5 6 
#
# 1 0.012618 -0.002936 0.008120 0.005043 0.010217 -0.002301
# 2 -0.002936 0.006624 -0.006733 -0.004649 -0.001543 0.000820
# 3 0.008120 -0.006733 0.072789 0.013589 0.023196 -0.001227
# 4 0.005043 -0.004649 0.013589 0.059055 0.015359 -0.003609
# 5 0.010217 -0.001543 0.023196 0.015359 0.050125 -0.008429
# 6 -0.002301 0.000820 -0.001227 -0.003609 -0.008429 0.019184
#
#
# Mechanical properties :
#
#
# Convention : Reuss Voigt Hill
#
# Bulk Modulus (GPa) = 11.24439 46.62939 28.93689
# Shear Modulus (GPa) = 19.75215 38.67109 29.21162
#
# Velocity S-wave (km/s) = 2.94208 4.11661 3.57787
# Velocity P-wave (km/s) = 4.05816 6.55968 5.45426
#
# Compressibility (1/GPa) = 0.08893320
#
# Stress axis : x y z
#
# Youngs Moduli (GPa) = 79.25194 150.96758 13.73834
#
# Poissons Ratio (x) = 0.44321 -0.11155
# Poissons Ratio (y) = 0.23267 0.09250
# Poissons Ratio (z) = -0.64352 1.01645
#
# Static dielectric constant tensor:
#      x y z
#    x 1.867160 -0.070390 0.031320 
#    y -0.070390 1.930620 -0.013000 
#    z 0.031320 -0.013000 1.901630 
# 
# From -- ./inp_files/351063.got.cif
#   From: 2010.05.17/outbox.cif.g08.bks.cpg/sg2_176_cif.got.tgz:351063.got - 2010.06.03 11:33:40.
