data_PCOD9104349
_publ_section_title
;
Structure prediction by ZEFSAII (Michael W. Deem and Ramdas Pophale) SiO2 
 PCOD9104349
Probable space group: P -1
;
_chemical_formula_sum "Si O2"
_cell_formula_units_Z 14
_cell_length_a 8.157239
_cell_length_b 17.518340
_cell_length_c 16.605489
_cell_angle_alpha 18.820914
_cell_angle_beta 124.740505
_cell_angle_gamma 133.261286
_cell_volume 525.179857
_symmetry_space_group_name_H-M "P -1"
_symmetry_group_IT_number 2
_symmetry_cell_setting 'triclinic'
loop_
_space_group_symop_operation_xyz
x,y,z
-x,-y,-z
loop_
_atom_site_type_symbol
_atom_site_label
_atom_site_fract_x
_atom_site_fract_y
_atom_site_fract_z
Si Si1 0.149827 0.329621 0.910521
Si Si2 0.409149 0.326783 0.230813
Si Si3 0.997179 0.115764 0.548197
Si Si4 0.149648 0.492351 0.429552
Si Si5 0.674504 0.926616 0.908674
Si Si6 0.443250 0.410226 0.463732
Si Si7 0.793874 0.419003 0.959223
O O1 0.351958 0.631684 0.705917
O O2 0.920154 0.329685 0.821672
O O3 0.235202 0.255318 0.928581
O O4 0.124757 0.097163 0.199427
O O5 0.329309 0.449806 0.155728
O O6 0.500000 0.500000 0.000000
O O7 0.168873 0.043924 0.415917
O O8 0.272081 0.213448 0.539912
O O9 0.059218 0.429563 0.233480
O O10 0.259744 0.363144 0.530337
O O11 0.362982 0.654447 0.391087
O O12 0.904410 0.244254 0.650255
O O13 0.578575 0.743738 0.146133
O O14 0.442433 0.867639 0.852853
O O15 0.000000 0.500000 0.000000
#
# Coordination Sequence:
#
# PCOD9104349 Si02
#       7
#     2   2   2   2   2   2   2
#     4  10  22  41  64  93 124 170 203 259 325 367
#     4   9  20  38  59  89 123 160 204 254 307 377
#     4  10  20  39  60  87 131 155 208 259 299 377
#     4  11  23  43  67  90 129 166 215 258 321 366
#     4  10  22  44  62  93 134 154 215 266 305 383
#     4  10  23  43  64  95 123 169 213 264 306 377
#     4  10  22  38  63  93 124 167 208 254 319 371
#
# _framework density 26.657532
#
# number of rings (size 3 to 8) (size 9 to 14) (size 15 to 20)
#    0.000    2.000    1.429    0.857    2.000    5.714 
#    7.714    2.857    0.000    0.000    0.000    0.000 
#    0.000    0.000    0.000    0.000    0.000    0.000 
#
# Total GULP energy -77984.793027 kJ/mol
# GULP energy per Si atom -5570.342359 kJ/mol
# Density = 2.659686 g / cm^3
# Si number density = 26.657532 Si / 1000 Ang^3
#
#
#
# Elastic Constant Matrix: (Units=GPa)
#
#
# Indices 1 2 3 4 5 6 
#
# 1 90.0482 16.0249 21.0612 -1.5923 -18.2770 15.2924
# 2 16.0249 160.4191 19.0248 7.6081 -4.3172 48.0620
# 3 21.0612 19.0248 99.1826 4.7402 -36.6873 6.0576
# 4 -1.5923 7.6081 4.7402 40.7264 3.1781 1.0751
# 5 -18.2770 -4.3172 -36.6873 3.1781 27.6689 4.0500
# 6 15.2924 48.0620 6.0576 1.0751 4.0500 34.8027
#
#
#
# Elastic Compliance Matrix: (Units=1/GPa)
#
#
# Indices 1 2 3 4 5 6 
#
# 1 0.015473 0.002332 0.003417 -0.001231 0.017097 -0.012566
# 2 0.002332 0.011628 0.001656 -0.002455 0.008509 -0.018286
# 3 0.003417 0.001656 0.023180 -0.005340 0.035592 -0.011800
# 4 -0.001231 -0.002455 -0.005340 0.026387 -0.012105 0.005454
# 5 0.017097 0.008509 0.035592 -0.012105 0.102768 -0.037044
# 6 -0.012566 -0.018286 -0.011800 0.005454 -0.037044 0.065704
#
#
# Mechanical properties :
#
#
# Convention : Reuss Voigt Hill
#
# Bulk Modulus (GPa) = 15.36257 51.31907 33.34082
# Shear Modulus (GPa) = 19.83913 40.20886 30.02400
#
# Velocity S-wave (km/s) = 2.73100 3.88796 3.35966
# Velocity P-wave (km/s) = 3.96484 6.28077 5.25205
#
# Compressibility (1/GPa) = 0.06509326
#
# Stress axis : x y z
#
# Youngs Moduli (GPa) = 64.62762 85.99760 43.13992
#
# Poissons Ratio (x) = -0.20059 -0.14742
# Poissons Ratio (y) = -0.15074 -0.07144
# Poissons Ratio (z) = -0.22085 -0.14241
#
# Static dielectric constant tensor:
#      x y z
#    x 2.128940 0.019190 -0.023530 
#    y 0.019190 2.184700 -0.019230 
#    z -0.023530 -0.019230 2.212260 
# 
# From -- ./inp_files/116590.got.cif
#   From: 2010.05.17/outbox.cif.g08.bks.cpg/sg2_59_cif.got.tgz:116590.got - 2010.06.03 11:33:40.
