data_PCOD9105030
_publ_section_title
;
Structure prediction by ZEFSAII (Michael W. Deem and Ramdas Pophale) SiO2 
 PCOD9105030
Probable space group: P -1
;
_chemical_formula_sum "Si O2"
_cell_formula_units_Z 16
_cell_length_a 13.254835
_cell_length_b 19.782935
_cell_length_c 8.175705
_cell_angle_alpha 89.528605
_cell_angle_beta 77.085271
_cell_angle_gamma 25.851144
_cell_volume 811.873400
_symmetry_space_group_name_H-M "P -1"
_symmetry_group_IT_number 2
_symmetry_cell_setting 'triclinic'
loop_
_space_group_symop_operation_xyz
x,y,z
-x,-y,-z
loop_
_atom_site_type_symbol
_atom_site_label
_atom_site_fract_x
_atom_site_fract_y
_atom_site_fract_z
Si Si1 0.217361 0.002024 0.681670
Si Si2 0.199333 0.252310 0.062031
Si Si3 0.811579 0.830728 0.397542
Si Si4 0.254649 0.799549 0.218895
Si Si5 0.185649 0.126248 0.239644
Si Si6 0.747526 0.666132 0.701914
Si Si7 0.819852 0.497221 0.911675
Si Si8 0.063370 0.059702 0.386115
O O1 0.477392 0.828500 0.692494
O O2 0.154957 0.118914 0.712132
O O3 0.255991 0.962256 0.473592
O O4 0.959345 0.112245 0.814402
O O5 0.120047 0.222568 0.128523
O O6 0.221464 0.280898 0.220224
O O7 0.985329 0.413630 0.016593
O O8 0.493988 0.075008 0.881294
O O9 0.887346 0.800692 0.557668
O O10 0.986928 0.665713 0.263382
O O11 0.500000 0.000000 0.500000
O O12 0.205047 0.797666 0.418838
O O13 0.165310 0.931352 0.264321
O O14 0.552533 0.618240 0.052863
O O15 0.057459 0.129203 0.274592
O O16 0.741737 0.611546 0.841667
O O17 0.000000 0.500000 0.500000
#
# Coordination Sequence:
#
# PCOD9105030 Si02
#       8
#     2   2   2   2   2   2   2   2
#     4   9  21  39  65  84 123 169 202 246 311 379
#     4  11  24  37  62  93 129 155 212 262 311 380
#     4  11  20  40  64  89 125 167 201 259 320 373
#     4   9  20  40  64  92 124 168 211 255 309 371
#     4  10  20  39  63  89 117 173 209 248 318 377
#     4  12  26  39  63  98 126 163 205 268 322 371
#     4  12  25  38  62  95 132 160 211 267 309 364
#     4   8  18  39  67  86 122 167 211 250 311 374
#
# _framework density 19.707505999999999
#
# number of rings (size 3 to 8) (size 9 to 14) (size 15 to 20)
#    0.750    1.000    1.250    3.375    5.250    1.000 
#    0.000    0.625    2.750    0.000    0.000    0.000 
#    0.000    0.000    0.000    0.000    0.000    0.000 
#
# Total GULP energy -89294.316378 kJ/mol
# GULP energy per Si atom -5580.894774 kJ/mol
# Density = 1.966265 g / cm^3
# Si number density = 19.707506 Si / 1000 Ang^3
#
#
#
# Elastic Constant Matrix: (Units=GPa)
#
#
# Indices 1 2 3 4 5 6 
#
# 1 100.4290 13.5464 18.8422 1.3468 -7.1956 22.5967
# 2 13.5464 64.7547 7.5124 -6.0316 -9.9918 5.6409
# 3 18.8422 7.5124 67.9303 14.2447 -14.8645 -0.9481
# 4 1.3468 -6.0316 14.2447 22.2385 1.1978 -3.9901
# 5 -7.1956 -9.9918 -14.8645 1.1978 28.2846 -9.3542
# 6 22.5967 5.6409 -0.9481 -3.9901 -9.3542 32.1009
#
#
#
# Elastic Compliance Matrix: (Units=1/GPa)
#
#
# Indices 1 2 3 4 5 6 
#
# 1 0.012971 -0.001836 -0.004060 -0.000287 -0.002694 -0.009749
# 2 -0.001836 0.017219 -0.001538 0.005564 0.004661 0.000271
# 3 -0.004060 -0.001538 0.021644 -0.013684 0.012241 0.005634
# 4 -0.000287 0.005564 -0.013684 0.056313 -0.006373 0.003962
# 5 -0.002694 0.004661 0.012241 -0.006373 0.047844 0.014589
# 6 -0.009749 0.000271 0.005634 0.003962 0.014589 0.042877
#
#
# Mechanical properties :
#
#
# Convention : Reuss Voigt Hill
#
# Bulk Modulus (GPa) = 27.05195 34.76844 30.91020
# Shear Modulus (GPa) = 22.11827 29.40567 25.76197
#
# Velocity S-wave (km/s) = 3.35375 3.86697 3.61947
# Velocity P-wave (km/s) = 5.36222 6.13339 5.76072
#
# Compressibility (1/GPa) = 0.03696591
#
# Stress axis : x y z
#
# Youngs Moduli (GPa) = 77.09529 58.07437 46.20233
#
# Poissons Ratio (x) = 0.10660 0.18760
# Poissons Ratio (y) = 0.14152 0.07106
# Poissons Ratio (z) = 0.31304 0.08932
#
# Static dielectric constant tensor:
#      x y z
#    x 1.701990 0.013770 -0.013060 
#    y 0.013770 1.665980 -0.035380 
#    z -0.013060 -0.035380 1.701600 
# 
# From -- ./inp_files/318983.got.cif
#   From: 2010.05.17/outbox.cif.g08.bks.cpg/sg2_160_cif.got.tgz:318983.got - 2010.06.03 11:33:40.
