data_PCOD9105585
_publ_section_title
;
Structure prediction by ZEFSAII (Michael W. Deem and Ramdas Pophale) SiO2 
 PCOD9105585
Probable space group: P -1
;
_chemical_formula_sum "Si O2"
_cell_formula_units_Z 16
_cell_length_a 16.584333
_cell_length_b 7.102792
_cell_length_c 8.372444
_cell_angle_alpha 54.825818
_cell_angle_beta 50.748805
_cell_angle_gamma 63.399701
_cell_volume 618.840711
_symmetry_space_group_name_H-M "P -1"
_symmetry_group_IT_number 2
_symmetry_cell_setting 'triclinic'
loop_
_space_group_symop_operation_xyz
x,y,z
-x,-y,-z
loop_
_atom_site_type_symbol
_atom_site_label
_atom_site_fract_x
_atom_site_fract_y
_atom_site_fract_z
Si Si1 0.906951 0.847412 0.663441
Si Si2 0.688711 0.421989 0.575972
Si Si3 0.499159 0.710431 0.522936
Si Si4 0.967817 0.306557 0.841300
Si Si5 0.142470 0.037033 0.666590
Si Si6 0.632372 0.980540 0.676266
Si Si7 0.116567 0.359035 0.882529
Si Si8 0.392157 0.521579 0.023632
O O1 0.942410 0.573390 0.710201
O O2 0.832069 0.953508 0.565505
O O3 0.855920 0.810766 0.921421
O O4 0.000000 0.000000 0.500000
O O5 0.608128 0.647798 0.510581
O O6 0.640928 0.202773 0.669241
O O7 0.799450 0.473460 0.343076
O O8 0.694524 0.402337 0.770228
O O9 0.500000 0.500000 0.500000
O O10 0.469215 0.943345 0.346565
O O11 0.406326 0.684131 0.778217
O O12 0.088633 0.248035 0.799433
O O13 0.013664 0.134193 0.732773
O O14 0.881047 0.202618 0.100721
O O15 0.264216 0.061214 0.545353
O O16 0.621736 0.736485 0.891590
O O17 0.000000 0.500000 0.000000
O O18 0.500000 0.500000 0.000000
#
# Coordination Sequence:
#
# PCOD9105585 Si02
#       8
#     2   2   2   2   2   2   2   2
#     4  11  22  38  63  92 128 175 220 272 336 396
#     4  10  22  41  68  97 132 181 221 277 341 394
#     4   9  22  43  68  97 134 171 218 278 337 396
#     4  10  22  40  62  89 138 165 226 273 333 404
#     4  11  23  40  63  96 124 184 216 278 337 391
#     4  11  23  42  67  93 136 173 226 271 341 394
#     4  10  20  39  65  90 134 172 215 277 322 395
#     4  10  23  43  67  97 133 173 222 279 337 402
#
# _framework density 25.854796
#
# number of rings (size 3 to 8) (size 9 to 14) (size 15 to 20)
#    0.000    1.750    1.250    2.625    1.750    9.500 
#    0.000    8.750    0.000    0.000    0.000    0.000 
#    0.000    0.000    0.000    0.000    0.000    0.000 
#
# Total GULP energy -89196.212991 kJ/mol
# GULP energy per Si atom -5574.763312 kJ/mol
# Density = 2.579595 g / cm^3
# Si number density = 25.854796 Si / 1000 Ang^3
#
#
#
# Elastic Constant Matrix: (Units=GPa)
#
#
# Indices 1 2 3 4 5 6 
#
# 1 69.7450 22.6348 16.9592 -2.0535 -0.7337 6.6182
# 2 22.6348 89.4511 18.2475 -4.8355 -1.6098 11.5671
# 3 16.9592 18.2475 115.7508 -3.3635 -2.3367 2.0311
# 4 -2.0535 -4.8355 -3.3635 50.4595 2.8933 -5.0791
# 5 -0.7337 -1.6098 -2.3367 2.8933 42.4630 -5.4627
# 6 6.6182 11.5671 2.0311 -5.0791 -5.4627 38.5572
#
#
#
# Elastic Compliance Matrix: (Units=1/GPa)
#
#
# Indices 1 2 3 4 5 6 
#
# 1 0.016057 -0.003490 -0.001776 0.000046 -0.000166 -0.001633
# 2 -0.003490 0.012789 -0.001433 0.000683 -0.000098 -0.003086
# 3 -0.001776 -0.001433 0.009140 0.000412 0.000437 0.000369
# 4 0.000046 0.000683 0.000412 0.020201 -0.001034 0.002280
# 5 -0.000166 -0.000098 0.000437 -0.001034 0.024063 0.003308
# 6 -0.001633 -0.003086 0.000369 0.002280 0.003308 0.027891
#
#
# Mechanical properties :
#
#
# Convention : Reuss Voigt Hill
#
# Bulk Modulus (GPa) = 40.66986 43.40333 42.03660
# Shear Modulus (GPa) = 37.95503 40.76963 39.36233
#
# Velocity S-wave (km/s) = 3.83561 3.97529 3.90608
# Velocity P-wave (km/s) = 5.94812 6.15584 6.05287
#
# Compressibility (1/GPa) = 0.02458823
#
# Stress axis : x y z
#
# Youngs Moduli (GPa) = 62.27816 78.19256 109.41399
#
# Poissons Ratio (x) = 0.27291 0.19429
# Poissons Ratio (y) = 0.21736 0.15676
# Poissons Ratio (z) = 0.11059 0.11203
#
# Static dielectric constant tensor:
#      x y z
#    x 2.220980 0.146850 0.130380 
#    y 0.146850 2.263930 0.256380 
#    z 0.130380 0.256380 2.226740 
# 
# From -- ./inp_files/328352.got.cif
#   From: 2010.05.17/outbox.cif.g08.bks.cpg/sg2_165_cif.got.tgz:328352.got - 2010.06.03 11:33:40.
