data_PCOD9105619
_publ_section_title
;
Structure prediction by ZEFSAII (Michael W. Deem and Ramdas Pophale) SiO2 
 PCOD9105619
Probable space group: P -1
;
_chemical_formula_sum "Si O2"
_cell_formula_units_Z 15
_cell_length_a 7.774827
_cell_length_b 7.408536
_cell_length_c 13.589605
_cell_angle_alpha 68.215230
_cell_angle_beta 126.194341
_cell_angle_gamma 125.087650
_cell_volume 516.311839
_symmetry_space_group_name_H-M "P -1"
_symmetry_group_IT_number 2
_symmetry_cell_setting 'triclinic'
loop_
_space_group_symop_operation_xyz
x,y,z
-x,-y,-z
loop_
_atom_site_type_symbol
_atom_site_label
_atom_site_fract_x
_atom_site_fract_y
_atom_site_fract_z
Si Si1 0.554224 0.463333 0.392923
Si Si2 0.042291 0.754103 0.473963
Si Si3 0.999823 0.693166 0.753276
Si Si4 0.807298 0.277898 0.656618
Si Si5 0.474424 0.606057 0.129594
Si Si6 0.000000 0.500000 0.000000
Si Si7 0.248671 0.205479 0.011907
Si Si8 0.575252 0.048691 0.264167
O O1 0.278802 0.376544 0.345461
O O2 0.622184 0.309868 0.514741
O O3 0.548060 0.493588 0.265711
O O4 0.784662 0.706222 0.442079
O O5 0.093181 0.839750 0.362062
O O6 0.261557 0.866064 0.598831
O O7 0.000000 0.500000 0.500000
O O8 0.013064 0.507175 0.724646
O O9 0.016537 0.653159 0.880356
O O10 0.214765 0.928027 0.745367
O O11 0.662473 0.144185 0.728140
O O12 0.246831 0.413041 0.026664
O O13 0.673777 0.736258 0.087476
O O14 0.300126 0.695382 0.096136
O O15 0.467313 0.186919 0.141507
O O16 0.000000 0.000000 0.000000
#
# Coordination Sequence:
#
# PCOD9105619 Si02
#       8
#     2   2   2   2   2   1   2   2
#     4  10  22  42  65  95 128 175 210 262 325 383
#     4  10  20  39  65  92 128 165 206 261 321 383
#     4  11  23  44  65  92 132 174 219 261 321 384
#     4  11  24  39  68  95 132 170 209 270 322 388
#     4  10  23  43  68  89 132 169 216 270 320 382
#     4  10  22  44  68  90 126 178 214 264 320 374
#     4  11  25  41  66  97 124 170 221 271 320 381
#     4  12  24  40  68  98 130 167 215 268 328 381
#
# _framework density 29.052212000000001
#
# number of rings (size 3 to 8) (size 9 to 14) (size 15 to 20)
#    0.000    1.333    4.000    2.400    3.733    0.533 
#    0.000    5.333    0.000    0.000    0.000    0.000 
#    0.000    0.000    0.000    0.000    0.000    0.000 
#
# Total GULP energy -83616.245382 kJ/mol
# GULP energy per Si atom -5574.416359 kJ/mol
# Density = 2.898609 g / cm^3
# Si number density = 29.052212 Si / 1000 Ang^3
#
#
#
# Elastic Constant Matrix: (Units=GPa)
#
#
# Indices 1 2 3 4 5 6 
#
# 1 121.8038 45.8581 72.1055 -21.7806 -23.1806 50.0948
# 2 45.8581 121.8607 25.6678 -21.2539 -5.6344 56.9191
# 3 72.1055 25.6678 184.8431 -32.9843 -17.6513 29.2168
# 4 -21.7806 -21.2539 -32.9843 41.6760 27.2584 -9.5523
# 5 -23.1806 -5.6344 -17.6513 27.2584 67.7157 -10.9648
# 6 50.0948 56.9191 29.2168 -9.5523 -10.9648 62.0204
#
#
#
# Elastic Compliance Matrix: (Units=1/GPa)
#
#
# Indices 1 2 3 4 5 6 
#
# 1 0.015236 0.000042 -0.003967 0.001200 0.002096 -0.009921
# 2 0.000042 0.016184 0.001217 0.008560 -0.004177 -0.014880
# 3 -0.003967 0.001217 0.007781 0.005533 -0.001620 -0.001012
# 4 0.001200 0.008560 0.005533 0.041717 -0.015481 -0.007743
# 5 0.002096 -0.004177 -0.001620 -0.015481 0.021651 0.004347
# 6 -0.009921 -0.014880 -0.001012 -0.007743 0.004347 0.037846
#
#
# Mechanical properties :
#
#
# Convention : Reuss Voigt Hill
#
# Bulk Modulus (GPa) = 29.59871 79.53004 54.56437
# Shear Modulus (GPa) = 31.82825 53.27419 42.55122
#
# Velocity S-wave (km/s) = 3.31351 4.28686 3.83122
# Velocity P-wave (km/s) = 4.98491 7.20675 6.19623
#
# Compressibility (1/GPa) = 0.03378526
#
# Stress axis : x y z
#
# Youngs Moduli (GPa) = 65.63397 61.78912 128.51535
#
# Poissons Ratio (x) = -0.00260 0.50981
# Poissons Ratio (y) = -0.00276 -0.15638
# Poissons Ratio (z) = 0.26036 -0.07519
#
# Static dielectric constant tensor:
#      x y z
#    x 1.625500 -0.113680 -0.026180 
#    y -0.113680 2.365680 0.066520 
#    z -0.026180 0.066520 2.187470 
# 
# From -- ./inp_files/497810.got.cif
#   From: 2010.05.17/outbox.cif.g08.bks.cpg/sg2_249_cif.got.tgz:497810.got - 2010.06.03 11:33:40.
