data_PCOD9105977
_publ_section_title
;
Structure prediction by ZEFSAII (Michael W. Deem and Ramdas Pophale) SiO2 
 PCOD9105977
Probable space group: P -1
;
_chemical_formula_sum "Si O2"
_cell_formula_units_Z 14
_cell_length_a 9.216113
_cell_length_b 11.413006
_cell_length_c 11.970348
_cell_angle_alpha 133.836285
_cell_angle_beta 42.822493
_cell_angle_gamma 121.722918
_cell_volume 616.925545
_symmetry_space_group_name_H-M "P -1"
_symmetry_group_IT_number 2
_symmetry_cell_setting 'triclinic'
loop_
_space_group_symop_operation_xyz
x,y,z
-x,-y,-z
loop_
_atom_site_type_symbol
_atom_site_label
_atom_site_fract_x
_atom_site_fract_y
_atom_site_fract_z
Si Si1 0.625702 0.072066 0.871698
Si Si2 0.198367 0.555678 0.002504
Si Si3 0.140412 0.739983 0.603337
Si Si4 0.068364 0.954265 0.588911
Si Si5 0.392113 0.225798 0.646800
Si Si6 0.493946 0.185320 0.813855
Si Si7 0.816090 0.540289 0.795450
O O1 0.709489 0.262573 0.957457
O O2 0.458627 0.068885 0.861643
O O3 0.841482 0.970981 0.669719
O O4 0.500000 0.000000 0.000000
O O5 0.142385 0.523283 0.144367
O O6 0.364107 0.417125 0.789097
O O7 0.000000 0.500000 0.000000
O O8 0.032155 0.878716 0.682953
O O9 0.374117 0.801720 0.551088
O O10 0.179747 0.595610 0.394119
O O11 0.997818 0.670552 0.738068
O O12 0.251309 0.841504 0.361425
O O13 0.194736 0.127912 0.639136
O O14 0.401853 0.162095 0.727213
O O15 0.401525 0.358873 0.013886
#
# Coordination Sequence:
#
# PCOD9105977 Si02
#       7
#     2   2   2   2   2   2   2
#     4  12  25  42  64  96 129 171 217 268 319 380
#     4  11  22  44  66  90 133 171 212 259 329 389
#     4  10  20  39  66  97 127 160 224 269 317 382
#     4  11  22  40  62  94 135 167 208 269 328 379
#     4  10  21  41  65  94 127 171 212 265 320 384
#     4  10  21  40  66  92 125 173 217 257 321 387
#     4  10  22  40  68  96 123 172 217 272 317 381
#
# _framework density 22.693176000000001
#
# number of rings (size 3 to 8) (size 9 to 14) (size 15 to 20)
#    0.000    1.429    1.429    5.571    0.000    5.143 
#    5.143    5.000    0.000    0.000    0.000    0.000 
#    0.000    0.000    0.000    0.000    0.000    0.000 
#
# Total GULP energy -78093.238386 kJ/mol
# GULP energy per Si atom -5578.088456 kJ/mol
# Density = 2.264152 g / cm^3
# Si number density = 22.693176 Si / 1000 Ang^3
#
#
#
# Elastic Constant Matrix: (Units=GPa)
#
#
# Indices 1 2 3 4 5 6 
#
# 1 111.4179 26.5616 29.9723 -6.5580 -3.2064 -15.7494
# 2 26.5616 130.7606 44.7564 -12.1010 14.5093 -16.3272
# 3 29.9723 44.7564 95.4408 0.6384 -5.7126 -8.3129
# 4 -6.5580 -12.1010 0.6384 38.4356 -7.9261 8.4243
# 5 -3.2064 14.5093 -5.7126 -7.9261 29.1837 4.1463
# 6 -15.7494 -16.3272 -8.3129 8.4243 4.1463 36.7198
#
#
#
# Elastic Compliance Matrix: (Units=1/GPa)
#
#
# Indices 1 2 3 4 5 6 
#
# 1 0.010397 -0.000849 -0.002544 0.001040 0.000899 0.003165
# 2 -0.000849 0.010811 -0.004875 0.001126 -0.006661 0.003833
# 3 -0.002544 -0.004875 0.013812 -0.001169 0.004585 -0.000382
# 4 0.001040 0.001126 -0.001169 0.029874 0.008452 -0.007126
# 5 0.000899 -0.006661 0.004585 0.008452 0.042037 -0.008224
# 6 0.003165 0.003833 -0.000382 -0.007126 -0.008224 0.032772
#
#
# Mechanical properties :
#
#
# Convention : Reuss Voigt Hill
#
# Bulk Modulus (GPa) = 54.10748 60.02221 57.06485
# Shear Modulus (GPa) = 30.78805 36.62307 33.70556
#
# Velocity S-wave (km/s) = 3.68735 4.02162 3.85811
# Velocity P-wave (km/s) = 6.48256 6.93335 6.71174
#
# Compressibility (1/GPa) = 0.01848173
#
# Stress axis : x y z
#
# Youngs Moduli (GPa) = 96.18485 92.50099 72.40142
#
# Poissons Ratio (x) = 0.07857 0.18420
# Poissons Ratio (y) = 0.08170 0.35298
# Poissons Ratio (z) = 0.24470 0.45097
#
# Static dielectric constant tensor:
#      x y z
#    x 1.892410 0.007760 0.031390 
#    y 0.007760 1.922890 0.012840 
#    z 0.031390 0.012840 1.905740 
# 
# From -- ./inp_files/392940.got.cif
#   From: 2010.05.17/outbox.cif.g08.bks.cpg/sg2_197_cif.got.tgz:392940.got - 2010.06.03 11:33:40.
