data_PCOD9105941
_publ_section_title
;
Structure prediction by ZEFSAII (Michael W. Deem and Ramdas Pophale) SiO2 
 PCOD9105941
Probable space group: P -1
;
_chemical_formula_sum "Si O2"
_cell_formula_units_Z 16
_cell_length_a 23.357353
_cell_length_b 8.215090
_cell_length_c 12.359030
_cell_angle_alpha 123.493023
_cell_angle_beta 22.758476
_cell_angle_gamma 131.338290
_cell_volume 675.297085
_symmetry_space_group_name_H-M "P -1"
_symmetry_group_IT_number 2
_symmetry_cell_setting 'triclinic'
loop_
_space_group_symop_operation_xyz
x,y,z
-x,-y,-z
loop_
_atom_site_type_symbol
_atom_site_label
_atom_site_fract_x
_atom_site_fract_y
_atom_site_fract_z
Si Si1 0.052101 0.538429 0.761043
Si Si2 0.759128 0.688412 0.084519
Si Si3 0.681309 0.021368 0.453361
Si Si4 0.597260 0.306520 0.046517
Si Si5 0.080008 0.690070 0.520438
Si Si6 0.586776 0.897152 0.169515
Si Si7 0.305664 0.650918 0.734397
Si Si8 0.332083 0.425039 0.195791
O O1 0.052361 0.577839 0.645454
O O2 0.169391 0.422585 0.532732
O O3 0.145253 0.777155 0.741137
O O4 0.856207 0.418105 0.085180
O O5 0.698179 0.869329 0.275330
O O6 0.671520 0.512826 0.076935
O O7 0.716281 0.540401 0.214281
O O8 0.961259 0.804526 0.763463
O O9 0.589438 0.863478 0.657056
O O10 0.551594 0.104686 0.671941
O O11 0.721374 0.195844 0.801095
O O12 0.615592 0.399187 0.928847
O O13 0.000000 0.500000 0.500000
O O14 0.471931 0.733115 0.403791
O O15 0.679682 0.141988 0.145444
O O16 0.703977 0.807800 0.879994
O O17 0.500000 0.500000 0.000000
#
# Coordination Sequence:
#
# PCOD9105941 Si02
#       8
#     2   2   2   2   2   2   2   2
#     4  10  23  43  64  91 133 163 212 263 316 373
#     4  10  20  39  66  95 127 163 207 263 313 374
#     4  12  23  38  64 100 127 166 210 259 318 379
#     4  10  21  38  67  91 127 167 212 259 311 374
#     4   8  18  37  59  88 122 161 201 252 310 363
#     4  11  24  41  67  93 126 170 217 253 317 379
#     4  10  23  43  67  93 128 166 208 267 311 379
#     4  11  23  44  63  93 129 171 209 263 315 373
#
# _framework density 23.693275
#
# number of rings (size 3 to 8) (size 9 to 14) (size 15 to 20)
#    0.000    1.750    2.500    1.125    3.500    5.000 
#    0.000    2.500    0.000    0.000    0.000    0.000 
#    0.000    0.000    0.000    0.000    0.000    0.000 
#
# Total GULP energy -89503.398097 kJ/mol
# GULP energy per Si atom -5593.962381 kJ/mol
# Density = 2.363935 g / cm^3
# Si number density = 23.693275 Si / 1000 Ang^3
#
#
#
# Elastic Constant Matrix: (Units=GPa)
#
#
# Indices 1 2 3 4 5 6 
#
# 1 86.3890 7.8773 10.5960 -8.3652 -8.3889 -5.6864
# 2 7.8773 74.8910 38.0595 6.1152 -6.8758 10.1511
# 3 10.5960 38.0595 79.9651 8.3166 -16.5322 4.0540
# 4 -8.3652 6.1152 8.3166 31.8404 6.6115 -8.5549
# 5 -8.3889 -6.8758 -16.5322 6.6115 31.9877 2.9378
# 6 -5.6864 10.1511 4.0540 -8.5549 2.9378 17.8521
#
#
#
# Elastic Compliance Matrix: (Units=1/GPa)
#
#
# Indices 1 2 3 4 5 6 
#
# 1 0.013291 -0.002286 -0.001950 0.007035 -0.000331 0.009402
# 2 -0.002286 0.020006 -0.007212 -0.006951 0.002718 -0.014245
# 3 -0.001950 -0.007212 0.019499 -0.008111 0.010292 -0.006529
# 4 0.007035 -0.006951 -0.008111 0.049606 -0.017277 0.034650
# 5 -0.000331 0.002718 0.010292 -0.017277 0.042417 -0.019248
# 6 0.009402 -0.014245 -0.006529 0.034650 -0.019248 0.088366
#
#
# Mechanical properties :
#
#
# Convention : Reuss Voigt Hill
#
# Bulk Modulus (GPa) = 33.44485 39.36785 36.40635
# Shear Modulus (GPa) = 18.79356 28.65020 23.72188
#
# Velocity S-wave (km/s) = 2.81944 3.48115 3.16762
# Velocity P-wave (km/s) = 4.97447 5.72796 5.36446
#
# Compressibility (1/GPa) = 0.02989997
#
# Stress axis : x y z
#
# Youngs Moduli (GPa) = 75.23797 49.98415 51.28520
#
# Poissons Ratio (x) = 0.11429 0.09999
# Poissons Ratio (y) = 0.17203 0.36987
# Poissons Ratio (z) = 0.14670 0.36048
#
# Static dielectric constant tensor:
#      x y z
#    x 1.917000 -0.010220 0.010950 
#    y -0.010220 1.876150 0.022270 
#    z 0.010950 0.022270 1.944180 
# 
# From -- ./inp_files/543859.got.cif
#   From: 2010.05.17/outbox.cif.g08.bks.cpg/sg2_272_cif.got.tgz:543859.got - 2010.06.03 11:33:40.
