data_PCOD9105525
_publ_section_title
;
Structure prediction by ZEFSAII (Michael W. Deem and Ramdas Pophale) SiO2 
 PCOD9105525
Probable space group: P -1
;
_chemical_formula_sum "Si O2"
_cell_formula_units_Z 12
_cell_length_a 11.809253
_cell_length_b 12.396075
_cell_length_c 7.166095
_cell_angle_alpha 46.049112
_cell_angle_beta 115.505889
_cell_angle_gamma 133.829038
_cell_volume 542.300721
_symmetry_space_group_name_H-M "P -1"
_symmetry_group_IT_number 2
_symmetry_cell_setting 'triclinic'
loop_
_space_group_symop_operation_xyz
x,y,z
-x,-y,-z
loop_
_atom_site_type_symbol
_atom_site_label
_atom_site_fract_x
_atom_site_fract_y
_atom_site_fract_z
Si Si1 0.972022 0.127019 0.199267
Si Si2 0.186025 0.121102 0.104270
Si Si3 0.229756 0.539006 0.029975
Si Si4 0.249422 0.901722 0.649407
Si Si5 0.654404 0.559772 0.430339
Si Si6 0.492971 0.707838 0.703993
O O1 0.805807 0.067936 0.227791
O O2 0.037438 0.115145 0.062449
O O3 0.087994 0.348570 0.060937
O O4 0.000000 0.000000 0.500000
O O5 0.251672 0.225618 0.829363
O O6 0.343432 0.265794 0.175095
O O7 0.165148 0.934726 0.380541
O O8 0.207765 0.699408 0.847679
O O9 0.385958 0.632382 0.901632
O O10 0.249231 0.472120 0.321564
O O11 0.433625 0.074998 0.546440
O O12 0.500000 0.500000 0.500000
O O13 0.602008 0.424911 0.377168
#
# Coordination Sequence:
#
# PCOD9105525 Si02
#       6
#     2   2   2   2   2   2
#     4  10  20  39  65  81 119 165 197 239 296 351
#     4   9  19  38  59  85 117 159 190 244 290 343
#     4  12  22  38  65  90 120 155 200 244 299 351
#     4   9  22  38  63  87 120 166 189 237 310 351
#     4  12  21  34  64  95 114 154 205 243 294 351
#     4  10  21  38  63  86 126 147 198 248 296 340
#
# _framework density 22.127942999999998
#
# number of rings (size 3 to 8) (size 9 to 14) (size 15 to 20)
#    1.000    0.667    3.333    2.500    0.000    0.667 
#    0.000    4.167    3.667    0.000    0.000    0.000 
#    0.000    0.000    0.000    0.000    0.000    0.000 
#
# Total GULP energy -66910.856712 kJ/mol
# GULP energy per Si atom -5575.904726 kJ/mol
# Density = 2.207758 g / cm^3
# Si number density = 22.127943 Si / 1000 Ang^3
#
#
#
# Elastic Constant Matrix: (Units=GPa)
#
#
# Indices 1 2 3 4 5 6 
#
# 1 79.1826 10.3665 41.4342 -10.4743 -17.2077 -11.2803
# 2 10.3665 44.1799 3.7658 -4.4431 -0.2339 -0.9955
# 3 41.4342 3.7658 116.3741 -9.2797 -8.0025 -10.4788
# 4 -10.4743 -4.4431 -9.2797 21.7211 1.7070 1.2950
# 5 -17.2077 -0.2339 -8.0025 1.7070 41.5261 -12.8944
# 6 -11.2803 -0.9955 -10.4788 1.2950 -12.8944 35.8932
#
#
#
# Elastic Compliance Matrix: (Units=1/GPa)
#
#
# Indices 1 2 3 4 5 6 
#
# 1 0.019565 -0.003393 -0.005096 0.005375 0.009278 0.007706
# 2 -0.003393 0.023720 0.000531 0.003628 -0.001619 -0.000966
# 3 -0.005096 0.000531 0.010728 0.002110 0.000370 0.001602
# 4 0.005375 0.003628 0.002110 0.050151 0.000876 0.000911
# 5 0.009278 -0.001619 0.000370 0.000876 0.032492 0.014620
# 6 0.007706 -0.000966 0.001602 0.000911 0.014620 0.035942
#
#
# Mechanical properties :
#
#
# Convention : Reuss Voigt Hill
#
# Bulk Modulus (GPa) = 26.24779 38.98549 32.61664
# Shear Modulus (GPa) = 24.84954 32.10610 28.47782
#
# Velocity S-wave (km/s) = 3.35475 3.81324 3.59132
# Velocity P-wave (km/s) = 5.18588 6.08639 5.65409
#
# Compressibility (1/GPa) = 0.03809844
#
# Stress axis : x y z
#
# Youngs Moduli (GPa) = 51.11237 42.15837 93.21445
#
# Poissons Ratio (x) = 0.14305 0.47498
# Poissons Ratio (y) = 0.17343 -0.04954
# Poissons Ratio (z) = 0.26045 -0.02241
#
# Static dielectric constant tensor:
#      x y z
#    x 1.844650 -0.002960 -0.022490 
#    y -0.002960 1.890190 0.024380 
#    z -0.022490 0.024380 1.854640 
# 
# From -- ./inp_files/61339.got.cif
#   From: 2010.05.17/outbox.cif.g08.bks.cpg/sg2_31_cif.got.tgz:61339.got - 2010.06.03 11:33:40.
