data_PCOD9105857
_publ_section_title
;
Structure prediction by ZEFSAII (Michael W. Deem and Ramdas Pophale) SiO2 
 PCOD9105857
Probable space group: P -1
;
_chemical_formula_sum "Si O2"
_cell_formula_units_Z 14
_cell_length_a 8.927508
_cell_length_b 15.920991
_cell_length_c 11.320494
_cell_angle_alpha 130.648319
_cell_angle_beta 54.123327
_cell_angle_gamma 153.773321
_cell_volume 539.498461
_symmetry_space_group_name_H-M "P -1"
_symmetry_group_IT_number 2
_symmetry_cell_setting 'triclinic'
loop_
_space_group_symop_operation_xyz
x,y,z
-x,-y,-z
loop_
_atom_site_type_symbol
_atom_site_label
_atom_site_fract_x
_atom_site_fract_y
_atom_site_fract_z
Si Si1 0.645171 0.758502 0.301815
Si Si2 0.527516 0.878988 0.983162
Si Si3 0.065777 0.792487 0.274522
Si Si4 0.735898 0.228101 0.440938
Si Si5 0.122731 0.478702 0.724986
Si Si6 0.862766 0.683751 0.875818
Si Si7 0.415509 0.221281 0.902446
O O1 0.424706 0.730201 0.458028
O O2 0.389700 0.536990 0.164654
O O3 0.757180 0.878893 0.240101
O O4 0.909157 0.824208 0.319470
O O5 0.402729 0.715438 0.810101
O O6 0.179358 0.894639 0.994573
O O7 0.216852 0.793420 0.100613
O O8 0.683279 0.902210 0.052413
O O9 0.808733 0.592916 0.290311
O O10 0.392217 0.982705 0.380899
O O11 0.985213 0.364931 0.561150
O O12 0.944956 0.280974 0.286825
O O13 0.800941 0.377797 0.843031
O O14 0.642809 0.681195 0.946087
#
# Coordination Sequence:
#
# PCOD9105857 Si02
#       7
#     2   2   2   2   2   2   2
#     4  11  22  40  63  91 123 162 203 249 301 362
#     4  10  21  39  64  94 122 155 204 255 300 357
#     4  10  20  39  66  91 118 161 209 250 298 362
#     4  10  23  40  59  89 126 161 200 252 304 355
#     4  10  20  40  65  90 120 161 205 249 299 364
#     4  11  22  39  63  92 125 159 198 253 307 356
#     4  10  21  39  64  89 119 159 204 248 297 360
#
# _framework density 25.950026999999999
#
# number of rings (size 3 to 8) (size 9 to 14) (size 15 to 20)
#    0.000    1.714    0.000    5.571    0.000    2.286 
#    0.000   18.571    0.000    3.429    0.000    0.000 
#    0.000    0.000    0.000    0.000    0.000    0.000 
#
# Total GULP energy -78280.412037 kJ/mol
# GULP energy per Si atom -5591.458003 kJ/mol
# Density = 2.589096 g / cm^3
# Si number density = 25.950027 Si / 1000 Ang^3
#
#
#
# Elastic Constant Matrix: (Units=GPa)
#
#
# Indices 1 2 3 4 5 6 
#
# 1 134.8730 0.6826 53.7278 -20.5860 7.4791 2.2566
# 2 0.6826 66.1497 36.6946 32.2782 19.7506 -7.9808
# 3 53.7278 36.6946 129.0297 17.1811 4.8810 -7.4859
# 4 -20.5860 32.2782 17.1811 47.6741 15.0241 -17.2940
# 5 7.4791 19.7506 4.8810 15.0241 46.6347 4.3253
# 6 2.2566 -7.9808 -7.4859 -17.2940 4.3253 29.7285
#
#
#
# Elastic Compliance Matrix: (Units=1/GPa)
#
#
# Indices 1 2 3 4 5 6 
#
# 1 0.011396 0.000155 -0.005682 0.009946 -0.004897 0.004244
# 2 0.000155 0.027175 -0.005669 -0.015233 -0.005833 -0.002157
# 3 -0.005682 -0.005669 0.012129 -0.004576 0.003631 -0.001226
# 4 0.009946 -0.015233 -0.004576 0.050657 -0.013342 0.025413
# 5 -0.004897 -0.005833 0.003631 -0.013342 0.029764 -0.012372
# 6 0.004244 -0.002157 -0.001226 0.025413 -0.012372 0.049011
#
#
# Mechanical properties :
#
#
# Convention : Reuss Voigt Hill
#
# Bulk Modulus (GPa) = 35.32603 56.91805 46.12204
# Shear Modulus (GPa) = 23.58935 40.73729 32.16332
#
# Velocity S-wave (km/s) = 3.01828 3.96641 3.52438
# Velocity P-wave (km/s) = 5.07832 6.55423 5.86290
#
# Compressibility (1/GPa) = 0.02830774
#
# Stress axis : x y z
#
# Youngs Moduli (GPa) = 87.75142 36.79894 82.44560
#
# Poissons Ratio (x) = -0.00571 0.46848
# Poissons Ratio (y) = -0.01362 0.46738
# Poissons Ratio (z) = 0.49863 0.20861
#
# Static dielectric constant tensor:
#      x y z
#    x 2.116350 -0.021050 0.019280 
#    y -0.021050 2.091580 0.053070 
#    z 0.019280 0.053070 2.025870 
# 
# From -- ./inp_files/403210.got.cif
#   From: 2010.05.17/outbox.cif.g08.bks.cpg/sg2_202_cif.got.tgz:403210.got - 2010.06.03 11:33:40.
