data_PCOD9105468
_publ_section_title
;
Structure prediction by ZEFSAII (Michael W. Deem and Ramdas Pophale) SiO2 
 PCOD9105468
Probable space group: P -1
;
_chemical_formula_sum "Si O2"
_cell_formula_units_Z 14
_cell_length_a 8.716023
_cell_length_b 6.060299
_cell_length_c 28.308914
_cell_angle_alpha 126.672403
_cell_angle_beta 148.844051
_cell_angle_gamma 56.448647
_cell_volume 617.380113
_symmetry_space_group_name_H-M "P -1"
_symmetry_group_IT_number 2
_symmetry_cell_setting 'triclinic'
loop_
_space_group_symop_operation_xyz
x,y,z
-x,-y,-z
loop_
_atom_site_type_symbol
_atom_site_label
_atom_site_fract_x
_atom_site_fract_y
_atom_site_fract_z
Si Si1 0.714595 0.338387 0.253038
Si Si2 0.764136 0.299751 0.366445
Si Si3 0.795396 0.237173 0.567420
Si Si4 0.249019 0.846456 0.941936
Si Si5 0.674924 0.394922 0.456316
Si Si6 0.602995 0.772552 0.122329
Si Si7 0.762275 0.310788 0.891512
O O1 0.614404 0.311067 0.277474
O O2 0.450605 0.512805 0.178076
O O3 0.783063 0.039566 0.208264
O O4 0.004107 0.504871 0.349282
O O5 0.581372 0.310353 0.368518
O O6 0.982820 0.544146 0.453175
O O7 0.986138 0.020066 0.391500
O O8 0.676903 0.198628 0.477770
O O9 0.528897 0.333200 0.545012
O O10 0.231489 0.532935 0.880239
O O11 0.366621 0.823156 0.023888
O O12 0.945992 0.043806 0.883577
O O13 0.500000 0.000000 0.000000
O O14 0.430892 0.767745 0.125394
O O15 0.000000 0.500000 0.000000
#
# Coordination Sequence:
#
# PCOD9105468 Si02
#       7
#     2   2   2   2   2   2   2
#     4  11  24  40  61  93 137 170 210 275 324 382
#     4  10  20  39  64  96 129 167 213 261 320 379
#     4  10  20  40  64  94 131 168 209 262 321 380
#     4  11  23  41  68  94 116 163 226 271 325 391
#     4   9  20  38  68  94 122 170 216 253 314 398
#     4  11  23  42  65  92 123 167 219 275 326 387
#     4  12  23  43  68  89 126 171 223 269 330 383
#
# _framework density 22.676466000000001
#
# number of rings (size 3 to 8) (size 9 to 14) (size 15 to 20)
#    0.000    1.429    2.857    2.143    0.000    0.000 
#    0.000   14.286    0.000    0.000    0.000    0.000 
#    0.000    0.000    0.000    0.000    0.000    0.000 
#
# Total GULP energy -78264.418104 kJ/mol
# GULP energy per Si atom -5590.315579 kJ/mol
# Density = 2.262485 g / cm^3
# Si number density = 22.676466 Si / 1000 Ang^3
#
#
#
# Elastic Constant Matrix: (Units=GPa)
#
#
# Indices 1 2 3 4 5 6 
#
# 1 114.7274 44.1813 51.9835 -20.6835 -33.6636 -12.9183
# 2 44.1813 129.9382 33.9712 -8.2575 -10.2340 -14.5327
# 3 51.9835 33.9712 82.7704 -8.3633 -27.5754 3.0321
# 4 -20.6835 -8.2575 -8.3633 43.4468 10.2787 -3.0358
# 5 -33.6636 -10.2340 -27.5754 10.2787 26.3210 -1.4958
# 6 -12.9183 -14.5327 3.0321 -3.0358 -1.4958 26.6121
#
#
#
# Elastic Compliance Matrix: (Units=1/GPa)
#
#
# Indices 1 2 3 4 5 6 
#
# 1 0.018653 -0.002319 -0.005242 0.004243 0.016362 0.009789
# 2 -0.002319 0.009777 -0.003674 0.001122 -0.003191 0.004581
# 3 -0.005242 -0.003674 0.022090 -0.003153 0.015869 -0.006536
# 4 0.004243 0.001122 -0.003153 0.026837 -0.007598 0.005666
# 5 0.016362 -0.003191 0.015869 -0.007598 0.077720 0.007894
# 6 0.009789 0.004581 -0.006536 0.005666 0.007894 0.046665
#
#
# Mechanical properties :
#
#
# Convention : Reuss Voigt Hill
#
# Bulk Modulus (GPa) = 35.65042 65.30088 50.47565
# Shear Modulus (GPa) = 21.40778 32.42930 26.91854
#
# Velocity S-wave (km/s) = 3.07588 3.78575 3.44913
# Velocity P-wave (km/s) = 5.32636 6.92593 6.17813
#
# Compressibility (1/GPa) = 0.02805016
#
# Stress axis : x y z
#
# Youngs Moduli (GPa) = 53.61198 102.27801 45.27034
#
# Poissons Ratio (x) = 0.23714 0.23730
# Poissons Ratio (y) = 0.12430 0.16633
# Poissons Ratio (z) = 0.28102 0.37579
#
# Static dielectric constant tensor:
#      x y z
#    x 1.828500 -0.002670 -0.036840 
#    y -0.002670 1.839430 0.006000 
#    z -0.036840 0.006000 1.839590 
# 
# From -- ./inp_files/616203.got.cif
#   From: 2010.05.17/outbox.cif.g08.bks.cpg/sg2_309_cif.got.tgz:616203.got - 2010.06.03 11:33:40.
