data_PCOD9105612
_publ_section_title
;
Structure prediction by ZEFSAII (Michael W. Deem and Ramdas Pophale) SiO2 
 PCOD9105612
Probable space group: P -1
;
_chemical_formula_sum "Si O2"
_cell_formula_units_Z 14
_cell_length_a 11.467914
_cell_length_b 13.210166
_cell_length_c 10.197565
_cell_angle_alpha 34.357971
_cell_angle_beta 54.252592
_cell_angle_gamma 47.536655
_cell_volume 641.836814
_symmetry_space_group_name_H-M "P -1"
_symmetry_group_IT_number 2
_symmetry_cell_setting 'triclinic'
loop_
_space_group_symop_operation_xyz
x,y,z
-x,-y,-z
loop_
_atom_site_type_symbol
_atom_site_label
_atom_site_fract_x
_atom_site_fract_y
_atom_site_fract_z
Si Si1 0.679778 0.674698 0.005754
Si Si2 0.832763 0.263851 0.256807
Si Si3 0.935682 0.300793 0.627625
Si Si4 0.051834 0.271654 0.864536
Si Si5 0.579125 0.933478 0.160837
Si Si6 0.905774 0.856546 0.567235
Si Si7 0.628592 0.542923 0.452420
O O1 0.822519 0.716604 0.810784
O O2 0.522505 0.879297 0.882071
O O3 0.689953 0.478712 0.135664
O O4 0.709391 0.614361 0.204245
O O5 0.932513 0.212242 0.381861
O O6 0.795377 0.078515 0.447422
O O7 0.954849 0.262122 0.065409
O O8 0.950706 0.510049 0.378093
O O9 0.757718 0.353101 0.641372
O O10 0.973444 0.238309 0.818835
O O11 0.054021 0.156750 0.597538
O O12 0.235520 0.117569 0.909702
O O13 0.569844 0.721496 0.405236
O O14 0.500000 0.000000 0.000000
O O15 0.500000 0.500000 0.500000
#
# Coordination Sequence:
#
# PCOD9105612 Si02
#       7
#     2   2   2   2   2   2   2
#     4  11  21  38  61  89 126 158 202 263 307 359
#     4  11  22  36  64  93 122 160 212 262 300 374
#     4  10  20  39  65  92 124 167 207 258 305 377
#     4  10  21  40  65  91 124 166 213 250 314 369
#     4   9  20  36  59  87 124 164 201 254 307 363
#     4  11  22  36  63  94 122 161 213 253 317 360
#     4  10  21  36  63  94 125 162 210 253 310 375
#
# _framework density 21.812398999999999
#
# number of rings (size 3 to 8) (size 9 to 14) (size 15 to 20)
#    0.000    1.714    2.857    3.000    2.000    2.857 
#    0.000    0.714    0.000    1.714    0.000    0.000 
#    0.000    0.000    0.000    0.000    0.000    0.000 
#
# Total GULP energy -78171.618422 kJ/mol
# GULP energy per Si atom -5583.687030 kJ/mol
# Density = 2.176275 g / cm^3
# Si number density = 21.812399 Si / 1000 Ang^3
#
#
#
# Elastic Constant Matrix: (Units=GPa)
#
#
# Indices 1 2 3 4 5 6 
#
# 1 86.1681 31.3963 17.8567 2.9772 16.9213 0.4969
# 2 31.3963 161.0096 23.9752 -21.7039 8.3085 5.1995
# 3 17.8567 23.9752 49.3261 -5.2796 0.2758 9.2632
# 4 2.9772 -21.7039 -5.2796 33.0428 8.8937 2.5397
# 5 16.9213 8.3085 0.2758 8.8937 20.7692 -2.4239
# 6 0.4969 5.1995 9.2632 2.5397 -2.4239 25.2199
#
#
#
# Elastic Compliance Matrix: (Units=1/GPa)
#
#
# Indices 1 2 3 4 5 6 
#
# 1 0.015563 -0.001760 -0.004879 -0.000240 -0.011721 0.000746
# 2 -0.001760 0.008075 -0.002194 0.006553 -0.004800 -0.001946
# 3 -0.004879 -0.002194 0.025070 0.003093 0.002173 -0.008762
# 4 -0.000240 0.006553 0.003093 0.041470 -0.021240 -0.008700
# 5 -0.011721 -0.004800 0.002173 -0.021240 0.069766 0.009267
# 6 0.000746 -0.001946 -0.008762 -0.008700 0.009267 0.045023
#
#
# Mechanical properties :
#
#
# Convention : Reuss Voigt Hill
#
# Bulk Modulus (GPa) = 32.21387 49.21782 40.71584
# Shear Modulus (GPa) = 21.46107 30.69143 26.07625
#
# Velocity S-wave (km/s) = 3.14011 3.75515 3.46132
# Velocity P-wave (km/s) = 5.28656 6.43543 5.88908
#
# Compressibility (1/GPa) = 0.03104253
#
# Stress axis : x y z
#
# Youngs Moduli (GPa) = 64.25373 123.84505 39.88783
#
# Poissons Ratio (x) = 0.21796 0.19461
# Poissons Ratio (y) = 0.11308 0.08751
# Poissons Ratio (z) = 0.31349 0.27171
#
# Static dielectric constant tensor:
#      x y z
#    x 1.791540 -0.004470 -0.040560 
#    y -0.004470 1.881200 -0.072680 
#    z -0.040560 -0.072680 1.835870 
# 
# From -- ./inp_files/188255.got.cif
#   From: 2010.05.17/outbox.cif.g08.bks.cpg/sg2_95_cif.got.tgz:188255.got - 2010.06.03 11:33:40.
