data_PCOD9105814
_publ_section_title
;
Structure prediction by ZEFSAII (Michael W. Deem and Ramdas Pophale) SiO2 
 PCOD9105814
Probable space group: P -1
;
_chemical_formula_sum "Si O2"
_cell_formula_units_Z 14
_cell_length_a 5.953600
_cell_length_b 9.052025
_cell_length_c 12.792853
_cell_angle_alpha 78.325179
_cell_angle_beta 69.168573
_cell_angle_gamma 79.175653
_cell_volume 625.961714
_symmetry_space_group_name_H-M "P -1"
_symmetry_group_IT_number 2
_symmetry_cell_setting 'triclinic'
loop_
_space_group_symop_operation_xyz
x,y,z
-x,-y,-z
loop_
_atom_site_type_symbol
_atom_site_label
_atom_site_fract_x
_atom_site_fract_y
_atom_site_fract_z
Si Si1 0.687205 0.908780 0.066274
Si Si2 0.142474 0.798218 0.895009
Si Si3 0.037891 0.031646 0.300892
Si Si4 0.384008 0.252147 0.274523
Si Si5 0.370690 0.811579 0.533295
Si Si6 0.929682 0.462737 0.398427
Si Si7 0.746447 0.790215 0.297428
O O1 0.638657 0.821388 0.194683
O O2 0.793290 0.053409 0.077160
O O3 0.885806 0.783878 0.994460
O O4 0.500000 0.000000 0.000000
O O5 0.068236 0.843677 0.783907
O O6 0.405184 0.702275 0.844398
O O7 0.856498 0.062073 0.423987
O O8 0.289911 0.094528 0.274557
O O9 0.982643 0.876443 0.275664
O O10 0.478675 0.220411 0.381052
O O11 0.158297 0.381231 0.307431
O O12 0.259539 0.658507 0.545681
O O13 0.541889 0.849591 0.406692
O O14 0.820081 0.614152 0.335478
O O15 0.000000 0.500000 0.500000
#
# Coordination Sequence:
#
# PCOD9105814 Si02
#       7
#     2   2   2   2   2   2   2
#     4  10  21  40  64  93 128 165 215 277 322 366
#     4   9  19  39  61  91 126 167 214 264 325 374
#     4   9  20  37  62  95 128 168 210 271 322 376
#     4  10  20  39  66  88 134 179 204 260 328 377
#     4  10  21  40  61  93 133 168 215 262 320 393
#     4  11  23  42  61  94 135 179 208 256 322 394
#     4  11  22  40  63 100 130 166 222 262 320 390
#
# _framework density 22.365584999999999
#
# number of rings (size 3 to 8) (size 9 to 14) (size 15 to 20)
#    0.000    2.000    1.429    1.714    0.000    0.571 
#   15.429    0.714    0.000   12.000    0.000   12.000 
#    0.000    0.000    0.000    0.000    0.000    0.000 
#
# Total GULP energy -77953.140868 kJ/mol
# GULP energy per Si atom -5568.081491 kJ/mol
# Density = 2.231468 g / cm^3
# Si number density = 22.365585 Si / 1000 Ang^3
#
#
#
# Elastic Constant Matrix: (Units=GPa)
#
#
# Indices 1 2 3 4 5 6 
#
# 1 100.2072 29.5336 52.8489 8.3501 11.7083 7.2358
# 2 29.5336 72.0132 20.0575 1.9869 7.0705 -1.2895
# 3 52.8489 20.0575 137.4517 12.0909 0.4902 -18.1514
# 4 8.3501 1.9869 12.0909 24.5245 -13.6279 -4.0163
# 5 11.7083 7.0705 0.4902 -13.6279 45.2890 12.8650
# 6 7.2358 -1.2895 -18.1514 -4.0163 12.8650 42.0792
#
#
#
# Elastic Compliance Matrix: (Units=1/GPa)
#
#
# Indices 1 2 3 4 5 6 
#
# 1 0.015215 -0.004362 -0.005375 -0.004777 -0.003354 -0.004499
# 2 -0.004362 0.016021 -0.000400 -0.000440 -0.001964 0.001627
# 3 -0.005375 -0.000400 0.010385 -0.002979 -0.001103 0.005445
# 4 -0.004777 -0.000440 -0.002979 0.053608 0.017685 -0.000767
# 5 -0.003354 -0.001964 -0.001103 0.017685 0.030769 -0.007678
# 6 -0.004499 0.001627 0.005445 -0.000767 -0.007678 0.029211
#
#
# Mechanical properties :
#
#
# Convention : Reuss Voigt Hill
#
# Bulk Modulus (GPa) = 46.84735 57.17248 52.00992
# Shear Modulus (GPa) = 27.38234 36.19401 31.78818
#
# Velocity S-wave (km/s) = 3.50281 4.02716 3.77410
# Velocity P-wave (km/s) = 6.11156 6.87330 6.50359
#
# Compressibility (1/GPa) = 0.02134592
#
# Stress axis : x y z
#
# Youngs Moduli (GPa) = 65.72605 62.41882 96.28843
#
# Poissons Ratio (x) = 0.27228 0.51758
# Poissons Ratio (y) = 0.28670 0.03852
# Poissons Ratio (z) = 0.35330 0.02497
#
# Static dielectric constant tensor:
#      x y z
#    x 2.000760 -0.044120 -0.069540 
#    y -0.044120 1.824960 0.044900 
#    z -0.069540 0.044900 1.909800 
# 
# From -- ./inp_files/93549.got.cif
#   From: 2010.05.17/outbox.cif.g08.bks.cpg/sg2_47_cif.got.tgz:93549.got - 2010.06.03 11:33:40.
