data_PCOD9105533
_publ_section_title
;
Structure prediction by ZEFSAII (Michael W. Deem and Ramdas Pophale) SiO2 
 PCOD9105533
Probable space group: P -1
;
_chemical_formula_sum "Si O2"
_cell_formula_units_Z 13
_cell_length_a 21.289241
_cell_length_b 9.283701
_cell_length_c 6.589867
_cell_angle_alpha 81.540817
_cell_angle_beta 101.339011
_cell_angle_gamma 31.274793
_cell_volume 520.606361
_symmetry_space_group_name_H-M "P -1"
_symmetry_group_IT_number 2
_symmetry_cell_setting 'triclinic'
loop_
_space_group_symop_operation_xyz
x,y,z
-x,-y,-z
loop_
_atom_site_type_symbol
_atom_site_label
_atom_site_fract_x
_atom_site_fract_y
_atom_site_fract_z
Si Si1 0.958209 0.823470 0.052856
Si Si2 0.899519 0.424424 0.208343
Si Si3 0.432807 0.731435 0.721467
Si Si4 0.348716 0.660134 0.438843
Si Si5 0.000000 0.500000 0.500000
Si Si6 0.513696 0.801455 0.019481
Si Si7 0.172095 0.734836 0.781301
O O1 0.977472 0.654776 0.260999
O O2 0.923020 0.038588 0.120382
O O3 0.093258 0.560172 0.028961
O O4 0.805332 0.103719 0.767115
O O5 0.784275 0.526308 0.151134
O O6 0.896506 0.580823 0.297384
O O7 0.060631 0.014563 0.469979
O O8 0.307876 0.885203 0.505189
O O9 0.559711 0.487360 0.675376
O O10 0.500000 0.500000 0.000000
O O11 0.402092 0.950208 0.759248
O O12 0.460871 0.333397 0.723613
O O13 0.685837 0.445504 0.095419
O O14 0.500000 0.000000 0.000000
#
# Coordination Sequence:
#
# PCOD9105533 Si02
#       7
#     2   2   2   2   1   2   2
#     4  11  20  40  67  87 123 159 206 249 311 363
#     4  10  21  41  62  90 123 157 209 245 312 369
#     4   9  20  39  61  87 118 160 211 244 297 363
#     4  10  20  39  65  86 117 168 200 245 310 364
#     4  10  24  38  60  92 124 150 204 262 292 362
#     4  11  22  40  60  92 129 156 205 258 299 359
#     4  10  21  39  63  88 120 169 199 250 306 367
#
# _framework density 24.970882
#
# number of rings (size 3 to 8) (size 9 to 14) (size 15 to 20)
#    0.000    1.846    3.077    0.923    0.000    0.615 
#   11.077    0.000    0.000    0.000    0.000    0.000 
#    0.000    0.000    0.000    0.000    0.000    0.000 
#
# Total GULP energy -72399.676100 kJ/mol
# GULP energy per Si atom -5569.205854 kJ/mol
# Density = 2.491405 g / cm^3
# Si number density = 24.970882 Si / 1000 Ang^3
#
#
#
# Elastic Constant Matrix: (Units=GPa)
#
#
# Indices 1 2 3 4 5 6 
#
# 1 123.4369 37.1047 41.0891 30.1138 -3.7463 38.6568
# 2 37.1047 66.2376 43.8631 22.1895 -1.1087 27.4419
# 3 41.0891 43.8631 125.4936 36.9661 -10.0709 20.0926
# 4 30.1138 22.1895 36.9661 37.3558 6.6218 7.5269
# 5 -3.7463 -1.1087 -10.0709 6.6218 41.6081 11.3165
# 6 38.6568 27.4419 20.0926 7.5269 11.3165 37.0187
#
#
#
# Elastic Compliance Matrix: (Units=1/GPa)
#
#
# Indices 1 2 3 4 5 6 
#
# 1 0.017302 0.003271 0.002040 -0.015400 0.010484 -0.021673
# 2 0.003271 0.030114 -0.002643 -0.014698 0.009373 -0.024181
# 3 0.002040 -0.002643 0.014141 -0.013956 0.007764 -0.007381
# 4 -0.015400 -0.014698 -0.013956 0.059835 -0.022651 0.029310
# 5 0.010484 0.009373 0.007764 -0.022651 0.038689 -0.029332
# 6 -0.021673 -0.024181 -0.007381 0.029310 -0.029332 0.074584
#
#
# Mechanical properties :
#
#
# Convention : Reuss Voigt Hill
#
# Bulk Modulus (GPa) = 14.94978 62.14244 38.54611
# Shear Modulus (GPa) = 19.87066 36.07060 27.97063
#
# Velocity S-wave (km/s) = 2.82397 3.80479 3.35047
# Velocity P-wave (km/s) = 4.07835 6.65146 5.51701
#
# Compressibility (1/GPa) = 0.06689062
#
# Stress axis : x y z
#
# Youngs Moduli (GPa) = 57.79806 33.20686 70.71868
#
# Poissons Ratio (x) = -0.10861 -0.14423
# Poissons Ratio (y) = -0.18904 0.18692
# Poissons Ratio (z) = -0.11788 0.08777
#
# Static dielectric constant tensor:
#      x y z
#    x 2.075400 -0.075230 0.043530 
#    y -0.075230 2.078340 -0.017070 
#    z 0.043530 -0.017070 1.896770 
# 
# From -- ./inp_files/19640.got.cif
#   From: 2010.05.17/outbox.cif.g08.bks.cpg/sg2_10_cif.got.tgz:19640.got - 2010.06.03 11:33:40.
