data_PCOD9105435
_publ_section_title
;
Structure prediction by ZEFSAII (Michael W. Deem and Ramdas Pophale) SiO2 
 PCOD9105435
Probable space group: P -1
;
_chemical_formula_sum "Si O2"
_cell_formula_units_Z 14
_cell_length_a 13.544945
_cell_length_b 8.415634
_cell_length_c 7.688996
_cell_angle_alpha 84.804989
_cell_angle_beta 135.552564
_cell_angle_gamma 95.908423
_cell_volume 610.303932
_symmetry_space_group_name_H-M "P -1"
_symmetry_group_IT_number 2
_symmetry_cell_setting 'triclinic'
loop_
_space_group_symop_operation_xyz
x,y,z
-x,-y,-z
loop_
_atom_site_type_symbol
_atom_site_label
_atom_site_fract_x
_atom_site_fract_y
_atom_site_fract_z
Si Si1 0.039120 0.155193 0.416266
Si Si2 0.381094 0.434637 0.489266
Si Si3 0.792764 0.074368 0.538444
Si Si4 0.253391 0.729752 0.893734
Si Si5 0.462383 0.104810 0.604471
Si Si6 0.252653 0.437582 0.697869
Si Si7 0.123746 0.611733 0.220280
O O1 0.166790 0.270478 0.644420
O O2 0.896542 0.248878 0.199576
O O3 0.110273 0.075179 0.348158
O O4 0.000000 0.000000 0.500000
O O5 0.500000 0.500000 0.500000
O O6 0.362639 0.251014 0.427558
O O7 0.373076 0.425290 0.697143
O O8 0.260283 0.556860 0.295888
O O9 0.774064 0.170815 0.326811
O O10 0.862265 0.199777 0.751382
O O11 0.633736 0.012433 0.385936
O O12 0.286488 0.549137 0.895040
O O13 0.392713 0.814068 0.145909
O O14 0.500000 0.000000 0.500000
O O15 0.140035 0.537776 0.441319
O O16 0.000000 0.500000 0.000000
#
# Coordination Sequence:
#
# PCOD9105435 Si02
#       7
#     2   2   2   2   2   2   2
#     4  10  20  39  64  95 124 156 208 265 312 362
#     4  10  22  42  61  92 129 165 207 253 311 376
#     4  10  20  43  63  93 129 160 207 268 308 371
#     4  10  23  40  66  91 124 170 211 252 316 380
#     4  12  25  41  62  93 129 167 209 261 316 371
#     4   9  20  41  65  90 128 161 212 256 310 370
#     4   9  20  38  65  89 123 165 206 249 314 370
#
# _framework density 22.93939
#
# number of rings (size 3 to 8) (size 9 to 14) (size 15 to 20)
#    0.857    1.143    1.429    1.714    0.000    4.000 
#    0.000    3.571    0.000    0.000    0.000    0.000 
#    0.000    0.000    0.000    0.000    0.000    0.000 
#
# Total GULP energy -77939.630148 kJ/mol
# GULP energy per Si atom -5567.116439 kJ/mol
# Density = 2.288718 g / cm^3
# Si number density = 22.939390 Si / 1000 Ang^3
#
#
#
# Elastic Constant Matrix: (Units=GPa)
#
#
# Indices 1 2 3 4 5 6 
#
# 1 167.5863 76.6141 52.6907 37.4457 23.9632 -20.6654
# 2 76.6141 134.4561 44.7797 45.9315 2.2020 -23.7633
# 3 52.6907 44.7797 94.7373 45.0406 2.7658 -10.7772
# 4 37.4457 45.9315 45.0406 46.3821 0.8394 -7.0802
# 5 23.9632 2.2020 2.7658 0.8394 28.3544 8.0506
# 6 -20.6654 -23.7633 -10.7772 -7.0802 8.0506 51.7222
#
#
#
# Elastic Compliance Matrix: (Units=1/GPa)
#
#
# Indices 1 2 3 4 5 6 
#
# 1 0.010682 -0.004012 -0.002813 -0.001276 -0.009287 0.003109
# 2 -0.004012 0.013589 0.001417 -0.011141 0.001631 0.003156
# 3 -0.002813 0.001417 0.020572 -0.018943 0.000497 0.001143
# 4 -0.001276 -0.011141 -0.018943 0.051502 0.003122 -0.003012
# 5 -0.009287 0.001631 0.000497 0.003122 0.045552 -0.009520
# 6 0.003109 0.003156 0.001143 -0.003012 -0.009520 0.023334
#
#
# Mechanical properties :
#
#
# Convention : Reuss Voigt Hill
#
# Bulk Modulus (GPa) = 29.38956 82.77209 56.08082
# Shear Modulus (GPa) = 26.68203 40.13807 33.41005
#
# Velocity S-wave (km/s) = 3.41420 4.18753 3.82049
# Velocity P-wave (km/s) = 5.32748 7.71634 6.63038
#
# Compressibility (1/GPa) = 0.03402569
#
# Stress axis : x y z
#
# Youngs Moduli (GPa) = 93.61162 73.59004 48.60928
#
# Poissons Ratio (x) = 0.29527 0.13674
# Poissons Ratio (y) = 0.37561 -0.06886
# Poissons Ratio (z) = 0.26334 -0.10425
#
# Static dielectric constant tensor:
#      x y z
#    x 0.968610 -0.703210 -0.828110 
#    y -0.703210 1.373290 -0.620990 
#    z -0.828110 -0.620990 1.230100 
# 
# From -- ./inp_files/295348.got.cif
#   From: 2010.05.17/outbox.cif.g08.bks.cpg/sg2_148_cif.got.tgz:295348.got - 2010.06.03 11:33:40.
