data_PCOD9105232
_publ_section_title
;
Structure prediction by ZEFSAII (Michael W. Deem and Ramdas Pophale) SiO2 
 PCOD9105232
Probable space group: P -1
;
_chemical_formula_sum "Si O2"
_cell_formula_units_Z 14
_cell_length_a 11.160625
_cell_length_b 9.840075
_cell_length_c 14.632567
_cell_angle_alpha 152.286818
_cell_angle_beta 66.820899
_cell_angle_gamma 120.752055
_cell_volume 635.181028
_symmetry_space_group_name_H-M "P -1"
_symmetry_group_IT_number 2
_symmetry_cell_setting 'triclinic'
loop_
_space_group_symop_operation_xyz
x,y,z
-x,-y,-z
loop_
_atom_site_type_symbol
_atom_site_label
_atom_site_fract_x
_atom_site_fract_y
_atom_site_fract_z
Si Si1 0.898305 0.146482 0.353100
Si Si2 0.406650 0.852297 0.528806
Si Si3 0.357506 0.181715 0.069041
Si Si4 0.405967 0.030864 0.156088
Si Si5 0.126315 0.226109 0.035925
Si Si6 0.621566 0.760052 0.526714
Si Si7 0.886904 0.084176 0.527146
O O1 0.732846 0.089231 0.374127
O O2 0.931216 0.087246 0.410921
O O3 0.000000 0.500000 0.500000
O O4 0.906797 0.895157 0.128856
O O5 0.353431 0.486359 0.302062
O O6 0.509680 0.910034 0.617967
O O7 0.500000 0.000000 0.500000
O O8 0.330691 0.963857 0.039492
O O9 0.257366 0.153493 0.995888
O O10 0.510094 0.202453 0.001194
O O11 0.534645 0.382516 0.331561
O O12 0.318918 0.071238 0.293793
O O13 0.131215 0.580247 0.253717
O O14 0.000000 0.000000 0.000000
O O15 0.737192 0.834925 0.458028
O O16 0.000000 0.000000 0.500000
#
# Coordination Sequence:
#
# PCOD9105232 Si02
#       7
#     2   2   2   2   2   2   2
#     4  12  25  47  75 104 140 190 231 288 359 423
#     4  11  20  39  69  96 136 175 225 292 341 406
#     4  10  20  39  64 101 134 175 237 275 342 426
#     4   9  21  37  67  99 136 185 215 291 355 423
#     4  12  25  45  72  99 137 192 238 281 351 429
#     4  10  21  41  64  98 141 180 229 286 358 402
#     4  12  28  47  68 104 143 181 238 303 346 418
#
# _framework density 22.040962
#
# number of rings (size 3 to 8) (size 9 to 14) (size 15 to 20)
#    0.000    1.143    4.286    0.857    2.000    6.286 
#    2.571    2.857    0.000    0.000    0.000    0.000 
#    0.000    0.000    0.000    0.000    0.000    0.000 
#
# Total GULP energy -78048.771351 kJ/mol
# GULP energy per Si atom -5574.912239 kJ/mol
# Density = 2.199080 g / cm^3
# Si number density = 22.040962 Si / 1000 Ang^3
#
#
#
# Elastic Constant Matrix: (Units=GPa)
#
#
# Indices 1 2 3 4 5 6 
#
# 1 97.6247 34.4077 3.8716 6.5030 -8.3116 -21.3578
# 2 34.4077 128.4712 31.1437 -25.7236 3.9498 -10.4914
# 3 3.8716 31.1437 65.2647 -26.9611 -4.4214 -12.6625
# 4 6.5030 -25.7236 -26.9611 41.2734 -3.1087 9.9376
# 5 -8.3116 3.9498 -4.4214 -3.1087 22.3785 -3.7917
# 6 -21.3578 -10.4914 -12.6625 9.9376 -3.7917 39.9552
#
#
#
# Elastic Compliance Matrix: (Units=1/GPa)
#
#
# Indices 1 2 3 4 5 6 
#
# 1 0.015127 -0.005098 0.001189 -0.006498 0.007451 0.009447
# 2 -0.005098 0.011037 -0.003371 0.005826 -0.004162 -0.002740
# 3 0.001189 -0.003371 0.023547 0.012541 0.008257 0.004877
# 4 -0.006498 0.005826 0.012541 0.039097 0.003215 -0.007388
# 5 0.007451 -0.004162 0.008257 0.003215 0.051898 0.009632
# 6 0.009447 -0.002740 0.004877 -0.007388 0.009632 0.033656
#
#
# Mechanical properties :
#
#
# Convention : Reuss Voigt Hill
#
# Bulk Modulus (GPa) = 28.44927 47.80073 38.12500
# Shear Modulus (GPa) = 24.92037 35.51726 30.21882
#
# Velocity S-wave (km/s) = 3.36615 4.01861 3.70676
# Velocity P-wave (km/s) = 5.29560 6.57773 5.97118
#
# Compressibility (1/GPa) = 0.03515029
#
# Stress axis : x y z
#
# Youngs Moduli (GPa) = 66.10657 90.60161 42.46899
#
# Poissons Ratio (x) = 0.46191 -0.05050
# Poissons Ratio (y) = 0.33703 0.14317
# Poissons Ratio (z) = -0.07860 0.30543
#
# Static dielectric constant tensor:
#      x y z
#    x 2.122760 -0.154420 -0.161700 
#    y -0.154420 1.908460 0.037080 
#    z -0.161700 0.037080 1.854110 
# 
# From -- ./inp_files/516460.got.cif
#   From: 2010.05.17/outbox.cif.g08.bks.cpg/sg2_259_cif.got.tgz:516460.got - 2010.06.03 11:33:40.
