data_PCOD9105479
_publ_section_title
;
Structure prediction by ZEFSAII (Michael W. Deem and Ramdas Pophale) SiO2 
 PCOD9105479
Probable space group: P -1
;
_chemical_formula_sum "Si O2"
_cell_formula_units_Z 12
_cell_length_a 12.113084
_cell_length_b 9.253127
_cell_length_c 9.540349
_cell_angle_alpha 30.329910
_cell_angle_beta 87.357114
_cell_angle_gamma 83.069268
_cell_volume 532.431987
_symmetry_space_group_name_H-M "P -1"
_symmetry_group_IT_number 2
_symmetry_cell_setting 'triclinic'
loop_
_space_group_symop_operation_xyz
x,y,z
-x,-y,-z
loop_
_atom_site_type_symbol
_atom_site_label
_atom_site_fract_x
_atom_site_fract_y
_atom_site_fract_z
Si Si1 0.612030 0.361945 0.800955
Si Si2 0.908524 0.674414 0.177899
Si Si3 0.284282 0.490481 0.825916
Si Si4 0.406341 0.839936 0.332417
Si Si5 0.421957 0.804921 0.752079
Si Si6 0.856435 0.317610 0.749423
O O1 0.518163 0.649239 0.551855
O O2 0.735873 0.441832 0.714808
O O3 0.607323 0.173310 0.099439
O O4 0.589656 0.178560 0.819364
O O5 0.840425 0.578166 0.130609
O O6 0.889530 0.474972 0.477180
O O7 0.040911 0.676048 0.154086
O O8 0.854952 0.991116 0.971265
O O9 0.316683 0.640837 0.555163
O O10 0.313673 0.726859 0.738809
O O11 0.363163 0.173383 0.099640
O O12 0.500000 0.000000 0.500000
O O13 0.500000 0.500000 0.000000
#
# Coordination Sequence:
#
# PCOD9105479 Si02
#       6
#     2   2   2   2   2   2
#     4  11  24  44  65  99 137 168 226 269 331 384
#     4  10  20  39  64  97 127 169 217 269 330 381
#     4  12  22  44  63  98 133 173 220 261 340 388
#     4  11  25  38  69  96 131 171 218 283 315 393
#     4  12  28  44  62  92 140 182 211 266 337 401
#     4  10  21  38  66  93 130 169 216 275 322 379
#
# _framework density 22.538091000000001
#
# number of rings (size 3 to 8) (size 9 to 14) (size 15 to 20)
#    0.000    1.000    5.000    1.000    0.000    6.667 
#    0.000    0.833    0.000    0.000    0.000   11.667 
#    0.000    0.167    0.000    0.000    0.000    0.000 
#
# Total GULP energy -66940.341173 kJ/mol
# GULP energy per Si atom -5578.361764 kJ/mol
# Density = 2.248679 g / cm^3
# Si number density = 22.538091 Si / 1000 Ang^3
#
#
#
# Elastic Constant Matrix: (Units=GPa)
#
#
# Indices 1 2 3 4 5 6 
#
# 1 165.5306 33.2780 20.1862 5.3676 -1.2996 39.3704
# 2 33.2780 99.1128 34.9140 26.7873 -0.1469 34.6279
# 3 20.1862 34.9140 179.4462 -4.1458 -17.8646 3.9929
# 4 5.3676 26.7873 -4.1458 34.1426 1.8701 -1.0666
# 5 -1.2996 -0.1469 -17.8646 1.8701 28.7850 -0.0429
# 6 39.3704 34.6279 3.9929 -1.0666 -0.0429 37.8901
#
#
#
# Elastic Compliance Matrix: (Units=1/GPa)
#
#
# Indices 1 2 3 4 5 6 
#
# 1 0.008439 0.002489 -0.001294 -0.003770 -0.000181 -0.011013
# 2 0.002489 0.027001 -0.005636 -0.023015 -0.001793 -0.027319
# 3 -0.001294 -0.005636 0.007212 0.005464 0.004043 0.005893
# 4 -0.003770 -0.023015 0.005464 0.049411 -0.000069 0.025767
# 5 -0.000181 -0.001793 0.004043 -0.000069 0.037239 0.001440
# 6 -0.011013 -0.027319 0.005893 0.025767 0.001440 0.062908
#
#
# Mechanical properties :
#
#
# Convention : Reuss Voigt Hill
#
# Bulk Modulus (GPa) = 29.61096 68.98288 49.29692
# Shear Modulus (GPa) = 23.54620 43.87763 33.71192
#
# Velocity S-wave (km/s) = 3.23573 4.41707 3.87172
# Velocity P-wave (km/s) = 5.20833 7.52912 6.47357
#
# Compressibility (1/GPa) = 0.03377128
#
# Stress axis : x y z
#
# Youngs Moduli (GPa) = 118.50020 37.03501 138.65136
#
# Poissons Ratio (x) = -0.09217 0.17935
# Poissons Ratio (y) = -0.29492 0.78142
# Poissons Ratio (z) = 0.15329 0.20872
#
# Static dielectric constant tensor:
#      x y z
#    x 1.972130 0.060500 -0.067700 
#    y 0.060500 1.946990 -0.101490 
#    z -0.067700 -0.101490 1.568680 
# 
# From -- ./inp_files/420240.got.cif
#   From: 2010.05.17/outbox.cif.g08.bks.cpg/sg2_211_cif.got.tgz:420240.got - 2010.06.03 11:33:40.
