data_PCOD9105646
_publ_section_title
;
Structure prediction by ZEFSAII (Michael W. Deem and Ramdas Pophale) SiO2 
 PCOD9105646
Probable space group: P -1
;
_chemical_formula_sum "Si O2"
_cell_formula_units_Z 16
_cell_length_a 24.766650
_cell_length_b 5.938182
_cell_length_c 5.686195
_cell_angle_alpha 104.545422
_cell_angle_beta 93.380765
_cell_angle_gamma 54.351313
_cell_volume 653.697773
_symmetry_space_group_name_H-M "P -1"
_symmetry_group_IT_number 2
_symmetry_cell_setting 'triclinic'
loop_
_space_group_symop_operation_xyz
x,y,z
-x,-y,-z
loop_
_atom_site_type_symbol
_atom_site_label
_atom_site_fract_x
_atom_site_fract_y
_atom_site_fract_z
Si Si1 0.990413 0.745467 0.377893
Si Si2 0.347314 0.853288 0.370395
Si Si3 0.762571 0.553609 0.698433
Si Si4 0.867073 0.649731 0.833620
Si Si5 0.843823 0.948613 0.387767
Si Si6 0.652881 0.646297 0.021713
Si Si7 0.543529 0.085808 0.804523
Si Si8 0.409083 0.430359 0.643091
O O1 0.912769 0.913189 0.341399
O O2 0.000000 0.500000 0.500000
O O3 0.052749 0.549262 0.166035
O O4 0.000000 0.000000 0.500000
O O5 0.342784 0.619578 0.170070
O O6 0.408843 0.850271 0.292547
O O7 0.367276 0.745617 0.612413
O O8 0.278871 0.161261 0.394345
O O9 0.833574 0.482060 0.767184
O O10 0.714679 0.627570 0.927658
O O11 0.780989 0.272539 0.497582
O O12 0.853623 0.796740 0.607512
O O13 0.834414 0.835969 0.110712
O O14 0.581684 0.946180 0.019961
O O15 0.645040 0.611244 0.280851
O O16 0.466969 0.350048 0.821001
O O17 0.552588 0.808803 0.612187
#
# Coordination Sequence:
#
# PCOD9105646 Si02
#       8
#     2   2   2   2   2   2   2   2
#     4  10  21  46  82 118 161 200 261 330 392 455
#     4  10  22  41  59  93 129 175 231 289 366 436
#     4  11  24  48  64  98 146 194 245 298 371 446
#     4  11  25  49  75 112 148 202 250 314 376 452
#     4  11  25  49  74 114 150 198 255 311 377 454
#     4  10  22  41  60  95 129 176 232 290 361 443
#     4   9  20  38  63  93 128 166 219 294 367 437
#     4  10  20  39  65  93 125 169 228 290 363 438
#
# _framework density 24.476144000000001
#
# number of rings (size 3 to 8) (size 9 to 14) (size 15 to 20)
#    0.000    1.750    1.250    1.875    0.000    3.500 
#   29.250    2.500    0.000    0.000    0.000    0.000 
#    0.000    0.000    0.000    0.000    0.000    0.000 
#
# Total GULP energy -89299.350855 kJ/mol
# GULP energy per Si atom -5581.209428 kJ/mol
# Density = 2.442044 g / cm^3
# Si number density = 24.476144 Si / 1000 Ang^3
#
#
#
# Elastic Constant Matrix: (Units=GPa)
#
#
# Indices 1 2 3 4 5 6 
#
# 1 108.8190 8.3925 8.5152 -11.8227 -8.9347 -8.1117
# 2 8.3925 84.0826 23.1844 -0.5724 -16.8680 -3.9599
# 3 8.5152 23.1844 96.4727 13.9410 -8.5571 2.3354
# 4 -11.8227 -0.5724 13.9410 35.0782 9.2979 -6.7043
# 5 -8.9347 -16.8680 -8.5571 9.2979 28.0569 10.9548
# 6 -8.1117 -3.9599 2.3354 -6.7043 10.9548 38.1386
#
#
#
# Elastic Compliance Matrix: (Units=1/GPa)
#
#
# Indices 1 2 3 4 5 6 
#
# 1 0.010060 -0.000459 -0.001555 0.004674 -0.000304 0.003096
# 2 -0.000459 0.014268 -0.002367 -0.001523 0.008698 -0.001237
# 3 -0.001555 -0.002367 0.012998 -0.008418 0.006701 -0.004777
# 4 0.004674 -0.001523 -0.008418 0.042044 -0.021785 0.014999
# 5 -0.000304 0.008698 0.006701 -0.021785 0.057854 -0.020019
# 6 0.003096 -0.001237 -0.004777 0.014999 -0.020019 0.035430
#
#
# Mechanical properties :
#
#
# Convention : Reuss Voigt Hill
#
# Bulk Modulus (GPa) = 35.00799 41.06204 38.03502
# Shear Modulus (GPa) = 26.18673 36.87356 31.53015
#
# Velocity S-wave (km/s) = 3.27446 3.88559 3.59304
# Velocity P-wave (km/s) = 5.35071 6.07809 5.72596
#
# Compressibility (1/GPa) = 0.02856491
#
# Stress axis : x y z
#
# Youngs Moduli (GPa) = 99.40143 70.08836 76.93455
#
# Poissons Ratio (x) = 0.03215 0.11963
# Poissons Ratio (y) = 0.04560 0.18209
# Poissons Ratio (z) = 0.15457 0.16588
#
# Static dielectric constant tensor:
#      x y z
#    x 1.957800 0.031040 0.077930 
#    y 0.031040 1.993080 -0.046370 
#    z 0.077930 -0.046370 2.092420 
# 
# From -- ./inp_files/10552.got.cif
#   From: 2010.05.17/outbox.cif.g08.bks.cpg/sg2_6_cif.got.tgz:10552.got - 2010.06.03 11:33:40.
