data_PCOD9105545
_publ_section_title
;
Structure prediction by ZEFSAII (Michael W. Deem and Ramdas Pophale) SiO2 
 PCOD9105545
Probable space group: P -1
;
_chemical_formula_sum "Si O2"
_cell_formula_units_Z 16
_cell_length_a 21.441308
_cell_length_b 18.520766
_cell_length_c 6.755700
_cell_angle_alpha 61.406969
_cell_angle_beta 65.065087
_cell_angle_gamma 17.799926
_cell_volume 714.252743
_symmetry_space_group_name_H-M "P -1"
_symmetry_group_IT_number 2
_symmetry_cell_setting 'triclinic'
loop_
_space_group_symop_operation_xyz
x,y,z
-x,-y,-z
loop_
_atom_site_type_symbol
_atom_site_label
_atom_site_fract_x
_atom_site_fract_y
_atom_site_fract_z
Si Si1 0.075943 0.833917 0.730891
Si Si2 0.598945 0.646707 0.615265
Si Si3 0.411001 0.499652 0.961417
Si Si4 0.034282 0.735281 0.625541
Si Si5 0.257890 0.366004 0.365926
Si Si6 0.858014 0.785512 0.614550
Si Si7 0.622754 0.886521 0.790631
Si Si8 0.177872 0.917367 0.886040
O O1 0.319678 0.566960 0.793101
O O2 0.015295 0.818532 0.723165
O O3 0.000000 0.000000 0.500000
O O4 0.982959 0.941312 0.934589
O O5 0.699321 0.584843 0.744274
O O6 0.725895 0.536936 0.401736
O O7 0.357476 0.934312 0.541963
O O8 0.635262 0.510115 0.782367
O O9 0.304881 0.706632 0.869657
O O10 0.654524 0.232203 0.995250
O O11 0.937062 0.753962 0.730754
O O12 0.924802 0.904323 0.363181
O O13 0.277585 0.302203 0.210930
O O14 0.042797 0.585191 0.470831
O O15 0.447254 0.119578 0.571105
O O16 0.793340 0.764158 0.766939
O O17 0.500000 0.000000 0.000000
#
# Coordination Sequence:
#
# PCOD9105545 Si02
#       8
#     2   2   2   2   2   2   2   2
#     4  12  24  39  61  90 123 168 216 270 320 368
#     4  10  20  39  65  87 126 168 207 257 315 367
#     4  11  22  40  63  89 122 167 215 266 313 370
#     4  11  22  41  62  91 127 165 217 263 317 373
#     4   9  21  41  65  95 127 162 207 252 311 376
#     4  10  21  41  66  94 130 169 203 264 313 375
#     4  10  21  42  69  97 125 163 204 250 317 383
#     4  11  23  41  63  88 120 169 220 262 320 370
#
# _framework density 22.401033000000002
#
# number of rings (size 3 to 8) (size 9 to 14) (size 15 to 20)
#    0.000    1.500    3.750    1.500    0.000    2.000 
#    9.000    0.000    0.000    0.000    0.000    0.000 
#    0.000    0.000    0.000    0.000    0.000    0.000 
#
# Total GULP energy -89357.517207 kJ/mol
# GULP energy per Si atom -5584.844825 kJ/mol
# Density = 2.235005 g / cm^3
# Si number density = 22.401033 Si / 1000 Ang^3
#
#
#
# Elastic Constant Matrix: (Units=GPa)
#
#
# Indices 1 2 3 4 5 6 
#
# 1 128.0399 31.4261 14.3282 15.4165 15.4452 -11.1210
# 2 31.4261 91.9134 4.4359 8.7115 11.5588 -18.9327
# 3 14.3282 4.4359 37.4460 -1.2025 13.5550 -5.1814
# 4 15.4165 8.7115 -1.2025 23.7756 -3.1112 5.1883
# 5 15.4452 11.5588 13.5550 -3.1112 28.4369 2.7467
# 6 -11.1210 -18.9327 -5.1814 5.1883 2.7467 46.4038
#
#
#
# Elastic Compliance Matrix: (Units=1/GPa)
#
#
# Indices 1 2 3 4 5 6 
#
# 1 0.010110 -0.001452 -0.001675 -0.007392 -0.005179 0.002777
# 2 -0.001452 0.014267 0.002331 -0.006663 -0.007520 0.006923
# 3 -0.001675 0.002331 0.033896 -0.001464 -0.016886 0.005498
# 4 -0.007392 -0.006663 -0.001464 0.053614 0.014397 -0.011500
# 5 -0.005179 -0.007520 -0.016886 0.014397 0.051709 -0.010865
# 6 0.002777 0.006923 0.005498 -0.011500 -0.010865 0.027583
#
#
# Mechanical properties :
#
#
# Convention : Reuss Voigt Hill
#
# Bulk Modulus (GPa) = 17.64209 39.75331 28.69770
# Shear Modulus (GPa) = 23.62248 33.53720 28.57984
#
# Velocity S-wave (km/s) = 3.25087 3.87347 3.57575
# Velocity P-wave (km/s) = 4.68866 6.14734 5.46687
#
# Compressibility (1/GPa) = 0.05668262
#
# Stress axis : x y z
#
# Youngs Moduli (GPa) = 98.91420 70.09211 29.50189
#
# Poissons Ratio (x) = 0.10177 0.04941
# Poissons Ratio (y) = 0.14362 -0.06878
# Poissons Ratio (z) = 0.16565 -0.16342
#
# Static dielectric constant tensor:
#      x y z
#    x 1.896740 -0.008140 -0.005090 
#    y -0.008140 1.837680 -0.020770 
#    z -0.005090 -0.020770 1.803170 
# 
# From -- ./inp_files/120009.got.cif
#   From: 2010.05.17/outbox.cif.g08.bks.cpg/sg2_61_cif.got.tgz:120009.got - 2010.06.03 11:33:40.
