data_PCOD9105838
_publ_section_title
;
Structure prediction by ZEFSAII (Michael W. Deem and Ramdas Pophale) SiO2 
 PCOD9105838
Probable space group: P -1
;
_chemical_formula_sum "Si O2"
_cell_formula_units_Z 14
_cell_length_a 8.707857
_cell_length_b 24.135919
_cell_length_c 8.809009
_cell_angle_alpha 140.502284
_cell_angle_beta 71.751897
_cell_angle_gamma 137.442055
_cell_volume 641.074956
_symmetry_space_group_name_H-M "P -1"
_symmetry_group_IT_number 2
_symmetry_cell_setting 'triclinic'
loop_
_space_group_symop_operation_xyz
x,y,z
-x,-y,-z
loop_
_atom_site_type_symbol
_atom_site_label
_atom_site_fract_x
_atom_site_fract_y
_atom_site_fract_z
Si Si1 0.099320 0.111379 0.079674
Si Si2 0.628237 0.489073 0.058194
Si Si3 0.748477 0.763092 0.112986
Si Si4 0.135003 0.691953 0.818262
Si Si5 0.061034 0.259637 0.256226
Si Si6 0.736418 0.437539 0.638919
Si Si7 0.678640 0.905656 0.295328
O O1 0.924431 0.118197 0.092118
O O2 0.399310 0.282908 0.401025
O O3 0.152024 0.074390 0.840832
O O4 0.000000 0.000000 0.000000
O O5 0.811475 0.619696 0.403008
O O6 0.500000 0.500000 0.000000
O O7 0.379460 0.334230 0.903128
O O8 0.795905 0.494667 0.912101
O O9 0.610783 0.797842 0.205525
O O10 0.709446 0.685842 0.812387
O O11 0.087576 0.925016 0.359481
O O12 0.156724 0.610710 0.546256
O O13 0.115627 0.760031 0.847172
O O14 0.871096 0.563669 0.742408
O O15 0.404364 0.820166 0.116471
#
# Coordination Sequence:
#
# PCOD9105838 Si02
#       7
#     2   2   2   2   2   2   2
#     4  10  20  39  66  90 124 163 214 262 309 370
#     4  12  23  37  65 100 123 162 217 269 305 364
#     4  10  22  41  69  91 122 167 220 257 308 377
#     4  10  23  42  64  94 132 167 207 255 325 382
#     4  11  24  38  66  96 126 168 209 264 316 373
#     4  10  22  40  65  92 130 173 198 263 315 370
#     4   9  21  41  66  91 120 174 210 253 317 379
#
# _framework density 21.838318000000001
#
# number of rings (size 3 to 8) (size 9 to 14) (size 15 to 20)
#    0.000    1.714    1.429    2.143    8.000    1.143 
#    0.000    2.857    0.000    0.000    0.000    0.000 
#    0.000    0.000    0.000    0.000    0.000    0.000 
#
# Total GULP energy -78153.396858 kJ/mol
# GULP energy per Si atom -5582.385490 kJ/mol
# Density = 2.178861 g / cm^3
# Si number density = 21.838318 Si / 1000 Ang^3
#
#
#
# Elastic Constant Matrix: (Units=GPa)
#
#
# Indices 1 2 3 4 5 6 
#
# 1 136.4154 54.2333 44.8635 19.7883 9.4037 -50.5866
# 2 54.2333 112.6387 50.4593 -5.1584 -4.7376 -36.3151
# 3 44.8635 50.4593 119.1149 -13.5508 9.9854 -10.0197
# 4 19.7883 -5.1584 -13.5508 28.2034 -0.2492 -11.8302
# 5 9.4037 -4.7376 9.9854 -0.2492 28.7627 -2.3408
# 6 -50.5866 -36.3151 -10.0197 -11.8302 -2.3408 42.8080
#
#
#
# Elastic Compliance Matrix: (Units=1/GPa)
#
#
# Indices 1 2 3 4 5 6 
#
# 1 0.016246 -0.001394 -0.004994 -0.007999 -0.002698 0.014489
# 2 -0.001394 0.016964 -0.005156 0.007512 0.006241 0.013955
# 3 -0.004994 -0.005156 0.013062 0.006421 -0.004157 -0.005671
# 4 -0.007999 0.007512 0.006421 0.050861 0.003093 0.012647
# 5 -0.002698 0.006241 -0.004157 0.003093 0.038480 0.004092
# 6 0.014489 0.013955 -0.005671 0.012647 0.004092 0.054712
#
#
# Mechanical properties :
#
#
# Convention : Reuss Voigt Hill
#
# Bulk Modulus (GPa) = 43.13012 74.14239 58.63625
# Shear Modulus (GPa) = 22.60999 34.52903 28.56951
#
# Velocity S-wave (km/s) = 3.22115 3.98065 3.62087
# Velocity P-wave (km/s) = 5.79888 7.42642 6.66253
#
# Compressibility (1/GPa) = 0.02318565
#
# Stress axis : x y z
#
# Youngs Moduli (GPa) = 61.55314 58.94708 76.55572
#
# Poissons Ratio (x) = 0.08215 0.38229
# Poissons Ratio (y) = 0.08578 0.39474
# Poissons Ratio (z) = 0.30738 0.30395
#
# Static dielectric constant tensor:
#      x y z
#    x 1.885600 -0.016740 -0.026280 
#    y -0.016740 1.807440 -0.002050 
#    z -0.026280 -0.002050 1.854680 
# 
# From -- ./inp_files/190650.got.cif
#   From: 2010.05.17/outbox.cif.g08.bks.cpg/sg2_96_cif.got.tgz:190650.got - 2010.06.03 11:33:40.
