data_PCOD9105831
_publ_section_title
;
Structure prediction by ZEFSAII (Michael W. Deem and Ramdas Pophale) SiO2 
 PCOD9105831
Probable space group: P -1
;
_chemical_formula_sum "Si O2"
_cell_formula_units_Z 14
_cell_length_a 6.938859
_cell_length_b 7.811559
_cell_length_c 11.428328
_cell_angle_alpha 98.416577
_cell_angle_beta 101.788562
_cell_angle_gamma 60.180916
_cell_volume 525.370231
_symmetry_space_group_name_H-M "P -1"
_symmetry_group_IT_number 2
_symmetry_cell_setting 'triclinic'
loop_
_space_group_symop_operation_xyz
x,y,z
-x,-y,-z
loop_
_atom_site_type_symbol
_atom_site_label
_atom_site_fract_x
_atom_site_fract_y
_atom_site_fract_z
Si Si1 0.732721 0.307525 0.035629
Si Si2 0.331825 0.973161 0.832311
Si Si3 0.623161 0.624492 0.695072
Si Si4 0.809776 0.428444 0.299854
Si Si5 0.003765 0.354569 0.886550
Si Si6 0.059384 0.015616 0.375712
Si Si7 0.555181 0.780344 0.445206
O O1 0.679515 0.143803 0.067442
O O2 0.841561 0.373413 0.161962
O O3 0.500000 0.500000 0.000000
O O4 0.882272 0.248610 0.932243
O O5 0.551702 0.834766 0.771753
O O6 0.123149 0.002245 0.727851
O O7 0.260055 0.195501 0.876382
O O8 0.418189 0.583441 0.698933
O O9 0.851591 0.466160 0.767401
O O10 0.612376 0.652050 0.557985
O O11 0.747355 0.643387 0.363527
O O12 0.012148 0.240211 0.369925
O O13 0.000000 0.500000 0.000000
O O14 0.309463 0.842345 0.368044
O O15 0.000000 0.000000 0.500000
O O16 0.500000 0.000000 0.500000
#
# Coordination Sequence:
#
# PCOD9105831 Si02
#       7
#     2   2   2   2   2   2   2
#     4  10  20  44  63  90 120 163 215 246 297 366
#     4  10  22  40  69  89 121 166 210 252 298 370
#     4  10  22  42  62  93 121 165 214 245 307 369
#     4  10  22  40  69  87 124 167 206 252 296 374
#     4  12  25  40  64  94 127 162 203 260 312 361
#     4  10  20  39  66  90 115 164 212 239 299 375
#     4  12  25  39  62  98 130 157 198 262 319 358
#
# _framework density 26.647873000000001
#
# number of rings (size 3 to 8) (size 9 to 14) (size 15 to 20)
#    0.000    1.714    5.714    1.714    2.000    4.571 
#    2.571    0.000    0.000    0.000    0.000    0.000 
#    0.000    0.000    0.000    0.000    0.000    0.000 
#
# Total GULP energy -78419.778053 kJ/mol
# GULP energy per Si atom -5601.412718 kJ/mol
# Density = 2.658722 g / cm^3
# Si number density = 26.647873 Si / 1000 Ang^3
#
#
#
# Elastic Constant Matrix: (Units=GPa)
#
#
# Indices 1 2 3 4 5 6 
#
# 1 63.3238 10.3239 32.1635 -12.9172 -0.3686 -16.5255
# 2 10.3239 190.2986 71.4706 -3.6246 -4.4132 -39.0658
# 3 32.1635 71.4706 137.9806 -35.6948 -13.4564 -10.7473
# 4 -12.9172 -3.6246 -35.6948 57.8880 -1.8494 2.4210
# 5 -0.3686 -4.4132 -13.4564 -1.8494 43.5250 6.7342
# 6 -16.5255 -39.0658 -10.7473 2.4210 6.7342 37.0042
#
#
#
# Elastic Compliance Matrix: (Units=1/GPa)
#
#
# Indices 1 2 3 4 5 6 
#
# 1 0.021578 0.003530 -0.006041 0.000702 -0.003175 0.012141
# 2 0.003530 0.009217 -0.005736 -0.002682 -0.002512 0.010274
# 3 -0.006041 -0.005736 0.013415 0.006975 0.004767 -0.006181
# 4 0.000702 -0.002682 0.006975 0.021771 0.003202 -0.002499
# 5 -0.003175 -0.002512 0.004767 0.003202 0.025469 -0.007530
# 6 0.012141 0.010274 -0.006181 -0.002499 -0.007530 0.043031
#
#
# Mechanical properties :
#
#
# Convention : Reuss Voigt Hill
#
# Bulk Modulus (GPa) = 36.07955 68.83543 52.45749
# Shear Modulus (GPa) = 31.20852 46.19309 38.70081
#
# Velocity S-wave (km/s) = 3.42591 4.16800 3.81504
# Velocity P-wave (km/s) = 5.40536 7.00361 6.25574
#
# Compressibility (1/GPa) = 0.02771653
#
# Stress axis : x y z
#
# Youngs Moduli (GPa) = 46.34446 108.49006 74.54613
#
# Poissons Ratio (x) = -0.38299 0.45032
# Poissons Ratio (y) = -0.16360 0.42759
# Poissons Ratio (z) = 0.27996 0.62228
#
# Static dielectric constant tensor:
#      x y z
#    x 2.185500 0.140970 0.014700 
#    y 0.140970 2.189700 0.070400 
#    z 0.014700 0.070400 2.072360 
# 
# From -- ./inp_files/201734.got.cif
#   From: 2010.05.17/outbox.cif.g08.bks.cpg/sg2_101_cif.got.tgz:201734.got - 2010.06.03 11:33:40.
