data_PCOD9105862
_publ_section_title
;
Structure prediction by ZEFSAII (Michael W. Deem and Ramdas Pophale) SiO2 
 PCOD9105862
Probable space group: P -1
;
_chemical_formula_sum "Si O2"
_cell_formula_units_Z 16
_cell_length_a 9.260095
_cell_length_b 22.416334
_cell_length_c 5.676206
_cell_angle_alpha 96.627455
_cell_angle_beta 93.897389
_cell_angle_gamma 32.040155
_cell_volume 619.903714
_symmetry_space_group_name_H-M "P -1"
_symmetry_group_IT_number 2
_symmetry_cell_setting 'triclinic'
loop_
_space_group_symop_operation_xyz
x,y,z
-x,-y,-z
loop_
_atom_site_type_symbol
_atom_site_label
_atom_site_fract_x
_atom_site_fract_y
_atom_site_fract_z
Si Si1 0.522980 0.354040 0.721072
Si Si2 0.054753 0.837940 0.678122
Si Si3 0.652779 0.458880 0.252355
Si Si4 0.999536 0.763528 0.972775
Si Si5 0.405248 0.821113 0.885347
Si Si6 0.744246 0.762963 0.298332
Si Si7 0.791695 0.021494 0.395549
Si Si8 0.168838 0.381527 0.543255
O O1 0.699065 0.286732 0.469436
O O2 0.308590 0.483504 0.732613
O O3 0.373211 0.344125 0.730832
O O4 0.731158 0.298384 0.923593
O O5 0.874181 0.857826 0.830681
O O6 0.185271 0.845130 0.853057
O O7 0.913315 0.918207 0.471106
O O8 0.500000 0.500000 0.500000
O O9 0.911671 0.324845 0.212623
O O10 0.500000 0.500000 0.000000
O O11 0.864144 0.778364 0.186071
O O12 0.256901 0.935976 0.849348
O O13 0.635654 0.714234 0.681796
O O14 0.561420 0.788053 0.113499
O O15 0.517987 0.866202 0.498004
O O16 0.946723 0.639057 0.360021
O O17 0.000000 0.000000 0.500000
O O18 0.000000 0.500000 0.500000
#
# Coordination Sequence:
#
# PCOD9105862 Si02
#       8
#     2   2   2   2   2   2   2   2
#     4  10  22  41  63  91 128 174 228 270 327 410
#     4  10  20  39  66  91 122 168 224 269 326 403
#     4  10  21  40  63  93 133 186 227 274 341 411
#     4  11  24  39  62  96 134 176 213 277 338 410
#     4   9  21  41  63  93 124 164 213 272 327 395
#     4  11  24  42  61  97 135 162 215 275 344 397
#     4   9  21  41  67  93 123 172 218 271 332 399
#     4  10  23  41  65  92 127 170 220 276 327 397
#
# _framework density 25.810461
#
# number of rings (size 3 to 8) (size 9 to 14) (size 15 to 20)
#    0.000    2.000    1.250    1.500    1.750    8.000 
#    2.250    1.250    0.000    0.000    0.000    0.000 
#    0.000    0.000    0.000    0.000    0.000    0.000 
#
# Total GULP energy -89263.537484 kJ/mol
# GULP energy per Si atom -5578.971093 kJ/mol
# Density = 2.575171 g / cm^3
# Si number density = 25.810461 Si / 1000 Ang^3
#
#
#
# Elastic Constant Matrix: (Units=GPa)
#
#
# Indices 1 2 3 4 5 6 
#
# 1 119.8586 45.0507 39.0042 -16.9706 -22.6405 33.0825
# 2 45.0507 116.1387 24.4849 -17.1169 -23.0375 22.1857
# 3 39.0042 24.4849 50.3835 -11.6139 -4.7605 13.3300
# 4 -16.9706 -17.1169 -11.6139 47.5384 7.7070 -9.7897
# 5 -22.6405 -23.0375 -4.7605 7.7070 56.4259 -9.9050
# 6 33.0825 22.1857 13.3300 -9.7897 -9.9050 36.1432
#
#
#
# Elastic Compliance Matrix: (Units=1/GPa)
#
#
# Indices 1 2 3 4 5 6 
#
# 1 0.014436 -0.001725 -0.007743 0.000444 0.002903 -0.008384
# 2 -0.001725 0.011255 -0.002652 0.001679 0.002906 -0.003100
# 3 -0.007743 -0.002652 0.028018 0.003240 -0.002520 -0.001431
# 4 0.000444 0.001679 0.003240 0.023517 -0.001491 0.003330
# 5 0.002903 0.002906 -0.002520 -0.001491 0.020356 0.001664
# 6 -0.008384 -0.003100 -0.001431 0.003330 0.001664 0.039130
#
#
# Mechanical properties :
#
#
# Convention : Reuss Voigt Hill
#
# Bulk Modulus (GPa) = 33.93386 55.94004 44.93695
# Shear Modulus (GPa) = 29.27804 39.87758 34.57781
#
# Velocity S-wave (km/s) = 3.37166 3.93493 3.66414
# Velocity P-wave (km/s) = 5.32291 6.50887 5.94553
#
# Compressibility (1/GPa) = 0.02946909
#
# Stress axis : x y z
#
# Youngs Moduli (GPa) = 69.26990 88.85135 35.69108
#
# Poissons Ratio (x) = 0.15325 0.27635
# Poissons Ratio (y) = 0.11948 0.09467
# Poissons Ratio (z) = 0.53635 0.23566
#
# Static dielectric constant tensor:
#      x y z
#    x 2.066670 -0.021260 0.002010 
#    y -0.021260 2.137580 -0.052200 
#    z 0.002010 -0.052200 2.200200 
# 
# From -- ./inp_files/53086.got.cif
#   From: 2010.05.17/outbox.cif.g08.bks.cpg/sg2_27_cif.got.tgz:53086.got - 2010.06.03 11:33:40.
