data_PCOD9105704
_publ_section_title
;
Structure prediction by ZEFSAII (Michael W. Deem and Ramdas Pophale) SiO2 
 PCOD9105704
Probable space group: P -1
;
_chemical_formula_sum "Si O2"
_cell_formula_units_Z 16
_cell_length_a 11.154609
_cell_length_b 11.617531
_cell_length_c 12.113405
_cell_angle_alpha 142.664508
_cell_angle_beta 84.476940
_cell_angle_gamma 71.746950
_cell_volume 723.651126
_symmetry_space_group_name_H-M "P -1"
_symmetry_group_IT_number 2
_symmetry_cell_setting 'triclinic'
loop_
_space_group_symop_operation_xyz
x,y,z
-x,-y,-z
loop_
_atom_site_type_symbol
_atom_site_label
_atom_site_fract_x
_atom_site_fract_y
_atom_site_fract_z
Si Si1 0.745323 0.598654 0.846192
Si Si2 0.754321 0.512275 0.359178
Si Si3 0.138196 0.849847 0.116507
Si Si4 0.121118 0.218700 0.538468
Si Si5 0.345055 0.388581 0.896636
Si Si6 0.200818 0.703511 0.593543
Si Si7 0.335171 0.948745 0.509589
Si Si8 0.385838 0.860407 0.689159
O O1 0.719363 0.507055 0.667633
O O2 0.933083 0.408738 0.705241
O O3 0.661273 0.594469 0.957822
O O4 0.693506 0.869592 0.051498
O O5 0.812959 0.639944 0.387356
O O6 0.848061 0.379130 0.362255
O O7 0.570788 0.713459 0.558166
O O8 0.776269 0.313737 0.123916
O O9 0.174882 0.023349 0.287240
O O10 0.199556 0.648106 0.053564
O O11 0.952880 0.039858 0.249056
O O12 0.189882 0.067763 0.531575
O O13 0.337665 0.173701 0.701504
O O14 0.509783 0.281020 0.744121
O O15 0.319404 0.739941 0.659536
O O16 0.334757 0.873933 0.576310
#
# Coordination Sequence:
#
# PCOD9105704 Si02
#       8
#     2   2   2   2   2   2   2   2
#     4  10  25  41  63 102 129 164 212 264 324 382
#     4  12  24  47  64  92 133 169 222 259 311 384
#     4  11  24  41  67  99 123 172 215 262 317 380
#     4  11  24  39  67  99 128 171 206 265 326 374
#     4  10  20  40  64  94 136 160 213 261 319 383
#     4  11  27  43  66  93 130 174 214 264 315 375
#     4  10  20  39  65  95 130 167 205 264 323 377
#     4  11  24  42  68  93 127 171 216 263 319 375
#
# _framework density 22.110102999999999
#
# number of rings (size 3 to 8) (size 9 to 14) (size 15 to 20)
#    0.000    1.250    2.500    3.000    3.500    8.000 
#    0.000    0.000    0.000    0.000    0.000    0.000 
#    0.000    0.000    0.000    0.000    0.000    0.000 
#
# Total GULP energy -89452.099983 kJ/mol
# GULP energy per Si atom -5590.756249 kJ/mol
# Density = 2.205978 g / cm^3
# Si number density = 22.110103 Si / 1000 Ang^3
#
#
#
# Elastic Constant Matrix: (Units=GPa)
#
#
# Indices 1 2 3 4 5 6 
#
# 1 13.1846 -44.0917 35.7080 38.3045 -3.9951 26.8695
# 2 -44.0917 -24.3204 112.8899 54.4047 -7.7751 68.1454
# 3 35.7080 112.8899 -7.0349 -47.7934 37.2689 -68.1138
# 4 38.3045 54.4047 -47.7934 -6.5671 -3.7741 -39.3094
# 5 -3.9951 -7.7751 37.2689 -3.7741 18.6990 7.8480
# 6 26.8695 68.1454 -68.1138 -39.3094 7.8480 -20.6989
#
#
#
# Elastic Compliance Matrix: (Units=1/GPa)
#
#
# Indices 1 2 3 4 5 6 
#
# 1 0.167262 -0.025130 0.134792 -0.242000 -0.306557 0.034184
# 2 -0.025130 0.012729 -0.017340 0.041476 0.041469 0.003301
# 3 0.134792 -0.017340 0.129454 -0.228319 -0.289164 0.015860
# 4 -0.242000 0.041476 -0.228319 0.433772 0.528929 -0.049502
# 5 -0.306557 0.041469 -0.289164 0.528929 0.707642 -0.046057
# 6 0.034184 0.003301 0.015860 -0.049502 -0.046057 0.031288
#
#
# Mechanical properties :
#
#
# Convention : Reuss Voigt Hill
#
# Bulk Modulus (GPa) = 2.02392 21.20464 11.61428
# Shear Modulus (GPa) = 3.41950 -9.89187 -3.23618
#
# Velocity S-wave (km/s) = 1.24496 -2.11746 -1.21113
# Velocity P-wave (km/s) = 1.72741 1.90608 1.81894
#
# Compressibility (1/GPa) = 0.49408955
#
# Stress axis : x y z
#
# Youngs Moduli (GPa) = 5.97863 78.55923 7.72475
#
# Poissons Ratio (x) = 1.97421 -1.04124
# Poissons Ratio (y) = 0.15024 0.13395
# Poissons Ratio (z) = -0.80587 1.36220
#
# Static dielectric constant tensor:
#      x y z
#    x 1.797980 -0.000470 -0.004120 
#    y -0.000470 1.820650 0.012880 
#    z -0.004120 0.012880 1.774430 
# 
# From -- ./inp_files/397396.got.cif
#   From: 2010.05.17/outbox.cif.g08.bks.cpg/sg2_199_cif.got.tgz:397396.got - 2010.06.03 11:33:40.
