data_PCOD9105290
_publ_section_title
;
Structure prediction by ZEFSAII (Michael W. Deem and Ramdas Pophale) SiO2 
 PCOD9105290
Probable space group: P -1
;
_chemical_formula_sum "Si O2"
_cell_formula_units_Z 14
_cell_length_a 8.686257
_cell_length_b 19.849209
_cell_length_c 13.884383
_cell_angle_alpha 16.298502
_cell_angle_beta 107.473080
_cell_angle_gamma 108.343379
_cell_volume 637.670834
_symmetry_space_group_name_H-M "P -1"
_symmetry_group_IT_number 2
_symmetry_cell_setting 'triclinic'
loop_
_space_group_symop_operation_xyz
x,y,z
-x,-y,-z
loop_
_atom_site_type_symbol
_atom_site_label
_atom_site_fract_x
_atom_site_fract_y
_atom_site_fract_z
Si Si1 0.881903 0.751806 0.325506
Si Si2 0.259998 0.604934 0.071372
Si Si3 0.333381 0.016629 0.668236
Si Si4 0.580714 0.005039 0.902226
Si Si5 0.448109 0.251842 0.179071
Si Si6 0.954139 0.685569 0.817211
Si Si7 0.825791 0.485526 0.269605
O O1 0.828432 0.649588 0.561477
O O2 0.006401 0.554517 0.589705
O O3 0.706439 0.802470 0.182367
O O4 0.000000 0.000000 0.000000
O O5 0.399952 0.566288 0.074926
O O6 0.130253 0.774199 0.771584
O O7 0.323487 0.758415 0.965901
O O8 0.419958 0.213950 0.338886
O O9 0.155978 0.110966 0.517561
O O10 0.438444 0.998128 0.807716
O O11 0.701624 0.248416 0.581883
O O12 0.500000 0.000000 0.000000
O O13 0.500000 0.000000 0.500000
O O14 0.288183 0.305939 0.016276
O O15 0.867969 0.540276 0.090357
O O16 0.000000 0.500000 0.000000
#
# Coordination Sequence:
#
# PCOD9105290 Si02
#       7
#     2   2   2   2   2   2   2
#     4   9  20  39  61  83 118 164 205 249 295 345
#     4  10  20  39  64  88 125 157 202 250 313 369
#     4  10  23  38  58  92 129 160 196 255 313 360
#     4  11  23  37  61  87 121 165 216 249 292 356
#     4   9  19  36  61  91 122 155 194 247 321 369
#     4  10  22  35  63  93 121 158 199 250 317 369
#     4   9  20  37  59  86 123 154 202 260 297 354
#
# _framework density 21.954901
#
# number of rings (size 3 to 8) (size 9 to 14) (size 15 to 20)
#    0.000    2.286    0.000    1.286    8.000    2.857 
#    0.000    0.000    0.000   11.143    0.000    0.000 
#    0.000    0.000    0.000    0.000    0.000    0.000 
#
# Total GULP energy -77937.550593 kJ/mol
# GULP energy per Si atom -5566.967899 kJ/mol
# Density = 2.190493 g / cm^3
# Si number density = 21.954901 Si / 1000 Ang^3
#
#
#
# Elastic Constant Matrix: (Units=GPa)
#
#
# Indices 1 2 3 4 5 6 
#
# 1 145.7295 28.7590 53.1935 19.5590 29.0995 7.9095
# 2 28.7590 74.9329 12.0607 14.6893 18.1670 12.3534
# 3 53.1935 12.0607 94.3810 9.2563 22.7757 9.3749
# 4 19.5590 14.6893 9.2563 20.0167 10.7146 12.1873
# 5 29.0995 18.1670 22.7757 10.7146 61.1738 4.9977
# 6 7.9095 12.3534 9.3749 12.1873 4.9977 22.9325
#
#
#
# Elastic Compliance Matrix: (Units=1/GPa)
#
#
# Indices 1 2 3 4 5 6 
#
# 1 0.010091 -0.001864 -0.004722 -0.007993 -0.001416 0.004010
# 2 -0.001864 0.016645 0.000687 -0.006416 -0.002814 -0.004582
# 3 -0.004722 0.000687 0.014229 0.002389 -0.003256 -0.005118
# 4 -0.007993 -0.006416 0.002389 0.090587 -0.007680 -0.041232
# 5 -0.001416 -0.002814 -0.003256 -0.007680 0.020167 0.003022
# 6 0.004010 -0.004582 -0.005118 -0.041232 0.003022 0.068038
#
#
# Mechanical properties :
#
#
# Convention : Reuss Voigt Hill
#
# Bulk Modulus (GPa) = 34.28496 55.89664 45.09080
# Shear Modulus (GPa) = 20.72302 35.55996 28.14149
#
# Velocity S-wave (km/s) = 3.07561 4.02889 3.58409
# Velocity P-wave (km/s) = 5.31625 6.86714 6.14085
#
# Compressibility (1/GPa) = 0.02916731
#
# Stress axis : x y z
#
# Youngs Moduli (GPa) = 99.09436 60.07674 70.28083
#
# Poissons Ratio (x) = 0.11198 0.33187
# Poissons Ratio (y) = 0.18470 -0.04827
# Poissons Ratio (z) = 0.46793 -0.04126
#
# Static dielectric constant tensor:
#      x y z
#    x 1.930490 0.040240 0.002510 
#    y 0.040240 1.828140 -0.020990 
#    z 0.002510 -0.020990 1.903440 
# 
# From -- ./inp_files/377922.got.cif
#   From: 2010.05.17/outbox.cif.g08.bks.cpg/sg2_189_cif.got.tgz:377922.got - 2010.06.03 11:33:40.
