data_PCOD9105160
_publ_section_title
;
Structure prediction by ZEFSAII (Michael W. Deem and Ramdas Pophale) SiO2 
 PCOD9105160
Probable space group: P -1
;
_chemical_formula_sum "Si O2"
_cell_formula_units_Z 16
_cell_length_a 6.382084
_cell_length_b 18.630933
_cell_length_c 6.176560
_cell_angle_alpha 118.998587
_cell_angle_beta 108.329496
_cell_angle_gamma 85.714051
_cell_volume 607.078056
_symmetry_space_group_name_H-M "P -1"
_symmetry_group_IT_number 2
_symmetry_cell_setting 'triclinic'
loop_
_space_group_symop_operation_xyz
x,y,z
-x,-y,-z
loop_
_atom_site_type_symbol
_atom_site_label
_atom_site_fract_x
_atom_site_fract_y
_atom_site_fract_z
Si Si1 0.907697 0.162028 0.298519
Si Si2 0.802280 0.932980 0.489756
Si Si3 0.056208 0.674550 0.210702
Si Si4 0.458637 0.321262 0.437701
Si Si5 0.852462 0.551952 0.264632
Si Si6 0.917613 0.791747 0.995384
Si Si7 0.342118 0.563305 0.651163
Si Si8 0.599196 0.057775 0.313663
O O1 0.008424 0.252271 0.541434
O O2 0.695852 0.140490 0.347333
O O3 0.035098 0.082257 0.279587
O O4 0.895802 0.168582 0.048168
O O5 0.850318 0.856745 0.242309
O O6 0.571758 0.923803 0.530194
O O7 0.779640 0.009859 0.434887
O O8 0.315294 0.673469 0.345780
O O9 0.909171 0.589515 0.099781
O O10 0.002454 0.710845 0.014610
O O11 0.297899 0.384510 0.577371
O O12 0.537863 0.349595 0.260165
O O13 0.306514 0.236500 0.246742
O O14 0.716819 0.465565 0.164278
O O15 0.098649 0.556419 0.452865
O O16 0.500000 0.500000 0.500000
O O17 0.500000 0.000000 0.000000
#
# Coordination Sequence:
#
# PCOD9105160 Si02
#       8
#     2   2   2   2   2   2   2   2
#     4  11  24  44  64  94 132 171 215 277 335 396
#     4  10  25  45  66  96 130 171 219 278 328 402
#     4  10  23  39  61  96 131 174 222 272 331 400
#     4  10  20  39  63  93 132 178 220 273 337 392
#     4   9  16  36  61  93 134 171 224 279 327 387
#     4  11  24  44  67  97 138 175 222 279 332 404
#     4   8  16  31  64  95 126 180 221 271 335 382
#     4  11  25  44  70  97 129 173 220 272 337 403
#
# _framework density 26.355754000000001
#
# number of rings (size 3 to 8) (size 9 to 14) (size 15 to 20)
#    0.000    2.000    1.250    1.125    3.500    6.000 
#    2.250    0.625    0.000   25.500    0.000    0.000 
#    0.000    0.000    0.000    0.000    0.000    0.000 
#
# Total GULP energy -89414.247085 kJ/mol
# GULP energy per Si atom -5588.390443 kJ/mol
# Density = 2.629577 g / cm^3
# Si number density = 26.355754 Si / 1000 Ang^3
#
#
#
# Elastic Constant Matrix: (Units=GPa)
#
#
# Indices 1 2 3 4 5 6 
#
# 1 121.0158 61.5086 36.5105 -30.0490 -3.6547 -5.2366
# 2 61.5086 127.8369 52.2808 -36.5371 -9.0104 14.6617
# 3 36.5105 52.2808 90.8770 -13.7872 -10.5628 3.1938
# 4 -30.0490 -36.5371 -13.7872 52.0353 7.2352 -3.1571
# 5 -3.6547 -9.0104 -10.5628 7.2352 32.3750 -16.3061
# 6 -5.2366 14.6617 3.1938 -3.1571 -16.3061 56.3491
#
#
#
# Elastic Compliance Matrix: (Units=1/GPa)
#
#
# Indices 1 2 3 4 5 6 
#
# 1 0.012007 -0.004258 -0.001917 0.003587 0.000023 0.002540
# 2 -0.004258 0.014224 -0.005614 0.006037 -0.001680 -0.003927
# 3 -0.001917 -0.005614 0.015220 -0.001522 0.004326 0.001587
# 4 0.003587 0.006037 -0.001522 0.025713 -0.004696 -0.001070
# 5 0.000023 -0.001680 0.004326 -0.004696 0.038454 0.011059
# 6 0.002540 -0.003927 0.001587 -0.001070 0.011059 0.022054
#
#
# Mechanical properties :
#
#
# Convention : Reuss Voigt Hill
#
# Bulk Modulus (GPa) = 55.94675 71.14772 63.54723
# Shear Modulus (GPa) = 31.80500 40.78054 36.29277
#
# Velocity S-wave (km/s) = 3.47761 3.93785 3.71487
# Velocity P-wave (km/s) = 6.11544 6.90864 6.52411
#
# Compressibility (1/GPa) = 0.01787414
#
# Stress axis : x y z
#
# Youngs Moduli (GPa) = 83.28410 70.30219 65.70322
#
# Poissons Ratio (x) = 0.29932 0.12595
# Poissons Ratio (y) = 0.35460 0.36886
# Poissons Ratio (z) = 0.15965 0.39468
#
# Static dielectric constant tensor:
#      x y z
#    x 2.131410 0.015870 -0.002460 
#    y 0.015870 2.131130 -0.067180 
#    z -0.002460 -0.067180 2.109350 
# 
# From -- ./inp_files/11148.got.cif
#   From: 2010.05.17/outbox.cif.g08.bks.cpg/sg2_6_cif.got.tgz:11148.got - 2010.06.03 11:33:40.
