data_PCOD9105489
_publ_section_title
;
Structure prediction by ZEFSAII (Michael W. Deem and Ramdas Pophale) SiO2 
 PCOD9105489
Probable space group: P -1
;
_chemical_formula_sum "Si O2"
_cell_formula_units_Z 14
_cell_length_a 10.177695
_cell_length_b 13.379494
_cell_length_c 15.145890
_cell_angle_alpha 22.910368
_cell_angle_beta 131.309223
_cell_angle_gamma 129.359555
_cell_volume 600.685903
_symmetry_space_group_name_H-M "P -1"
_symmetry_group_IT_number 2
_symmetry_cell_setting 'triclinic'
loop_
_space_group_symop_operation_xyz
x,y,z
-x,-y,-z
loop_
_atom_site_type_symbol
_atom_site_label
_atom_site_fract_x
_atom_site_fract_y
_atom_site_fract_z
Si Si1 0.170691 0.175807 0.375467
Si Si2 0.771435 0.363558 0.235542
Si Si3 0.467628 0.612839 0.099739
Si Si4 0.580324 0.825621 0.785124
Si Si5 0.224734 0.664278 0.468992
Si Si6 0.191963 0.991059 0.721871
Si Si7 0.921905 0.641976 0.486010
O O1 0.329553 0.360393 0.256445
O O2 0.189169 0.199233 0.470713
O O3 0.183401 0.865925 0.621973
O O4 0.985842 0.198431 0.224435
O O5 0.593453 0.212742 0.321149
O O6 0.927687 0.410329 0.335429
O O7 0.727494 0.650494 0.957709
O O8 0.659175 0.566093 0.260970
O O9 0.502203 0.687358 0.952923
O O10 0.363626 0.837384 0.915033
O O11 0.656933 0.091446 0.641504
O O12 0.197048 0.607436 0.399113
O O13 0.037949 0.710196 0.394278
O O14 0.174229 0.135970 0.688983
#
# Coordination Sequence:
#
# PCOD9105489 Si02
#       7
#     2   2   2   2   2   2   2
#     4  10  21  40  65  94 135 160 209 265 321 371
#     4  10  20  39  64  98 120 164 207 265 312 369
#     4  12  21  41  65  94 127 172 206 263 310 383
#     4  11  23  38  68  98 126 161 219 265 317 365
#     4  11  24  45  65  92 130 171 210 265 310 381
#     4  10  22  41  62  96 130 166 208 262 319 377
#     4  10  24  45  64  92 132 168 213 259 320 373
#
# _framework density 23.306691000000001
#
# number of rings (size 3 to 8) (size 9 to 14) (size 15 to 20)
#    0.000    1.429    4.286    0.429    0.000    6.857 
#    7.714    2.857    0.000    0.000    0.000    0.000 
#    0.000    0.000    0.000    0.000    0.000    0.000 
#
# Total GULP energy -77956.564526 kJ/mol
# GULP energy per Si atom -5568.326038 kJ/mol
# Density = 2.325364 g / cm^3
# Si number density = 23.306691 Si / 1000 Ang^3
#
#
#
# Elastic Constant Matrix: (Units=GPa)
#
#
# Indices 1 2 3 4 5 6 
#
# 1 112.4916 23.7121 30.4904 -12.0786 17.1443 -19.8743
# 2 23.7121 118.1013 26.4015 -11.1526 13.1177 -29.0064
# 3 30.4904 26.4015 44.3206 -11.3835 32.9433 -8.9965
# 4 -12.0786 -11.1526 -11.3835 20.6312 -2.3983 10.2985
# 5 17.1443 13.1177 32.9433 -2.3983 47.0925 -7.9684
# 6 -19.8743 -29.0064 -8.9965 10.2985 -7.9684 35.0336
#
#
#
# Elastic Compliance Matrix: (Units=1/GPa)
#
#
# Indices 1 2 3 4 5 6 
#
# 1 0.011944 0.000925 -0.010575 -0.000868 0.003752 0.005935
# 2 0.000925 0.012228 -0.010476 -0.003033 0.005126 0.010016
# 3 -0.010575 -0.010476 0.077178 0.032850 -0.048165 -0.015466
# 4 -0.000868 -0.003033 0.032850 0.072285 -0.021648 -0.020740
# 5 0.003752 0.005126 -0.048165 -0.021648 0.053139 0.012454
# 6 0.005935 0.010016 -0.015466 -0.020740 0.012454 0.045161
#
#
# Mechanical properties :
#
#
# Convention : Reuss Voigt Hill
#
# Bulk Modulus (GPa) = 16.36759 48.45794 32.41277
# Shear Modulus (GPa) = 15.03514 33.50542 24.27028
#
# Velocity S-wave (km/s) = 2.54264 3.79567 3.23049
# Velocity P-wave (km/s) = 3.95701 6.32819 5.27750
#
# Compressibility (1/GPa) = 0.06109636
#
# Stress axis : x y z
#
# Youngs Moduli (GPa) = 83.72115 81.78045 12.95714
#
# Poissons Ratio (x) = -0.07562 0.13702
# Poissons Ratio (y) = -0.07742 0.13575
# Poissons Ratio (z) = 0.88535 0.85677
#
# Static dielectric constant tensor:
#      x y z
#    x 2.000350 0.046530 0.021370 
#    y 0.046530 2.003810 0.035270 
#    z 0.021370 0.035270 1.978910 
# 
# From -- ./inp_files/404508.got.cif
#   From: 2010.05.17/outbox.cif.g08.bks.cpg/sg2_203_cif.got.tgz:404508.got - 2010.06.03 11:33:40.
