data_PCOD9105061
_publ_section_title
;
Structure prediction by ZEFSAII (Michael W. Deem and Ramdas Pophale) SiO2 
 PCOD9105061
Probable space group: P -1
;
_chemical_formula_sum "Si O2"
_cell_formula_units_Z 14
_cell_length_a 16.675713
_cell_length_b 6.373340
_cell_length_c 11.156764
_cell_angle_alpha 83.317812
_cell_angle_beta 47.042705
_cell_angle_gamma 115.341952
_cell_volume 617.269914
_symmetry_space_group_name_H-M "P -1"
_symmetry_group_IT_number 2
_symmetry_cell_setting 'triclinic'
loop_
_space_group_symop_operation_xyz
x,y,z
-x,-y,-z
loop_
_atom_site_type_symbol
_atom_site_label
_atom_site_fract_x
_atom_site_fract_y
_atom_site_fract_z
Si Si1 0.877933 0.873786 0.395844
Si Si2 0.495746 0.186301 0.394620
Si Si3 0.229672 0.901508 0.824047
Si Si4 0.857111 0.470692 0.629039
Si Si5 0.905460 0.592467 0.200325
Si Si6 0.792844 0.488294 0.961330
Si Si7 0.279652 0.927221 0.412601
O O1 0.902148 0.729158 0.482239
O O2 0.836212 0.704840 0.324536
O O3 0.747190 0.859936 0.569421
O O4 0.039655 0.206972 0.193195
O O5 0.500000 0.000000 0.500000
O O6 0.379285 0.183740 0.584441
O O7 0.410052 0.028494 0.365173
O O8 0.666312 0.463250 0.158572
O O9 0.169805 0.620857 0.822214
O O10 0.250891 0.809838 0.933237
O O11 0.085429 0.859852 0.980095
O O12 0.797825 0.483414 0.813406
O O13 0.725358 0.170335 0.708706
O O14 0.000000 0.500000 0.500000
O O15 0.874413 0.375802 0.349255
#
# Coordination Sequence:
#
# PCOD9105061 Si02
#       7
#     2   2   2   2   2   2   2
#     4  11  21  36  64  92 116 151 205 255 293 348
#     4   9  21  39  63  83 126 164 192 240 302 362
#     4   9  17  37  58  84 118 157 195 241 293 353
#     4  11  22  38  65  90 118 155 203 253 296 346
#     4   9  18  34  61  88 115 150 200 248 296 343
#     4  11  20  36  58  89 122 159 194 243 301 351
#     4  10  20  39  63  90 119 157 201 247 295 350
#
# _framework density 22.680516000000001
#
# number of rings (size 3 to 8) (size 9 to 14) (size 15 to 20)
#    0.000    2.000    2.857    1.286    0.000    1.143 
#    0.000    1.429   28.286    0.000    0.000    0.000 
#    0.000    0.000    0.000    0.000    0.000    0.000 
#
# Total GULP energy -78016.375159 kJ/mol
# GULP energy per Si atom -5572.598226 kJ/mol
# Density = 2.262889 g / cm^3
# Si number density = 22.680516 Si / 1000 Ang^3
#
#
#
# Elastic Constant Matrix: (Units=GPa)
#
#
# Indices 1 2 3 4 5 6 
#
# 1 83.5410 15.8457 3.6369 -2.1278 6.8799 -2.9025
# 2 15.8457 62.0431 1.4629 10.0838 2.8888 5.9079
# 3 3.6369 1.4629 78.3638 -1.2970 0.1912 -2.9630
# 4 -2.1278 10.0838 -1.2970 17.2154 2.4787 3.3784
# 5 6.8799 2.8888 0.1912 2.4787 36.5860 -1.4123
# 6 -2.9025 5.9079 -2.9630 3.3784 -1.4123 32.0082
#
#
#
# Elastic Compliance Matrix: (Units=1/GPa)
#
#
# Indices 1 2 3 4 5 6 
#
# 1 0.013091 -0.004005 -0.000409 0.004006 -0.002362 0.001361
# 2 -0.004005 0.019249 -0.000464 -0.011244 -0.000110 -0.002777
# 3 -0.000409 -0.000464 0.012848 0.000962 0.000025 0.001137
# 4 0.004006 -0.011244 0.000962 0.066829 -0.004581 -0.004728
# 5 -0.002362 -0.000110 0.000025 -0.004581 0.028155 0.001534
# 6 0.001361 -0.002777 0.001137 -0.004728 0.001534 0.032550
#
#
# Mechanical properties :
#
#
# Convention : Reuss Voigt Hill
#
# Bulk Modulus (GPa) = 28.22375 29.53765 28.88070
# Shear Modulus (GPa) = 25.73500 30.69543 28.21522
#
# Velocity S-wave (km/s) = 3.37215 3.68283 3.53091
# Velocity P-wave (km/s) = 5.25670 5.57996 5.42074
#
# Compressibility (1/GPa) = 0.03543115
#
# Stress axis : x y z
#
# Youngs Moduli (GPa) = 76.38584 51.95206 77.83597
#
# Poissons Ratio (x) = 0.20805 0.03186
# Poissons Ratio (y) = 0.30589 0.03614
# Poissons Ratio (z) = 0.03126 0.02412
#
# Static dielectric constant tensor:
#      x y z
#    x 1.894740 0.003270 -0.023970 
#    y 0.003270 1.892560 0.012830 
#    z -0.023970 0.012830 1.882000 
# 
# From -- ./inp_files/459170.got.cif
#   From: 2010.05.17/outbox.cif.g08.bks.cpg/sg2_230_cif.got.tgz:459170.got - 2010.06.03 11:33:40.
