data_PCOD9105983
_publ_section_title
;
Structure prediction by ZEFSAII (Michael W. Deem and Ramdas Pophale) SiO2 
 PCOD9105983
Probable space group: P -1
;
_chemical_formula_sum "Si O2"
_cell_formula_units_Z 16
_cell_length_a 13.654655
_cell_length_b 10.891040
_cell_length_c 14.385208
_cell_angle_alpha 150.895826
_cell_angle_beta 128.360713
_cell_angle_gamma 46.847045
_cell_volume 757.506894
_symmetry_space_group_name_H-M "P -1"
_symmetry_group_IT_number 2
_symmetry_cell_setting 'triclinic'
loop_
_space_group_symop_operation_xyz
x,y,z
-x,-y,-z
loop_
_atom_site_type_symbol
_atom_site_label
_atom_site_fract_x
_atom_site_fract_y
_atom_site_fract_z
Si Si1 0.527232 0.593015 0.285766
Si Si2 0.016504 0.085842 0.801075
Si Si3 0.364136 0.238187 0.907933
Si Si4 0.125073 0.216987 0.390763
Si Si5 0.595390 0.663568 0.685554
Si Si6 0.189289 0.419684 0.092897
Si Si7 0.240232 0.509905 0.515773
Si Si8 0.345873 0.175248 0.639040
O O1 0.647255 0.424101 0.313770
O O2 0.597230 0.628614 0.254860
O O3 0.455709 0.877508 0.485032
O O4 0.412082 0.484286 0.120626
O O5 0.912002 0.278851 0.792851
O O6 0.109988 0.787972 0.621705
O O7 0.111162 0.254248 0.990525
O O8 0.932818 0.022450 0.794795
O O9 0.329569 0.228380 0.773406
O O10 0.495042 0.973787 0.833086
O O11 0.243302 0.267024 0.925883
O O12 0.215544 0.261638 0.390504
O O13 0.209972 0.196576 0.520955
O O14 0.000000 0.500000 0.500000
O O15 0.500000 0.500000 0.500000
O O16 0.681719 0.583478 0.776806
O O17 0.701564 0.593120 0.618103
#
# Coordination Sequence:
#
# PCOD9105983 Si02
#       8
#     2   2   2   2   2   2   2   2
#     4  10  20  39  66  97 138 164 206 279 328 393
#     4  10  22  45  64  86 130 176 220 270 322 379
#     4  12  23  40  65  99 131 171 218 267 332 391
#     4   9  20  40  67  90 125 169 215 271 323 383
#     4  12  25  41  65  99 133 174 221 270 336 392
#     4  11  25  42  62  93 135 175 220 273 319 389
#     4  10  20  41  68  96 125 173 218 266 337 387
#     4  10  21  38  67  98 132 170 214 264 338 393
#
# _framework density 21.121918999999998
#
# number of rings (size 3 to 8) (size 9 to 14) (size 15 to 20)
#    0.000    1.500    1.250    3.750    1.750    0.500 
#   11.250    0.625    0.000    0.000    0.000    0.000 
#    0.000    0.000    0.000    0.000    0.000    0.000 
#
# Total GULP energy -89379.104494 kJ/mol
# GULP energy per Si atom -5586.194031 kJ/mol
# Density = 2.107384 g / cm^3
# Si number density = 21.121919 Si / 1000 Ang^3
#
#
#
# Elastic Constant Matrix: (Units=GPa)
#
#
# Indices 1 2 3 4 5 6 
#
# 1 98.9488 31.9423 47.7502 -14.5247 2.7541 6.8118
# 2 31.9423 117.4165 18.9672 -8.5922 -20.9666 -6.2157
# 3 47.7502 18.9672 49.1918 -5.9385 -2.2003 15.4875
# 4 -14.5247 -8.5922 -5.9385 26.3855 10.7040 1.6417
# 5 2.7541 -20.9666 -2.2003 10.7040 30.3411 4.1982
# 6 6.8118 -6.2157 15.4875 1.6417 4.1982 26.3846
#
#
#
# Elastic Compliance Matrix: (Units=1/GPa)
#
#
# Indices 1 2 3 4 5 6 
#
# 1 0.024004 -0.003500 -0.023662 0.010808 -0.011231 0.007982
# 2 -0.003500 0.011289 -0.001976 -0.002278 0.008289 0.003546
# 3 -0.023662 -0.001976 0.052273 -0.004200 0.009697 -0.026322
# 4 0.010808 -0.002278 -0.004200 0.050563 -0.020597 -0.000730
# 5 -0.011231 0.008289 0.009697 -0.020597 0.048686 -0.007305
# 6 0.007982 0.003546 -0.026322 -0.000730 -0.007305 0.053334
#
#
# Mechanical properties :
#
#
# Convention : Reuss Voigt Hill
#
# Bulk Modulus (GPa) = 34.14113 51.43073 42.78593
# Shear Modulus (GPa) = 16.22373 27.74871 21.98622
#
# Velocity S-wave (km/s) = 2.77447 3.62849 3.22983
# Velocity P-wave (km/s) = 5.14417 6.47741 5.84890
#
# Compressibility (1/GPa) = 0.02929018
#
# Stress axis : x y z
#
# Youngs Moduli (GPa) = 41.65888 88.58100 19.13027
#
# Poissons Ratio (x) = 0.31002 0.45266
# Poissons Ratio (y) = 0.14580 0.03781
# Poissons Ratio (z) = 0.98574 0.17505
#
# Static dielectric constant tensor:
#      x y z
#    x 1.810140 0.001590 0.051570 
#    y 0.001590 1.740460 -0.017800 
#    z 0.051570 -0.017800 1.696700 
# 
# From -- ./inp_files/532194.got.cif
#   From: 2010.05.17/outbox.cif.g08.bks.cpg/sg2_267_cif.got.tgz:532194.got - 2010.06.03 11:33:40.
