data_PCOD9105867
_publ_section_title
;
Structure prediction by ZEFSAII (Michael W. Deem and Ramdas Pophale) SiO2 
 PCOD9105867
Probable space group: P -1
;
_chemical_formula_sum "Si O2"
_cell_formula_units_Z 12
_cell_length_a 10.778647
_cell_length_b 8.582066
_cell_length_c 9.062726
_cell_angle_alpha 98.906101
_cell_angle_beta 141.259776
_cell_angle_gamma 77.368819
_cell_volume 511.751644
_symmetry_space_group_name_H-M "P -1"
_symmetry_group_IT_number 2
_symmetry_cell_setting 'triclinic'
loop_
_space_group_symop_operation_xyz
x,y,z
-x,-y,-z
loop_
_atom_site_type_symbol
_atom_site_label
_atom_site_fract_x
_atom_site_fract_y
_atom_site_fract_z
Si Si1 0.894597 0.508642 0.245380
Si Si2 0.738164 0.378644 0.551367
Si Si3 0.862306 0.018017 0.521264
Si Si4 0.716988 0.060552 0.998986
Si Si5 0.601818 0.809841 0.074811
Si Si6 0.369675 0.659147 0.215576
O O1 0.695762 0.632446 0.109325
O O2 0.000000 0.500000 0.500000
O O3 0.048284 0.574615 0.287524
O O4 0.809625 0.366029 0.066393
O O5 0.750290 0.196504 0.476986
O O6 0.567675 0.524445 0.357528
O O7 0.701082 0.367119 0.689082
O O8 0.719857 0.888944 0.327970
O O9 0.000000 0.000000 0.500000
O O10 0.042310 0.974874 0.800242
O O11 0.621426 0.171216 0.065150
O O12 0.612720 0.156418 0.776027
O O13 0.648293 0.899543 0.979250
#
# Coordination Sequence:
#
# PCOD9105867 Si02
#       6
#     2   2   2   2   2   2
#     4  12  24  41  70  99 126 170 222 271 316 383
#     4  11  25  46  62  96 138 174 209 265 330 387
#     4  10  20  39  66  91 128 165 216 267 315 373
#     4  10  21  40  61  96 123 168 214 262 321 374
#     4  10  22  37  64  96 128 157 217 277 315 362
#     4  11  27  42  67  94 137 175 211 260 331 394
#
# _framework density 23.448874
#
# number of rings (size 3 to 8) (size 9 to 14) (size 15 to 20)
#    0.000    1.333    3.333    2.500    9.333    2.000 
#    0.000    0.833    0.000    0.000    0.000    0.000 
#    0.000    0.000    0.000    0.000    0.000    0.000 
#
# Total GULP energy -66845.873340 kJ/mol
# GULP energy per Si atom -5570.489445 kJ/mol
# Density = 2.339550 g / cm^3
# Si number density = 23.448874 Si / 1000 Ang^3
#
#
#
# Elastic Constant Matrix: (Units=GPa)
#
#
# Indices 1 2 3 4 5 6 
#
# 1 67.1032 2.8439 14.4283 5.5917 4.2739 1.6673
# 2 2.8439 59.3710 13.0809 -11.0632 -4.9763 -8.3547
# 3 14.4283 13.0809 73.4980 -11.5846 5.0590 7.2874
# 4 5.5917 -11.0632 -11.5846 41.5593 11.0659 2.6634
# 5 4.2739 -4.9763 5.0590 11.0659 28.5899 -10.9694
# 6 1.6673 -8.3547 7.2874 2.6634 -10.9694 39.6238
#
#
#
# Elastic Compliance Matrix: (Units=1/GPa)
#
#
# Indices 1 2 3 4 5 6 
#
# 1 0.015978 -0.000675 -0.003425 -0.003061 -0.000791 -0.000198
# 2 -0.000675 0.019555 -0.004024 0.002227 0.005789 0.006345
# 3 -0.003425 -0.004024 0.017336 0.006918 -0.008510 -0.006714
# 4 -0.003061 0.002227 0.006918 0.031510 -0.015268 -0.007019
# 5 -0.000791 0.005789 -0.008510 -0.015268 0.050341 0.017782
# 6 -0.000198 0.006345 -0.006714 -0.007019 0.017782 0.033213
#
#
# Mechanical properties :
#
#
# Convention : Reuss Voigt Hill
#
# Bulk Modulus (GPa) = 27.30728 28.96425 28.13577
# Shear Modulus (GPa) = 25.45963 33.26254 29.36109
#
# Velocity S-wave (km/s) = 3.29865 3.77040 3.54239
# Velocity P-wave (km/s) = 5.11653 5.59763 5.36248
#
# Compressibility (1/GPa) = 0.03662027
#
# Stress axis : x y z
#
# Youngs Moduli (GPa) = 62.58688 51.13710 57.68282
#
# Poissons Ratio (x) = 0.03454 0.19755
# Poissons Ratio (y) = 0.04227 0.23214
# Poissons Ratio (z) = 0.21434 0.20580
#
# Static dielectric constant tensor:
#      x y z
#    x 1.868790 0.030490 0.019650 
#    y 0.030490 1.959280 -0.037140 
#    z 0.019650 -0.037140 2.144410 
# 
# From -- ./inp_files/240067.got.cif
#   From: 2010.05.17/outbox.cif.g08.bks.cpg/sg2_121_cif.got.tgz:240067.got - 2010.06.03 11:33:40.
