data_PCOD9106793
_publ_section_title
;
Structure prediction by ZEFSAII (Michael W. Deem and Ramdas Pophale) SiO2 
 PCOD9106793
Probable space group: P -1
;
_chemical_formula_sum "Si O2"
_cell_formula_units_Z 14
_cell_length_a 5.458709
_cell_length_b 21.880079
_cell_length_c 4.939228
_cell_angle_alpha 100.831597
_cell_angle_beta 88.223507
_cell_angle_gamma 73.697392
_cell_volume 553.920212
_symmetry_space_group_name_H-M "P -1"
_symmetry_group_IT_number 2
_symmetry_cell_setting 'triclinic'
loop_
_space_group_symop_operation_xyz
x,y,z
-x,-y,-z
loop_
_atom_site_type_symbol
_atom_site_label
_atom_site_fract_x
_atom_site_fract_y
_atom_site_fract_z
Si Si1 0.388138 0.329878 0.707141
Si Si2 0.514184 0.796871 0.723097
Si Si3 0.761657 0.014110 0.725518
Si Si4 0.405733 0.568870 0.419163
Si Si5 0.158264 0.638703 0.005271
Si Si6 0.982499 0.107221 0.112226
Si Si7 0.669058 0.861164 0.286985
O O1 0.425865 0.277000 0.426797
O O2 0.365269 0.399840 0.629439
O O3 0.650613 0.320090 0.865480
O O4 0.138540 0.331017 0.889808
O O5 0.220511 0.834147 0.686176
O O6 0.685071 0.827422 0.546334
O O7 0.560887 0.816740 0.043151
O O8 0.514842 0.064507 0.646327
O O9 0.816045 0.059099 0.000107
O O10 0.000000 0.000000 0.500000
O O11 0.779285 0.944245 0.793937
O O12 0.500000 0.500000 0.500000
O O13 0.259343 0.574877 0.143283
O O14 0.218798 0.618225 0.677662
O O15 0.075058 0.133908 0.860283
#
# Coordination Sequence:
#
# PCOD9106793 Si02
#       7
#     2   2   2   2   2   2   2
#     4  10  27  44  70 100 143 182 232 280 340 403
#     4  11  26  41  62  92 127 166 221 267 327 399
#     4  10  20  40  61  87 126 155 214 268 333 395
#     4  10  24  45  73 106 141 183 229 282 337 401
#     4  10  25  42  71 101 140 182 226 281 336 400
#     4  10  23  40  61  90 123 164 209 274 326 402
#     4  11  25  40  64  92 120 170 214 267 339 394
#
# _framework density 25.274397
#
# number of rings (size 3 to 8) (size 9 to 14) (size 15 to 20)
#    0.857    0.857    1.429    0.857    8.000    2.857 
#    0.000    0.000    0.000    0.000    0.000    0.000 
#    0.000    0.000    0.000    0.000    0.000    0.000 
#
# Total GULP energy -78280.280882 kJ/mol
# GULP energy per Si atom -5591.448634 kJ/mol
# Density = 2.521687 g / cm^3
# Si number density = 25.274397 Si / 1000 Ang^3
#
#
#
# Elastic Constant Matrix: (Units=GPa)
#
#
# Indices 1 2 3 4 5 6 
#
# 1 115.3195 15.9728 23.7848 5.3508 -17.2280 2.2208
# 2 15.9728 65.0800 -8.5785 4.8219 -0.7513 10.2345
# 3 23.7848 -8.5785 92.4050 -2.9711 -14.5487 -3.5860
# 4 5.3508 4.8219 -2.9711 37.8423 -3.2355 2.8110
# 5 -17.2280 -0.7513 -14.5487 -3.2355 45.7175 -5.9076
# 6 2.2208 10.2345 -3.5860 2.8110 -5.9076 23.4181
#
#
#
# Elastic Compliance Matrix: (Units=1/GPa)
#
#
# Indices 1 2 3 4 5 6 
#
# 1 0.010029 -0.002785 -0.002370 -0.001051 0.003007 0.000788
# 2 -0.002785 0.017512 0.001830 -0.001258 -0.001207 -0.007262
# 3 -0.002370 0.001830 0.012251 0.001203 0.003380 0.002009
# 4 -0.001051 -0.001258 0.001203 0.027117 0.001626 -0.002011
# 5 0.003007 -0.001207 0.003380 0.001626 0.025068 0.006888
# 6 0.000788 -0.007262 0.002009 -0.002011 0.006888 0.048088
#
#
# Mechanical properties :
#
#
# Convention : Reuss Voigt Hill
#
# Bulk Modulus (GPa) = 30.17289 37.24030 33.70660
# Shear Modulus (GPa) = 31.69358 37.50394 34.59876
#
# Velocity S-wave (km/s) = 3.54500 3.85628 3.70391
# Velocity P-wave (km/s) = 5.35911 5.88169 5.62647
#
# Compressibility (1/GPa) = 0.03314234
#
# Stress axis : x y z
#
# Youngs Moduli (GPa) = 99.71209 57.10415 81.62799
#
# Poissons Ratio (x) = 0.15904 0.19344
# Poissons Ratio (y) = 0.27771 -0.14941
# Poissons Ratio (z) = 0.23629 -0.10452
#
# Static dielectric constant tensor:
#      x y z
#    x 2.126510 -0.042540 0.078410 
#    y -0.042540 2.011160 -0.032700 
#    z 0.078410 -0.032700 1.990160 
# 
# From -- ./inp_files/12424.got.cif
#   From: 2010.05.17/outbox.cif.g08.bks.cpg/sg2_7_cif.got.tgz:12424.got - 2010.06.03 11:33:40.
