data_PCOD9106669
_publ_section_title
;
Structure prediction by ZEFSAII (Michael W. Deem and Ramdas Pophale) SiO2 
 PCOD9106669
Probable space group: P -1
;
_chemical_formula_sum "Si O2"
_cell_formula_units_Z 16
_cell_length_a 13.451380
_cell_length_b 14.849407
_cell_length_c 9.739863
_cell_angle_alpha 151.446703
_cell_angle_beta 108.918178
_cell_angle_gamma 66.145169
_cell_volume 848.315739
_symmetry_space_group_name_H-M "P -1"
_symmetry_group_IT_number 2
_symmetry_cell_setting 'triclinic'
loop_
_space_group_symop_operation_xyz
x,y,z
-x,-y,-z
loop_
_atom_site_type_symbol
_atom_site_label
_atom_site_fract_x
_atom_site_fract_y
_atom_site_fract_z
Si Si1 0.879911 0.467980 0.903193
Si Si2 0.431274 0.286593 0.057842
Si Si3 0.461467 0.522780 0.858005
Si Si4 0.761274 0.222715 0.993565
Si Si5 0.113412 0.856437 0.310861
Si Si6 0.251042 0.694269 0.581653
Si Si7 0.731152 0.904819 0.377441
Si Si8 0.440254 0.831450 0.771832
O O1 0.864437 0.342674 0.860845
O O2 0.851560 0.339682 0.593105
O O3 0.798779 0.684194 0.145926
O O4 0.000000 0.500000 0.000000
O O5 0.483415 0.327611 0.994200
O O6 0.340244 0.482939 0.325169
O O7 0.519660 0.245753 0.161607
O O8 0.375314 0.113340 0.773261
O O9 0.509059 0.325762 0.531626
O O10 0.500000 0.500000 0.000000
O O11 0.332381 0.601655 0.880305
O O12 0.870645 0.191422 0.908916
O O13 0.719631 0.031160 0.680678
O O14 0.772780 0.254277 0.201153
O O15 0.202835 0.979714 0.533735
O O16 0.000000 0.000000 0.500000
O O17 0.311101 0.846067 0.741467
O O18 0.500000 0.000000 0.000000
#
# Coordination Sequence:
#
# PCOD9106669 Si02
#       8
#     2   2   2   2   2   2   2   2
#     4  11  21  42  69  88 116 160 215 262 322 380
#     4  10  20  40  60  81 131 167 204 245 311 375
#     4  11  23  37  58  92 130 167 211 256 304 373
#     4  10  21  41  59  88 130 160 210 263 309 365
#     4  10  22  42  65  88 124 155 213 264 318 367
#     4  10  21  41  60  87 124 167 200 258 311 368
#     4   9  23  35  65  88 121 164 208 245 320 362
#     4  11  23  37  58  90 133 170 206 242 312 383
#
# _framework density 18.860903
#
# number of rings (size 3 to 8) (size 9 to 14) (size 15 to 20)
#    0.750    1.000    3.750    0.750    8.750    1.500 
#    0.000    3.125    0.000    0.000    0.000    0.000 
#    0.000    0.000    0.000    0.000    0.000    0.000 
#
# Total GULP energy -89111.319667 kJ/mol
# GULP energy per Si atom -5569.457479 kJ/mol
# Density = 1.881797 g / cm^3
# Si number density = 18.860903 Si / 1000 Ang^3
#
#
#
# Elastic Constant Matrix: (Units=GPa)
#
#
# Indices 1 2 3 4 5 6 
#
# 1 99.7999 31.2472 55.8693 -12.9335 8.5959 16.3129
# 2 31.2472 73.7042 47.3771 -11.5713 2.8599 19.8543
# 3 55.8693 47.3771 113.6761 -24.4467 11.1173 13.9589
# 4 -12.9335 -11.5713 -24.4467 36.2910 6.5413 4.8733
# 5 8.5959 2.8599 11.1173 6.5413 43.6805 0.2245
# 6 16.3129 19.8543 13.9589 4.8733 0.2245 28.2139
#
#
#
# Elastic Compliance Matrix: (Units=1/GPa)
#
#
# Indices 1 2 3 4 5 6 
#
# 1 0.014746 -0.000701 -0.005583 0.002348 -0.001757 -0.005662
# 2 -0.000701 0.022041 -0.006340 0.004261 -0.000264 -0.012702
# 3 -0.005583 -0.006340 0.016527 0.008072 -0.003892 -0.001851
# 4 0.002348 0.004261 0.008072 0.038734 -0.008519 -0.014972
# 5 -0.001757 -0.000264 -0.003892 -0.008519 0.025500 0.004396
# 6 -0.005662 -0.012702 -0.001851 -0.014972 0.004396 0.051123
#
#
# Mechanical properties :
#
#
# Convention : Reuss Voigt Hill
#
# Bulk Modulus (GPa) = 35.62943 61.79638 48.71291
# Shear Modulus (GPa) = 24.59734 31.81617 28.20676
#
# Velocity S-wave (km/s) = 3.61521 4.11163 3.87138
# Velocity P-wave (km/s) = 6.02976 7.44151 6.77252
#
# Compressibility (1/GPa) = 0.02806668
#
# Stress axis : x y z
#
# Youngs Moduli (GPa) = 67.81399 45.37015 60.50722
#
# Poissons Ratio (x) = 0.03179 0.33783
# Poissons Ratio (y) = 0.04752 0.38360
# Poissons Ratio (z) = 0.37863 0.28763
#
# Static dielectric constant tensor:
#      x y z
#    x 1.699910 0.002910 0.021660 
#    y 0.002910 1.685960 0.026750 
#    z 0.021660 0.026750 1.666260 
# 
# From -- ./inp_files/314362.got.cif
#   From: 2010.05.17/outbox.cif.g08.bks.cpg/sg2_158_cif.got.tgz:314362.got - 2010.06.03 11:33:40.
