data_PCOD9106518
_publ_section_title
;
Structure prediction by ZEFSAII (Michael W. Deem and Ramdas Pophale) SiO2 
 PCOD9106518
Probable space group: P -1
;
_chemical_formula_sum "Si O2"
_cell_formula_units_Z 10
_cell_length_a 11.872433
_cell_length_b 8.525980
_cell_length_c 16.224097
_cell_angle_alpha 29.746078
_cell_angle_beta 28.509491
_cell_angle_gamma 40.078372
_cell_volume 388.901957
_symmetry_space_group_name_H-M "P -1"
_symmetry_group_IT_number 2
_symmetry_cell_setting 'triclinic'
loop_
_space_group_symop_operation_xyz
x,y,z
-x,-y,-z
loop_
_atom_site_type_symbol
_atom_site_label
_atom_site_fract_x
_atom_site_fract_y
_atom_site_fract_z
Si Si1 0.765105 0.376864 0.249423
Si Si2 0.348390 0.266483 0.100116
Si Si3 0.896846 0.670140 0.185969
Si Si4 0.790728 0.699581 0.632399
Si Si5 0.302992 0.562589 0.408989
O O1 0.738037 0.637793 0.221814
O O2 0.549052 0.380731 0.321901
O O3 0.783481 0.028985 0.437149
O O4 0.000000 0.500000 0.000000
O O5 0.587768 0.458152 0.847011
O O6 0.279301 0.230741 0.258165
O O7 0.125725 0.454387 0.121664
O O8 0.360384 0.930015 0.203948
O O9 0.758427 0.537562 0.412689
O O10 0.000000 0.000000 0.000000
O O11 0.050514 0.536369 0.538695
#
# Coordination Sequence:
#
# PCOD9106518 Si02
#       5
#     2   2   2   2   2
#     4  12  26  43  64  97 140 174 208 268 336 390
#     4  10  20  39  71  99 124 163 228 282 308 371
#     4  11  22  41  71 100 127 171 223 270 319 386
#     4  10  21  41  64  99 130 165 221 271 322 383
#     4  11  22  41  70  94 126 176 223 272 314 378
#
# _framework density 25.713418999999998
#
# number of rings (size 3 to 8) (size 9 to 14) (size 15 to 20)
#    0.000    1.200    4.000    3.000    8.400    0.800 
#    0.000    5.000    0.000    0.000    0.000    0.000 
#    0.000    0.000    0.000    0.000    0.000    0.000 
#
# Total GULP energy -56029.511589 kJ/mol
# GULP energy per Si atom -5602.951159 kJ/mol
# Density = 2.565489 g / cm^3
# Si number density = 25.713419 Si / 1000 Ang^3
#
#
#
# Elastic Constant Matrix: (Units=GPa)
#
#
# Indices 1 2 3 4 5 6 
#
# 1 113.1361 26.9643 52.8381 5.7124 -8.7874 -15.4420
# 2 26.9643 82.3697 58.7525 6.1254 -6.4170 -40.4675
# 3 52.8381 58.7525 209.8702 13.2326 -16.7446 -18.8769
# 4 5.7124 6.1254 13.2326 49.5958 0.2121 -19.8373
# 5 -8.7874 -6.4170 -16.7446 0.2121 47.9943 9.3571
# 6 -15.4420 -40.4675 -18.8769 -19.8373 9.3571 43.7012
#
#
#
# Elastic Compliance Matrix: (Units=1/GPa)
#
#
# Indices 1 2 3 4 5 6 
#
# 1 0.010351 -0.000920 -0.002144 0.000227 0.000664 0.001840
# 2 -0.000920 0.032100 -0.006903 0.010957 -0.004648 0.032386
# 3 -0.002144 -0.006903 0.007083 -0.003223 0.002351 -0.006057
# 4 0.000227 0.010957 -0.003223 0.028779 -0.004189 0.022795
# 5 0.000664 -0.004648 0.002351 -0.004189 0.023105 -0.009902
# 6 0.001840 0.032386 -0.006057 0.022795 -0.009902 0.063374
#
#
# Mechanical properties :
#
#
# Convention : Reuss Voigt Hill
#
# Bulk Modulus (GPa) = 33.78544 75.83176 54.80860
# Shear Modulus (GPa) = 25.69459 46.04632 35.87045
#
# Velocity S-wave (km/s) = 3.16455 4.23632 3.73903
# Velocity P-wave (km/s) = 5.14978 7.31325 6.32471
#
# Compressibility (1/GPa) = 0.02959855
#
# Stress axis : x y z
#
# Youngs Moduli (GPa) = 96.60975 31.15292 141.17936
#
# Poissons Ratio (x) = 0.02867 0.30271
# Poissons Ratio (y) = 0.08891 0.97459
# Poissons Ratio (z) = 0.20715 0.21505
#
# Static dielectric constant tensor:
#      x y z
#    x 2.052510 0.014220 0.021150 
#    y 0.014220 2.043850 0.031570 
#    z 0.021150 0.031570 1.966090 
# 
# From -- ./inp_files/144109.got.cif
#   From: 2010.05.17/outbox.cif.g08.bks.cpg/sg2_73_cif.got.tgz:144109.got - 2010.06.03 11:33:40.
