data_PCOD9106967
_publ_section_title
;
Structure prediction by ZEFSAII (Michael W. Deem and Ramdas Pophale) SiO2 
 PCOD9106967
Probable space group: P -1
;
_chemical_formula_sum "Si O2"
_cell_formula_units_Z 16
_cell_length_a 8.558283
_cell_length_b 21.075194
_cell_length_c 9.342260
_cell_angle_alpha 58.236587
_cell_angle_beta 132.595470
_cell_angle_gamma 140.439837
_cell_volume 789.985162
_symmetry_space_group_name_H-M "P -1"
_symmetry_group_IT_number 2
_symmetry_cell_setting 'triclinic'
loop_
_space_group_symop_operation_xyz
x,y,z
-x,-y,-z
loop_
_atom_site_type_symbol
_atom_site_label
_atom_site_fract_x
_atom_site_fract_y
_atom_site_fract_z
Si Si1 0.717407 0.955093 0.789342
Si Si2 0.757190 0.273162 0.233302
Si Si3 0.769645 0.526197 0.553877
Si Si4 0.111921 0.242489 0.306206
Si Si5 0.468070 0.922207 0.971146
Si Si6 0.563315 0.553015 0.829553
Si Si7 0.931153 0.931609 0.399463
Si Si8 0.126970 0.591064 0.076786
O O1 0.518333 0.838157 0.762774
O O2 0.544855 0.955586 0.811413
O O3 0.821110 0.014730 0.632836
O O4 0.000000 0.000000 0.000000
O O5 0.937822 0.366492 0.343374
O O6 0.987152 0.265812 0.328118
O O7 0.664814 0.307116 0.005071
O O8 0.500000 0.500000 0.500000
O O9 0.690916 0.522413 0.346644
O O10 0.771127 0.437770 0.697173
O O11 0.371595 0.344314 0.270353
O O12 0.152994 0.169286 0.476403
O O13 0.854655 0.178866 0.109959
O O14 0.672111 0.907874 0.180727
O O15 0.500000 0.000000 0.000000
O O16 0.500000 0.500000 0.000000
O O17 0.862898 0.583725 0.944792
O O18 0.000000 0.000000 0.500000
O O19 0.000000 0.500000 0.000000
#
# Coordination Sequence:
#
# PCOD9106967 Si02
#       8
#     2   2   2   2   2   2   2   2
#     4   9  21  39  62  92 125 162 212 260 314 380
#     4   9  19  38  63  96 122 161 217 254 315 382
#     4  11  19  39  67  91 124 168 211 258 313 387
#     4  10  21  40  62  86 126 163 206 255 319 376
#     4  10  20  40  62  89 125 163 204 260 317 372
#     4  11  24  42  60  95 131 162 209 267 324 380
#     4  11  22  41  63  87 122 168 211 262 314 369
#     4   9  18  37  64  88 121 161 205 257 307 378
#
# _framework density 20.253544999999999
#
# number of rings (size 3 to 8) (size 9 to 14) (size 15 to 20)
#    0.000    2.000    5.000    0.000    0.000    6.500 
#    6.750    0.000    0.000    0.000    0.000    0.000 
#    0.000    0.000    0.000    0.000    0.000    0.000 
#
# Total GULP energy -89070.683091 kJ/mol
# GULP energy per Si atom -5566.917693 kJ/mol
# Density = 2.020745 g / cm^3
# Si number density = 20.253545 Si / 1000 Ang^3
#
#
#
# Elastic Constant Matrix: (Units=GPa)
#
#
# Indices 1 2 3 4 5 6 
#
# 1 34.3097 36.5081 29.7749 -12.5666 -11.8840 -6.0755
# 2 36.5081 140.4328 62.3029 -13.5190 -13.4048 -0.1869
# 3 29.7749 62.3029 161.5532 -14.9483 -9.0284 -4.7780
# 4 -12.5666 -13.5190 -14.9483 45.1847 -3.9823 5.3324
# 5 -11.8840 -13.4048 -9.0284 -3.9823 36.4446 -2.1498
# 6 -6.0755 -0.1869 -4.7780 5.3324 -2.1498 23.7376
#
#
#
# Elastic Compliance Matrix: (Units=1/GPa)
#
#
# Indices 1 2 3 4 5 6 
#
# 1 0.054401 -0.009872 -0.004033 0.010750 0.014990 0.011977
# 2 -0.009872 0.010753 -0.002415 0.000016 -0.000033 -0.002935
# 3 -0.004033 -0.002415 0.007935 0.000725 -0.000136 0.000371
# 4 0.010750 0.000016 0.000725 0.026216 0.006413 -0.002411
# 5 0.014990 -0.000033 -0.000136 0.006413 0.033299 0.005384
# 6 0.011977 -0.002935 0.000371 -0.002411 0.005384 0.046273
#
#
# Mechanical properties :
#
#
# Convention : Reuss Voigt Hill
#
# Bulk Modulus (GPa) = 24.72165 65.94085 45.33125
# Shear Modulus (GPa) = 22.22243 34.92068 28.57156
#
# Velocity S-wave (km/s) = 3.31601 4.15682 3.76000
# Velocity P-wave (km/s) = 5.18593 7.46105 6.42500
#
# Compressibility (1/GPa) = 0.04045037
#
# Stress axis : x y z
#
# Youngs Moduli (GPa) = 18.38217 92.99828 126.02725
#
# Poissons Ratio (x) = 0.91805 0.50822
# Poissons Ratio (y) = 0.18146 0.30431
# Poissons Ratio (z) = 0.07413 0.22455
#
# Static dielectric constant tensor:
#      x y z
#    x 1.870440 0.074590 -0.044190 
#    y 0.074590 1.822210 -0.040530 
#    z -0.044190 -0.040530 1.745370 
# 
# From -- ./inp_files/222014.got.cif
#   From: 2010.05.17/outbox.cif.g08.bks.cpg/sg2_112_cif.got.tgz:222014.got - 2010.06.03 11:33:40.
