data_PCOD9106051
_publ_section_title
;
Structure prediction by ZEFSAII (Michael W. Deem and Ramdas Pophale) SiO2 
 PCOD9106051
Probable space group: P -1
;
_chemical_formula_sum "Si O2"
_cell_formula_units_Z 16
_cell_length_a 9.167342
_cell_length_b 11.312374
_cell_length_c 21.015723
_cell_angle_alpha 141.759684
_cell_angle_beta 39.704175
_cell_angle_gamma 141.700575
_cell_volume 766.713359
_symmetry_space_group_name_H-M "P -1"
_symmetry_group_IT_number 2
_symmetry_cell_setting 'triclinic'
loop_
_space_group_symop_operation_xyz
x,y,z
-x,-y,-z
loop_
_atom_site_type_symbol
_atom_site_label
_atom_site_fract_x
_atom_site_fract_y
_atom_site_fract_z
Si Si1 0.482040 0.401072 0.217064
Si Si2 0.532530 0.287429 0.408080
Si Si3 0.117017 0.874020 0.333206
Si Si4 0.754692 0.403202 0.251101
Si Si5 0.084308 0.102745 0.727295
Si Si6 0.298112 0.586765 0.093574
Si Si7 0.243719 0.722350 0.029366
Si Si8 0.929134 0.314394 0.392977
O O1 0.535914 0.352003 0.250473
O O2 0.680470 0.655579 0.249170
O O3 0.195487 0.365732 0.290068
O O4 0.555111 0.259809 0.084220
O O5 0.500000 0.500000 0.500000
O O6 0.658672 0.268114 0.290002
O O7 0.716612 0.309432 0.413883
O O8 0.260650 0.076436 0.414762
O O9 0.320729 0.778844 0.212729
O O10 0.867903 0.653270 0.339850
O O11 0.039817 0.938723 0.318972
O O12 0.002007 0.410584 0.133599
O O13 0.872083 0.111821 0.850368
O O14 0.157923 0.918001 0.643888
O O15 0.327376 0.678671 0.051813
O O16 0.500000 0.500000 0.000000
O O17 0.000000 0.500000 0.000000
O O18 0.000000 0.500000 0.500000
#
# Coordination Sequence:
#
# PCOD9106051 Si02
#       8
#     2   2   2   2   2   2   2   2
#     4  10  20  39  67  89 122 157 199 242 296 354
#     4  12  25  42  61  83 119 157 198 250 299 350
#     4   8  19  39  61  86 118 155 195 236 295 346
#     4   9  20  39  62  88 118 160 193 234 303 341
#     4   9  19  40  64  88 123 154 199 243 292 353
#     4   9  18  33  61  89 125 155 189 241 288 355
#     4   9  16  34  62  93 117 162 191 236 301 344
#     4  12  27  41  60  90 115 156 205 253 293 352
#
# _framework density 20.868296000000001
#
# number of rings (size 3 to 8) (size 9 to 14) (size 15 to 20)
#    0.750    1.500    2.500    2.250    1.750    4.500 
#    0.000    0.625    0.000    0.000    0.000    0.000 
#    0.000    0.000    0.000    0.000    0.000    0.000 
#
# Total GULP energy -89213.345673 kJ/mol
# GULP energy per Si atom -5575.834105 kJ/mol
# Density = 2.082080 g / cm^3
# Si number density = 20.868296 Si / 1000 Ang^3
#
#
#
# Elastic Constant Matrix: (Units=GPa)
#
#
# Indices 1 2 3 4 5 6 
#
# 1 95.0191 27.3890 31.3079 6.7763 -17.7899 0.0594
# 2 27.3890 74.2144 6.2461 -2.1085 -1.4330 3.2103
# 3 31.3079 6.2461 60.0787 7.2485 -7.6161 -2.7560
# 4 6.7763 -2.1085 7.2485 33.5269 -6.4370 -1.4322
# 5 -17.7899 -1.4330 -7.6161 -6.4370 36.2075 1.9599
# 6 0.0594 3.2103 -2.7560 -1.4322 1.9599 33.5280
#
#
#
# Elastic Compliance Matrix: (Units=1/GPa)
#
#
# Indices 1 2 3 4 5 6 
#
# 1 0.015292 -0.004978 -0.006633 -0.000878 0.005790 -0.000472
# 2 -0.004978 0.015334 0.000583 0.001526 -0.001376 -0.001266
# 3 -0.006633 0.000583 0.020521 -0.002903 0.000484 0.001490
# 4 -0.000878 0.001526 -0.002903 0.031642 0.004606 0.000699
# 5 0.005790 -0.001376 0.000484 0.004606 0.031410 -0.001478
# 6 -0.000472 -0.001266 0.001490 0.000699 -0.001478 0.030187
#
#
# Mechanical properties :
#
#
# Convention : Reuss Voigt Hill
#
# Bulk Modulus (GPa) = 34.37471 39.91092 37.14282
# Shear Modulus (GPa) = 28.38709 31.61044 29.99877
#
# Velocity S-wave (km/s) = 3.69222 3.89621 3.79559
# Velocity P-wave (km/s) = 5.88937 6.27752 6.08654
#
# Compressibility (1/GPa) = 0.02909115
#
# Stress axis : x y z
#
# Youngs Moduli (GPa) = 65.39570 65.21449 48.73163
#
# Poissons Ratio (x) = 0.32463 0.32323
# Poissons Ratio (y) = 0.32553 -0.02842
# Poissons Ratio (z) = 0.43375 -0.03803
#
# Static dielectric constant tensor:
#      x y z
#    x 1.672720 0.004920 0.015350 
#    y 0.004920 1.801630 -0.028500 
#    z 0.015350 -0.028500 1.791450 
# 
# From -- ./inp_files/607588.got.cif
#   From: 2010.05.17/outbox.cif.g08.bks.cpg/sg2_304_cif.got.tgz:607588.got - 2010.06.03 11:33:40.
