data_PCOD9106532
_publ_section_title
;
Structure prediction by ZEFSAII (Michael W. Deem and Ramdas Pophale) SiO2 
 PCOD9106532
Probable space group: P -1
;
_chemical_formula_sum "Si O2"
_cell_formula_units_Z 16
_cell_length_a 11.975478
_cell_length_b 8.925087
_cell_length_c 19.138413
_cell_angle_alpha 131.633952
_cell_angle_beta 27.741548
_cell_angle_gamma 116.850892
_cell_volume 654.740101
_symmetry_space_group_name_H-M "P -1"
_symmetry_group_IT_number 2
_symmetry_cell_setting 'triclinic'
loop_
_space_group_symop_operation_xyz
x,y,z
-x,-y,-z
loop_
_atom_site_type_symbol
_atom_site_label
_atom_site_fract_x
_atom_site_fract_y
_atom_site_fract_z
Si Si1 0.494185 0.170963 0.472607
Si Si2 0.848043 0.745841 0.688589
Si Si3 0.455913 0.296070 0.873055
Si Si4 0.155042 0.472241 0.237247
Si Si5 0.559032 0.801948 0.646747
Si Si6 0.677798 0.211529 0.524083
Si Si7 0.951152 0.416231 0.925525
Si Si8 0.606394 0.266524 0.141878
O O1 0.527492 0.225736 0.391916
O O2 0.693938 0.191349 0.424787
O O3 0.213583 0.326051 0.707289
O O4 0.481778 0.932886 0.410174
O O5 0.801074 0.707344 0.783109
O O6 0.587702 0.832164 0.814591
O O7 0.000000 0.500000 0.500000
O O8 0.047707 0.863868 0.611295
O O9 0.686343 0.383055 0.780074
O O10 0.568599 0.038657 0.720222
O O11 0.281705 0.366460 0.061324
O O12 0.266224 0.414289 0.950819
O O13 0.847974 0.621576 0.446178
O O14 0.359970 0.794349 0.814565
O O15 0.536479 0.468516 0.696913
O O16 0.849205 0.229574 0.946465
O O17 0.000000 0.500000 0.000000
#
# Coordination Sequence:
#
# PCOD9106532 Si02
#       8
#     2   2   2   2   2   2   2   2
#     4  11  25  42  71 101 132 187 233 277 343 417
#     4  10  20  39  72  95 132 177 224 288 339 402
#     4  11  26  43  68 102 142 178 234 285 338 418
#     4  11  22  44  68 101 139 182 227 288 348 401
#     4  12  25  43  70 103 138 183 226 284 353 403
#     4  10  22  43  67  97 130 178 238 272 336 413
#     4  12  24  46  69  97 142 183 229 284 336 416
#     4  11  23  44  68 102 137 177 227 287 347 402
#
# _framework density 24.437179
#
# number of rings (size 3 to 8) (size 9 to 14) (size 15 to 20)
#    0.000    1.000    6.250    1.125    3.500    2.500 
#    2.250    1.875    0.000    0.000    0.000    0.000 
#    0.000    0.000    0.000    0.000    0.000    0.000 
#
# Total GULP energy -89599.659006 kJ/mol
# GULP energy per Si atom -5599.978688 kJ/mol
# Density = 2.438156 g / cm^3
# Si number density = 24.437179 Si / 1000 Ang^3
#
#
#
# Elastic Constant Matrix: (Units=GPa)
#
#
# Indices 1 2 3 4 5 6 
#
# 1 138.5806 18.2537 33.4674 -5.3677 25.3945 -7.3416
# 2 18.2537 51.1058 23.8723 2.6883 7.2140 2.5838
# 3 33.4674 23.8723 62.4217 10.8418 14.5540 -4.3161
# 4 -5.3677 2.6883 10.8418 39.5165 -5.9854 5.8765
# 5 25.3945 7.2140 14.5540 -5.9854 34.0006 -13.9093
# 6 -7.3416 2.5838 -4.3161 5.8765 -13.9093 46.8264
#
#
#
# Elastic Compliance Matrix: (Units=1/GPa)
#
#
# Indices 1 2 3 4 5 6 
#
# 1 0.009190 -0.000884 -0.003749 0.001661 -0.005005 -0.000551
# 2 -0.000884 0.024332 -0.008746 0.000784 -0.001817 -0.002926
# 3 -0.003749 -0.008746 0.024361 -0.007778 -0.006678 0.001133
# 4 0.001661 0.000784 -0.007778 0.028875 0.006054 -0.002325
# 5 -0.005005 -0.001817 -0.006678 0.006054 0.041681 0.010321
# 6 -0.000551 -0.002926 0.001133 -0.002325 0.010321 0.024893
#
#
# Mechanical properties :
#
#
# Convention : Reuss Voigt Hill
#
# Bulk Modulus (GPa) = 32.12898 44.81054 38.46976
# Shear Modulus (GPa) = 26.25162 35.83634 31.04398
#
# Velocity S-wave (km/s) = 3.28113 3.83360 3.56808
# Velocity P-wave (km/s) = 5.24696 6.16216 5.72288
#
# Compressibility (1/GPa) = 0.03112455
#
# Stress axis : x y z
#
# Youngs Moduli (GPa) = 108.81312 41.09873 41.04932
#
# Poissons Ratio (x) = 0.03635 0.15388
# Poissons Ratio (y) = 0.09624 0.35901
# Poissons Ratio (z) = 0.40791 0.35944
#
# Static dielectric constant tensor:
#      x y z
#    x 1.929520 0.017910 -0.010270 
#    y 0.017910 1.950880 -0.013440 
#    z -0.010270 -0.013440 2.023050 
# 
# From -- ./inp_files/566886.got.cif
#   From: 2010.05.17/outbox.cif.g08.bks.cpg/sg2_284_cif.got.tgz:566886.got - 2010.06.03 11:33:40.
