data_PCOD9106236
_publ_section_title
;
Structure prediction by ZEFSAII (Michael W. Deem and Ramdas Pophale) SiO2 
 PCOD9106236
Probable space group: P -1
;
_chemical_formula_sum "Si O2"
_cell_formula_units_Z 14
_cell_length_a 8.233288
_cell_length_b 11.302761
_cell_length_c 15.974606
_cell_angle_alpha 50.029410
_cell_angle_beta 105.743775
_cell_angle_gamma 65.677551
_cell_volume 665.625837
_symmetry_space_group_name_H-M "P -1"
_symmetry_group_IT_number 2
_symmetry_cell_setting 'triclinic'
loop_
_space_group_symop_operation_xyz
x,y,z
-x,-y,-z
loop_
_atom_site_type_symbol
_atom_site_label
_atom_site_fract_x
_atom_site_fract_y
_atom_site_fract_z
Si Si1 0.782291 0.133469 0.982290
Si Si2 0.149390 0.570827 0.707167
Si Si3 0.522765 0.997274 0.228165
Si Si4 0.904575 0.367307 0.972235
Si Si5 0.655815 0.542805 0.025083
Si Si6 0.217815 0.208319 0.811012
Si Si7 0.447779 0.955104 0.602808
O O1 0.455975 0.371414 0.799870
O O2 0.819767 0.254735 0.990902
O O3 0.866275 0.909372 0.138408
O O4 0.000000 0.000000 0.000000
O O5 0.223803 0.534950 0.830777
O O6 0.057058 0.463934 0.717389
O O7 0.873320 0.870436 0.516812
O O8 0.530962 0.961336 0.345093
O O9 0.729210 0.786663 0.281028
O O10 0.546430 0.165197 0.148064
O O11 0.213589 0.178244 0.070789
O O12 0.672299 0.654047 0.776101
O O13 0.897040 0.392540 0.059621
O O14 0.500000 0.500000 0.000000
O O15 0.500000 0.000000 0.000000
O O16 0.500000 0.000000 0.500000
#
# Coordination Sequence:
#
# PCOD9106236 Si02
#       7
#     2   2   2   2   2   2   2
#     4  11  23  38  67  95 118 165 218 268 306 373
#     4  11  22  41  64  95 132 165 209 262 327 371
#     4  11  21  40  66  94 123 173 216 260 312 381
#     4  11  22  39  65  94 126 164 219 252 318 382
#     4  11  19  37  61  93 123 161 213 264 306 380
#     4  10  20  39  68  91 122 164 217 265 306 373
#     4  11  25  38  63  97 135 168 205 264 322 382
#
# _framework density 21.032837000000001
#
# number of rings (size 3 to 8) (size 9 to 14) (size 15 to 20)
#    0.000    1.143    4.286    5.143    2.000    1.143 
#    0.000    0.000    0.000    1.714    0.000    0.000 
#    0.000    0.000    0.000    0.000    0.000    0.000 
#
# Total GULP energy -78021.787752 kJ/mol
# GULP energy per Si atom -5572.984839 kJ/mol
# Density = 2.098497 g / cm^3
# Si number density = 21.032837 Si / 1000 Ang^3
#
#
#
# Elastic Constant Matrix: (Units=GPa)
#
#
# Indices 1 2 3 4 5 6 
#
# 1 102.3193 46.0657 39.4431 -5.2261 -0.0263 1.0278
# 2 46.0657 130.1943 36.4560 21.5335 -3.7638 -1.9868
# 3 39.4431 36.4560 95.5937 4.2301 13.3330 -4.1259
# 4 -5.2261 21.5335 4.2301 24.7118 -6.9854 -3.5276
# 5 -0.0263 -3.7638 13.3330 -6.9854 19.1450 -8.6505
# 6 1.0278 -1.9868 -4.1259 -3.5276 -8.6505 48.3648
#
#
#
# Elastic Compliance Matrix: (Units=1/GPa)
#
#
# Indices 1 2 3 4 5 6 
#
# 1 0.014843 -0.005267 -0.005577 0.010918 0.007351 0.001104
# 2 -0.005267 0.011907 -0.001757 -0.011520 -0.000894 -0.000549
# 3 -0.005577 -0.001757 0.015670 -0.006659 -0.014459 -0.001689
# 4 0.010918 -0.011520 -0.006659 0.063513 0.029460 0.008628
# 5 0.007351 -0.000894 -0.014459 0.029460 0.079649 0.014968
# 6 0.001104 -0.000549 -0.001689 0.008628 0.014968 0.023793
#
#
# Mechanical properties :
#
#
# Convention : Reuss Voigt Hill
#
# Bulk Modulus (GPa) = 58.07302 63.55968 60.81635
# Shear Modulus (GPa) = 20.80594 32.18715 26.49655
#
# Velocity S-wave (km/s) = 3.14859 3.91619 3.55318
# Velocity P-wave (km/s) = 6.39443 7.12275 6.76839
#
# Compressibility (1/GPa) = 0.01721970
#
# Stress axis : x y z
#
# Youngs Moduli (GPa) = 67.37361 83.98093 63.81425
#
# Poissons Ratio (x) = 0.44230 0.35586
# Poissons Ratio (y) = 0.35483 0.11214
# Poissons Ratio (z) = 0.37571 0.14758
#
# Static dielectric constant tensor:
#      x y z
#    x 1.810900 -0.027410 -0.006980 
#    y -0.027410 1.847300 -0.013220 
#    z -0.006980 -0.013220 1.784340 
# 
# From -- ./inp_files/346232.got.cif
#   From: 2010.05.17/outbox.cif.g08.bks.cpg/sg2_174_cif.got.tgz:346232.got - 2010.06.03 11:33:40.
