data_PCOD9106166
_publ_section_title
;
Structure prediction by ZEFSAII (Michael W. Deem and Ramdas Pophale) SiO2 
 PCOD9106166
Probable space group: P -1
;
_chemical_formula_sum "Si O2"
_cell_formula_units_Z 12
_cell_length_a 5.326412
_cell_length_b 12.418909
_cell_length_c 9.306534
_cell_angle_alpha 82.818407
_cell_angle_beta 121.784333
_cell_angle_gamma 118.178110
_cell_volume 454.942783
_symmetry_space_group_name_H-M "P -1"
_symmetry_group_IT_number 2
_symmetry_cell_setting 'triclinic'
loop_
_space_group_symop_operation_xyz
x,y,z
-x,-y,-z
loop_
_atom_site_type_symbol
_atom_site_label
_atom_site_fract_x
_atom_site_fract_y
_atom_site_fract_z
Si Si1 0.627139 0.951860 0.340922
Si Si2 0.247197 0.440602 0.066491
Si Si3 0.300510 0.115457 0.156382
Si Si4 0.701797 0.623490 0.376709
Si Si5 0.439101 0.772515 0.077955
Si Si6 0.458997 0.734566 0.532606
O O1 0.589890 0.906207 0.173966
O O2 0.421783 0.831573 0.397241
O O3 0.516208 0.054987 0.298022
O O4 0.000000 0.000000 0.500000
O O5 0.480236 0.485915 0.269278
O O6 0.500000 0.500000 0.000000
O O7 0.000000 0.500000 0.000000
O O8 0.956830 0.299925 0.988427
O O9 0.271834 0.187405 0.275439
O O10 0.501786 0.214419 0.075729
O O11 0.000000 0.000000 0.000000
O O12 0.635022 0.707307 0.223566
O O13 0.567755 0.656688 0.473918
O O14 0.087335 0.657246 0.499087
#
# Coordination Sequence:
#
# PCOD9106166 Si02
#       6
#     2   2   2   2   2   2
#     4  11  22  41  65  92 130 181 224 264 326 407
#     4  10  20  39  67  97 127 167 220 275 330 397
#     4  12  24  39  62 100 138 175 221 282 332 385
#     4  10  21  42  66  92 125 173 222 267 327 405
#     4  10  22  38  64  98 128 168 222 281 329 384
#     4  11  23  41  64  91 129 176 219 265 328 402
#
# _framework density 26.376944999999999
#
# number of rings (size 3 to 8) (size 9 to 14) (size 15 to 20)
#    0.000    1.333    0.000    8.000    0.000    2.667 
#    0.000    1.667    0.000    0.000    0.000    1.167 
#    0.000    0.000    0.000    0.000    0.000    0.000 
#
# Total GULP energy -67241.431923 kJ/mol
# GULP energy per Si atom -5603.452660 kJ/mol
# Density = 2.631691 g / cm^3
# Si number density = 26.376945 Si / 1000 Ang^3
#
#
#
# Elastic Constant Matrix: (Units=GPa)
#
#
# Indices 1 2 3 4 5 6 
#
# 1 163.9880 36.7821 80.5836 14.2771 -8.4049 19.3952
# 2 36.7821 60.7883 63.6140 16.0224 0.2873 21.6322
# 3 80.5836 63.6140 171.6006 21.2998 -28.3751 6.9548
# 4 14.2771 16.0224 21.2998 71.9045 -0.2737 2.1192
# 5 -8.4049 0.2873 -28.3751 -0.2737 65.7480 2.7173
# 6 19.3952 21.6322 6.9548 2.1192 2.7173 40.5668
#
#
#
# Elastic Compliance Matrix: (Units=1/GPa)
#
#
# Indices 1 2 3 4 5 6 
#
# 1 0.008388 0.000509 -0.004009 -0.000489 -0.000516 -0.003534
# 2 0.000509 0.038283 -0.014133 -0.003946 -0.005488 -0.017661
# 3 -0.004009 -0.014133 0.013551 -0.000250 0.005115 0.006800
# 4 -0.000489 -0.003946 -0.000250 0.014909 -0.000158 0.001612
# 5 -0.000516 -0.005488 0.005115 -0.000158 0.017327 0.001144
# 6 -0.003534 -0.017661 0.006800 0.001612 0.001144 0.034432
#
#
# Mechanical properties :
#
#
# Convention : Reuss Voigt Hill
#
# Bulk Modulus (GPa) = 40.07072 84.25958 62.16515
# Shear Modulus (GPa) = 29.32983 50.00367 39.66675
#
# Velocity S-wave (km/s) = 3.33821 4.35873 3.88215
# Velocity P-wave (km/s) = 5.48477 7.57265 6.61165
#
# Compressibility (1/GPa) = 0.02495588
#
# Stress axis : x y z
#
# Youngs Moduli (GPa) = 119.21697 26.12112 73.79714
#
# Poissons Ratio (x) = -0.01330 0.29587
# Poissons Ratio (y) = -0.06070 1.04298
# Poissons Ratio (z) = 0.47796 0.36917
#
# Static dielectric constant tensor:
#      x y z
#    x 1.910590 0.072780 0.024940 
#    y 0.072780 2.108270 -0.001390 
#    z 0.024940 -0.001390 2.012060 
# 
# From -- ./inp_files/33989.got.cif
#   From: 2010.05.17/outbox.cif.g08.bks.cpg/sg2_17_cif.got.tgz:33989.got - 2010.06.03 11:33:40.
