data_PCOD9106387
_publ_section_title
;
Structure prediction by ZEFSAII (Michael W. Deem and Ramdas Pophale) SiO2 
 PCOD9106387
Probable space group: P -1
;
_chemical_formula_sum "Si O2"
_cell_formula_units_Z 12
_cell_length_a 6.969646
_cell_length_b 6.728291
_cell_length_c 11.326870
_cell_angle_alpha 75.423385
_cell_angle_beta 128.414580
_cell_angle_gamma 94.230019
_cell_volume 400.389003
_symmetry_space_group_name_H-M "P -1"
_symmetry_group_IT_number 2
_symmetry_cell_setting 'triclinic'
loop_
_space_group_symop_operation_xyz
x,y,z
-x,-y,-z
loop_
_atom_site_type_symbol
_atom_site_label
_atom_site_fract_x
_atom_site_fract_y
_atom_site_fract_z
Si Si1 0.612482 0.034889 0.381803
Si Si2 0.475835 0.508023 0.348538
Si Si3 0.544839 0.260381 0.109083
Si Si4 0.003486 0.758286 0.004336
Si Si5 0.897819 0.001390 0.712688
Si Si6 0.272985 0.330958 0.782351
O O1 0.545304 0.271741 0.367183
O O2 0.646926 0.060601 0.252421
O O3 0.829615 0.944116 0.562106
O O4 0.366026 0.935666 0.334225
O O5 0.500000 0.500000 0.500000
O O6 0.222791 0.611593 0.172360
O O7 0.681853 0.629834 0.343909
O O8 0.260961 0.302346 0.043275
O O9 0.703104 0.443221 0.181659
O O10 0.503469 0.220890 0.961744
O O11 0.001274 0.797270 0.855891
O O12 0.000000 0.000000 0.000000
O O13 0.047060 0.200916 0.740829
#
# Coordination Sequence:
#
# PCOD9106387 Si02
#       6
#     2   2   2   2   2   2
#     4   9  21  40  67  98 132 168 216 256 326 389
#     4  11  25  42  62  94 132 172 219 268 317 384
#     4   9  20  38  64  98 126 171 209 264 319 394
#     4  11  21  40  67  87 127 178 212 259 330 382
#     4  10  20  39  69  96 127 171 210 266 318 388
#     4  10  21  40  65  99 129 167 215 268 320 377
#
# _framework density 29.970853999999999
#
# number of rings (size 3 to 8) (size 9 to 14) (size 15 to 20)
#    0.000    2.000    1.667    1.000    0.000    9.333 
#    3.000    0.833    0.000    0.000    0.000    0.000 
#    0.000    0.000    0.000    0.000    0.000    0.000 
#
# Total GULP energy -67210.227731 kJ/mol
# GULP energy per Si atom -5600.852311 kJ/mol
# Density = 2.990264 g / cm^3
# Si number density = 29.970854 Si / 1000 Ang^3
#
#
#
# Elastic Constant Matrix: (Units=GPa)
#
#
# Indices 1 2 3 4 5 6 
#
# 1 122.6625 69.1279 63.3556 -7.7888 24.6863 30.1177
# 2 69.1279 227.7442 62.1377 -11.1060 -0.0005 43.8123
# 3 63.3556 62.1377 263.5713 -39.3090 -20.7633 22.3479
# 4 -7.7888 -11.1060 -39.3090 66.5806 8.2884 4.5884
# 5 24.6863 -0.0005 -20.7633 8.2884 69.9454 -0.7804
# 6 30.1177 43.8123 22.3479 4.5884 -0.7804 74.5499
#
#
#
# Elastic Compliance Matrix: (Units=1/GPa)
#
#
# Indices 1 2 3 4 5 6 
#
# 1 0.012763 -0.002586 -0.002568 0.000415 -0.005349 -0.002948
# 2 -0.002586 0.005741 -0.000417 0.000474 0.000708 -0.002226
# 3 -0.002568 -0.000417 0.005062 0.002379 0.002123 -0.000360
# 4 0.000415 0.000474 0.002379 0.016887 -0.001466 -0.002214
# 5 -0.005349 0.000708 0.002123 -0.001466 0.017004 0.001377
# 6 -0.002948 -0.002226 -0.000360 -0.002214 0.001377 0.016172
#
#
# Mechanical properties :
#
#
# Convention : Reuss Voigt Hill
#
# Bulk Modulus (GPa) = 80.48231 111.46894 95.97562
# Shear Modulus (GPa) = 56.23672 70.17231 63.20451
#
# Velocity S-wave (km/s) = 4.33642 4.84400 4.59722
# Velocity P-wave (km/s) = 7.21003 8.28003 7.76349
#
# Compressibility (1/GPa) = 0.01242509
#
# Stress axis : x y z
#
# Youngs Moduli (GPa) = 78.35352 174.19051 197.55002
#
# Poissons Ratio (x) = 0.45045 0.50725
# Poissons Ratio (y) = 0.20262 0.08229
# Poissons Ratio (z) = 0.20119 0.07256
#
# Static dielectric constant tensor:
#      x y z
#    x 2.401070 -0.035120 -0.076410 
#    y -0.035120 2.409510 0.003940 
#    z -0.076410 0.003940 2.461390 
# 
# From -- ./inp_files/265973.got.cif
#   From: 2010.05.17/outbox.cif.g08.bks.cpg/sg2_133_cif.got.tgz:265973.got - 2010.06.03 11:33:40.
