data_PCOD9106808
_publ_section_title
;
Structure prediction by ZEFSAII (Michael W. Deem and Ramdas Pophale) SiO2 
 PCOD9106808
Probable space group: P -1
;
_chemical_formula_sum "Si O2"
_cell_formula_units_Z 16
_cell_length_a 28.723245
_cell_length_b 23.207819
_cell_length_c 6.266862
_cell_angle_alpha 72.869145
_cell_angle_beta 105.568647
_cell_angle_gamma 169.570846
_cell_volume 717.165295
_symmetry_space_group_name_H-M "P -1"
_symmetry_group_IT_number 2
_symmetry_cell_setting 'triclinic'
loop_
_space_group_symop_operation_xyz
x,y,z
-x,-y,-z
loop_
_atom_site_type_symbol
_atom_site_label
_atom_site_fract_x
_atom_site_fract_y
_atom_site_fract_z
Si Si1 0.759701 0.280548 0.489678
Si Si2 0.816070 0.119148 0.443459
Si Si3 0.605884 0.754012 0.826055
Si Si4 0.389965 0.648117 0.201100
Si Si5 0.696167 0.764671 0.633868
Si Si6 0.131185 0.699788 0.135209
Si Si7 0.865944 0.779429 0.462514
Si Si8 0.885341 0.104850 0.212089
O O1 0.744202 0.194300 0.657638
O O2 0.962393 0.563688 0.577393
O O3 0.894878 0.443004 0.246985
O O4 0.500000 0.000000 0.500000
O O5 0.870183 0.151011 0.253032
O O6 0.805593 0.051692 0.672411
O O7 0.550015 0.831906 0.418022
O O8 0.621970 0.703437 0.833788
O O9 0.356209 0.469916 0.697216
O O10 0.659811 0.822031 0.068342
O O11 0.238649 0.397593 0.295214
O O12 0.170584 0.430554 0.142685
O O13 0.631939 0.966223 0.006630
O O14 0.500000 0.500000 0.500000
O O15 0.812530 0.967800 0.452409
O O16 0.922391 0.993841 0.670513
O O17 0.000000 0.500000 0.000000
O O18 0.000000 0.000000 0.500000
#
# Coordination Sequence:
#
# PCOD9106808 Si02
#       8
#     2   2   2   2   2   2   2   2
#     4  11  27  44  70 101 136 179 228 279 341 404
#     4  10  23  42  63  94 131 170 216 276 328 392
#     4  10  22  39  62  94 124 170 219 268 331 401
#     4  10  23  43  66  93 137 175 220 277 340 395
#     4  10  20  40  61  88 132 165 213 275 332 392
#     4  11  25  46  67 101 139 178 225 281 339 408
#     4  10  20  41  69  93 134 177 216 280 338 391
#     4  10  24  40  65  94 125 175 224 270 334 398
#
# _framework density 22.310058999999999
#
# number of rings (size 3 to 8) (size 9 to 14) (size 15 to 20)
#    0.000    1.750    2.500    0.000    5.250    2.000 
#    4.500    0.625    0.000    0.000    0.000    0.000 
#    0.000    0.000    0.000    0.000    0.000    0.000 
#
# Total GULP energy -89106.970783 kJ/mol
# GULP energy per Si atom -5569.185674 kJ/mol
# Density = 2.225928 g / cm^3
# Si number density = 22.310059 Si / 1000 Ang^3
#
#
#
# Elastic Constant Matrix: (Units=GPa)
#
#
# Indices 1 2 3 4 5 6 
#
# 1 120.2807 43.6681 22.6914 4.2812 -11.1460 8.8732
# 2 43.6681 91.3777 5.1251 -2.2948 -4.1681 1.7161
# 3 22.6914 5.1251 35.8473 5.5856 -7.0234 2.3058
# 4 4.2812 -2.2948 5.5856 29.0569 -12.6412 -1.7488
# 5 -11.1460 -4.1681 -7.0234 -12.6412 39.7521 0.1416
# 6 8.8732 1.7161 2.3058 -1.7488 0.1416 37.6387
#
#
#
# Elastic Compliance Matrix: (Units=1/GPa)
#
#
# Indices 1 2 3 4 5 6 
#
# 1 0.011646 -0.005122 -0.006139 -0.000408 0.001522 -0.002161
# 2 -0.005122 0.013402 0.001134 0.001979 0.000797 0.000616
# 3 -0.006139 0.001134 0.032882 -0.004114 0.002902 -0.000821
# 4 -0.000408 0.001979 -0.004114 0.040934 0.012376 0.002113
# 5 0.001522 0.000797 0.002902 0.012376 0.030115 -0.000111
# 6 -0.002161 0.000616 -0.000821 0.002113 -0.000111 0.027199
#
#
# Mechanical properties :
#
#
# Convention : Reuss Voigt Hill
#
# Bulk Modulus (GPa) = 26.54115 43.38609 34.96362
# Shear Modulus (GPa) = 26.45636 33.02428 29.74032
#
# Velocity S-wave (km/s) = 3.44735 3.85156 3.65505
# Velocity P-wave (km/s) = 5.26953 6.26646 5.78949
#
# Compressibility (1/GPa) = 0.03767734
#
# Stress axis : x y z
#
# Youngs Moduli (GPa) = 85.86333 74.61586 30.41133
#
# Poissons Ratio (x) = 0.38215 0.18670
# Poissons Ratio (y) = 0.43976 -0.03449
# Poissons Ratio (z) = 0.52713 -0.08462
#
# Static dielectric constant tensor:
#      x y z
#    x 1.902160 0.063990 -0.054540 
#    y 0.063990 1.872880 -0.092370 
#    z -0.054540 -0.092370 1.930240 
# 
# From -- ./inp_files/128841.got.cif
#   From: 2010.05.17/outbox.cif.g08.bks.cpg/sg2_65_cif.got.tgz:128841.got - 2010.06.03 11:33:40.
