data_PCOD9106559
_publ_section_title
;
Structure prediction by ZEFSAII (Michael W. Deem and Ramdas Pophale) SiO2 
 PCOD9106559
Probable space group: P -1
;
_chemical_formula_sum "Si O2"
_cell_formula_units_Z 14
_cell_length_a 12.292127
_cell_length_b 8.689899
_cell_length_c 7.620615
_cell_angle_alpha 64.294278
_cell_angle_beta 75.343749
_cell_angle_gamma 45.231697
_cell_volume 518.970337
_symmetry_space_group_name_H-M "P -1"
_symmetry_group_IT_number 2
_symmetry_cell_setting 'triclinic'
loop_
_space_group_symop_operation_xyz
x,y,z
-x,-y,-z
loop_
_atom_site_type_symbol
_atom_site_label
_atom_site_fract_x
_atom_site_fract_y
_atom_site_fract_z
Si Si1 0.124528 0.715102 0.554122
Si Si2 0.687562 0.155190 0.968605
Si Si3 0.688913 0.008240 0.668803
Si Si4 0.807081 0.371843 0.837235
Si Si5 0.400520 0.588011 0.676089
Si Si6 0.503027 0.914724 0.734801
Si Si7 0.981240 0.505242 0.797789
O O1 0.185109 0.667975 0.354845
O O2 0.260510 0.606608 0.691397
O O3 0.082555 0.557374 0.659526
O O4 0.000000 0.000000 0.500000
O O5 0.786498 0.199251 0.001224
O O6 0.524096 0.411552 0.855685
O O7 0.747277 0.036510 0.809770
O O8 0.644174 0.031437 0.156264
O O9 0.542530 0.045862 0.763446
O O10 0.816480 0.745533 0.687620
O O11 0.666246 0.153697 0.440078
O O12 0.648069 0.634625 0.817204
O O13 0.956492 0.330692 0.848263
O O14 0.500000 0.500000 0.500000
O O15 0.500000 0.000000 0.500000
O O16 0.000000 0.500000 0.000000
#
# Coordination Sequence:
#
# PCOD9106559 Si02
#       7
#     2   2   2   2   2   2   2
#     4  12  23  46  75  97 141 192 237 290 351 421
#     4  11  22  43  71 103 138 183 233 290 359 415
#     4  10  21  43  66 100 135 179 240 281 345 421
#     4  11  24  45  68 101 141 181 243 293 343 422
#     4  10  20  39  76 101 133 178 237 289 351 408
#     4  11  25  39  64 105 148 176 221 293 359 415
#     4  11  26  45  67  99 141 192 237 286 349 420
#
# _framework density 26.976493000000001
#
# number of rings (size 3 to 8) (size 9 to 14) (size 15 to 20)
#    0.000    1.143    4.286    2.143    6.000    1.143 
#    0.000    2.857    0.000    0.000    0.000    0.000 
#    0.000    0.000    0.000    0.000    0.000    0.000 
#
# Total GULP energy -78209.258229 kJ/mol
# GULP energy per Si atom -5586.375588 kJ/mol
# Density = 2.691509 g / cm^3
# Si number density = 26.976493 Si / 1000 Ang^3
#
#
#
# Elastic Constant Matrix: (Units=GPa)
#
#
# Indices 1 2 3 4 5 6 
#
# 1 207.7686 18.0799 29.3782 -10.0722 -54.3071 45.1202
# 2 18.0799 71.1835 -2.9464 -25.6082 0.8011 6.7098
# 3 29.3782 -2.9464 94.8745 -6.9323 -30.4959 9.4169
# 4 -10.0722 -25.6082 -6.9323 45.0218 7.9362 4.3443
# 5 -54.3071 0.8011 -30.4959 7.9362 64.1933 -3.7778
# 6 45.1202 6.7098 9.4169 4.3443 -3.7778 36.3297
#
#
#
# Elastic Compliance Matrix: (Units=1/GPa)
#
#
# Indices 1 2 3 4 5 6 
#
# 1 0.009061 -0.000840 0.000639 0.001414 0.007175 -0.010686
# 2 -0.000840 0.018929 0.001517 0.011578 -0.001918 -0.004430
# 3 0.000639 0.001517 0.012936 0.002307 0.006142 -0.004064
# 4 0.001414 0.011578 0.002307 0.030653 -0.002135 -0.008380
# 5 0.007175 -0.001918 0.006142 -0.002135 0.024421 -0.007355
# 6 -0.010686 -0.004430 -0.004064 -0.008380 -0.007355 0.042907
#
#
# Mechanical properties :
#
#
# Convention : Reuss Voigt Hill
#
# Bulk Modulus (GPa) = 22.95822 51.42776 37.19299
# Shear Modulus (GPa) = 33.15801 51.06329 42.11065
#
# Velocity S-wave (km/s) = 3.50972 4.35545 3.95525
# Velocity P-wave (km/s) = 4.99531 6.66322 5.88862
#
# Compressibility (1/GPa) = 0.04355738
#
# Stress axis : x y z
#
# Youngs Moduli (GPa) = 110.36832 52.83031 77.30450
#
# Poissons Ratio (x) = 0.04435 -0.04938
# Poissons Ratio (y) = 0.09266 -0.11728
# Poissons Ratio (z) = -0.07049 -0.08015
#
# Static dielectric constant tensor:
#      x y z
#    x 2.515510 0.519090 -0.504620 
#    y 0.519090 3.182140 -0.827670 
#    z -0.504620 -0.827670 2.825450 
# 
# From -- ./inp_files/242486.got.cif
#   From: 2010.05.17/outbox.cif.g08.bks.cpg/sg2_122_cif.got.tgz:242486.got - 2010.06.03 11:33:40.
