data_PCOD9106102
_publ_section_title
;
Structure prediction by ZEFSAII (Michael W. Deem and Ramdas Pophale) SiO2 
 PCOD9106102
Probable space group: P -1
;
_chemical_formula_sum "Si O2"
_cell_formula_units_Z 14
_cell_length_a 5.690847
_cell_length_b 20.022017
_cell_length_c 5.487018
_cell_angle_alpha 69.281425
_cell_angle_beta 76.845672
_cell_angle_gamma 82.877273
_cell_volume 568.777447
_symmetry_space_group_name_H-M "P -1"
_symmetry_group_IT_number 2
_symmetry_cell_setting 'triclinic'
loop_
_space_group_symop_operation_xyz
x,y,z
-x,-y,-z
loop_
_atom_site_type_symbol
_atom_site_label
_atom_site_fract_x
_atom_site_fract_y
_atom_site_fract_z
Si Si1 0.488687 0.748099 0.406802
Si Si2 0.214754 0.630682 0.847948
Si Si3 0.859703 0.749406 0.931352
Si Si4 0.285565 0.987629 0.867928
Si Si5 0.165701 0.831512 0.065457
Si Si6 0.306905 0.136746 0.529888
Si Si7 0.758399 0.457496 0.546024
O O1 0.419352 0.687800 0.683830
O O2 0.287818 0.758280 0.234887
O O3 0.497249 0.831496 0.375830
O O4 0.736464 0.727749 0.238657
O O5 0.198941 0.584024 0.667087
O O6 0.969830 0.680122 0.866011
O O7 0.267094 0.589686 0.141358
O O8 0.682159 0.802497 0.754649
O O9 0.062025 0.805523 0.869122
O O10 0.320399 0.052820 0.586259
O O11 0.297292 0.904932 0.895731
O O12 0.500000 0.000000 0.000000
O O13 0.000000 0.000000 0.000000
O O14 0.943786 0.849983 0.279002
O O15 0.500000 0.500000 0.500000
O O16 0.000000 0.500000 0.500000
#
# Coordination Sequence:
#
# PCOD9106102 Si02
#       7
#     2   2   2   2   2   2   2
#     4  11  24  43  72 106 153 199 258 329 391 464
#     4  12  28  52  85 120 163 209 258 322 394 473
#     4  11  26  42  70 114 150 198 266 329 392 464
#     4  10  20  39  67  93 142 211 266 328 408 454
#     4  10  21  43  61  99 150 199 268 331 391 461
#     4  10  22  39  67  98 146 200 266 332 387 467
#     4  12  31  59  89 124 166 209 258 313 386 482
#
# _framework density 24.614194000000001
#
# number of rings (size 3 to 8) (size 9 to 14) (size 15 to 20)
#    0.000    1.143    2.857    1.714    8.000    0.571 
#    0.000    0.714    0.000    0.000    0.000    0.000 
#    0.000    0.000    0.000    0.000    0.000    0.000 
#
# Total GULP energy -78129.388596 kJ/mol
# GULP energy per Si atom -5580.670614 kJ/mol
# Density = 2.455817 g / cm^3
# Si number density = 24.614194 Si / 1000 Ang^3
#
#
#
# Elastic Constant Matrix: (Units=GPa)
#
#
# Indices 1 2 3 4 5 6 
#
# 1 114.3761 51.7025 36.7950 -14.5160 -8.2887 -4.1226
# 2 51.7025 164.6458 59.3786 -4.7873 4.0017 -11.8407
# 3 36.7950 59.3786 169.2143 -36.0170 -14.7812 -8.0438
# 4 -14.5160 -4.7873 -36.0170 32.7130 3.1885 -2.8526
# 5 -8.2887 4.0017 -14.7812 3.1885 49.4446 -0.9326
# 6 -4.1226 -11.8407 -8.0438 -2.8526 -0.9326 35.0045
#
#
#
# Elastic Compliance Matrix: (Units=1/GPa)
#
#
# Indices 1 2 3 4 5 6 
#
# 1 0.010936 -0.003252 -0.000199 0.004029 0.001787 0.000518
# 2 -0.003252 0.008212 -0.002947 -0.003182 -0.001859 0.001409
# 3 -0.000199 -0.002947 0.009363 0.009727 0.002414 0.001988
# 4 0.004029 -0.003182 0.009727 0.042937 0.001169 0.005164
# 5 0.001787 -0.001859 0.002414 0.001169 0.021336 0.000800
# 6 0.000518 0.001409 0.001988 0.005164 0.000800 0.030004
#
#
# Mechanical properties :
#
#
# Convention : Reuss Voigt Hill
#
# Bulk Modulus (GPa) = 63.62952 82.66539 73.14745
# Shear Modulus (GPa) = 35.50584 43.45644 39.48114
#
# Velocity S-wave (km/s) = 3.80214 4.20635 4.00934
# Velocity P-wave (km/s) = 6.72175 7.56627 7.15648
#
# Compressibility (1/GPa) = 0.01571598
#
# Stress axis : x y z
#
# Youngs Moduli (GPa) = 91.43738 121.77946 106.80497
#
# Poissons Ratio (x) = 0.39598 0.02122
# Poissons Ratio (y) = 0.29732 0.31477
# Poissons Ratio (z) = 0.01817 0.35890
#
# Static dielectric constant tensor:
#      x y z
#    x 1.781740 0.057720 -0.225240 
#    y 0.057720 1.916690 0.105410 
#    z -0.225240 0.105410 1.802000 
# 
# From -- ./inp_files/10186.got.cif
#   From: 2010.05.17/outbox.cif.g08.bks.cpg/sg2_6_cif.got.tgz:10186.got - 2010.06.03 11:33:40.
