data_PCOD9106228
_publ_section_title
;
Structure prediction by ZEFSAII (Michael W. Deem and Ramdas Pophale) SiO2 
 PCOD9106228
Probable space group: P -1
;
_chemical_formula_sum "Si O2"
_cell_formula_units_Z 16
_cell_length_a 15.335579
_cell_length_b 8.017258
_cell_length_c 13.402402
_cell_angle_alpha 79.830662
_cell_angle_beta 32.630665
_cell_angle_gamma 102.993142
_cell_volume 621.327217
_symmetry_space_group_name_H-M "P -1"
_symmetry_group_IT_number 2
_symmetry_cell_setting 'triclinic'
loop_
_space_group_symop_operation_xyz
x,y,z
-x,-y,-z
loop_
_atom_site_type_symbol
_atom_site_label
_atom_site_fract_x
_atom_site_fract_y
_atom_site_fract_z
Si Si1 0.947001 0.819717 0.246811
Si Si2 0.025563 0.261552 0.139388
Si Si3 0.297295 0.838603 0.017118
Si Si4 0.241170 0.908754 0.391947
Si Si5 0.304764 0.491722 0.662374
Si Si6 0.554826 0.042079 0.556499
Si Si7 0.415939 0.413947 0.227248
Si Si8 0.169349 0.404299 0.288048
O O1 0.900958 0.729027 0.186833
O O2 0.689819 0.635875 0.558037
O O3 0.062553 0.088074 0.118220
O O4 0.101149 0.819722 0.171728
O O5 0.953244 0.274773 0.317572
O O6 0.784466 0.109016 0.335792
O O7 0.204727 0.474422 0.868523
O O8 0.544802 0.060175 0.807596
O O9 0.386542 0.843180 0.821679
O O10 0.200220 0.620167 0.202962
O O11 0.099268 0.824865 0.436466
O O12 0.335731 0.164976 0.299597
O O13 0.500000 0.500000 0.500000
O O14 0.404340 0.728653 0.484400
O O15 0.500000 0.000000 0.500000
O O16 0.292157 0.450810 0.267476
O O17 0.684765 0.606914 0.928518
#
# Coordination Sequence:
#
# PCOD9106228 Si02
#       8
#     2   2   2   2   2   2   2   2
#     4  11  23  42  60  89 139 159 202 270 319 377
#     4  10  22  39  60  88 118 167 211 251 310 368
#     4  10  23  38  60  90 129 164 203 263 315 362
#     4   9  20  37  65  90 123 162 215 257 305 376
#     4  12  25  37  63  94 126 168 208 255 330 373
#     4  11  23  40  62  87 126 163 219 258 296 377
#     4   9  21  40  62  96 122 167 207 264 312 367
#     4  10  20  39  68  89 124 164 219 255 308 378
#
# _framework density 25.751328000000001
#
# number of rings (size 3 to 8) (size 9 to 14) (size 15 to 20)
#    0.000    1.750    0.000    4.125    7.000    0.500 
#    0.000    0.625    0.000    0.000    0.000    0.000 
#    0.000    0.000    0.000    0.000    0.000    0.000 
#
# Total GULP energy -89398.777404 kJ/mol
# GULP energy per Si atom -5587.423588 kJ/mol
# Density = 2.569272 g / cm^3
# Si number density = 25.751328 Si / 1000 Ang^3
#
#
#
# Elastic Constant Matrix: (Units=GPa)
#
#
# Indices 1 2 3 4 5 6 
#
# 1 111.5327 29.5618 19.3342 0.7026 -33.8506 -31.0339
# 2 29.5618 63.6150 12.1295 0.1628 -5.6672 -17.3226
# 3 19.3342 12.1295 88.5187 11.6511 -7.4206 -4.8502
# 4 0.7026 0.1628 11.6511 23.7222 -9.4888 -1.4634
# 5 -33.8506 -5.6672 -7.4206 -9.4888 54.3480 2.0346
# 6 -31.0339 -17.3226 -4.8502 -1.4634 2.0346 45.8156
#
#
#
# Elastic Compliance Matrix: (Units=1/GPa)
#
#
# Indices 1 2 3 4 5 6 
#
# 1 0.015629 -0.003608 -0.002304 0.005072 0.009603 0.008714
# 2 -0.003608 0.018922 -0.001715 0.000892 -0.000524 0.004580
# 3 -0.002304 -0.001715 0.012772 -0.006653 -0.000994 -0.001026
# 4 0.005072 0.000892 -0.006653 0.049882 0.010897 0.004178
# 5 0.009603 -0.000524 -0.000994 0.010897 0.025891 0.005400
# 6 0.008714 0.004580 -0.001026 0.004178 0.005400 0.029246
#
#
# Mechanical properties :
#
#
# Convention : Reuss Voigt Hill
#
# Bulk Modulus (GPa) = 31.18465 42.85748 37.02106
# Shear Modulus (GPa) = 28.04481 38.28657 33.16569
#
# Velocity S-wave (km/s) = 3.30368 3.86006 3.59266
# Velocity P-wave (km/s) = 5.16610 6.04531 5.62291
#
# Compressibility (1/GPa) = 0.03206706
#
# Stress axis : x y z
#
# Youngs Moduli (GPa) = 63.98344 52.84993 78.29846
#
# Poissons Ratio (x) = 0.19068 0.18043
# Poissons Ratio (y) = 0.23085 0.13429
# Poissons Ratio (z) = 0.14745 0.09064
#
# Static dielectric constant tensor:
#      x y z
#    x 2.125260 0.011370 0.099450 
#    y 0.011370 2.045340 -0.002680 
#    z 0.099450 -0.002680 2.112400 
# 
# From -- ./inp_files/99826.got.cif
#   From: 2010.05.17/outbox.cif.g08.bks.cpg/sg2_50_cif.got.tgz:99826.got - 2010.06.03 11:33:40.
