data_PCOD9106170
_publ_section_title
;
Structure prediction by ZEFSAII (Michael W. Deem and Ramdas Pophale) SiO2 
 PCOD9106170
Probable space group: P -1
;
_chemical_formula_sum "Si O2"
_cell_formula_units_Z 16
_cell_length_a 9.474132
_cell_length_b 13.049323
_cell_length_c 8.302645
_cell_angle_alpha 65.530440
_cell_angle_beta 112.719032
_cell_angle_gamma 119.842096
_cell_volume 789.017914
_symmetry_space_group_name_H-M "P -1"
_symmetry_group_IT_number 2
_symmetry_cell_setting 'triclinic'
loop_
_space_group_symop_operation_xyz
x,y,z
-x,-y,-z
loop_
_atom_site_type_symbol
_atom_site_label
_atom_site_fract_x
_atom_site_fract_y
_atom_site_fract_z
Si Si1 0.693971 0.078537 0.499751
Si Si2 0.197063 0.632252 0.658728
Si Si3 0.203427 0.497521 0.423035
Si Si4 0.368802 0.080151 0.722307
Si Si5 0.280650 0.858956 0.053480
Si Si6 0.027470 0.880141 0.143788
Si Si7 0.693534 0.711396 0.285812
Si Si8 0.329771 0.644246 0.049987
O O1 0.728004 0.220486 0.402275
O O2 0.821215 0.073536 0.693150
O O3 0.500000 0.000000 0.500000
O O4 0.724680 0.013446 0.396986
O O5 0.242982 0.586048 0.539900
O O6 0.996215 0.579630 0.611636
O O7 0.259492 0.591559 0.878017
O O8 0.295210 0.406527 0.551465
O O9 0.252368 0.563603 0.228524
O O10 0.570275 0.131297 0.765165
O O11 0.316974 0.192660 0.649078
O O12 0.326293 0.996180 0.918628
O O13 0.099984 0.818546 0.078633
O O14 0.293321 0.766441 0.984679
O O15 0.860095 0.781341 0.210818
O O16 0.000000 0.000000 0.000000
O O17 0.527382 0.679198 0.127070
#
# Coordination Sequence:
#
# PCOD9106170 Si02
#       8
#     2   2   2   2   2   2   2   2
#     4  12  24  42  71 103 135 176 234 282 341 419
#     4  11  25  45  74 104 134 183 238 286 334 417
#     4  11  25  48  69 100 144 182 233 287 341 399
#     4  10  21  40  67  97 134 176 220 280 344 406
#     4  10  20  39  67  97 131 177 224 275 342 409
#     4  12  24  41  63 101 141 181 216 282 361 398
#     4  11  25  44  67 101 145 177 223 292 347 408
#     4  11  24  45  75  98 131 189 239 276 344 411
#
# _framework density 20.278373999999999
#
# number of rings (size 3 to 8) (size 9 to 14) (size 15 to 20)
#    0.000    1.000    5.000    1.500    5.250    1.000 
#    2.250    0.000    0.000    0.000    0.000    0.000 
#    0.000    0.000    0.000    0.000    0.000    0.000 
#
# Total GULP energy -89380.727894 kJ/mol
# GULP energy per Si atom -5586.295493 kJ/mol
# Density = 2.023222 g / cm^3
# Si number density = 20.278374 Si / 1000 Ang^3
#
#
#
# Elastic Constant Matrix: (Units=GPa)
#
#
# Indices 1 2 3 4 5 6 
#
# 1 119.3202 44.7470 52.6030 -0.6587 11.9924 7.5040
# 2 44.7470 106.8525 54.1866 -0.9893 0.9603 -9.7253
# 3 52.6030 54.1866 124.7502 0.7967 -2.3640 -11.1142
# 4 -0.6587 -0.9893 0.7967 31.0220 -4.8868 3.9301
# 5 11.9924 0.9603 -2.3640 -4.8868 23.1109 -4.7144
# 6 7.5040 -9.7253 -11.1142 3.9301 -4.7144 32.6457
#
#
#
# Elastic Compliance Matrix: (Units=1/GPa)
#
#
# Indices 1 2 3 4 5 6 
#
# 1 0.013139 -0.003659 -0.004731 -0.000193 -0.008607 -0.006941
# 2 -0.003659 0.013143 -0.003805 0.000251 0.001768 0.003686
# 3 -0.004731 -0.003805 0.012188 -0.000398 0.004763 0.004839
# 4 -0.000193 0.000251 -0.000398 0.033674 0.006531 -0.003127
# 5 -0.008607 0.001768 0.004763 0.006531 0.051736 0.010812
# 6 -0.006941 0.003686 0.004839 -0.003127 0.010812 0.036911
#
#
# Mechanical properties :
#
#
# Convention : Reuss Voigt Hill
#
# Bulk Modulus (GPa) = 71.03194 72.66623 71.84909
# Shear Modulus (GPa) = 26.33305 30.64813 28.49059
#
# Velocity S-wave (km/s) = 3.60749 3.89185 3.75237
# Velocity P-wave (km/s) = 7.24268 7.49049 7.36763
#
# Compressibility (1/GPa) = 0.01407817
#
# Stress axis : x y z
#
# Youngs Moduli (GPa) = 76.10741 76.08712 82.04915
#
# Poissons Ratio (x) = 0.27843 0.38819
# Poissons Ratio (y) = 0.27850 0.31223
# Poissons Ratio (z) = 0.36008 0.28954
#
# Static dielectric constant tensor:
#      x y z
#    x 1.755720 -0.007850 -0.051160 
#    y -0.007850 1.714720 0.003820 
#    z -0.051160 0.003820 1.741230 
# 
# From -- ./inp_files/186145.got.cif
#   From: 2010.05.17/outbox.cif.g08.bks.cpg/sg2_94_cif.got.tgz:186145.got - 2010.06.03 11:33:40.
