data_PCOD9106439
_publ_section_title
;
Structure prediction by ZEFSAII (Michael W. Deem and Ramdas Pophale) SiO2 
 PCOD9106439
Probable space group: P -1
;
_chemical_formula_sum "Si O2"
_cell_formula_units_Z 14
_cell_length_a 13.231164
_cell_length_b 10.202167
_cell_length_c 8.207316
_cell_angle_alpha 115.427477
_cell_angle_beta 75.081944
_cell_angle_gamma 143.664116
_cell_volume 584.694208
_symmetry_space_group_name_H-M "P -1"
_symmetry_group_IT_number 2
_symmetry_cell_setting 'triclinic'
loop_
_space_group_symop_operation_xyz
x,y,z
-x,-y,-z
loop_
_atom_site_type_symbol
_atom_site_label
_atom_site_fract_x
_atom_site_fract_y
_atom_site_fract_z
Si Si1 0.417081 0.332985 0.708826
Si Si2 0.529703 0.764994 0.014967
Si Si3 0.097220 0.517071 0.331581
Si Si4 0.296191 0.545472 0.501838
Si Si5 0.572896 0.065115 0.691085
Si Si6 0.062565 0.905551 0.428364
Si Si7 0.113741 0.764391 0.031656
O O1 0.440083 0.531157 0.834828
O O2 0.585767 0.461199 0.605486
O O3 0.238382 0.100053 0.565838
O O4 0.413991 0.246091 0.839113
O O5 0.684057 0.008622 0.977097
O O6 0.419594 0.782189 0.124408
O O7 0.222938 0.533955 0.359410
O O8 0.232071 0.774442 0.323316
O O9 0.000000 0.500000 0.500000
O O10 0.969304 0.302426 0.146500
O O11 0.116196 0.358464 0.571965
O O12 0.433105 0.798518 0.672818
O O13 0.500000 0.000000 0.500000
O O14 0.091207 0.870333 0.221601
O O15 0.000000 0.000000 0.500000
O O16 0.000000 0.500000 0.000000
#
# Coordination Sequence:
#
# PCOD9106439 Si02
#       7
#     2   2   2   2   2   2   2
#     4  11  26  48  76 104 143 194 245 300 352 431
#     4  11  23  46  74 106 141 186 253 300 351 424
#     4  11  23  42  75 107 143 181 241 308 352 419
#     4  11  24  46  78 103 136 193 246 299 358 413
#     4  10  20  39  70 108 132 169 238 302 354 398
#     4  12  29  48  68 104 155 196 231 289 372 442
#     4  12  27  44  71 109 146 192 237 292 374 432
#
# _framework density 23.944137999999999
#
# number of rings (size 3 to 8) (size 9 to 14) (size 15 to 20)
#    0.000    0.857    2.857    5.143    6.000    2.286 
#    0.000    5.000    0.000    0.000    0.000    0.000 
#    0.000    0.000    0.000    0.000    0.000    0.000 
#
# Total GULP energy -78136.742175 kJ/mol
# GULP energy per Si atom -5581.195870 kJ/mol
# Density = 2.388964 g / cm^3
# Si number density = 23.944138 Si / 1000 Ang^3
#
#
#
# Elastic Constant Matrix: (Units=GPa)
#
#
# Indices 1 2 3 4 5 6 
#
# 1 70.8555 18.0126 60.8144 11.3896 -14.8599 22.9722
# 2 18.0126 155.5297 59.1792 -7.6056 -10.1413 41.7620
# 3 60.8144 59.1792 192.6781 9.2638 -24.7013 36.2301
# 4 11.3896 -7.6056 9.2638 46.3333 9.2171 -4.6588
# 5 -14.8599 -10.1413 -24.7013 9.2171 45.3298 4.9285
# 6 22.9722 41.7620 36.2301 -4.6588 4.9285 40.7552
#
#
#
# Elastic Compliance Matrix: (Units=1/GPa)
#
#
# Indices 1 2 3 4 5 6 
#
# 1 0.025888 0.003305 -0.004365 -0.008658 0.010385 -0.016344
# 2 0.003305 0.009812 -0.001404 -0.000827 0.003904 -0.011236
# 3 -0.004365 -0.001404 0.008353 -0.001978 0.003665 -0.004196
# 4 -0.008658 -0.000827 -0.001978 0.027352 -0.010961 0.011939
# 5 0.010385 0.003904 0.003665 -0.010961 0.032554 -0.018301
# 6 -0.016344 -0.011236 -0.004196 0.011939 -0.018301 0.052571
#
#
# Mechanical properties :
#
#
# Convention : Reuss Voigt Hill
#
# Bulk Modulus (GPa) = 25.55922 77.23064 51.39493
# Shear Modulus (GPa) = 28.65344 45.22080 36.93712
#
# Velocity S-wave (km/s) = 3.46306 4.35051 3.93190
# Velocity P-wave (km/s) = 5.16605 7.58686 6.49032
#
# Compressibility (1/GPa) = 0.03912483
#
# Stress axis : x y z
#
# Youngs Moduli (GPa) = 38.62781 101.91401 119.71825
#
# Poissons Ratio (x) = -0.33683 0.52262
# Poissons Ratio (y) = -0.12767 0.16807
# Poissons Ratio (z) = 0.16863 0.14308
#
# Static dielectric constant tensor:
#      x y z
#    x 2.057860 -0.267880 0.137980 
#    y -0.267880 2.356690 -0.167440 
#    z 0.137980 -0.167440 1.950950 
# 
# From -- ./inp_files/308485.got.cif
#   From: 2010.05.17/outbox.cif.g08.bks.cpg/sg2_155_cif.got.tgz:308485.got - 2010.06.03 11:33:40.
