data_PCOD9106208
_publ_section_title
;
Structure prediction by ZEFSAII (Michael W. Deem and Ramdas Pophale) SiO2 
 PCOD9106208
Probable space group: P -1
;
_chemical_formula_sum "Si O2"
_cell_formula_units_Z 16
_cell_length_a 12.451331
_cell_length_b 9.974190
_cell_length_c 7.504475
_cell_angle_alpha 55.327494
_cell_angle_beta 84.686805
_cell_angle_gamma 113.427357
_cell_volume 637.468375
_symmetry_space_group_name_H-M "P -1"
_symmetry_group_IT_number 2
_symmetry_cell_setting 'triclinic'
loop_
_space_group_symop_operation_xyz
x,y,z
-x,-y,-z
loop_
_atom_site_type_symbol
_atom_site_label
_atom_site_fract_x
_atom_site_fract_y
_atom_site_fract_z
Si Si1 0.230871 0.651371 0.510116
Si Si2 0.986043 0.751492 0.076336
Si Si3 0.265658 0.969847 0.037466
Si Si4 0.593127 0.664120 0.506184
Si Si5 0.253951 0.461082 0.204074
Si Si6 0.975378 0.299374 0.291855
Si Si7 0.441601 0.768900 0.683217
Si Si8 0.159297 0.111057 0.213709
O O1 0.138187 0.694410 0.604462
O O2 0.340239 0.681722 0.601773
O O3 0.129803 0.424260 0.661596
O O4 0.290701 0.807447 0.223553
O O5 0.117564 0.849620 0.087392
O O6 0.009977 0.675829 0.941796
O O7 0.935410 0.884160 0.919219
O O8 0.347713 0.126508 0.756311
O O9 0.267235 0.092968 0.112938
O O10 0.500000 0.500000 0.500000
O O11 0.694636 0.609832 0.591707
O O12 0.533499 0.694077 0.672466
O O13 0.222947 0.308443 0.164347
O O14 0.115678 0.436203 0.257109
O O15 0.365417 0.670097 0.952168
O O16 0.924507 0.075013 0.508277
O O17 0.500000 0.000000 0.500000
#
# Coordination Sequence:
#
# PCOD9106208 Si02
#       8
#     2   2   2   2   2   2   2   2
#     4  11  25  44  66 103 145 177 225 283 367 425
#     4  11  20  39  66 102 138 173 226 292 359 406
#     4  11  25  40  67  99 143 181 224 292 349 416
#     4  12  29  50  72 101 140 191 244 287 337 411
#     4  11  23  47  75 100 133 184 242 293 339 411
#     4  10  21  39  73 103 131 174 229 292 350 415
#     4  12  29  48  74 100 140 195 238 285 336 421
#     4  10  20  39  68 102 137 174 228 285 353 415
#
# _framework density 25.099285999999999
#
# number of rings (size 3 to 8) (size 9 to 14) (size 15 to 20)
#    0.000    1.000    2.500    5.250    7.000    1.500 
#    2.250    0.000    0.000    0.000    0.000    0.000 
#    0.000    0.000    0.000    0.000    0.000    0.000 
#
# Total GULP energy -89590.981270 kJ/mol
# GULP energy per Si atom -5599.436329 kJ/mol
# Density = 2.504216 g / cm^3
# Si number density = 25.099286 Si / 1000 Ang^3
#
#
#
# Elastic Constant Matrix: (Units=GPa)
#
#
# Indices 1 2 3 4 5 6 
#
# 1 72.5993 1.0003 -3.4548 8.1214 5.9678 -1.4237
# 2 1.0003 72.1755 1.0138 4.4761 -1.8414 0.7299
# 3 -3.4548 1.0138 135.5224 -13.5247 21.4322 -3.0319
# 4 8.1214 4.4761 -13.5247 41.8764 0.9268 -0.3495
# 5 5.9678 -1.8414 21.4322 0.9268 39.8858 10.9305
# 6 -1.4237 0.7299 -3.0319 -0.3495 10.9305 29.8885
#
#
#
# Elastic Compliance Matrix: (Units=1/GPa)
#
#
# Indices 1 2 3 4 5 6 
#
# 1 0.014359 -0.000146 0.000621 -0.002489 -0.002921 0.001790
# 2 -0.000146 0.014006 -0.000483 -0.001659 0.001201 -0.000857
# 3 0.000621 -0.000483 0.008647 0.002874 -0.005656 0.003021
# 4 -0.002489 -0.001659 0.002874 0.025528 -0.002203 0.001318
# 5 -0.002921 0.001201 -0.005656 -0.002203 0.032080 -0.012500
# 6 0.001790 -0.000857 0.003021 0.001318 -0.012500 0.038457
#
#
# Mechanical properties :
#
#
# Convention : Reuss Voigt Hill
#
# Bulk Modulus (GPa) = 27.02989 30.82398 28.92694
# Shear Modulus (GPa) = 34.38153 41.11268 37.74711
#
# Velocity S-wave (km/s) = 3.70512 4.05161 3.88224
# Velocity P-wave (km/s) = 5.39412 5.84764 5.62545
#
# Compressibility (1/GPa) = 0.03699608
#
# Stress axis : x y z
#
# Youngs Moduli (GPa) = 69.64039 71.39744 115.64376
#
# Poissons Ratio (x) = 0.01042 -0.07179
# Poissons Ratio (y) = 0.01017 0.05588
# Poissons Ratio (z) = -0.04323 0.03450
#
# Static dielectric constant tensor:
#      x y z
#    x 3.142700 5.199600 0.618370 
#    y 5.199600 25.643860 2.769510 
#    z 0.618370 2.769510 2.318160 
# 
# From -- ./inp_files/261633.got.cif
#   From: 2010.05.17/outbox.cif.g08.bks.cpg/sg2_131_cif.got.tgz:261633.got - 2010.06.03 11:33:40.
