data_PCOD9106500
_publ_section_title
;
Structure prediction by ZEFSAII (Michael W. Deem and Ramdas Pophale) SiO2 
 PCOD9106500
Probable space group: P -1
;
_chemical_formula_sum "Si O2"
_cell_formula_units_Z 13
_cell_length_a 8.672292
_cell_length_b 7.205155
_cell_length_c 20.841381
_cell_angle_alpha 137.904003
_cell_angle_beta 144.655772
_cell_angle_gamma 54.376955
_cell_volume 504.153371
_symmetry_space_group_name_H-M "P -1"
_symmetry_group_IT_number 2
_symmetry_cell_setting 'triclinic'
loop_
_space_group_symop_operation_xyz
x,y,z
-x,-y,-z
loop_
_atom_site_type_symbol
_atom_site_label
_atom_site_fract_x
_atom_site_fract_y
_atom_site_fract_z
Si Si1 0.000000 0.500000 0.500000
Si Si2 0.264043 0.952045 0.742474
Si Si3 0.237498 0.960869 0.973439
Si Si4 0.404199 0.453476 0.083221
Si Si5 0.696334 0.014038 0.378093
Si Si6 0.979382 0.516573 0.156155
Si Si7 0.498312 0.135400 0.603375
O O1 0.046916 0.725630 0.636055
O O2 0.247357 0.323514 0.566316
O O3 0.533007 0.971227 0.878179
O O4 0.284560 0.825504 0.643714
O O5 0.139199 0.249903 0.777750
O O6 0.198531 0.253073 0.002790
O O7 0.369827 0.753307 0.915058
O O8 0.995240 0.775717 0.874689
O O9 0.544167 0.721932 0.231848
O O10 0.246874 0.535057 0.987503
O O11 0.537025 0.084229 0.406364
O O12 0.000000 0.000000 0.500000
O O13 0.240329 0.659018 0.250403
O O14 0.500000 0.000000 0.500000
#
# Coordination Sequence:
#
# PCOD9106500 Si02
#       7
#     1   2   2   2   2   2   2
#     4  12  24  46  72 100 142 188 244 282 370 440
#     4  11  21  43  72 101 142 193 233 299 358 421
#     4  10  20  39  71 105 146 183 245 291 358 432
#     4  10  21  39  69 108 139 195 238 294 358 430
#     4  12  22  42  69 100 145 190 239 293 366 424
#     4  11  21  46  71 102 150 183 241 304 357 421
#     4  12  27  47  70 105 143 189 239 305 362 428
#
# _framework density 25.785806000000001
#
# number of rings (size 3 to 8) (size 9 to 14) (size 15 to 20)
#    0.000    0.923    6.154    1.846    0.000    0.615 
#    2.769    2.308    0.000    0.000    0.000    0.000 
#    0.000    0.000    0.000    0.000    0.000    0.000 
#
# Total GULP energy -72512.300065 kJ/mol
# GULP energy per Si atom -5577.869236 kJ/mol
# Density = 2.572712 g / cm^3
# Si number density = 25.785806 Si / 1000 Ang^3
#
#
#
# Elastic Constant Matrix: (Units=GPa)
#
#
# Indices 1 2 3 4 5 6 
#
# 1 108.7978 10.6812 11.0955 -6.3486 -4.0358 11.1454
# 2 10.6812 70.7048 3.3786 9.9798 -2.1949 10.4790
# 3 11.0955 3.3786 120.6814 11.8854 -2.5184 -0.1611
# 4 -6.3486 9.9798 11.8854 31.2290 3.4619 -3.2741
# 5 -4.0358 -2.1949 -2.5184 3.4619 49.6470 2.5052
# 6 11.1454 10.4790 -0.1611 -3.2741 2.5052 27.5656
#
#
#
# Elastic Compliance Matrix: (Units=1/GPa)
#
#
# Indices 1 2 3 4 5 6 
#
# 1 0.009936 -0.001278 -0.001107 0.002425 0.000693 -0.003313
# 2 -0.001278 0.016240 0.000315 -0.006412 0.001407 -0.006544
# 3 -0.001107 0.000315 0.008761 -0.003743 0.000636 -0.000123
# 4 0.002425 -0.006412 -0.003743 0.036980 -0.003163 0.006115
# 5 0.000693 0.001407 0.000636 -0.003163 0.020668 -0.003066
# 6 -0.003313 -0.006544 -0.000123 0.006115 -0.003066 0.041109
#
#
# Mechanical properties :
#
#
# Convention : Reuss Voigt Hill
#
# Bulk Modulus (GPa) = 32.46974 38.94385 35.70679
# Shear Modulus (GPa) = 33.76117 40.02358 36.89237
#
# Velocity S-wave (km/s) = 3.62234 3.94401 3.78659
# Velocity P-wave (km/s) = 5.48767 5.98965 5.74415
#
# Compressibility (1/GPa) = 0.03079791
#
# Stress axis : x y z
#
# Youngs Moduli (GPa) = 100.64102 61.57670 114.14261
#
# Poissons Ratio (x) = 0.07869 0.12631
# Poissons Ratio (y) = 0.12862 -0.03595
# Poissons Ratio (z) = 0.11137 -0.01939
#
# Static dielectric constant tensor:
#      x y z
#    x 1.868580 -0.115040 -0.303470 
#    y -0.115040 1.956120 -0.095960 
#    z -0.303470 -0.095960 1.786180 
# 
# From -- ./inp_files/587050.got.cif
#   From: 2010.05.17/outbox.cif.g08.bks.cpg/sg2_294_cif.got.tgz:587050.got - 2010.06.03 11:33:40.
