data_PCOD9106485
_publ_section_title
;
Structure prediction by ZEFSAII (Michael W. Deem and Ramdas Pophale) SiO2 
 PCOD9106485
Probable space group: P -1
;
_chemical_formula_sum "Si O2"
_cell_formula_units_Z 16
_cell_length_a 9.229049
_cell_length_b 14.857193
_cell_length_c 9.713227
_cell_angle_alpha 43.522900
_cell_angle_beta 102.791373
_cell_angle_gamma 78.215086
_cell_volume 750.962568
_symmetry_space_group_name_H-M "P -1"
_symmetry_group_IT_number 2
_symmetry_cell_setting 'triclinic'
loop_
_space_group_symop_operation_xyz
x,y,z
-x,-y,-z
loop_
_atom_site_type_symbol
_atom_site_label
_atom_site_fract_x
_atom_site_fract_y
_atom_site_fract_z
Si Si1 0.354399 0.962092 0.046692
Si Si2 0.481782 0.357755 0.115072
Si Si3 0.631497 0.672351 0.575229
Si Si4 0.836899 0.516636 0.301560
Si Si5 0.062965 0.061615 0.070661
Si Si6 0.131041 0.591450 0.276356
Si Si7 0.099069 0.217064 0.526818
Si Si8 0.125363 0.866315 0.571089
O O1 0.466577 0.783072 0.316021
O O2 0.233658 0.053749 0.051733
O O3 0.500000 0.000000 0.000000
O O4 0.218703 0.039513 0.804518
O O5 0.437162 0.312778 0.301643
O O6 0.671831 0.229244 0.236736
O O7 0.500000 0.500000 0.000000
O O8 0.327375 0.408282 0.917855
O O9 0.742576 0.500027 0.724127
O O10 0.767322 0.730373 0.540918
O O11 0.786120 0.513228 0.452243
O O12 0.948814 0.595781 0.218327
O O13 0.973814 0.335821 0.487998
O O14 0.120980 0.942305 0.339662
O O15 0.919163 0.235056 0.898695
O O16 0.000000 0.000000 0.000000
O O17 0.964726 0.231561 0.366479
O O18 0.000000 0.000000 0.500000
#
# Coordination Sequence:
#
# PCOD9106485 Si02
#       8
#     2   2   2   2   2   2   2   2
#     4  10  20  39  70  98 128 174 223 274 328 395
#     4  12  26  45  67  97 143 177 218 274 348 402
#     4  10  24  42  71 101 130 178 227 278 333 407
#     4  10  21  42  69  98 136 175 217 285 329 392
#     4  12  23  44  71  94 134 183 223 277 346 398
#     4  10  23  41  70 103 128 170 236 275 330 393
#     4  10  20  44  70  92 135 182 219 274 345 389
#     4  12  27  44  64  98 138 177 224 277 340 406
#
# _framework density 21.305987999999999
#
# number of rings (size 3 to 8) (size 9 to 14) (size 15 to 20)
#    0.000    1.250    5.000    0.000    3.500    4.000 
#    2.250    2.500    0.000    0.000    0.000    0.000 
#    0.000    0.000    0.000    0.000    0.000    0.000 
#
# Total GULP energy -89354.604906 kJ/mol
# GULP energy per Si atom -5584.662807 kJ/mol
# Density = 2.125749 g / cm^3
# Si number density = 21.305988 Si / 1000 Ang^3
#
#
#
# Elastic Constant Matrix: (Units=GPa)
#
#
# Indices 1 2 3 4 5 6 
#
# 1 76.2570 39.2441 46.7530 2.5497 18.3931 -14.8065
# 2 39.2441 90.1127 18.9497 -11.4839 18.2852 -2.5168
# 3 46.7530 18.9497 98.5641 -2.9811 32.7741 6.1161
# 4 2.5497 -11.4839 -2.9811 31.5966 1.0773 3.2328
# 5 18.3931 18.2852 32.7741 1.0773 27.1222 -0.9001
# 6 -14.8065 -2.5168 6.1161 3.2328 -0.9001 36.7348
#
#
#
# Elastic Compliance Matrix: (Units=1/GPa)
#
#
# Indices 1 2 3 4 5 6 
#
# 1 0.030924 -0.012588 -0.016178 -0.010446 0.007990 0.015411
# 2 -0.012588 0.018886 0.007716 0.009730 -0.014115 -0.006267
# 3 -0.016178 0.007716 0.026171 0.008690 -0.026591 -0.011765
# 4 -0.010446 0.009730 0.008690 0.038133 -0.011778 -0.008635
# 5 0.007990 -0.014115 -0.026591 -0.011778 0.073884 0.009527
# 6 0.015411 -0.006267 -0.011765 -0.008635 0.009527 0.035957
#
#
# Mechanical properties :
#
#
# Convention : Reuss Voigt Hill
#
# Bulk Modulus (GPa) = 29.51324 52.75861 41.13592
# Shear Modulus (GPa) = 18.02799 29.75651 23.89225
#
# Velocity S-wave (km/s) = 2.91202 3.74120 3.35234
# Velocity P-wave (km/s) = 5.01883 6.59380 5.85947
#
# Compressibility (1/GPa) = 0.03388310
#
# Stress axis : x y z
#
# Youngs Moduli (GPa) = 32.33699 52.95053 38.21063
#
# Poissons Ratio (x) = 0.66652 0.61816
# Poissons Ratio (y) = 0.40705 -0.29485
# Poissons Ratio (z) = 0.52313 -0.40859
#
# Static dielectric constant tensor:
#      x y z
#    x 1.807240 -0.013120 -0.016370 
#    y -0.013120 1.797320 0.031590 
#    z -0.016370 0.031590 1.861610 
# 
# From -- ./inp_files/205638.got.cif
#   From: 2010.05.17/outbox.cif.g08.bks.cpg/sg2_103_cif.got.tgz:205638.got - 2010.06.03 11:33:40.
