data_PCOD9106033
_publ_section_title
;
Structure prediction by ZEFSAII (Michael W. Deem and Ramdas Pophale) SiO2 
 PCOD9106033
Probable space group: P -1
;
_chemical_formula_sum "Si O2"
_cell_formula_units_Z 16
_cell_length_a 11.871117
_cell_length_b 16.789188
_cell_length_c 6.883769
_cell_angle_alpha 127.031335
_cell_angle_beta 83.534590
_cell_angle_gamma 56.915889
_cell_volume 689.551397
_symmetry_space_group_name_H-M "P -1"
_symmetry_group_IT_number 2
_symmetry_cell_setting 'triclinic'
loop_
_space_group_symop_operation_xyz
x,y,z
-x,-y,-z
loop_
_atom_site_type_symbol
_atom_site_label
_atom_site_fract_x
_atom_site_fract_y
_atom_site_fract_z
Si Si1 0.630518 0.602413 0.566363
Si Si2 0.240987 0.338651 0.063303
Si Si3 0.928281 0.051348 0.314002
Si Si4 0.295284 0.625772 0.276931
Si Si5 0.109827 0.217869 0.859181
Si Si6 0.830379 0.492236 0.007835
Si Si7 0.187847 0.718282 0.858103
Si Si8 0.369556 0.868025 0.298597
O O1 0.665925 0.624604 0.381916
O O2 0.676439 0.453092 0.318396
O O3 0.767179 0.576409 0.634566
O O4 0.446953 0.745479 0.929027
O O5 0.196823 0.255099 0.996881
O O6 0.123246 0.453802 0.073290
O O7 0.447605 0.209659 0.767466
O O8 0.849658 0.216533 0.595263
O O9 0.749983 0.109097 0.487624
O O10 0.000000 0.000000 0.000000
O O11 0.088813 0.891399 0.172698
O O12 0.275521 0.676707 0.573223
O O13 0.500000 0.500000 0.000000
O O14 0.243372 0.546531 0.168400
O O15 0.253892 0.039375 0.495390
O O16 0.987823 0.340938 0.887419
O O17 0.984048 0.238751 0.056046
#
# Coordination Sequence:
#
# PCOD9106033 Si02
#       8
#     2   2   2   2   2   2   2   2
#     4   9  20  37  61  84 127 152 206 241 298 351
#     4  10  20  39  67  82 126 166 198 239 311 356
#     4   9  18  32  60  86 114 152 202 244 299 352
#     4  11  20  38  61  86 121 162 203 248 306 359
#     4  10  21  38  61  90 124 157 199 254 302 353
#     4  11  22  38  60  94 121 152 211 249 289 366
#     4   9  18  36  56  88 117 150 200 245 298 360
#     4   9  19  40  61  88 125 158 203 247 299 365
#
# _framework density 23.203492000000001
#
# number of rings (size 3 to 8) (size 9 to 14) (size 15 to 20)
#    0.750    1.500    1.250    2.250    0.000    2.000 
#    2.250   19.375    0.000    0.000    0.000    0.000 
#    0.000    0.000    0.000    0.000    0.000    0.000 
#
# Total GULP energy -89125.978540 kJ/mol
# GULP energy per Si atom -5570.373659 kJ/mol
# Density = 2.315068 g / cm^3
# Si number density = 23.203492 Si / 1000 Ang^3
#
#
#
# Elastic Constant Matrix: (Units=GPa)
#
#
# Indices 1 2 3 4 5 6 
#
# 1 72.9517 11.7087 31.5620 13.3299 0.4224 9.7588
# 2 11.7087 76.8721 36.5701 5.6354 0.7436 16.0280
# 3 31.5620 36.5701 152.9130 12.2200 14.2975 9.5188
# 4 13.3299 5.6354 12.2200 27.8949 0.9129 4.0390
# 5 0.4224 0.7436 14.2975 0.9129 16.9235 5.2390
# 6 9.7588 16.0280 9.5188 4.0390 5.2390 31.8591
#
#
#
# Elastic Compliance Matrix: (Units=1/GPa)
#
#
# Indices 1 2 3 4 5 6 
#
# 1 0.016673 0.000211 -0.003096 -0.006180 0.003802 -0.004130
# 2 0.000211 0.016496 -0.003910 -0.000737 0.005069 -0.007936
# 3 -0.003096 -0.003910 0.008852 -0.001609 -0.007681 0.001738
# 4 -0.006180 -0.000737 -0.001609 0.039991 0.000114 -0.002344
# 5 0.003802 0.005069 -0.007681 0.000114 0.069223 -0.012818
# 6 -0.004130 -0.007936 0.001738 -0.002344 -0.012818 0.038531
#
#
# Mechanical properties :
#
#
# Convention : Reuss Voigt Hill
#
# Bulk Modulus (GPa) = 35.17280 51.37981 43.27631
# Shear Modulus (GPa) = 23.49243 30.19526 26.84385
#
# Velocity S-wave (km/s) = 3.18536 3.61130 3.40500
# Velocity P-wave (km/s) = 5.35910 6.29125 5.84379
#
# Compressibility (1/GPa) = 0.02843106
#
# Stress axis : x y z
#
# Youngs Moduli (GPa) = 59.97655 60.62043 112.96401
#
# Poissons Ratio (x) = -0.01278 0.34978
# Poissons Ratio (y) = -0.01265 0.44166
# Poissons Ratio (z) = 0.18571 0.23701
#
# Static dielectric constant tensor:
#      x y z
#    x 1.888110 -0.031100 0.003420 
#    y -0.031100 1.920050 0.025780 
#    z 0.003420 0.025780 1.921150 
# 
# From -- ./inp_files/279828.got.cif
#   From: 2010.05.17/outbox.cif.g08.bks.cpg/sg2_140_cif.got.tgz:279828.got - 2010.06.03 11:33:40.
