data_PCOD9106075
_publ_section_title
;
Structure prediction by ZEFSAII (Michael W. Deem and Ramdas Pophale) SiO2 
 PCOD9106075
Probable space group: P -1
;
_chemical_formula_sum "Si O2"
_cell_formula_units_Z 12
_cell_length_a 9.625756
_cell_length_b 8.305646
_cell_length_c 7.770681
_cell_angle_alpha 127.539985
_cell_angle_beta 67.258235
_cell_angle_gamma 97.392406
_cell_volume 449.431941
_symmetry_space_group_name_H-M "P -1"
_symmetry_group_IT_number 2
_symmetry_cell_setting 'triclinic'
loop_
_space_group_symop_operation_xyz
x,y,z
-x,-y,-z
loop_
_atom_site_type_symbol
_atom_site_label
_atom_site_fract_x
_atom_site_fract_y
_atom_site_fract_z
Si Si1 0.431012 0.240432 0.036732
Si Si2 0.849776 0.836307 0.315994
Si Si3 0.135528 0.247636 0.383601
Si Si4 0.943901 0.292762 0.178892
Si Si5 0.370842 0.456103 0.849452
Si Si6 0.352878 0.854402 0.636658
O O1 0.308975 0.265867 0.263638
O O2 0.592352 0.314674 0.042896
O O3 0.362664 0.392583 0.012549
O O4 0.432057 0.012805 0.816236
O O5 0.873526 0.892073 0.537375
O O6 0.769158 0.629301 0.225084
O O7 0.733191 0.010411 0.388810
O O8 0.990126 0.776527 0.082322
O O9 0.056866 0.186021 0.205917
O O10 0.050074 0.468288 0.629687
O O11 0.776398 0.243261 0.265141
O O12 0.519764 0.317389 0.610239
#
# Coordination Sequence:
#
# PCOD9106075 Si02
#       6
#     2   2   2   2   2   2
#     4  10  20  39  67  92 127 171 213 259 327 379
#     4  11  23  40  69  96 130 169 220 269 319 388
#     4  11  23  40  68  99 124 176 218 262 330 385
#     4  11  23  44  65  94 136 168 215 270 328 383
#     4  10  21  42  68  93 130 173 215 264 327 384
#     4  11  22  43  68  94 133 173 210 271 329 380
#
# _framework density 26.700372999999999
#
# number of rings (size 3 to 8) (size 9 to 14) (size 15 to 20)
#    0.000    1.333    5.000    3.000    0.000    1.333 
#    0.000    3.333    0.000    0.000    0.000    0.000 
#    0.000    0.000    0.000    0.000    0.000    0.000 
#
# Total GULP energy -67332.150569 kJ/mol
# GULP energy per Si atom -5611.012547 kJ/mol
# Density = 2.663960 g / cm^3
# Si number density = 26.700373 Si / 1000 Ang^3
#
#
#
# Elastic Constant Matrix: (Units=GPa)
#
#
# Indices 1 2 3 4 5 6 
#
# 1 78.5849 58.7412 30.1377 -25.0695 6.6155 0.1334
# 2 58.7412 106.1627 56.8567 -26.6245 -0.3869 37.8291
# 3 30.1377 56.8567 146.6980 -33.3838 -1.2940 -1.1354
# 4 -25.0695 -26.6245 -33.3838 60.6946 2.6603 1.2596
# 5 6.6155 -0.3869 -1.2940 2.6603 35.5911 -5.4829
# 6 0.1334 37.8291 -1.1354 1.2596 -5.4829 46.7074
#
#
#
# Elastic Compliance Matrix: (Units=1/GPa)
#
#
# Indices 1 2 3 4 5 6 
#
# 1 0.033268 -0.028141 0.005099 0.003876 -0.003151 0.022346
# 2 -0.028141 0.044639 -0.011223 0.002564 -0.000503 -0.036474
# 3 0.005099 -0.011223 0.010865 0.002942 0.000542 0.009323
# 4 0.003876 0.002564 0.002942 0.020994 -0.002600 -0.002888
# 5 -0.003151 -0.000503 0.000542 -0.002600 0.029502 0.003963
# 6 0.022346 -0.036474 0.009323 -0.002888 0.003963 0.051657
#
#
# Mechanical properties :
#
#
# Convention : Reuss Voigt Hill
#
# Bulk Modulus (GPa) = 49.39825 69.21297 59.30561
# Shear Modulus (GPa) = 18.78281 40.97929 29.88105
#
# Velocity S-wave (km/s) = 2.65517 3.92188 3.34896
# Velocity P-wave (km/s) = 5.28593 6.81811 6.10031
#
# Compressibility (1/GPa) = 0.02024363
#
# Stress axis : x y z
#
# Youngs Moduli (GPa) = 30.05887 22.40205 92.03558
#
# Poissons Ratio (x) = 0.63041 -0.46931
# Poissons Ratio (y) = 0.84587 1.03291
# Poissons Ratio (z) = -0.15328 0.25142
#
# Static dielectric constant tensor:
#      x y z
#    x 2.143130 -0.021710 0.079810 
#    y -0.021710 2.105570 0.027750 
#    z 0.079810 0.027750 2.024230 
# 
# From -- ./inp_files/236099.got.cif
#   From: 2010.05.17/outbox.cif.g08.bks.cpg/sg2_119_cif.got.tgz:236099.got - 2010.06.03 11:33:40.
