data_PCOD9106592
_publ_section_title
;
Structure prediction by ZEFSAII (Michael W. Deem and Ramdas Pophale) SiO2 
 PCOD9106592
Probable space group: P -1
;
_chemical_formula_sum "Si O2"
_cell_formula_units_Z 16
_cell_length_a 12.678010
_cell_length_b 10.213056
_cell_length_c 11.652872
_cell_angle_alpha 53.688729
_cell_angle_beta 134.713371
_cell_angle_gamma 139.084990
_cell_volume 696.283786
_symmetry_space_group_name_H-M "P -1"
_symmetry_group_IT_number 2
_symmetry_cell_setting 'triclinic'
loop_
_space_group_symop_operation_xyz
x,y,z
-x,-y,-z
loop_
_atom_site_type_symbol
_atom_site_label
_atom_site_fract_x
_atom_site_fract_y
_atom_site_fract_z
Si Si1 0.791468 0.499409 0.161232
Si Si2 0.882565 0.495023 0.619113
Si Si3 0.408653 0.520356 0.758651
Si Si4 0.178958 0.169422 0.118714
Si Si5 0.477456 0.773710 0.068393
Si Si6 0.149958 0.144898 0.370648
Si Si7 0.177769 0.953874 0.693965
Si Si8 0.805397 0.441563 0.832984
O O1 0.985651 0.549389 0.319045
O O2 0.694018 0.535205 0.169053
O O3 0.828551 0.640687 0.007381
O O4 0.643486 0.275580 0.113007
O O5 0.725618 0.473489 0.434353
O O6 0.793538 0.365349 0.734296
O O7 0.034410 0.726600 0.657279
O O8 0.611833 0.734639 0.809354
O O9 0.444625 0.360213 0.826201
O O10 0.159263 0.097866 0.271162
O O11 0.000000 0.000000 0.000000
O O12 0.657036 0.992449 0.125602
O O13 0.350466 0.693109 0.124888
O O14 0.254287 0.103469 0.565523
O O15 0.203554 0.368744 0.290781
O O16 0.945167 0.010297 0.336511
O O17 0.000000 0.500000 0.000000
#
# Coordination Sequence:
#
# PCOD9106592 Si02
#       8
#     2   2   2   2   2   2   2   2
#     4  11  24  45  64  94 130 176 215 264 318 379
#     4  11  24  44  65  93 135 170 213 261 332 382
#     4  11  24  42  68  93 127 178 215 260 317 389
#     4  11  24  40  67  94 122 168 219 269 307 380
#     4  11  21  40  66  97 126 165 222 259 323 379
#     4  10  20  40  57  92 129 158 211 257 329 367
#     4  10  24  36  65  98 125 171 201 278 310 385
#     4  11  20  39  63  92 130 167 204 266 332 378
#
# _framework density 22.979134999999999
#
# number of rings (size 3 to 8) (size 9 to 14) (size 15 to 20)
#    0.000    1.250    3.750    4.125    7.000    1.500 
#    0.000    1.875    0.000    0.000    0.000    0.000 
#    0.000    0.000    0.000    0.000    0.000    0.000 
#
# Total GULP energy -89301.999986 kJ/mol
# GULP energy per Si atom -5581.374999 kJ/mol
# Density = 2.292683 g / cm^3
# Si number density = 22.979135 Si / 1000 Ang^3
#
#
#
# Elastic Constant Matrix: (Units=GPa)
#
#
# Indices 1 2 3 4 5 6 
#
# 1 137.0498 29.4701 48.0613 -0.8968 -6.3009 29.3006
# 2 29.4701 72.7702 24.1667 14.4496 -0.9830 2.6161
# 3 48.0613 24.1667 129.6274 13.2333 0.2209 15.0997
# 4 -0.8968 14.4496 13.2333 42.8633 12.8560 2.1259
# 5 -6.3009 -0.9830 0.2209 12.8560 42.9142 -1.9482
# 6 29.3006 2.6161 15.0997 2.1259 -1.9482 20.0690
#
#
#
# Elastic Compliance Matrix: (Units=1/GPa)
#
#
# Indices 1 2 3 4 5 6 
#
# 1 0.012565 -0.004392 -0.002259 0.003243 0.000039 -0.016412
# 2 -0.004392 0.017109 -0.001660 -0.006230 0.001907 0.006275
# 3 -0.002259 -0.001660 0.009487 -0.002283 0.000112 -0.003370
# 4 0.003243 -0.006230 -0.002283 0.029102 -0.008651 -0.006127
# 5 0.000039 0.001907 0.000112 -0.008651 0.026082 0.003058
# 6 -0.016412 0.006275 -0.003370 -0.006127 0.003058 0.076453
#
#
# Mechanical properties :
#
#
# Convention : Reuss Voigt Hill
#
# Bulk Modulus (GPa) = 44.36585 60.31596 52.34091
# Shear Modulus (GPa) = 25.64994 37.01925 31.33460
#
# Velocity S-wave (km/s) = 3.34462 4.01807 3.69672
# Velocity P-wave (km/s) = 5.85357 6.91604 6.40687
#
# Compressibility (1/GPa) = 0.02253986
#
# Stress axis : x y z
#
# Youngs Moduli (GPa) = 79.58487 58.44939 105.40770
#
# Poissons Ratio (x) = 0.25669 0.23815
# Poissons Ratio (y) = 0.34951 0.17493
# Poissons Ratio (z) = 0.17981 0.09700
#
# Static dielectric constant tensor:
#      x y z
#    x 1.918410 -0.058820 0.044560 
#    y -0.058820 1.964730 -0.004020 
#    z 0.044560 -0.004020 1.911310 
# 
# From -- ./inp_files/425507.got.cif
#   From: 2010.05.17/outbox.cif.g08.bks.cpg/sg2_213_cif.got.tgz:425507.got - 2010.06.03 11:33:40.
