data_PCOD9106233
_publ_section_title
;
Structure prediction by ZEFSAII (Michael W. Deem and Ramdas Pophale) SiO2 
 PCOD9106233
Probable space group: P -1
;
_chemical_formula_sum "Si O2"
_cell_formula_units_Z 14
_cell_length_a 14.848554
_cell_length_b 16.216324
_cell_length_c 5.541598
_cell_angle_alpha 58.045657
_cell_angle_beta 118.274281
_cell_angle_gamma 147.556088
_cell_volume 606.300699
_symmetry_space_group_name_H-M "P -1"
_symmetry_group_IT_number 2
_symmetry_cell_setting 'triclinic'
loop_
_space_group_symop_operation_xyz
x,y,z
-x,-y,-z
loop_
_atom_site_type_symbol
_atom_site_label
_atom_site_fract_x
_atom_site_fract_y
_atom_site_fract_z
Si Si1 0.846909 0.635409 0.233858
Si Si2 0.861432 0.115214 0.125333
Si Si3 0.620472 0.860238 0.854746
Si Si4 0.969233 0.391642 0.939500
Si Si5 0.536091 0.470966 0.837106
Si Si6 0.032127 0.924080 0.297483
Si Si7 0.733380 0.355289 0.435902
O O1 0.766133 0.473461 0.469054
O O2 0.029555 0.762473 0.150086
O O3 0.728938 0.587363 0.947244
O O4 0.875926 0.738250 0.312236
O O5 0.940606 0.073875 0.387146
O O6 0.898901 0.232943 0.173323
O O7 0.680227 0.952907 0.039387
O O8 0.786258 0.977579 0.718100
O O9 0.461401 0.796570 0.640963
O O10 0.561659 0.704426 0.039926
O O11 0.820141 0.323852 0.689561
O O12 0.148182 0.523262 0.825626
O O13 0.000000 0.500000 0.000000
O O14 0.500000 0.500000 0.500000
O O15 0.500000 0.500000 0.000000
O O16 0.000000 0.000000 0.000000
#
# Coordination Sequence:
#
# PCOD9106233 Si02
#       7
#     2   2   2   2   2   2   2
#     4   9  21  39  59  88 120 167 208 268 316 393
#     4  10  23  39  61  91 124 166 215 266 324 395
#     4  10  24  41  59  93 129 167 207 273 325 390
#     4  10  20  39  68  90 115 163 211 266 328 399
#     4  11  25  41  66  93 128 174 226 272 327 387
#     4  11  23  37  61  86 129 168 215 255 325 384
#     4   9  20  41  61  87 124 155 209 266 332 385
#
# _framework density 23.090852000000002
#
# number of rings (size 3 to 8) (size 9 to 14) (size 15 to 20)
#    0.000    2.000    0.000    1.714    8.000    4.000 
#    5.143    1.429    0.000    0.000    0.000    0.000 
#    0.000    0.000    0.000    0.000    0.000    0.000 
#
# Total GULP energy -78021.638791 kJ/mol
# GULP energy per Si atom -5572.974199 kJ/mol
# Density = 2.303830 g / cm^3
# Si number density = 23.090852 Si / 1000 Ang^3
#
#
#
# Elastic Constant Matrix: (Units=GPa)
#
#
# Indices 1 2 3 4 5 6 
#
# 1 70.5605 31.2885 27.1243 5.0741 19.0247 2.5634
# 2 31.2885 146.1381 33.7915 17.0442 11.3801 -2.9430
# 3 27.1243 33.7915 108.0091 8.2532 26.6832 4.9436
# 4 5.0741 17.0442 8.2532 23.7640 2.7264 4.1491
# 5 19.0247 11.3801 26.6832 2.7264 30.2592 8.4980
# 6 2.5634 -2.9430 4.9436 4.1491 8.4980 37.2065
#
#
#
# Elastic Compliance Matrix: (Units=1/GPa)
#
#
# Indices 1 2 3 4 5 6 
#
# 1 0.018550 -0.002821 -0.001416 -0.000510 -0.009569 0.000929
# 2 -0.002821 0.008459 -0.001624 -0.005192 0.000028 0.001652
# 3 -0.001416 -0.001624 0.012623 -0.001934 -0.009656 0.000713
# 4 -0.000510 -0.005192 -0.001934 0.047431 0.001308 -0.005707
# 5 -0.009569 0.000028 -0.009656 0.001308 0.050163 -0.009659
# 6 0.000929 0.001652 0.000713 -0.005707 -0.009659 0.029691
#
#
# Mechanical properties :
#
#
# Convention : Reuss Voigt Hill
#
# Bulk Modulus (GPa) = 35.82804 56.56849 46.19826
# Shear Modulus (GPa) = 26.60397 33.74617 30.17507
#
# Velocity S-wave (km/s) = 3.39801 3.82704 3.61889
# Velocity P-wave (km/s) = 5.56283 6.63926 6.12474
#
# Compressibility (1/GPa) = 0.02791110
#
# Stress axis : x y z
#
# Youngs Moduli (GPa) = 53.90789 118.21800 79.22274
#
# Poissons Ratio (x) = 0.33348 0.11214
# Poissons Ratio (y) = 0.15207 0.12864
# Poissons Ratio (z) = 0.07631 0.19197
#
# Static dielectric constant tensor:
#      x y z
#    x 2.096880 -0.096900 -0.102930 
#    y -0.096900 1.896960 0.030420 
#    z -0.102930 0.030420 1.990940 
# 
# From -- ./inp_files/111601.got.cif
#   From: 2010.05.17/outbox.cif.g08.bks.cpg/sg2_56_cif.got.tgz:111601.got - 2010.06.03 11:33:40.
