data_PCOD9106776
_publ_section_title
;
Structure prediction by ZEFSAII (Michael W. Deem and Ramdas Pophale) SiO2 
 PCOD9106776
Probable space group: P -1
;
_chemical_formula_sum "Si O2"
_cell_formula_units_Z 16
_cell_length_a 15.262779
_cell_length_b 15.118787
_cell_length_c 8.657851
_cell_angle_alpha 63.281214
_cell_angle_beta 140.124807
_cell_angle_gamma 139.503559
_cell_volume 787.534802
_symmetry_space_group_name_H-M "P -1"
_symmetry_group_IT_number 2
_symmetry_cell_setting 'triclinic'
loop_
_space_group_symop_operation_xyz
x,y,z
-x,-y,-z
loop_
_atom_site_type_symbol
_atom_site_label
_atom_site_fract_x
_atom_site_fract_y
_atom_site_fract_z
Si Si1 0.607490 0.404328 0.345461
Si Si2 0.153523 0.960102 0.185366
Si Si3 0.051283 0.265901 0.425552
Si Si4 0.149228 0.774545 0.119736
Si Si5 0.858757 0.839061 0.136820
Si Si6 0.835691 0.361662 0.492352
Si Si7 0.672405 0.169145 0.142575
Si Si8 0.567637 0.226198 0.677398
O O1 0.740944 0.571159 0.389828
O O2 0.696297 0.371688 0.370778
O O3 0.630066 0.360865 0.575590
O O4 0.376633 0.299489 0.084923
O O5 0.220017 0.903183 0.217540
O O6 0.971339 0.842362 0.145853
O O7 0.335603 0.089897 0.437342
O O8 0.101503 0.024794 0.952734
O O9 0.063040 0.162935 0.594509
O O10 0.879223 0.232432 0.313851
O O11 0.995356 0.254556 0.180975
O O12 0.067604 0.650537 0.227777
O O13 0.318065 0.802928 0.233764
O O14 0.703242 0.218061 0.321413
O O15 0.000000 0.500000 0.500000
O O16 0.622932 0.240066 0.918347
O O17 0.500000 0.000000 0.000000
#
# Coordination Sequence:
#
# PCOD9106776 Si02
#       8
#     2   2   2   2   2   2   2   2
#     4  10  22  39  59  85 118 161 195 242 295 357
#     4  10  20  40  61  86 117 157 197 247 291 354
#     4  11  22  38  59  85 122 158 196 244 293 356
#     4  10  22  35  60  89 118 149 194 248 305 348
#     4  10  22  39  60  80 116 164 205 235 291 350
#     4  11  22  38  63  90 120 154 194 247 303 357
#     4  11  22  36  62  93 120 153 194 250 302 351
#     4   9  20  36  61  88 120 146 192 244 307 354
#
# _framework density 20.316564
#
# number of rings (size 3 to 8) (size 9 to 14) (size 15 to 20)
#    0.000    1.750    1.250    3.000    1.750    7.000 
#    0.000    4.375    0.000    0.000    0.000    0.000 
#    0.000    0.000    0.000    0.000    0.000    0.000 
#
# Total GULP energy -89329.569985 kJ/mol
# GULP energy per Si atom -5583.098124 kJ/mol
# Density = 2.027032 g / cm^3
# Si number density = 20.316564 Si / 1000 Ang^3
#
#
#
# Elastic Constant Matrix: (Units=GPa)
#
#
# Indices 1 2 3 4 5 6 
#
# 1 33.4505 20.9090 27.4230 -5.0691 -12.4433 14.3741
# 2 20.9090 68.9620 39.8190 -6.4601 -5.6110 19.3850
# 3 27.4230 39.8190 121.5486 -36.1241 -13.0766 20.1849
# 4 -5.0691 -6.4601 -36.1241 37.1722 7.0121 0.0745
# 5 -12.4433 -5.6110 -13.0766 7.0121 24.9488 1.0921
# 6 14.3741 19.3850 20.1849 0.0745 1.0921 27.3950
#
#
#
# Elastic Compliance Matrix: (Units=1/GPa)
#
#
# Indices 1 2 3 4 5 6 
#
# 1 0.057057 -0.006010 -0.005260 -0.003285 0.026272 -0.022848
# 2 -0.006010 0.021259 -0.004696 -0.001704 0.000170 -0.008431
# 3 -0.005260 -0.004696 0.016241 0.014045 0.001147 -0.005967
# 4 -0.003285 -0.001704 0.014045 0.040924 -0.005843 -0.007297
# 5 0.026272 0.000170 0.001147 -0.005843 0.056210 -0.016975
# 6 -0.022848 -0.008431 -0.005967 -0.007297 -0.016975 0.059550
#
#
# Mechanical properties :
#
#
# Convention : Reuss Voigt Hill
#
# Bulk Modulus (GPa) = 15.96832 44.47367 30.22099
# Shear Modulus (GPa) = 16.44479 26.95720 21.70099
#
# Velocity S-wave (km/s) = 2.84813 3.64656 3.27179
# Velocity P-wave (km/s) = 4.32350 6.29823 5.40187
#
# Compressibility (1/GPa) = 0.06262400
#
# Stress axis : x y z
#
# Youngs Moduli (GPa) = 17.52643 47.03898 61.57291
#
# Poissons Ratio (x) = 0.28272 0.32384
# Poissons Ratio (y) = 0.10534 0.28918
# Poissons Ratio (z) = 0.09218 0.22092
#
# Static dielectric constant tensor:
#      x y z
#    x 1.708740 0.018940 -0.016880 
#    y 0.018940 1.740110 -0.036780 
#    z -0.016880 -0.036780 1.730970 
# 
# From -- ./inp_files/201973.got.cif
#   From: 2010.05.17/outbox.cif.g08.bks.cpg/sg2_101_cif.got.tgz:201973.got - 2010.06.03 11:33:40.
