data_PCOD9106414
_publ_section_title
;
Structure prediction by ZEFSAII (Michael W. Deem and Ramdas Pophale) SiO2 
 PCOD9106414
Probable space group: P -1
;
_chemical_formula_sum "Si O2"
_cell_formula_units_Z 14
_cell_length_a 9.442094
_cell_length_b 12.131156
_cell_length_c 8.692114
_cell_angle_alpha 122.676654
_cell_angle_beta 132.603829
_cell_angle_gamma 50.402761
_cell_volume 554.262768
_symmetry_space_group_name_H-M "P -1"
_symmetry_group_IT_number 2
_symmetry_cell_setting 'triclinic'
loop_
_space_group_symop_operation_xyz
x,y,z
-x,-y,-z
loop_
_atom_site_type_symbol
_atom_site_label
_atom_site_fract_x
_atom_site_fract_y
_atom_site_fract_z
Si Si1 0.106769 0.421038 0.266951
Si Si2 0.473781 0.123120 0.855986
Si Si3 0.716378 0.438391 0.283105
Si Si4 0.196775 0.974481 0.513577
Si Si5 0.903848 0.119799 0.148728
Si Si6 0.697150 0.567090 0.901819
Si Si7 0.460232 0.240197 0.603261
O O1 0.095801 0.547771 0.470894
O O2 0.233484 0.438628 0.226621
O O3 0.258727 0.277364 0.367207
O O4 0.882223 0.444633 0.048657
O O5 0.484585 0.138025 0.688949
O O6 0.380403 0.011285 0.746758
O O7 0.710695 0.092883 0.059663
O O8 0.322809 0.280162 0.932184
O O9 0.809589 0.286123 0.149960
O O10 0.530765 0.433670 0.250158
O O11 0.597458 0.599811 0.245814
O O12 0.329976 0.825245 0.402140
O O13 0.000000 0.000000 0.500000
O O14 0.079963 0.094169 0.386444
O O15 0.000000 0.000000 0.000000
#
# Coordination Sequence:
#
# PCOD9106414 Si02
#       7
#     2   2   2   2   2   2   2
#     4   9  21  40  62 104 138 183 226 288 346 405
#     4  11  25  48  69 102 146 182 239 294 345 429
#     4   9  22  41  70  99 145 174 234 287 345 417
#     4  12  28  49  72 100 145 192 232 293 361 415
#     4  11  24  46  74 107 141 190 228 288 363 417
#     4  10  20  39  70 100 140 182 229 284 352 407
#     4  10  24  46  69 105 142 184 235 290 353 413
#
# _framework density 25.258779000000001
#
# number of rings (size 3 to 8) (size 9 to 14) (size 15 to 20)
#    0.857    0.857    1.429    1.714    4.000    5.714 
#    5.143    0.000    0.000    0.000    0.000    0.000 
#    0.000    0.000    0.000    0.000    0.000    0.000 
#
# Total GULP energy -78211.889461 kJ/mol
# GULP energy per Si atom -5586.563533 kJ/mol
# Density = 2.520129 g / cm^3
# Si number density = 25.258779 Si / 1000 Ang^3
#
#
#
# Elastic Constant Matrix: (Units=GPa)
#
#
# Indices 1 2 3 4 5 6 
#
# 1 151.4856 38.6860 20.8720 17.7996 -3.6022 -12.6084
# 2 38.6860 76.9733 21.6811 12.8768 -16.9366 -22.7936
# 3 20.8720 21.6811 83.3551 -8.2580 2.5284 -5.7632
# 4 17.7996 12.8768 -8.2580 42.4502 -5.8266 3.7061
# 5 -3.6022 -16.9366 2.5284 -5.8266 33.5963 0.2067
# 6 -12.6084 -22.7936 -5.7632 3.7061 0.2067 30.0910
#
#
#
# Elastic Compliance Matrix: (Units=1/GPa)
#
#
# Indices 1 2 3 4 5 6 
#
# 1 0.007982 -0.003019 -0.001393 -0.002952 -0.001081 0.001162
# 2 -0.003019 0.024955 -0.005604 -0.007362 0.011295 0.017394
# 3 -0.001393 -0.005604 0.014194 0.004842 -0.003186 -0.002685
# 4 -0.002952 -0.007362 0.004842 0.028888 0.000676 -0.009449
# 5 -0.001081 0.011295 -0.003186 0.000676 0.035656 0.007164
# 6 0.001162 0.017394 -0.002685 -0.009449 0.007164 0.047495
#
#
# Mechanical properties :
#
#
# Convention : Reuss Voigt Hill
#
# Bulk Modulus (GPa) = 36.90235 52.69915 44.80075
# Shear Modulus (GPa) = 26.56244 36.59916 31.58080
#
# Velocity S-wave (km/s) = 3.24637 3.81066 3.53978
# Velocity P-wave (km/s) = 5.35662 6.34590 5.87213
#
# Compressibility (1/GPa) = 0.02709855
#
# Stress axis : x y z
#
# Youngs Moduli (GPa) = 125.28066 40.07191 70.45223
#
# Poissons Ratio (x) = 0.12099 0.09812
# Poissons Ratio (y) = 0.37828 0.39483
# Poissons Ratio (z) = 0.17447 0.22457
#
# Static dielectric constant tensor:
#      x y z
#    x 1.997760 -0.028480 -0.015510 
#    y -0.028480 1.986520 0.006920 
#    z -0.015510 0.006920 1.993800 
# 
# From -- ./inp_files/181920.got.cif
#   From: 2010.05.17/outbox.cif.g08.bks.cpg/sg2_91_cif.got.tgz:181920.got - 2010.06.03 11:33:40.
