data_PCOD9106553
_publ_section_title
;
Structure prediction by ZEFSAII (Michael W. Deem and Ramdas Pophale) SiO2 
 PCOD9106553
Probable space group: P -1
;
_chemical_formula_sum "Si O2"
_cell_formula_units_Z 13
_cell_length_a 7.584516
_cell_length_b 12.452329
_cell_length_c 7.584498
_cell_angle_alpha 76.062454
_cell_angle_beta 60.763227
_cell_angle_gamma 48.263164
_cell_volume 462.505959
_symmetry_space_group_name_H-M "P -1"
_symmetry_group_IT_number 2
_symmetry_cell_setting 'triclinic'
loop_
_space_group_symop_operation_xyz
x,y,z
-x,-y,-z
loop_
_atom_site_type_symbol
_atom_site_label
_atom_site_fract_x
_atom_site_fract_y
_atom_site_fract_z
Si Si1 0.731137 0.311973 0.234413
Si Si2 0.953614 0.311972 0.456890
Si Si3 0.000000 0.500000 0.000000
Si Si4 0.446215 0.980812 0.308004
Si Si5 0.211184 0.980813 0.072971
Si Si6 0.600473 0.327139 0.905949
Si Si7 0.266911 0.327140 0.572387
O O1 0.468368 0.356403 0.432778
O O2 0.870890 0.355854 0.273256
O O3 0.940095 0.136937 0.194903
O O4 0.663167 0.364452 0.046856
O O5 0.088689 0.364453 0.472383
O O6 0.710818 0.356401 0.675228
O O7 0.168162 0.136936 0.422968
O O8 0.302863 0.395735 0.984475
O O9 0.880209 0.604264 0.198600
O O10 0.557033 0.847232 0.430818
O O11 0.405053 0.934825 0.160121
O O12 0.660768 0.999998 0.160768
O O13 0.221950 0.847233 0.095732
#
# Coordination Sequence:
#
# PCOD9106553 Si02
#       7
#     2   2   1   2   2   2   2
#     4  11  24  44  73 108 139 182 233 297 361 408
#     4  11  24  44  73 108 139 182 233 297 361 408
#     4  12  28  48  74  98 142 208 234 278 346 426
#     4  10  20  39  74 112 143 177 230 300 363 418
#     4  10  20  39  74 112 143 177 230 300 363 418
#     4  12  24  47  71 105 148 187 235 288 353 425
#     4  12  24  47  71 105 148 187 235 288 353 425
#
# _framework density 28.107744
#
# number of rings (size 3 to 8) (size 9 to 14) (size 15 to 20)
#    0.000    0.923    3.077    3.692    0.000    3.692 
#    2.769    0.769    0.000    0.000    0.000    0.000 
#    0.000    0.000    0.000    0.000    0.000    0.000 
#
# Total GULP energy -72822.668113 kJ/mol
# GULP energy per Si atom -5601.743701 kJ/mol
# Density = 2.804377 g / cm^3
# Si number density = 28.107744 Si / 1000 Ang^3
#
#
#
# Elastic Constant Matrix: (Units=GPa)
#
#
# Indices 1 2 3 4 5 6 
#
# 1 246.8331 52.7959 70.2119 15.0756 48.6424 -0.8892
# 2 52.7959 170.1717 39.9375 9.1170 12.3536 -11.3058
# 3 70.2119 39.9375 114.8364 31.5302 16.6640 6.3885
# 4 15.0756 9.1170 31.5302 52.3627 -1.0539 -6.4514
# 5 48.6424 12.3536 16.6640 -1.0539 60.1604 20.9043
# 6 -0.8892 -11.3058 6.3885 -6.4514 20.9043 37.2992
#
#
#
# Elastic Compliance Matrix: (Units=1/GPa)
#
#
# Indices 1 2 3 4 5 6 
#
# 1 0.006038 -0.000578 -0.003094 0.000547 -0.005095 0.003449
# 2 -0.000578 0.006870 -0.002194 0.000680 -0.001508 0.003407
# 3 -0.003094 -0.002194 0.013575 -0.007473 0.000713 -0.004756
# 4 0.000547 0.000680 -0.007473 0.024022 -0.000070 0.005693
# 5 -0.005095 -0.001508 0.000713 -0.000070 0.026204 -0.015399
# 6 0.003449 0.003407 -0.004756 0.005693 -0.015399 0.038355
#
#
# Mechanical properties :
#
#
# Convention : Reuss Voigt Hill
#
# Bulk Modulus (GPa) = 67.77924 95.30352 81.54138
# Shear Modulus (GPa) = 37.96207 54.55753 46.25980
#
# Velocity S-wave (km/s) = 3.67903 4.41047 4.06125
# Velocity P-wave (km/s) = 6.49718 7.74057 7.14597
#
# Compressibility (1/GPa) = 0.01475378
#
# Stress axis : x y z
#
# Youngs Moduli (GPa) = 165.61963 145.56467 73.66252
#
# Poissons Ratio (x) = 0.08407 0.22788
# Poissons Ratio (y) = 0.09565 0.16159
# Poissons Ratio (z) = 0.51236 0.31931
#
# Static dielectric constant tensor:
#      x y z
#    x 2.208580 0.020590 -0.104380 
#    y 0.020590 2.171850 -0.046420 
#    z -0.104380 -0.046420 2.396420 
# 
# From -- ./inp_files/168231.got.cif
#   From: 2010.05.17/outbox.cif.g08.bks.cpg/sg2_85_cif.got.tgz:168231.got - 2010.06.03 11:33:40.
