data_PCOD9106368
_publ_section_title
;
Structure prediction by ZEFSAII (Michael W. Deem and Ramdas Pophale) SiO2 
 PCOD9106368
Probable space group: P -1
;
_chemical_formula_sum "Si O2"
_cell_formula_units_Z 16
_cell_length_a 9.600593
_cell_length_b 16.140403
_cell_length_c 15.780432
_cell_angle_alpha 38.408434
_cell_angle_beta 145.236577
_cell_angle_gamma 144.655594
_cell_volume 757.321271
_symmetry_space_group_name_H-M "P -1"
_symmetry_group_IT_number 2
_symmetry_cell_setting 'triclinic'
loop_
_space_group_symop_operation_xyz
x,y,z
-x,-y,-z
loop_
_atom_site_type_symbol
_atom_site_label
_atom_site_fract_x
_atom_site_fract_y
_atom_site_fract_z
Si Si1 0.797741 0.037681 0.316004
Si Si2 0.849046 0.348545 0.101892
Si Si3 0.831656 0.747749 0.954778
Si Si4 0.758240 0.969931 0.165734
Si Si5 0.287727 0.274624 0.795437
Si Si6 0.175114 0.570555 0.791156
Si Si7 0.168734 0.520881 0.479894
Si Si8 0.211032 0.834726 0.239165
O O1 0.911676 0.215213 0.210193
O O2 0.753195 0.943964 0.283033
O O3 0.503901 0.986477 0.257633
O O4 0.000000 0.000000 0.500000
O O5 0.921818 0.380506 0.211849
O O6 0.522233 0.295094 0.963764
O O7 0.000000 0.500000 0.000000
O O8 0.504098 0.686261 0.851494
O O9 0.965847 0.877559 0.847324
O O10 0.858759 0.596589 0.072217
O O11 0.016384 0.819897 0.073742
O O12 0.716717 0.831543 0.197386
O O13 0.500000 0.000000 0.000000
O O14 0.347591 0.437782 0.657306
O O15 0.985013 0.195191 0.753568
O O16 0.018773 0.557541 0.634623
O O17 0.294185 0.700097 0.382747
O O18 0.000000 0.500000 0.500000
#
# Coordination Sequence:
#
# PCOD9106368 Si02
#       8
#     2   2   2   2   2   2   2   2
#     4  12  29  46  66  99 143 180 224 286 349 401
#     4  12  26  43  68  99 140 177 232 278 344 406
#     4  10  20  39  69  93 132 167 224 278 330 400
#     4  12  24  43  64  94 133 178 224 275 340 403
#     4  11  24  42  71  99 131 182 233 278 338 413
#     4  10  22  39  67 101 126 174 227 278 334 399
#     4   9  22  41  66 100 135 172 222 284 343 396
#     4  10  21  45  70  97 134 181 227 282 338 407
#
# _framework density 21.127096999999999
#
# number of rings (size 3 to 8) (size 9 to 14) (size 15 to 20)
#    0.000    1.250    3.750    0.750    7.000    3.000 
#    0.000    2.500    0.000    0.000    0.000    0.000 
#    0.000    0.000    0.000    0.000    0.000    0.000 
#
# Total GULP energy -89386.840763 kJ/mol
# GULP energy per Si atom -5586.677548 kJ/mol
# Density = 2.107901 g / cm^3
# Si number density = 21.127097 Si / 1000 Ang^3
#
#
#
# Elastic Constant Matrix: (Units=GPa)
#
#
# Indices 1 2 3 4 5 6 
#
# 1 92.5532 28.0065 21.1103 0.3317 -5.5003 -23.2063
# 2 28.0065 59.2200 26.6920 -3.3332 3.2289 -1.6545
# 3 21.1103 26.6920 107.3858 -1.1283 -5.6099 -11.4293
# 4 0.3317 -3.3332 -1.1283 29.8779 -9.1948 -9.9324
# 5 -5.5003 3.2289 -5.6099 -9.1948 30.1129 0.9722
# 6 -23.2063 -1.6545 -11.4293 -9.9324 0.9722 35.3761
#
#
#
# Elastic Compliance Matrix: (Units=1/GPa)
#
#
# Indices 1 2 3 4 5 6 
#
# 1 0.016108 -0.007395 0.000166 0.004210 0.004686 0.011328
# 2 -0.007395 0.022714 -0.005043 -0.000899 -0.004821 -0.005538
# 3 0.000166 -0.005043 0.011147 0.002163 0.003179 0.003994
# 4 0.004210 -0.000899 0.002163 0.042643 0.013805 0.015012
# 5 0.004686 -0.004821 0.003179 0.013805 0.039173 0.006675
# 6 0.011328 -0.005538 0.003994 0.015012 0.006675 0.040761
#
#
# Mechanical properties :
#
#
# Convention : Reuss Voigt Hill
#
# Bulk Modulus (GPa) = 39.32992 45.64183 42.48588
# Shear Modulus (GPa) = 24.32324 31.29672 27.80998
#
# Velocity S-wave (km/s) = 3.39674 3.85301 3.63205
# Velocity P-wave (km/s) = 5.83438 6.43775 6.14348
#
# Compressibility (1/GPa) = 0.02542593
#
# Stress axis : x y z
#
# Youngs Moduli (GPa) = 62.08085 44.02595 89.71068
#
# Poissons Ratio (x) = 0.32556 -0.01491
# Poissons Ratio (y) = 0.45908 0.45240
# Poissons Ratio (z) = -0.01032 0.22202
#
# Static dielectric constant tensor:
#      x y z
#    x 1.766840 0.070600 0.001020 
#    y 0.070600 2.021450 -0.029450 
#    z 0.001020 -0.029450 1.729760 
# 
# From -- ./inp_files/279977.got.cif
#   From: 2010.05.17/outbox.cif.g08.bks.cpg/sg2_140_cif.got.tgz:279977.got - 2010.06.03 11:33:40.
