data_PCOD9106689
_publ_section_title
;
Structure prediction by ZEFSAII (Michael W. Deem and Ramdas Pophale) SiO2 
 PCOD9106689
Probable space group: P -1
;
_chemical_formula_sum "Si O2"
_cell_formula_units_Z 13
_cell_length_a 10.147011
_cell_length_b 12.357090
_cell_length_c 5.257546
_cell_angle_alpha 77.486968
_cell_angle_beta 118.851447
_cell_angle_gamma 130.973240
_cell_volume 430.961028
_symmetry_space_group_name_H-M "P -1"
_symmetry_group_IT_number 2
_symmetry_cell_setting 'triclinic'
loop_
_space_group_symop_operation_xyz
x,y,z
-x,-y,-z
loop_
_atom_site_type_symbol
_atom_site_label
_atom_site_fract_x
_atom_site_fract_y
_atom_site_fract_z
Si Si1 0.896323 0.784399 0.734570
Si Si2 0.373573 0.501828 0.096366
Si Si3 0.393768 0.192240 0.980394
Si Si4 0.313924 0.926667 0.170004
Si Si5 0.000000 0.000000 0.000000
Si Si6 0.021873 0.365779 0.460038
Si Si7 0.267425 0.674277 0.399669
O O1 0.988784 0.759749 0.606206
O O2 0.704870 0.621616 0.706174
O O3 0.095505 0.879920 0.069844
O O4 0.867156 0.899198 0.673040
O O5 0.489542 0.670647 0.167572
O O6 0.172272 0.435431 0.800164
O O7 0.500000 0.500000 0.000000
O O8 0.183255 0.133275 0.911649
O O9 0.523890 0.259264 0.327790
O O10 0.381182 0.054994 0.975666
O O11 0.262410 0.774013 0.148605
O O12 0.500000 0.000000 0.500000
O O13 0.131242 0.504075 0.302915
O O14 0.829004 0.317410 0.439094
#
# Coordination Sequence:
#
# PCOD9106689 Si02
#       7
#     2   2   2   2   1   2   2
#     4  11  22  39  69  88 122 166 207 252 311 362
#     4  11  21  40  64  88 126 162 203 264 306 355
#     4   9  19  35  63  85 122 164 197 248 313 353
#     4   9  18  37  63  85 123 165 193 248 311 354
#     4  10  20  40  60  86 124 164 200 258 302 358
#     4  10  22  38  63  98 120 158 212 254 302 373
#     4   9  18  39  61  89 131 156 198 263 303 355
#
# _framework density 30.165137000000001
#
# number of rings (size 3 to 8) (size 9 to 14) (size 15 to 20)
#    0.000    2.154    3.077    0.000    0.000    1.231 
#    0.000    7.692   13.538    0.000    0.000    0.000 
#    0.000    0.000    0.000    0.000    0.000    0.000 
#
# Total GULP energy -72519.103991 kJ/mol
# GULP energy per Si atom -5578.392615 kJ/mol
# Density = 3.009648 g / cm^3
# Si number density = 30.165137 Si / 1000 Ang^3
#
#
#
# Elastic Constant Matrix: (Units=GPa)
#
#
# Indices 1 2 3 4 5 6 
#
# 1 112.5563 51.6485 37.2710 14.2948 1.8806 8.9947
# 2 51.6485 242.2576 42.4795 23.8639 5.5234 -17.2717
# 3 37.2710 42.4795 88.6736 -5.0922 12.2299 -8.0703
# 4 14.2948 23.8639 -5.0922 48.4339 -15.3739 12.6375
# 5 1.8806 5.5234 12.2299 -15.3739 64.9053 15.4810
# 6 8.9947 -17.2717 -8.0703 12.6375 15.4810 78.2430
#
#
#
# Elastic Compliance Matrix: (Units=1/GPa)
#
#
# Indices 1 2 3 4 5 6 
#
# 1 0.011540 -0.001576 -0.004473 -0.002463 0.000497 -0.001836
# 2 -0.001576 0.005243 -0.001677 -0.003218 -0.001311 0.001945
# 3 -0.004473 -0.001677 0.014574 0.002512 -0.002283 0.001693
# 4 -0.002463 -0.003218 0.002512 0.027295 0.007797 -0.006119
# 5 0.000497 -0.001311 -0.002283 0.007797 0.019123 -0.005625
# 6 -0.001836 0.001945 0.001693 -0.006119 -0.005625 0.015697
#
#
# Mechanical properties :
#
#
# Convention : Reuss Voigt Hill
#
# Bulk Modulus (GPa) = 62.86587 78.47617 70.67102
# Shear Modulus (GPa) = 43.77398 59.12234 51.44816
#
# Velocity S-wave (km/s) = 3.81352 4.43194 4.13431
# Velocity P-wave (km/s) = 6.34637 7.22921 6.80213
#
# Compressibility (1/GPa) = 0.01590688
#
# Stress axis : x y z
#
# Youngs Moduli (GPa) = 86.65743 190.72011 68.61724
#
# Poissons Ratio (x) = 0.30050 0.30690
# Poissons Ratio (y) = 0.13654 0.11504
# Poissons Ratio (z) = 0.38759 0.31976
#
# Static dielectric constant tensor:
#      x y z
#    x 1.859370 0.486490 -0.098530 
#    y 0.486490 2.053990 -0.154330 
#    z -0.098530 -0.154330 2.767740 
# 
# From -- ./inp_files/74396.got.cif
#   From: 2010.05.17/outbox.cif.g08.bks.cpg/sg2_38_cif.got.tgz:74396.got - 2010.06.03 11:33:40.
