data_PCOD9106026
_publ_section_title
;
Structure prediction by ZEFSAII (Michael W. Deem and Ramdas Pophale) SiO2 
 PCOD9106026
Probable space group: P -1
;
_chemical_formula_sum "Si O2"
_cell_formula_units_Z 16
_cell_length_a 14.215889
_cell_length_b 8.078607
_cell_length_c 9.321365
_cell_angle_alpha 67.062887
_cell_angle_beta 96.025474
_cell_angle_gamma 52.327177
_cell_volume 688.453522
_symmetry_space_group_name_H-M "P -1"
_symmetry_group_IT_number 2
_symmetry_cell_setting 'triclinic'
loop_
_space_group_symop_operation_xyz
x,y,z
-x,-y,-z
loop_
_atom_site_type_symbol
_atom_site_label
_atom_site_fract_x
_atom_site_fract_y
_atom_site_fract_z
Si Si1 0.975040 0.830296 0.989227
Si Si2 0.683703 0.405673 0.246383
Si Si3 0.593727 0.049153 0.007916
Si Si4 0.431679 0.268829 0.335112
Si Si5 0.781087 0.299068 0.617614
Si Si6 0.700342 0.003514 0.342177
Si Si7 0.242338 0.383109 0.014390
Si Si8 0.063009 0.545846 0.375637
O O1 0.100602 0.582166 0.003731
O O2 0.856401 0.028056 0.791823
O O3 0.967900 0.714075 0.167794
O O4 0.000000 0.000000 0.000000
O O5 0.716202 0.350375 0.437309
O O6 0.745801 0.144391 0.272093
O O7 0.756618 0.479757 0.164749
O O8 0.522261 0.643400 0.117245
O O9 0.696738 0.884204 0.948488
O O10 0.500000 0.000000 0.000000
O O11 0.671789 0.947577 0.204857
O O12 0.332863 0.487959 0.360187
O O13 0.558116 0.215558 0.326692
O O14 0.500000 0.000000 0.500000
O O15 0.347164 0.326548 0.163059
O O16 0.883410 0.331128 0.607006
O O17 0.801048 0.749535 0.539314
O O18 0.000000 0.500000 0.500000
#
# Coordination Sequence:
#
# PCOD9106026 Si02
#       8
#     2   2   2   2   2   2   2   2
#     4  10  22  44  70 103 134 188 239 281 350 417
#     4  11  25  41  68 108 141 181 238 286 350 418
#     4  10  20  39  67 103 136 174 231 282 348 412
#     4  12  21  39  73  97 138 185 228 285 359 411
#     4  11  24  46  73 101 143 190 234 285 351 424
#     4  12  24  42  69 107 138 179 235 297 345 407
#     4  11  21  40  73  98 138 189 229 283 348 424
#     4  11  24  44  73 101 139 181 233 293 350 417
#
# _framework density 23.240494999999999
#
# number of rings (size 3 to 8) (size 9 to 14) (size 15 to 20)
#    0.000    1.000    6.250    2.625    3.500    1.000 
#    2.250    0.625    2.750    0.000    0.000    0.000 
#    0.000    0.000    0.000    0.000    0.000    0.000 
#
# Total GULP energy -89451.203676 kJ/mol
# GULP energy per Si atom -5590.700230 kJ/mol
# Density = 2.318760 g / cm^3
# Si number density = 23.240495 Si / 1000 Ang^3
#
#
#
# Elastic Constant Matrix: (Units=GPa)
#
#
# Indices 1 2 3 4 5 6 
#
# 1 61.3502 24.2200 18.3816 -4.8404 -17.5645 -10.1741
# 2 24.2200 84.9944 30.6840 2.3254 -14.5985 -13.9566
# 3 18.3816 30.6840 161.0851 -9.0838 -19.1999 -6.8122
# 4 -4.8404 2.3254 -9.0838 44.3897 3.6886 -5.9125
# 5 -17.5645 -14.5985 -19.1999 3.6886 29.4275 -0.5218
# 6 -10.1741 -13.9566 -6.8122 -5.9125 -0.5218 36.5559
#
#
#
# Elastic Compliance Matrix: (Units=1/GPa)
#
#
# Indices 1 2 3 4 5 6 
#
# 1 0.021956 -0.003492 -0.000167 0.002327 0.011066 0.005281
# 2 -0.003492 0.014895 -0.001815 -0.001333 0.004362 0.004223
# 3 -0.000167 -0.001815 0.007100 0.001354 0.003477 0.000852
# 4 0.002327 -0.001333 0.001354 0.023799 -0.001297 0.004222
# 5 0.011066 0.004362 0.003477 -0.001297 0.045285 0.005830
# 6 0.005281 0.004223 0.000852 0.004222 0.005830 0.031362
#
#
# Mechanical properties :
#
#
# Convention : Reuss Voigt Hill
#
# Bulk Modulus (GPa) = 30.30132 50.44456 40.37294
# Shear Modulus (GPa) = 30.05778 37.68423 33.87100
#
# Velocity S-wave (km/s) = 3.60020 4.03114 3.82175
# Velocity P-wave (km/s) = 5.50894 6.58934 6.07321
#
# Compressibility (1/GPa) = 0.03300186
#
# Stress axis : x y z
#
# Youngs Moduli (GPa) = 45.54590 67.13557 140.85289
#
# Poissons Ratio (x) = 0.23446 0.02349
# Poissons Ratio (y) = 0.15906 0.25570
# Poissons Ratio (z) = 0.00759 0.12188
#
# Static dielectric constant tensor:
#      x y z
#    x 1.568780 0.095500 0.366970 
#    y 0.095500 1.854300 -0.147330 
#    z 0.366970 -0.147330 1.476440 
# 
# From -- ./inp_files/297908.got.cif
#   From: 2010.05.17/outbox.cif.g08.bks.cpg/sg2_149_cif.got.tgz:297908.got - 2010.06.03 11:33:40.
