data_PCOD9106993
_publ_section_title
;
Structure prediction by ZEFSAII (Michael W. Deem and Ramdas Pophale) SiO2 
 PCOD9106993
Probable space group: P -1
;
_chemical_formula_sum "Si O2"
_cell_formula_units_Z 16
_cell_length_a 9.304717
_cell_length_b 14.464191
_cell_length_c 11.028559
_cell_angle_alpha 105.111217
_cell_angle_beta 46.877769
_cell_angle_gamma 133.742930
_cell_volume 716.684199
_symmetry_space_group_name_H-M "P -1"
_symmetry_group_IT_number 2
_symmetry_cell_setting 'triclinic'
loop_
_space_group_symop_operation_xyz
x,y,z
-x,-y,-z
loop_
_atom_site_type_symbol
_atom_site_label
_atom_site_fract_x
_atom_site_fract_y
_atom_site_fract_z
Si Si1 0.329338 0.717453 0.235863
Si Si2 0.540471 0.975537 0.103055
Si Si3 0.456397 0.556212 0.203758
Si Si4 0.328318 0.525764 0.544997
Si Si5 0.136626 0.761072 0.599113
Si Si6 0.892579 0.074312 0.481303
Si Si7 0.442936 0.222665 0.341445
Si Si8 0.098850 0.749660 0.893454
O O1 0.527980 0.857739 0.090216
O O2 0.426812 0.642743 0.172002
O O3 0.298283 0.754687 0.401566
O O4 0.013818 0.609102 0.318622
O O5 0.275192 0.926781 0.316497
O O6 0.824988 0.120756 0.049724
O O7 0.500000 0.000000 0.000000
O O8 0.432135 0.575820 0.365040
O O9 0.190870 0.392502 0.274238
O O10 0.762961 0.614863 0.034488
O O11 0.500000 0.500000 0.500000
O O12 0.410138 0.646488 0.616472
O O13 0.160739 0.880714 0.589876
O O14 0.218064 0.781648 0.699026
O O15 0.229382 0.192309 0.356684
O O16 0.768112 0.923410 0.511132
O O17 0.703771 0.253436 0.146281
#
# Coordination Sequence:
#
# PCOD9106993 Si02
#       8
#     2   2   2   2   2   2   2   2
#     4  10  22  41  65  90 125 171 208 263 313 368
#     4  10  23  42  63  93 131 159 213 272 313 369
#     4  11  23  39  60  97 131 161 208 266 315 371
#     4  11  22  38  69  95 121 170 215 255 309 382
#     4  10  20  42  63  89 125 161 214 253 305 384
#     4   9  21  40  66  88 121 167 209 263 309 364
#     4  10  20  40  62  91 121 163 215 246 313 376
#     4  11  24  38  63  92 126 169 201 260 321 362
#
# _framework density 22.325033000000001
#
# number of rings (size 3 to 8) (size 9 to 14) (size 15 to 20)
#    0.000    1.750    0.000    5.625    3.500    6.000 
#    6.750    2.500    0.000    0.000    0.000    0.000 
#    0.000    0.000    0.000    0.000    0.000    0.000 
#
# Total GULP energy -89419.594144 kJ/mol
# GULP energy per Si atom -5588.724634 kJ/mol
# Density = 2.227422 g / cm^3
# Si number density = 22.325033 Si / 1000 Ang^3
#
#
#
# Elastic Constant Matrix: (Units=GPa)
#
#
# Indices 1 2 3 4 5 6 
#
# 1 70.2960 1.3995 1.4377 -9.5924 1.4411 -1.9826
# 2 1.3995 78.1677 -7.5072 3.9953 16.8654 -8.8543
# 3 1.4377 -7.5072 23.7917 -12.6917 2.8645 4.4431
# 4 -9.5924 3.9953 -12.6917 13.0471 -0.7344 3.4130
# 5 1.4411 16.8654 2.8645 -0.7344 19.3160 -2.0430
# 6 -1.9826 -8.8543 4.4431 3.4130 -2.0430 39.0009
#
#
#
# Elastic Compliance Matrix: (Units=1/GPa)
#
#
# Indices 1 2 3 4 5 6 
#
# 1 0.017773 -0.000134 0.015093 0.028548 -0.002731 -0.003488
# 2 -0.000134 0.017100 0.006689 -0.000317 -0.015679 0.002320
# 3 0.015093 0.006689 0.120441 0.131252 -0.022386 -0.024094
# 4 0.028548 -0.000317 0.131252 0.233620 -0.016122 -0.034862
# 5 -0.002731 -0.015679 -0.022386 -0.016122 0.068780 0.003866
# 6 -0.003488 0.002320 -0.024094 -0.034862 0.003866 0.031988
#
#
# Mechanical properties :
#
#
# Convention : Reuss Voigt Hill
#
# Bulk Modulus (GPa) = 5.03497 18.10171 11.56834
# Shear Modulus (GPa) = 9.75405 26.06784 17.91095
#
# Velocity S-wave (km/s) = 2.09251 3.42080 2.83553
# Velocity P-wave (km/s) = 2.84576 4.87117 3.98915
#
# Compressibility (1/GPa) = 0.19861099
#
# Stress axis : x y z
#
# Youngs Moduli (GPa) = 56.26596 58.48065 8.30279
#
# Poissons Ratio (x) = 0.00782 -0.12531
# Poissons Ratio (y) = 0.00752 -0.05554
# Poissons Ratio (z) = -0.84923 -0.39119
#
# Static dielectric constant tensor:
#      x y z
#    x 1.823040 -0.027820 -0.023580 
#    y -0.027820 1.839090 0.003690 
#    z -0.023580 0.003690 1.850050 
# 
# From -- ./inp_files/399180.got.cif
#   From: 2010.05.17/outbox.cif.g08.bks.cpg/sg2_200_cif.got.tgz:399180.got - 2010.06.03 11:33:40.
