data_PCOD9107888
_publ_section_title
;
Structure prediction by ZEFSAII (Michael W. Deem and Ramdas Pophale) SiO2 
 PCOD9107888
Probable space group: P -1
;
_chemical_formula_sum "Si O2"
_cell_formula_units_Z 10
_cell_length_a 9.154378
_cell_length_b 15.870052
_cell_length_c 9.509720
_cell_angle_alpha 157.308947
_cell_angle_beta 42.838678
_cell_angle_gamma 137.021374
_cell_volume 354.294673
_symmetry_space_group_name_H-M "P -1"
_symmetry_group_IT_number 2
_symmetry_cell_setting 'triclinic'
loop_
_space_group_symop_operation_xyz
x,y,z
-x,-y,-z
loop_
_atom_site_type_symbol
_atom_site_label
_atom_site_fract_x
_atom_site_fract_y
_atom_site_fract_z
Si Si1 0.466862 0.190317 0.517243
Si Si2 0.281570 0.718395 0.020687
Si Si3 0.924757 0.966177 0.158364
Si Si4 0.987230 0.297889 0.089114
Si Si5 0.505097 0.555565 0.846133
O O1 0.593648 0.336246 0.781435
O O2 0.454643 0.933733 0.168207
O O3 0.539533 0.321153 0.523194
O O4 0.211947 0.223143 0.763536
O O5 0.372158 0.536566 0.766791
O O6 0.156844 0.828219 0.398802
O O7 0.129048 0.647329 0.885472
O O8 0.717818 0.752971 0.972025
O O9 0.099168 0.907769 0.058642
O O10 0.000000 0.000000 0.000000
O O11 0.000000 0.500000 0.500000
#
# Coordination Sequence:
#
# PCOD9107888 Si02
#       5
#     2   2   2   2   2
#     4   9  18  37  64  89 123 160 202 250 309 367
#     4  10  20  40  66  89 121 166 209 244 308 366
#     4  10  21  40  64  91 126 158 199 256 313 368
#     4  10  22  40  60  90 125 163 208 256 301 357
#     4   9  19  37  66  91 120 162 204 248 311 367
#
# _framework density 28.225090999999999
#
# number of rings (size 3 to 8) (size 9 to 14) (size 15 to 20)
#    0.000    2.800    0.000    4.800    2.800    0.800 
#    7.200    5.000    8.800    0.000    0.000    0.000 
#    0.000    0.000    0.000    0.000    0.000    0.000 
#
# Total GULP energy -55916.064538 kJ/mol
# GULP energy per Si atom -5591.606454 kJ/mol
# Density = 2.816085 g / cm^3
# Si number density = 28.225091 Si / 1000 Ang^3
#
#
#
# Elastic Constant Matrix: (Units=GPa)
#
#
# Indices 1 2 3 4 5 6 
#
# 1 199.3586 78.7936 19.3363 -3.6158 1.0664 -78.3998
# 2 78.7936 199.3301 39.7158 -11.2323 4.3440 -59.9562
# 3 19.3363 39.7158 87.6059 -20.7958 7.8458 -29.9799
# 4 -3.6158 -11.2323 -20.7958 43.3564 -19.5655 4.9858
# 5 1.0664 4.3440 7.8458 -19.5655 34.3501 2.8979
# 6 -78.3998 -59.9562 -29.9799 4.9858 2.8979 63.8978
#
#
#
# Elastic Compliance Matrix: (Units=1/GPa)
#
#
# Indices 1 2 3 4 5 6 
#
# 1 0.010289 -0.000503 0.002660 -0.000620 -0.002360 0.013556
# 2 -0.000503 0.007153 -0.001071 0.000197 -0.001007 0.005622
# 3 0.002660 -0.001071 0.016058 0.006169 -0.000890 0.009352
# 4 -0.000620 0.000197 0.006169 0.034413 0.018288 -0.001196
# 5 -0.002360 -0.001007 -0.000890 0.018288 0.040567 -0.007525
# 6 0.013556 0.005622 0.009352 -0.001196 -0.007525 0.042380
#
#
# Mechanical properties :
#
#
# Convention : Reuss Voigt Hill
#
# Bulk Modulus (GPa) = 28.03304 84.66511 56.34907
# Shear Modulus (GPa) = 31.13708 51.55079 41.34393
#
# Velocity S-wave (km/s) = 3.32500 4.27830 3.83141
# Velocity P-wave (km/s) = 4.96934 7.38015 6.29130
#
# Compressibility (1/GPa) = 0.03567220
#
# Stress axis : x y z
#
# Youngs Moduli (GPa) = 97.18749 139.79554 62.27535
#
# Poissons Ratio (x) = 0.07038 -0.16567
# Poissons Ratio (y) = 0.04893 0.06670
# Poissons Ratio (z) = -0.25855 0.14972
#
# Static dielectric constant tensor:
#      x y z
#    x 2.379280 0.133550 -0.093170 
#    y 0.133550 2.262450 -0.041800 
#    z -0.093170 -0.041800 2.220840 
# 
# From -- ./inp_files/147042.got.cif
#   From: 2010.05.17/outbox.cif.g08.bks.cpg/sg2_74_cif.got.tgz:147042.got - 2010.06.03 11:33:40.
