data_PCOD9107630
_publ_section_title
;
Structure prediction by ZEFSAII (Michael W. Deem and Ramdas Pophale) SiO2 
 PCOD9107630
Probable space group: P -1
;
_chemical_formula_sum "Si O2"
_cell_formula_units_Z 16
_cell_length_a 5.511106
_cell_length_b 21.935970
_cell_length_c 18.671566
_cell_angle_alpha 20.381964
_cell_angle_beta 109.297854
_cell_angle_gamma 118.428409
_cell_volume 640.047396
_symmetry_space_group_name_H-M "P -1"
_symmetry_group_IT_number 2
_symmetry_cell_setting 'triclinic'
loop_
_space_group_symop_operation_xyz
x,y,z
-x,-y,-z
loop_
_atom_site_type_symbol
_atom_site_label
_atom_site_fract_x
_atom_site_fract_y
_atom_site_fract_z
Si Si1 0.698412 0.717549 0.115321
Si Si2 0.654714 0.417729 0.548440
Si Si3 0.652300 0.410365 0.058737
Si Si4 0.331505 0.044986 0.755867
Si Si5 0.539611 0.376379 0.297720
Si Si6 0.310434 0.039576 0.519375
Si Si7 0.775539 0.277788 0.025096
Si Si8 0.318979 0.051314 0.005622
O O1 0.643215 0.504182 0.374518
O O2 0.495145 0.688642 0.059636
O O3 0.599577 0.793508 0.090995
O O4 0.031472 0.905201 0.926304
O O5 0.500000 0.500000 0.500000
O O6 0.000000 0.500000 0.500000
O O7 0.523510 0.184795 0.813491
O O8 0.523814 0.177703 0.323998
O O9 0.500000 0.500000 0.000000
O O10 0.584626 0.481086 0.899385
O O11 0.000000 0.500000 0.000000
O O12 0.394580 0.247400 0.497536
O O13 0.270863 0.888081 0.857533
O O14 0.609376 0.099181 0.776608
O O15 0.440075 0.202223 0.418711
O O16 0.899344 0.522318 0.173158
O O17 0.255681 0.834801 0.778574
O O18 0.000000 0.000000 0.500000
O O19 0.000000 0.000000 0.000000
#
# Coordination Sequence:
#
# PCOD9107630 Si02
#       8
#     2   2   2   2   2   2   2   2
#     4  10  22  41  61  88 126 172 215 267 334 397
#     4  10  20  40  65  89 125 169 219 271 324 392
#     4  10  22  42  67  98 132 173 225 277 328 393
#     4  10  22  42  58  91 132 167 220 271 334 396
#     4  10  22  41  63  95 129 170 225 269 330 401
#     4  10  20  41  68  92 132 173 220 278 328 390
#     4  10  22  41  61  90 131 172 220 270 335 391
#     4  10  22  40  62  91 125 168 218 277 327 390
#
# _framework density 24.998148
#
# number of rings (size 3 to 8) (size 9 to 14) (size 15 to 20)
#    0.000    2.000    2.500    0.000    3.500    0.500 
#    6.750    2.500    0.000    0.000    0.000    0.000 
#    0.000    0.000    0.000    0.000    0.000    0.000 
#
# Total GULP energy -89222.376771 kJ/mol
# GULP energy per Si atom -5576.398548 kJ/mol
# Density = 2.494125 g / cm^3
# Si number density = 24.998148 Si / 1000 Ang^3
#
#
#
# Elastic Constant Matrix: (Units=GPa)
#
#
# Indices 1 2 3 4 5 6 
#
# 1 63.7802 34.8750 51.3188 6.6974 -6.6367 23.7711
# 2 34.8750 157.8608 66.2917 21.6915 0.1352 26.3960
# 3 51.3188 66.2917 259.4333 43.0328 -6.5549 26.6166
# 4 6.6974 21.6915 43.0328 61.4140 2.6150 3.4270
# 5 -6.6367 0.1352 -6.5549 2.6150 49.4343 -7.6387
# 6 23.7711 26.3960 26.6166 3.4270 -7.6387 67.5020
#
#
#
# Elastic Compliance Matrix: (Units=1/GPa)
#
#
# Indices 1 2 3 4 5 6 
#
# 1 0.021749 -0.002738 -0.003204 0.001060 0.001644 -0.005193
# 2 -0.002738 0.007889 -0.001047 -0.001629 -0.000705 -0.001705
# 3 -0.003204 -0.001047 0.005298 -0.002989 0.000378 -0.000357
# 4 0.001060 -0.001629 -0.002989 0.018869 -0.001194 0.000349
# 5 0.001644 -0.000705 0.000378 -0.001194 0.020869 0.001970
# 6 -0.005193 -0.001705 -0.000357 0.000349 0.001970 0.017656
#
#
# Mechanical properties :
#
#
# Convention : Reuss Voigt Hill
#
# Bulk Modulus (GPa) = 47.71542 87.33836 67.52689
# Shear Modulus (GPa) = 44.13321 57.57597 50.85459
#
# Velocity S-wave (km/s) = 4.20630 4.80438 4.51525
# Velocity P-wave (km/s) = 6.53602 8.11110 7.36578
#
# Compressibility (1/GPa) = 0.02095759
#
# Stress axis : x y z
#
# Youngs Moduli (GPa) = 45.97853 126.76290 188.75599
#
# Poissons Ratio (x) = 0.34710 0.60480
# Poissons Ratio (y) = 0.12590 0.19759
# Poissons Ratio (z) = 0.14732 0.13270
#
# Static dielectric constant tensor:
#      x y z
#    x 2.143680 -0.059340 0.033310 
#    y -0.059340 1.980720 0.012100 
#    z 0.033310 0.012100 1.984860 
# 
# From -- ./inp_files/126243.got.cif
#   From: 2010.05.17/outbox.cif.g08.bks.cpg/sg2_64_cif.got.tgz:126243.got - 2010.06.03 11:33:40.
