data_PCOD9107016
_publ_section_title
;
Structure prediction by ZEFSAII (Michael W. Deem and Ramdas Pophale) SiO2 
 PCOD9107016
Probable space group: P -1
;
_chemical_formula_sum "Si O2"
_cell_formula_units_Z 16
_cell_length_a 10.860231
_cell_length_b 13.278531
_cell_length_c 8.690648
_cell_angle_alpha 37.639312
_cell_angle_beta 83.799333
_cell_angle_gamma 93.296929
_cell_volume 739.454278
_symmetry_space_group_name_H-M "P -1"
_symmetry_group_IT_number 2
_symmetry_cell_setting 'triclinic'
loop_
_space_group_symop_operation_xyz
x,y,z
-x,-y,-z
loop_
_atom_site_type_symbol
_atom_site_label
_atom_site_fract_x
_atom_site_fract_y
_atom_site_fract_z
Si Si1 0.154127 0.760702 0.962043
Si Si2 0.390204 0.023765 0.764690
Si Si3 0.862552 0.011213 0.568974
Si Si4 0.552596 0.797943 0.154656
Si Si5 0.927373 0.874175 0.030602
Si Si6 0.678682 0.724690 0.744617
Si Si7 0.237702 0.416314 0.390391
Si Si8 0.456876 0.494775 0.715062
O O1 0.172676 0.573205 0.204466
O O2 0.027792 0.794362 0.017298
O O3 0.270082 0.888558 0.878713
O O4 0.159830 0.818341 0.712436
O O5 0.365157 0.096069 0.848215
O O6 0.413810 0.179044 0.453017
O O7 0.501245 0.927689 0.897402
O O8 0.759905 0.859262 0.687959
O O9 0.864736 0.980354 0.787440
O O10 0.000000 0.000000 0.500000
O O11 0.442706 0.669233 0.427418
O O12 0.594060 0.662242 0.203390
O O13 0.830335 0.718268 0.312309
O O14 0.000000 0.000000 0.000000
O O15 0.769691 0.677422 0.659549
O O16 0.607709 0.561178 0.046609
O O17 0.390181 0.482877 0.316537
#
# Coordination Sequence:
#
# PCOD9107016 Si02
#       8
#     2   2   2   2   2   2   2   2
#     4  10  22  43  65  95 126 163 210 263 316 371
#     4  10  20  40  62  92 127 164 210 263 304 379
#     4   9  21  43  65  92 122 162 211 257 312 377
#     4  10  22  38  62  91 129 161 218 256 310 367
#     4  11  24  43  73  92 122 163 209 263 322 373
#     4  11  24  40  64  88 130 173 210 253 317 372
#     4  12  23  43  61  95 129 167 210 263 313 374
#     4  11  24  40  61  92 130 173 209 263 314 369
#
# _framework density 21.637578999999999
#
# number of rings (size 3 to 8) (size 9 to 14) (size 15 to 20)
#    0.000    1.500    2.500    3.000    3.500    0.500 
#    0.000    9.375    0.000    0.000    0.000    0.000 
#    0.000    0.000    0.000    0.000    0.000    0.000 
#
# Total GULP energy -89371.517610 kJ/mol
# GULP energy per Si atom -5585.719851 kJ/mol
# Density = 2.158833 g / cm^3
# Si number density = 21.637579 Si / 1000 Ang^3
#
#
#
# Elastic Constant Matrix: (Units=GPa)
#
#
# Indices 1 2 3 4 5 6 
#
# 1 44.9002 16.3493 43.9233 7.3547 12.7542 11.0032
# 2 16.3493 93.3528 53.1796 15.5456 16.3172 14.3123
# 3 43.9233 53.1796 170.1879 16.6763 4.4848 -2.7359
# 4 7.3547 15.5456 16.6763 39.7745 -7.7535 7.3510
# 5 12.7542 16.3172 4.4848 -7.7535 31.7250 0.8482
# 6 11.0032 14.3123 -2.7359 7.3510 0.8482 29.4512
#
#
#
# Elastic Compliance Matrix: (Units=1/GPa)
#
#
# Indices 1 2 3 4 5 6 
#
# 1 0.043239 0.006911 -0.012506 -0.005935 -0.020123 -0.018614
# 2 0.006911 0.017995 -0.006651 -0.006059 -0.012305 -0.010078
# 3 -0.012506 -0.006651 0.011158 -0.000099 0.006612 0.008776
# 4 -0.005935 -0.006059 -0.000099 0.031846 0.013385 -0.003182
# 5 -0.020123 -0.012305 0.006612 0.013385 0.048025 0.009388
# 6 -0.018614 -0.010078 0.008776 -0.003182 0.009388 0.047145
#
#
# Mechanical properties :
#
#
# Convention : Reuss Voigt Hill
#
# Bulk Modulus (GPa) = 20.87650 59.48281 40.17966
# Shear Modulus (GPa) = 20.84474 33.18938 27.01706
#
# Velocity S-wave (km/s) = 3.10717 3.92072 3.53741
# Velocity P-wave (km/s) = 4.74783 6.93154 5.94088
#
# Compressibility (1/GPa) = 0.04790075
#
# Stress axis : x y z
#
# Youngs Moduli (GPa) = 23.12721 55.56985 89.61856
#
# Poissons Ratio (x) = -0.38406 1.12081
# Poissons Ratio (y) = -0.15984 0.59604
# Poissons Ratio (z) = 0.28924 0.36959
#
# Static dielectric constant tensor:
#      x y z
#    x 1.826340 0.011500 0.012850 
#    y 0.011500 1.805260 0.017920 
#    z 0.012850 0.017920 1.817450 
# 
# From -- ./inp_files/271370.got.cif
#   From: 2010.05.17/outbox.cif.g08.bks.cpg/sg2_136_cif.got.tgz:271370.got - 2010.06.03 11:33:40.
