data_PCOD9107857
_publ_section_title
;
Structure prediction by ZEFSAII (Michael W. Deem and Ramdas Pophale) SiO2 
 PCOD9107857
Probable space group: P -1
;
_chemical_formula_sum "Si O2"
_cell_formula_units_Z 15
_cell_length_a 15.997881
_cell_length_b 8.572376
_cell_length_c 7.026635
_cell_angle_alpha 123.327066
_cell_angle_beta 124.104054
_cell_angle_gamma 59.231995
_cell_volume 637.195226
_symmetry_space_group_name_H-M "P -1"
_symmetry_group_IT_number 2
_symmetry_cell_setting 'triclinic'
loop_
_space_group_symop_operation_xyz
x,y,z
-x,-y,-z
loop_
_atom_site_type_symbol
_atom_site_label
_atom_site_fract_x
_atom_site_fract_y
_atom_site_fract_z
Si Si1 0.162905 0.598583 0.059395
Si Si2 0.713999 0.184017 0.210836
Si Si3 0.384525 0.089400 0.330537
Si Si4 0.385601 0.489860 0.405845
Si Si5 0.893803 0.337940 0.517540
Si Si6 0.871549 0.810381 0.248910
Si Si7 0.159494 0.220797 0.269343
Si Si8 0.000000 0.000000 0.000000
O O1 0.287794 0.576231 0.193855
O O2 0.133188 0.632645 0.270882
O O3 0.150116 0.387978 0.848333
O O4 0.076944 0.773286 0.968092
O O5 0.645201 0.371108 0.357318
O O6 0.804665 0.251510 0.263318
O O7 0.782492 0.008921 0.316682
O O8 0.644459 0.083553 0.932611
O O9 0.383017 0.273324 0.316973
O O10 0.286585 0.165361 0.402638
O O11 0.500000 0.000000 0.500000
O O12 0.500000 0.500000 0.500000
O O13 0.886819 0.553010 0.584911
O O14 0.010620 0.193526 0.547820
O O15 0.866940 0.800043 0.003860
O O16 0.104356 0.081288 0.208382
#
# Coordination Sequence:
#
# PCOD9107857 Si02
#       8
#     2   2   2   2   2   2   2   1
#     4  10  19  35  59  90 131 168 214 261 326 384
#     4  10  21  38  68  96 122 171 218 264 328 388
#     4  11  24  44  66  93 128 172 223 275 325 386
#     4  11  24  44  66  93 128 172 223 275 325 386
#     4  10  16  35  60  89 123 170 210 255 315 401
#     4  10  16  35  60  89 123 170 210 255 315 401
#     4  10  19  35  59  90 131 168 214 261 326 384
#     4  12  20  30  64  98 128 174 210 262 330 372
#
# _framework density 23.540665000000001
#
# number of rings (size 3 to 8) (size 9 to 14) (size 15 to 20)
#    0.000    1.600    8.000    1.200    1.867    1.067 
#    0.000    0.000    0.000   12.800    0.000    0.000 
#    0.000    0.000    0.000    0.000    0.000    0.000 
#
# Total GULP energy -83695.132086 kJ/mol
# GULP energy per Si atom -5579.675472 kJ/mol
# Density = 2.348709 g / cm^3
# Si number density = 23.540665 Si / 1000 Ang^3
#
#
#
# Elastic Constant Matrix: (Units=GPa)
#
#
# Indices 1 2 3 4 5 6 
#
# 1 94.5141 6.1297 37.6351 -18.6017 37.1725 -11.8855
# 2 6.1297 86.1399 34.9904 3.5826 20.6732 -4.1004
# 3 37.6351 34.9904 94.8985 1.4417 37.8919 8.3318
# 4 -18.6017 3.5826 1.4417 49.8567 2.6448 26.1862
# 5 37.1725 20.6732 37.8919 2.6448 56.7106 -7.4405
# 6 -11.8855 -4.1004 8.3318 26.1862 -7.4405 30.7412
#
#
#
# Elastic Compliance Matrix: (Units=1/GPa)
#
#
# Indices 1 2 3 4 5 6 
#
# 1 0.017221 0.002386 -0.003751 0.007197 -0.010063 -0.000573
# 2 0.002386 0.014960 -0.006478 -0.003949 -0.001498 0.007675
# 3 -0.003751 -0.006478 0.020502 0.008510 -0.011629 -0.017934
# 4 0.007197 -0.003949 0.008510 0.046789 -0.016919 -0.044001
# 5 -0.010063 -0.001498 -0.011629 -0.016919 0.036253 0.022248
# 6 -0.000573 0.007675 -0.017934 -0.044001 0.022248 0.081058
#
#
# Mechanical properties :
#
#
# Convention : Reuss Voigt Hill
#
# Bulk Modulus (GPa) = 27.02782 48.11811 37.57296
# Shear Modulus (GPa) = 20.42483 40.58154 30.50319
#
# Velocity S-wave (km/s) = 2.94877 4.15648 3.60358
# Velocity P-wave (km/s) = 4.80624 6.59696 5.77147
#
# Compressibility (1/GPa) = 0.03699892
#
# Stress axis : x y z
#
# Youngs Moduli (GPa) = 58.06758 66.84629 48.77592
#
# Poissons Ratio (x) = -0.15953 0.18294
# Poissons Ratio (y) = -0.13858 0.31597
# Poissons Ratio (z) = 0.21779 0.43302
#
# Static dielectric constant tensor:
#      x y z
#    x 1.964440 0.043570 -0.072790 
#    y 0.043570 1.880730 -0.018980 
#    z -0.072790 -0.018980 1.962300 
# 
# From -- ./inp_files/326819.got.cif
#   From: 2010.05.17/outbox.cif.g08.bks.cpg/sg2_164_cif.got.tgz:326819.got - 2010.06.03 11:33:40.
