data_PCOD9107811
_publ_section_title
;
Structure prediction by ZEFSAII (Michael W. Deem and Ramdas Pophale) SiO2 
 PCOD9107811
Probable space group: P -1
;
_chemical_formula_sum "Si O2"
_cell_formula_units_Z 14
_cell_length_a 9.094220
_cell_length_b 16.717518
_cell_length_c 11.441729
_cell_angle_alpha 147.145502
_cell_angle_beta 38.618458
_cell_angle_gamma 125.866984
_cell_volume 576.106250
_symmetry_space_group_name_H-M "P -1"
_symmetry_group_IT_number 2
_symmetry_cell_setting 'triclinic'
loop_
_space_group_symop_operation_xyz
x,y,z
-x,-y,-z
loop_
_atom_site_type_symbol
_atom_site_label
_atom_site_fract_x
_atom_site_fract_y
_atom_site_fract_z
Si Si1 0.037625 0.251559 0.470970
Si Si2 0.201132 0.368508 0.096043
Si Si3 0.697474 0.373229 0.482713
Si Si4 0.253273 0.881087 0.685666
Si Si5 0.194340 0.415428 0.903729
Si Si6 0.575506 0.834248 0.078569
Si Si7 0.965739 0.148389 0.622925
O O1 0.246498 0.230400 0.218498
O O2 0.801201 0.219581 0.512029
O O3 0.095895 0.134016 0.397430
O O4 0.970242 0.420273 0.771306
O O5 0.236779 0.519115 0.323600
O O6 0.304763 0.240895 0.969153
O O7 0.916507 0.372495 0.257907
O O8 0.313143 0.363462 0.892764
O O9 0.718442 0.208984 0.322267
O O10 0.416838 0.427345 0.694677
O O11 0.443607 0.986166 0.680234
O O12 0.000000 0.000000 0.000000
O O13 0.059483 0.285190 0.792108
O O14 0.315387 0.804111 0.176274
O O15 0.000000 0.000000 0.500000
#
# Coordination Sequence:
#
# PCOD9107811 Si02
#       7
#     2   2   2   2   2   2   2
#     4  11  24  46  69  98 137 178 223 281 341 389
#     4  11  22  39  72 105 130 169 230 279 334 393
#     4  11  21  40  66 103 136 168 220 280 336 387
#     4  10  20  40  65  99 131 168 216 276 336 380
#     4  12  26  43  69 103 141 177 220 276 337 405
#     4  11  25  45  72 101 134 176 225 283 336 397
#     4  12  30  47  65 100 137 188 229 264 336 413
#
# _framework density 24.301072000000001
#
# number of rings (size 3 to 8) (size 9 to 14) (size 15 to 20)
#    0.000    0.857    4.286    3.429    4.000    2.857 
#    0.000    0.000    0.000    0.000    0.000    0.000 
#    0.000    0.000    0.000    0.000    0.000    0.000 
#
# Total GULP energy -78355.346648 kJ/mol
# GULP energy per Si atom -5596.810475 kJ/mol
# Density = 2.424576 g / cm^3
# Si number density = 24.301072 Si / 1000 Ang^3
#
#
#
# Elastic Constant Matrix: (Units=GPa)
#
#
# Indices 1 2 3 4 5 6 
#
# 1 78.0330 37.4812 13.8266 -1.1820 1.3869 4.0497
# 2 37.4812 132.2030 41.2335 4.3186 -6.5419 5.9031
# 3 13.8266 41.2335 71.3082 -2.6622 -5.3524 9.2713
# 4 -1.1820 4.3186 -2.6622 54.4371 2.0764 -5.3971
# 5 1.3869 -6.5419 -5.3524 2.0764 20.8152 4.2982
# 6 4.0497 5.9031 9.2713 -5.3971 4.2982 62.1875
#
#
#
# Elastic Compliance Matrix: (Units=1/GPa)
#
#
# Indices 1 2 3 4 5 6 
#
# 1 0.015009 -0.004200 -0.000610 0.000699 -0.002494 -0.000255
# 2 -0.004200 0.010521 -0.005101 -0.001293 0.002454 -0.000247
# 3 -0.000610 -0.005101 0.017672 0.000903 0.003359 -0.002264
# 4 0.000699 -0.001293 0.000903 0.018798 -0.002456 0.001744
# 5 -0.002494 0.002454 0.003359 -0.002456 0.050978 -0.004308
# 6 -0.000255 -0.000247 -0.002264 0.001744 -0.004308 0.016907
#
#
# Mechanical properties :
#
#
# Convention : Reuss Voigt Hill
#
# Bulk Modulus (GPa) = 42.77189 51.84743 47.30966
# Shear Modulus (GPa) = 31.74639 40.08816 35.91728
#
# Velocity S-wave (km/s) = 3.61831 4.06599 3.84866
# Velocity P-wave (km/s) = 5.92412 6.58975 6.26578
#
# Compressibility (1/GPa) = 0.02337984
#
# Stress axis : x y z
#
# Youngs Moduli (GPa) = 66.62881 95.05202 56.58747
#
# Poissons Ratio (x) = 0.39920 0.03449
# Poissons Ratio (y) = 0.27983 0.28866
# Poissons Ratio (z) = 0.04061 0.48487
#
# Static dielectric constant tensor:
#      x y z
#    x 1.970710 -0.004210 -0.058220 
#    y -0.004210 1.953390 0.008150 
#    z -0.058220 0.008150 1.993270 
# 
# From -- ./inp_files/403465.got.cif
#   From: 2010.05.17/outbox.cif.g08.bks.cpg/sg2_202_cif.got.tgz:403465.got - 2010.06.03 11:33:40.
