data_PCOD9107939
_publ_section_title
;
Structure prediction by ZEFSAII (Michael W. Deem and Ramdas Pophale) SiO2 
 PCOD9107939
Probable space group: P -1
;
_chemical_formula_sum "Si O2"
_cell_formula_units_Z 16
_cell_length_a 20.923469
_cell_length_b 14.195739
_cell_length_c 10.517749
_cell_angle_alpha 48.549130
_cell_angle_beta 25.519412
_cell_angle_gamma 32.994455
_cell_volume 670.244955
_symmetry_space_group_name_H-M "P -1"
_symmetry_group_IT_number 2
_symmetry_cell_setting 'triclinic'
loop_
_space_group_symop_operation_xyz
x,y,z
-x,-y,-z
loop_
_atom_site_type_symbol
_atom_site_label
_atom_site_fract_x
_atom_site_fract_y
_atom_site_fract_z
Si Si1 0.693853 0.484600 0.653186
Si Si2 0.713518 0.817081 0.699619
Si Si3 0.340143 0.717046 0.634091
Si Si4 0.079811 0.293093 0.316279
Si Si5 0.375986 0.855885 0.197983
Si Si6 0.010774 0.197492 0.950305
Si Si7 0.674207 0.616774 0.312230
Si Si8 0.908896 0.143354 0.426172
O O1 0.637290 0.626214 0.522562
O O2 0.882425 0.292613 0.405286
O O3 0.834334 0.436845 0.566810
O O4 0.500000 0.500000 0.000000
O O5 0.904106 0.684432 0.582174
O O6 0.776791 0.870574 0.426814
O O7 0.624395 0.750411 0.850321
O O8 0.500000 0.000000 0.000000
O O9 0.500000 0.500000 0.500000
O O10 0.341862 0.821915 0.429415
O O11 0.443580 0.715518 0.573207
O O12 0.102542 0.800521 0.968670
O O13 0.205331 0.077467 0.273755
O O14 0.225890 0.310216 0.969638
O O15 0.323452 0.773611 0.273754
O O16 0.848842 0.407567 0.115434
O O17 0.039561 0.080100 0.117194
O O18 0.000000 0.000000 0.500000
#
# Coordination Sequence:
#
# PCOD9107939 Si02
#       8
#     2   2   2   2   2   2   2   2
#     4  11  25  42  63  95 128 174 222 268 324 386
#     4  10  22  40  61  97 130 161 206 271 332 381
#     4   9  18  37  61  95 122 164 210 265 311 382
#     4  11  22  40  62  92 136 169 207 269 328 384
#     4  10  20  40  66  91 129 165 215 264 321 383
#     4   9  21  38  65  93 125 167 217 263 322 379
#     4  10  21  40  63  89 130 170 218 261 325 388
#     4  10  20  44  68  89 124 171 220 267 315 387
#
# _framework density 23.871869
#
# number of rings (size 3 to 8) (size 9 to 14) (size 15 to 20)
#    0.000    2.000    2.500    1.125    1.750    1.500 
#    4.500   10.625    0.000    0.000    0.000    0.000 
#    0.000    0.000    0.000    0.000    0.000    0.000 
#
# Total GULP energy -89250.714646 kJ/mol
# GULP energy per Si atom -5578.169665 kJ/mol
# Density = 2.381754 g / cm^3
# Si number density = 23.871869 Si / 1000 Ang^3
#
#
#
# Elastic Constant Matrix: (Units=GPa)
#
#
# Indices 1 2 3 4 5 6 
#
# 1 141.1493 43.3274 51.4378 9.5312 -26.6984 -23.9868
# 2 43.3274 84.5636 36.6852 -16.0532 10.5111 -8.7155
# 3 51.4378 36.6852 146.0511 -24.2696 -9.6275 -18.3325
# 4 9.5312 -16.0532 -24.2696 37.2696 -1.0611 4.3067
# 5 -26.6984 10.5111 -9.6275 -1.0611 27.0397 0.7879
# 6 -23.9868 -8.7155 -18.3325 4.3067 0.7879 46.7680
#
#
#
# Elastic Compliance Matrix: (Units=1/GPa)
#
#
# Indices 1 2 3 4 5 6 
#
# 1 0.017384 -0.011629 -0.003019 -0.011580 0.019973 0.006296
# 2 -0.011629 0.022827 -0.001417 0.011651 -0.020316 -0.002997
# 3 -0.003019 -0.001417 0.009552 0.006261 0.001178 0.001335
# 4 -0.011580 0.011651 0.006261 0.039089 -0.012063 -0.004710
# 5 0.019973 -0.020316 0.001178 -0.012063 0.064345 0.006946
# 6 0.006296 -0.002997 0.001335 -0.004710 0.006946 0.024893
#
#
# Mechanical properties :
#
#
# Convention : Reuss Voigt Hill
#
# Bulk Modulus (GPa) = 56.71510 70.51832 63.61671
# Shear Modulus (GPa) = 23.13760 38.23635 30.68698
#
# Velocity S-wave (km/s) = 3.11664 4.00651 3.58926
# Velocity P-wave (km/s) = 6.06308 7.14194 6.62451
#
# Compressibility (1/GPa) = 0.01763199
#
# Stress axis : x y z
#
# Youngs Moduli (GPa) = 57.52304 43.80774 104.69291
#
# Poissons Ratio (x) = 0.50946 0.31606
# Poissons Ratio (y) = 0.66896 0.14837
# Poissons Ratio (z) = 0.17366 0.06208
#
# Static dielectric constant tensor:
#      x y z
#    x 2.026780 -0.025330 -0.010890 
#    y -0.025330 2.044160 0.000340 
#    z -0.010890 0.000340 1.907110 
# 
# From -- ./inp_files/267197.got.cif
#   From: 2010.05.17/outbox.cif.g08.bks.cpg/sg2_134_cif.got.tgz:267197.got - 2010.06.03 11:33:40.
