data_PCOD9107592
_publ_section_title
;
Structure prediction by ZEFSAII (Michael W. Deem and Ramdas Pophale) SiO2 
 PCOD9107592
Probable space group: P -1
;
_chemical_formula_sum "Si O2"
_cell_formula_units_Z 16
_cell_length_a 15.358716
_cell_length_b 12.601277
_cell_length_c 16.411873
_cell_angle_alpha 142.888648
_cell_angle_beta 36.624304
_cell_angle_gamma 154.308960
_cell_volume 786.901056
_symmetry_space_group_name_H-M "P -1"
_symmetry_group_IT_number 2
_symmetry_cell_setting 'triclinic'
loop_
_space_group_symop_operation_xyz
x,y,z
-x,-y,-z
loop_
_atom_site_type_symbol
_atom_site_label
_atom_site_fract_x
_atom_site_fract_y
_atom_site_fract_z
Si Si1 0.456422 0.060771 0.771297
Si Si2 0.990643 0.910289 0.695411
Si Si3 0.823841 0.848369 0.609148
Si Si4 0.482594 0.267998 0.540021
Si Si5 0.448490 0.612590 0.250906
Si Si6 0.350230 0.582832 0.009026
Si Si7 0.318138 0.956490 0.069303
Si Si8 0.057225 0.745796 0.989585
O O1 0.492268 0.191801 0.740237
O O2 0.627405 0.282316 0.843881
O O3 0.456759 0.853229 0.629133
O O4 0.235696 0.918444 0.892493
O O5 0.921868 0.844589 0.613184
O O6 0.798988 0.661187 0.740133
O O7 0.228296 0.049230 0.602854
O O8 0.002834 0.122236 0.843919
O O9 0.603551 0.544198 0.578660
O O10 0.788114 0.020529 0.766642
O O11 0.000000 0.000000 0.500000
O O12 0.542948 0.311831 0.616813
O O13 0.615624 0.594650 0.105808
O O14 0.155399 0.483874 0.040858
O O15 0.555468 0.792349 0.926799
O O16 0.500000 0.000000 0.000000
O O17 0.166051 0.738527 0.980320
#
# Coordination Sequence:
#
# PCOD9107592 Si02
#       8
#     2   2   2   2   2   2   2   2
#     4  11  25  37  62 102 130 164 223 269 306 370
#     4  10  20  40  65  86 126 172 213 256 321 385
#     4  10  22  41  65  92 124 164 208 264 327 388
#     4  11  23  42  62  92 133 167 209 268 324 382
#     4  11  21  41  66  89 131 178 216 260 316 379
#     4  11  21  41  64  90 131 172 215 266 309 383
#     4  10  21  40  65  93 122 160 215 269 318 382
#     4  10  21  40  63  90 127 169 212 264 320 375
#
# _framework density 20.332924999999999
#
# number of rings (size 3 to 8) (size 9 to 14) (size 15 to 20)
#    0.000    1.500    6.250    0.750    0.000    8.000 
#    0.000    3.750    0.000    0.000    0.000    0.000 
#    0.000    0.000    0.000    0.000    0.000    0.000 
#
# Total GULP energy -89111.219201 kJ/mol
# GULP energy per Si atom -5569.451200 kJ/mol
# Density = 2.028665 g / cm^3
# Si number density = 20.332925 Si / 1000 Ang^3
#
#
#
# Elastic Constant Matrix: (Units=GPa)
#
#
# Indices 1 2 3 4 5 6 
#
# 1 61.6274 41.9971 30.5357 -6.3217 0.9985 18.6499
# 2 41.9971 82.1577 16.9061 -15.6807 6.8676 4.5854
# 3 30.5357 16.9061 92.2763 -6.1439 19.9729 -1.6198
# 4 -6.3217 -15.6807 -6.1439 28.3865 0.5961 7.5234
# 5 0.9985 6.8676 19.9729 0.5961 16.8510 -0.6278
# 6 18.6499 4.5854 -1.6198 7.5234 -0.6278 34.1757
#
#
#
# Elastic Compliance Matrix: (Units=1/GPa)
#
#
# Indices 1 2 3 4 5 6 
#
# 1 0.044456 -0.019995 -0.016690 0.000572 0.024456 -0.022045
# 2 -0.019995 0.023801 0.006477 0.008911 -0.016293 0.005764
# 3 -0.016690 0.006477 0.021281 0.002874 -0.026673 0.008125
# 4 0.000572 0.008911 0.002874 0.044068 -0.009049 -0.011239
# 5 0.024456 -0.016293 -0.026673 -0.009049 0.096147 -0.008666
# 6 -0.022045 0.005764 0.008125 -0.011239 -0.008666 0.043217
#
#
# Mechanical properties :
#
#
# Convention : Reuss Voigt Hill
#
# Bulk Modulus (GPa) = 34.33913 46.10436 40.22175
# Shear Modulus (GPa) = 14.57322 25.65747 20.11534
#
# Velocity S-wave (km/s) = 2.68009 3.55613 3.14872
# Velocity P-wave (km/s) = 5.14803 6.29169 5.74838
#
# Compressibility (1/GPa) = 0.02912129
#
# Stress axis : x y z
#
# Youngs Moduli (GPa) = 22.49390 42.01500 46.99100
#
# Poissons Ratio (x) = 0.84011 0.78429
# Poissons Ratio (y) = 0.44977 -0.30437
# Poissons Ratio (z) = 0.37543 -0.27214
#
# Static dielectric constant tensor:
#      x y z
#    x 1.761950 0.050190 -0.001980 
#    y 0.050190 1.803490 0.052550 
#    z -0.001980 0.052550 1.701400 
# 
# From -- ./inp_files/335700.got.cif
#   From: 2010.05.17/outbox.cif.g08.bks.cpg/sg2_168_cif.got.tgz:335700.got - 2010.06.03 11:33:40.
