data_PCOD9107782
_publ_section_title
;
Structure prediction by ZEFSAII (Michael W. Deem and Ramdas Pophale) SiO2 
 PCOD9107782
Probable space group: P -1
;
_chemical_formula_sum "Si O2"
_cell_formula_units_Z 16
_cell_length_a 13.606872
_cell_length_b 8.763729
_cell_length_c 11.521169
_cell_angle_alpha 75.795444
_cell_angle_beta 85.182603
_cell_angle_gamma 33.310225
_cell_volume 712.249307
_symmetry_space_group_name_H-M "P -1"
_symmetry_group_IT_number 2
_symmetry_cell_setting 'triclinic'
loop_
_space_group_symop_operation_xyz
x,y,z
-x,-y,-z
loop_
_atom_site_type_symbol
_atom_site_label
_atom_site_fract_x
_atom_site_fract_y
_atom_site_fract_z
Si Si1 0.863236 0.322796 0.417980
Si Si2 0.671766 0.301667 0.731197
Si Si3 0.948491 0.184875 0.078263
Si Si4 0.876046 0.792357 0.679926
Si Si5 0.611169 0.561613 0.201834
Si Si6 0.549728 0.807274 0.683754
Si Si7 0.771261 0.713620 0.513150
Si Si8 0.287824 0.234654 0.119489
O O1 0.682756 0.504111 0.336378
O O2 0.848520 0.444918 0.512916
O O3 0.947433 0.333640 0.314712
O O4 0.000000 0.000000 0.500000
O O5 0.500067 0.451337 0.783060
O O6 0.634686 0.534050 0.676539
O O7 0.712470 0.140988 0.643679
O O8 0.858680 0.040420 0.835779
O O9 0.791951 0.314785 0.149993
O O10 0.853185 0.478698 0.998370
O O11 0.000000 0.000000 0.000000
O O12 0.884278 0.689350 0.576482
O O13 0.832923 0.722479 0.796343
O O14 0.457526 0.899846 0.118789
O O15 0.621521 0.864143 0.597334
O O16 0.614629 0.759221 0.814821
O O17 0.335471 0.079617 0.627172
#
# Coordination Sequence:
#
# PCOD9107782 Si02
#       8
#     2   2   2   2   2   2   2   2
#     4  12  24  42  65 100 142 179 225 281 333 408
#     4  11  24  44  68 101 138 174 232 283 342 401
#     4  12  25  47  74  98 134 179 230 293 347 397
#     4  10  23  41  65  99 133 177 226 271 339 403
#     4  11  26  45  67 104 136 177 232 276 346 412
#     4  10  20  40  65  96 134 178 225 280 332 413
#     4  10  22  38  65  96 134 184 229 267 343 406
#     4  10  22  47  70  95 135 181 226 288 340 406
#
# _framework density 22.464043
#
# number of rings (size 3 to 8) (size 9 to 14) (size 15 to 20)
#    0.000    1.250    3.750    1.500    3.500    3.000 
#    4.500    0.000    0.000    0.000    0.000    0.000 
#    0.000    0.000    0.000    0.000    0.000    0.000 
#
# Total GULP energy -89229.807922 kJ/mol
# GULP energy per Si atom -5576.862995 kJ/mol
# Density = 2.241291 g / cm^3
# Si number density = 22.464043 Si / 1000 Ang^3
#
#
#
# Elastic Constant Matrix: (Units=GPa)
#
#
# Indices 1 2 3 4 5 6 
#
# 1 134.1975 41.9321 43.5173 -3.8135 4.3642 -15.6799
# 2 41.9321 101.1849 34.0564 -3.4392 7.3597 9.3644
# 3 43.5173 34.0564 33.3016 -8.2722 4.9722 -0.0817
# 4 -3.8135 -3.4392 -8.2722 47.7620 0.9590 -2.3529
# 5 4.3642 7.3597 4.9722 0.9590 26.2347 2.1934
# 6 -15.6799 9.3644 -0.0817 -2.3529 2.1934 46.0889
#
#
#
# Elastic Compliance Matrix: (Units=1/GPa)
#
#
# Indices 1 2 3 4 5 6 
#
# 1 0.014062 0.000005 -0.018998 -0.001959 0.000947 0.004604
# 2 0.000005 0.015708 -0.016396 -0.001850 -0.000959 -0.003268
# 3 -0.018998 -0.016396 0.075187 0.010353 -0.006689 -0.002152
# 4 -0.001959 -0.001850 0.010353 0.022529 -0.002022 0.000974
# 5 0.000947 -0.000959 -0.006689 -0.002022 0.039695 -0.001487
# 6 0.004604 -0.003268 -0.002152 0.000974 -0.001487 0.024044
#
#
# Mechanical properties :
#
#
# Convention : Reuss Voigt Hill
#
# Bulk Modulus (GPa) = 29.25636 56.41061 42.83349
# Shear Modulus (GPa) = 18.28845 33.96233 26.12539
#
# Velocity S-wave (km/s) = 2.85638 3.89247 3.41396
# Velocity P-wave (km/s) = 4.89187 6.73556 5.88635
#
# Compressibility (1/GPa) = 0.03418060
#
# Stress axis : x y z
#
# Youngs Moduli (GPa) = 71.11219 63.66019 13.30020
#
# Poissons Ratio (x) = -0.00033 0.25268
# Poissons Ratio (y) = -0.00037 0.21806
# Poissons Ratio (z) = 1.35100 1.04374
#
# Static dielectric constant tensor:
#      x y z
#    x 1.870570 -0.034810 0.029670 
#    y -0.034810 1.902890 0.058710 
#    z 0.029670 0.058710 1.898610 
# 
# From -- ./inp_files/447358.got.cif
#   From: 2010.05.17/outbox.cif.g08.bks.cpg/sg2_224_cif.got.tgz:447358.got - 2010.06.03 11:33:40.
