data_PCOD9107726
_publ_section_title
;
Structure prediction by ZEFSAII (Michael W. Deem and Ramdas Pophale) SiO2 
 PCOD9107726
Probable space group: P -1
;
_chemical_formula_sum "Si O2"
_cell_formula_units_Z 13
_cell_length_a 12.513867
_cell_length_b 11.920244
_cell_length_c 5.178860
_cell_angle_alpha 104.877418
_cell_angle_beta 50.096263
_cell_angle_gamma 119.536276
_cell_volume 513.552691
_symmetry_space_group_name_H-M "P -1"
_symmetry_group_IT_number 2
_symmetry_cell_setting 'triclinic'
loop_
_space_group_symop_operation_xyz
x,y,z
-x,-y,-z
loop_
_atom_site_type_symbol
_atom_site_label
_atom_site_fract_x
_atom_site_fract_y
_atom_site_fract_z
Si Si1 0.000000 0.000000 0.500000
Si Si2 0.614951 0.366718 0.284822
Si Si3 0.689856 0.017829 0.940866
Si Si4 0.852120 0.303029 0.617846
Si Si5 0.148820 0.266195 0.124270
Si Si6 0.387033 0.827425 0.449890
Si Si7 0.346175 0.368849 0.380748
O O1 0.948030 0.881416 0.727004
O O2 0.181360 0.031468 0.275363
O O3 0.544313 0.234247 0.478834
O O4 0.503151 0.360775 0.216533
O O5 0.629634 0.487060 0.503841
O O6 0.782145 0.381226 0.939264
O O7 0.663512 0.068379 0.290671
O O8 0.522602 0.900954 0.076680
O O9 0.758112 0.151308 0.756770
O O10 0.773526 0.292316 0.456538
O O11 0.029711 0.331503 0.366403
O O12 0.284005 0.332552 0.166337
O O13 0.214888 0.280565 0.741052
#
# Coordination Sequence:
#
# PCOD9107726 Si02
#       7
#     1   2   2   2   2   2   2
#     4  10  22  42  66  98 130 178 212 276 334 400
#     4  10  25  42  70  95 131 174 233 271 334 396
#     4   9  20  38  60  97 129 173 221 276 331 394
#     4  10  23  40  66  97 132 177 222 279 327 413
#     4  11  27  46  68 100 140 172 225 272 345 392
#     4  10  20  40  65  93 131 175 222 275 330 397
#     4  11  27  47  68 102 133 179 222 285 329 396
#
# _framework density 25.313860999999999
#
# number of rings (size 3 to 8) (size 9 to 14) (size 15 to 20)
#    0.000    1.846    0.000    1.385   12.923    3.077 
#    8.308    0.000    0.000    0.000    0.000    0.000 
#    0.000    0.000    0.000    0.000    0.000    0.000 
#
# Total GULP energy -72447.871744 kJ/mol
# GULP energy per Si atom -5572.913211 kJ/mol
# Density = 2.525625 g / cm^3
# Si number density = 25.313861 Si / 1000 Ang^3
#
#
#
# Elastic Constant Matrix: (Units=GPa)
#
#
# Indices 1 2 3 4 5 6 
#
# 1 106.5456 11.2970 31.7746 3.0984 -20.8189 -18.3829
# 2 11.2970 98.5458 23.3934 -8.0641 -1.5737 -19.7580
# 3 31.7746 23.3934 82.7965 -11.6254 -11.4469 -12.9981
# 4 3.0984 -8.0641 -11.6254 39.2744 2.0569 1.7686
# 5 -20.8189 -1.5737 -11.4469 2.0569 34.9510 10.6643
# 6 -18.3829 -19.7580 -12.9981 1.7686 10.6643 29.0104
#
#
#
# Elastic Compliance Matrix: (Units=1/GPa)
#
#
# Indices 1 2 3 4 5 6 
#
# 1 0.012296 0.000294 -0.003747 -0.002483 0.004825 0.004691
# 2 0.000294 0.012489 -0.002467 0.001572 -0.002758 0.008505
# 3 -0.003747 -0.002467 0.015349 0.004150 0.001865 0.001884
# 4 -0.002483 0.001572 0.004150 0.027286 -0.001758 0.000340
# 5 0.004825 -0.002758 0.001865 -0.001758 0.035399 -0.010891
# 6 0.004691 0.008505 0.001884 0.000340 -0.010891 0.048062
#
#
# Mechanical properties :
#
#
# Convention : Reuss Voigt Hill
#
# Bulk Modulus (GPa) = 35.34179 46.75756 41.04968
# Shear Modulus (GPa) = 29.04390 35.40869 32.22629
#
# Velocity S-wave (km/s) = 3.39093 3.74409 3.57188
# Velocity P-wave (km/s) = 5.41507 6.09936 5.76737
#
# Compressibility (1/GPa) = 0.02829511
#
# Stress axis : x y z
#
# Youngs Moduli (GPa) = 81.32494 80.06828 65.15008
#
# Poissons Ratio (x) = -0.02356 0.24413
# Poissons Ratio (y) = -0.02393 0.16073
# Poissons Ratio (z) = 0.30474 0.19753
#
# Static dielectric constant tensor:
#      x y z
#    x 2.054080 0.024750 0.063270 
#    y 0.024750 2.031660 0.003010 
#    z 0.063270 0.003010 1.986990 
# 
# From -- ./inp_files/24212.got.cif
#   From: 2010.05.17/outbox.cif.g08.bks.cpg/sg2_13_cif.got.tgz:24212.got - 2010.06.03 11:33:40.
