data_PCOD9107660
_publ_section_title
;
Structure prediction by ZEFSAII (Michael W. Deem and Ramdas Pophale) SiO2 
 PCOD9107660
Probable space group: P -1
;
_chemical_formula_sum "Si O2"
_cell_formula_units_Z 14
_cell_length_a 9.093998
_cell_length_b 11.295379
_cell_length_c 18.139610
_cell_angle_alpha 138.980241
_cell_angle_beta 149.670414
_cell_angle_gamma 46.480624
_cell_volume 613.602919
_symmetry_space_group_name_H-M "P -1"
_symmetry_group_IT_number 2
_symmetry_cell_setting 'triclinic'
loop_
_space_group_symop_operation_xyz
x,y,z
-x,-y,-z
loop_
_atom_site_type_symbol
_atom_site_label
_atom_site_fract_x
_atom_site_fract_y
_atom_site_fract_z
Si Si1 0.279796 0.143724 0.515963
Si Si2 0.783084 0.852760 0.851287
Si Si3 0.136207 0.486679 0.901858
Si Si4 0.591454 0.452960 0.729927
Si Si5 0.311978 0.395375 0.425419
Si Si6 0.262700 0.350138 0.738004
Si Si7 0.387519 0.870722 0.827936
O O1 0.427232 0.329338 0.654068
O O2 0.264066 0.160278 0.605892
O O3 0.959855 0.127998 0.336074
O O4 0.500000 0.000000 0.500000
O O5 0.684895 0.798371 0.702130
O O6 0.535977 0.909798 0.831782
O O7 0.953546 0.666747 0.871711
O O8 0.000000 0.000000 0.000000
O O9 0.188762 0.343676 0.790544
O O10 0.941150 0.420209 0.852372
O O11 0.438801 0.554955 0.088978
O O12 0.458289 0.400841 0.569508
O O13 0.502429 0.664827 0.803687
O O14 0.500000 0.500000 0.500000
O O15 0.994060 0.509010 0.342140
O O16 0.500000 0.000000 0.000000
#
# Coordination Sequence:
#
# PCOD9107660 Si02
#       7
#     2   2   2   2   2   2   2
#     4  12  28  44  61  98 139 176 214 266 329 392
#     4  10  22  38  66  98 124 162 214 276 320 381
#     4   9  21  40  67  95 120 166 221 275 319 380
#     4  11  23  44  71  91 127 180 218 271 322 389
#     4  11  18  40  70  93 120 165 229 265 322 387
#     4  10  20  40  65  90 129 162 217 269 325 377
#     4  11  25  44  65  96 133 169 219 265 322 393
#
# _framework density 22.816058000000002
#
# number of rings (size 3 to 8) (size 9 to 14) (size 15 to 20)
#    0.000    1.429    5.714    0.429    6.000    1.714 
#    7.714    0.714    0.000    0.000    0.000    0.000 
#    0.000    0.000    0.000    0.000    0.000    0.000 
#
# Total GULP energy -78223.240649 kJ/mol
# GULP energy per Si atom -5587.374332 kJ/mol
# Density = 2.276413 g / cm^3
# Si number density = 22.816058 Si / 1000 Ang^3
#
#
#
# Elastic Constant Matrix: (Units=GPa)
#
#
# Indices 1 2 3 4 5 6 
#
# 1 109.1732 47.9023 63.4757 7.6606 1.3795 -42.7155
# 2 47.9023 38.1969 41.1708 10.2584 0.1148 -22.9108
# 3 63.4757 41.1708 138.1414 19.4033 -4.6810 -38.0095
# 4 7.6606 10.2584 19.4033 45.7552 -15.3137 3.7932
# 5 1.3795 0.1148 -4.6810 -15.3137 64.9428 5.3943
# 6 -42.7155 -22.9108 -38.0095 3.7932 5.3943 40.0694
#
#
#
# Elastic Compliance Matrix: (Units=1/GPa)
#
#
# Indices 1 2 3 4 5 6 
#
# 1 0.024319 -0.021332 -0.001318 -0.000361 -0.001718 0.012743
# 2 -0.021332 0.071069 -0.005919 -0.012417 -0.004192 0.014020
# 3 -0.001318 -0.005919 0.012237 -0.004502 -0.000751 0.007345
# 4 -0.000361 -0.012417 -0.004502 0.030677 0.008249 -0.015770
# 5 -0.001718 -0.004192 -0.000751 0.008249 0.018010 -0.008146
# 6 0.012743 0.014020 0.007345 -0.015770 -0.008146 0.056114
#
#
# Mechanical properties :
#
#
# Convention : Reuss Voigt Hill
#
# Bulk Modulus (GPa) = 19.80755 65.62321 42.71538
# Shear Modulus (GPa) = 17.45856 39.01764 28.23810
#
# Velocity S-wave (km/s) = 2.76920 4.13982 3.52183
# Velocity P-wave (km/s) = 4.35028 7.18854 5.94138
#
# Compressibility (1/GPa) = 0.05048580
#
# Stress axis : x y z
#
# Youngs Moduli (GPa) = 41.12041 14.07085 81.72151
#
# Poissons Ratio (x) = 0.30016 0.10772
# Poissons Ratio (y) = 0.87717 0.48375
# Poissons Ratio (z) = 0.05420 0.08329
#
# Static dielectric constant tensor:
#      x y z
#    x 2.321870 0.066030 -0.011490 
#    y 0.066030 1.871240 -0.020400 
#    z -0.011490 -0.020400 1.791220 
# 
# From -- ./inp_files/560083.got.cif
#   From: 2010.05.17/outbox.cif.g08.bks.cpg/sg2_281_cif.got.tgz:560083.got - 2010.06.03 11:33:40.
