data_PCOD9107438
_publ_section_title
;
Structure prediction by ZEFSAII (Michael W. Deem and Ramdas Pophale) SiO2 
 PCOD9107438
Probable space group: P -1
;
_chemical_formula_sum "Si O2"
_cell_formula_units_Z 15
_cell_length_a 18.179828
_cell_length_b 21.074151
_cell_length_c 18.156541
_cell_angle_alpha 161.100500
_cell_angle_beta 157.474665
_cell_angle_gamma 18.827982
_cell_volume 700.116671
_symmetry_space_group_name_H-M "P -1"
_symmetry_group_IT_number 2
_symmetry_cell_setting 'triclinic'
loop_
_space_group_symop_operation_xyz
x,y,z
-x,-y,-z
loop_
_atom_site_type_symbol
_atom_site_label
_atom_site_fract_x
_atom_site_fract_y
_atom_site_fract_z
Si Si1 0.727257 0.215922 0.822005
Si Si2 0.500000 0.000000 0.000000
Si Si3 0.703564 0.199481 0.302215
Si Si4 0.176533 0.567555 0.713860
Si Si5 0.907143 0.326094 0.414417
Si Si6 0.120786 0.072225 0.632331
Si Si7 0.428863 0.538154 0.288543
Si Si8 0.951518 0.330333 0.026563
O O1 0.449412 0.336922 0.703727
O O2 0.812124 0.274149 0.038927
O O3 0.788658 0.327047 0.934591
O O4 0.879372 0.930626 0.639079
O O5 0.591850 0.150144 0.212727
O O6 0.743511 0.843931 0.105781
O O7 0.511860 0.412113 0.305828
O O8 0.909068 0.228109 0.549423
O O9 0.842194 0.944595 0.106001
O O10 0.096537 0.689417 0.694023
O O11 0.000000 0.500000 0.500000
O O12 0.661675 0.396632 0.298225
O O13 0.943697 0.529410 0.694203
O O14 0.328719 0.819150 0.508546
O O15 0.000000 0.000000 0.500000
O O16 0.216218 0.543488 0.061134
#
# Coordination Sequence:
#
# PCOD9107438 Si02
#       8
#     2   1   2   2   2   2   2   2
#     4  11  24  43  65  94 132 169 221 275 316 391
#     4  10  20  40  64  92 124 168 206 258 318 378
#     4  10  22  41  64  91 131 166 211 270 318 381
#     4  11  24  44  66  93 133 173 214 275 329 382
#     4  12  24  40  68  96 127 177 218 265 335 381
#     4   9  21  40  62  91 130 163 210 265 307 382
#     4  11  23  41  65  95 130 176 213 265 327 380
#     4  11  23  42  63  97 129 168 222 267 319 387
#
# _framework density 21.425000000000001
#
# number of rings (size 3 to 8) (size 9 to 14) (size 15 to 20)
#    0.000    1.333    4.000    1.200    0.000    5.867 
#    0.000    6.667    0.000    0.000    0.000    0.000 
#    0.000    0.000    0.000    0.000    0.000    0.000 
#
# Total GULP energy -83569.757918 kJ/mol
# GULP energy per Si atom -5571.317195 kJ/mol
# Density = 2.137624 g / cm^3
# Si number density = 21.425000 Si / 1000 Ang^3
#
#
#
# Elastic Constant Matrix: (Units=GPa)
#
#
# Indices 1 2 3 4 5 6 
#
# 1 259.4171 28.8941 -6.3935 -10.2521 102.9161 -73.1671
# 2 28.8941 89.3786 36.5679 -12.1487 3.7192 1.5745
# 3 -6.3935 36.5679 87.3234 -27.0001 -6.5120 8.0337
# 4 -10.2521 -12.1487 -27.0001 31.3620 -4.2795 -8.7002
# 5 102.9161 3.7192 -6.5120 -4.2795 79.5509 -52.4593
# 6 -73.1671 1.5745 8.0337 -8.7002 -52.4593 82.3013
#
#
#
# Elastic Compliance Matrix: (Units=1/GPa)
#
#
# Indices 1 2 3 4 5 6 
#
# 1 0.008569 -0.002749 0.001606 0.002247 -0.009649 0.001601
# 2 -0.002749 0.014503 -0.006314 -0.000856 0.001496 -0.001241
# 3 0.001606 -0.006314 0.018944 0.015569 0.002575 0.002987
# 4 0.002247 -0.000856 0.015569 0.049943 0.008457 0.011164
# 5 -0.009649 0.001496 0.002575 0.008457 0.035189 0.014465
# 6 0.001601 -0.001241 0.002987 0.011164 0.014465 0.023706
#
#
# Mechanical properties :
#
#
# Convention : Reuss Voigt Hill
#
# Bulk Modulus (GPa) = 36.89451 61.58399 49.23925
# Shear Modulus (GPa) = 28.60413 63.77957 46.19185
#
# Velocity S-wave (km/s) = 3.65784 5.46199 4.64829
# Velocity P-wave (km/s) = 5.92431 8.28156 7.20006
#
# Compressibility (1/GPa) = 0.02710430
#
# Stress axis : x y z
#
# Youngs Moduli (GPa) = 116.70263 68.95009 52.78660
#
# Poissons Ratio (x) = 0.18951 -0.08478
# Poissons Ratio (y) = 0.32076 0.33327
# Poissons Ratio (z) = -0.18744 0.43532
#
# Static dielectric constant tensor:
#      x y z
#    x 1.817600 0.009440 -0.056620 
#    y 0.009440 1.795130 0.003870 
#    z -0.056620 0.003870 1.750720 
# 
# From -- ./inp_files/11061.got.cif
#   From: 2010.05.17/outbox.cif.g08.bks.cpg/sg2_6_cif.got.tgz:11061.got - 2010.06.03 11:33:40.
