data_PCOD9107296
_publ_section_title
;
Structure prediction by ZEFSAII (Michael W. Deem and Ramdas Pophale) SiO2 
 PCOD9107296
Probable space group: P -1
;
_chemical_formula_sum "Si O2"
_cell_formula_units_Z 15
_cell_length_a 18.964540
_cell_length_b 7.441812
_cell_length_c 11.075232
_cell_angle_alpha 129.278850
_cell_angle_beta 38.939428
_cell_angle_gamma 141.472448
_cell_volume 610.703540
_symmetry_space_group_name_H-M "P -1"
_symmetry_group_IT_number 2
_symmetry_cell_setting 'triclinic'
loop_
_space_group_symop_operation_xyz
x,y,z
-x,-y,-z
loop_
_atom_site_type_symbol
_atom_site_label
_atom_site_fract_x
_atom_site_fract_y
_atom_site_fract_z
Si Si1 0.251063 0.591429 0.141645
Si Si2 0.500000 0.500000 0.000000
Si Si3 0.903314 0.730353 0.347651
Si Si4 0.974352 0.143505 0.203395
Si Si5 0.639189 0.095840 0.424326
Si Si6 0.310173 0.997232 0.442708
Si Si7 0.537219 0.502396 0.237790
Si Si8 0.812041 0.887467 0.777748
O O1 0.288961 0.861101 0.282434
O O2 0.214398 0.353849 0.192895
O O3 0.115791 0.451863 0.180223
O O4 0.383858 0.646443 0.921814
O O5 0.510477 0.517990 0.844369
O O6 0.660257 0.809193 0.930277
O O7 0.779018 0.405157 0.339170
O O8 0.854229 0.818509 0.566485
O O9 0.931607 0.938573 0.289097
O O10 0.053954 0.810613 0.220562
O O11 0.841298 0.141454 0.359483
O O12 0.000000 0.000000 0.000000
O O13 0.619213 0.091251 0.594003
O O14 0.500000 0.000000 0.500000
O O15 0.646713 0.832780 0.272317
O O16 0.407476 0.337426 0.432424
#
# Coordination Sequence:
#
# PCOD9107296 Si02
#       8
#     2   1   2   2   2   2   2   2
#     4  10  22  43  69 100 138 177 230 284 341 421
#     4  10  20  40  64 100 134 176 222 276 342 402
#     4  10  21  42  69  94 135 180 227 280 352 403
#     4  11  24  44  68 101 140 178 225 291 351 418
#     4  12  25  42  69 103 137 183 237 291 352 413
#     4  12  24  45  71  99 136 187 237 282 353 416
#     4  11  25  43  70 101 142 181 232 289 344 412
#     4   9  18  38  69  95 132 176 222 283 328 413
#
# _framework density 24.561834000000001
#
# number of rings (size 3 to 8) (size 9 to 14) (size 15 to 20)
#    0.000    1.333    1.333    4.400    1.867    1.067 
#    4.800    9.333    0.000    0.000    0.000    0.000 
#    0.000    0.000    0.000    0.000    0.000    0.000 
#
# Total GULP energy -83700.518436 kJ/mol
# GULP energy per Si atom -5580.034562 kJ/mol
# Density = 2.450593 g / cm^3
# Si number density = 24.561834 Si / 1000 Ang^3
#
#
#
# Elastic Constant Matrix: (Units=GPa)
#
#
# Indices 1 2 3 4 5 6 
#
# 1 97.1007 32.3544 11.1578 -15.4159 -3.8829 35.1322
# 2 32.3544 134.6994 2.9857 -16.1494 -17.6304 49.3859
# 3 11.1578 2.9857 66.0064 -16.0145 -14.8641 16.2570
# 4 -15.4159 -16.1494 -16.0145 35.9994 -1.1348 -2.5129
# 5 -3.8829 -17.6304 -14.8641 -1.1348 27.9050 -8.9150
# 6 35.1322 49.3859 16.2570 -2.5129 -8.9150 45.1643
#
#
#
# Elastic Compliance Matrix: (Units=1/GPa)
#
#
# Indices 1 2 3 4 5 6 
#
# 1 0.016451 0.003636 0.003916 0.009253 0.001499 -0.017372
# 2 0.003636 0.017347 0.009305 0.012211 0.009715 -0.022550
# 3 0.003916 0.009305 0.026094 0.016626 0.015018 -0.018724
# 4 0.009253 0.012211 0.016626 0.043508 0.012727 -0.021601
# 5 0.001499 0.009715 0.015018 0.012727 0.048490 -0.006915
# 6 -0.017372 -0.022550 -0.018724 -0.021601 -0.006915 0.064485
#
#
# Mechanical properties :
#
#
# Convention : Reuss Voigt Hill
#
# Bulk Modulus (GPa) = 10.68296 43.42248 27.05272
# Shear Modulus (GPa) = 23.37926 38.56765 30.97346
#
# Velocity S-wave (km/s) = 3.08856 3.96691 3.55496
# Velocity P-wave (km/s) = 4.13253 6.22085 5.28095
#
# Compressibility (1/GPa) = 0.09360703
#
# Stress axis : x y z
#
# Youngs Moduli (GPa) = 60.78515 57.64558 38.32243
#
# Poissons Ratio (x) = -0.20963 -0.15006
# Poissons Ratio (y) = -0.22104 -0.35658
# Poissons Ratio (z) = -0.23801 -0.53638
#
# Static dielectric constant tensor:
#      x y z
#    x 1.995040 -0.003240 -0.069170 
#    y -0.003240 1.941960 0.021690 
#    z -0.069170 0.021690 1.969220 
# 
# From -- ./inp_files/470134.got.cif
#   From: 2010.05.17/outbox.cif.g08.bks.cpg/sg2_236_cif.got.tgz:470134.got - 2010.06.03 11:33:40.
