data_PCOD9107628
_publ_section_title
;
Structure prediction by ZEFSAII (Michael W. Deem and Ramdas Pophale) SiO2 
 PCOD9107628
Probable space group: P -1
;
_chemical_formula_sum "Si O2"
_cell_formula_units_Z 12
_cell_length_a 11.354336
_cell_length_b 5.254034
_cell_length_c 12.840092
_cell_angle_alpha 115.696215
_cell_angle_beta 46.026764
_cell_angle_gamma 91.861006
_cell_volume 452.133027
_symmetry_space_group_name_H-M "P -1"
_symmetry_group_IT_number 2
_symmetry_cell_setting 'triclinic'
loop_
_space_group_symop_operation_xyz
x,y,z
-x,-y,-z
loop_
_atom_site_type_symbol
_atom_site_label
_atom_site_fract_x
_atom_site_fract_y
_atom_site_fract_z
Si Si1 0.613506 0.647860 0.040366
Si Si2 0.333255 0.413952 0.608548
Si Si3 0.277671 0.034345 0.228433
Si Si4 0.011273 0.793503 0.717068
Si Si5 0.709976 0.094714 0.579961
Si Si6 0.833542 0.462351 0.048031
O O1 0.701567 0.318370 0.871222
O O2 0.489998 0.946661 0.102480
O O3 0.463245 0.634845 0.213109
O O4 0.753912 0.689037 0.038570
O O5 0.500000 0.500000 0.500000
O O6 0.150754 0.600377 0.686595
O O7 0.294210 0.474757 0.764245
O O8 0.365312 0.073704 0.487631
O O9 0.204172 0.116056 0.406653
O O10 0.147768 0.253211 0.258968
O O11 0.142860 0.821796 0.551207
O O12 0.901782 0.123187 0.897901
O O13 0.000000 0.500000 0.000000
#
# Coordination Sequence:
#
# PCOD9107628 Si02
#       6
#     2   2   2   2   2   2
#     4   8  18  36  66  88 117 162 207 249 305 369
#     4  12  27  40  60  97 128 164 209 252 309 372
#     4   8  18  38  63  93 118 163 212 249 313 366
#     4  11  22  39  65  90 127 161 208 262 302 371
#     4  10  20  40  65  89 125 168 199 259 313 360
#     4  11  22  41  65  88 125 169 204 250 313 364
#
# _framework density 26.540859999999999
#
# number of rings (size 3 to 8) (size 9 to 14) (size 15 to 20)
#    1.000    1.000    1.667    2.000    2.333    2.000 
#    0.000    0.000    0.000    7.000    0.000    0.000 
#    0.000    0.000    0.000    0.000    0.000    0.000 
#
# Total GULP energy -66997.316667 kJ/mol
# GULP energy per Si atom -5583.109722 kJ/mol
# Density = 2.648045 g / cm^3
# Si number density = 26.540860 Si / 1000 Ang^3
#
#
#
# Elastic Constant Matrix: (Units=GPa)
#
#
# Indices 1 2 3 4 5 6 
#
# 1 196.3225 36.3703 22.6901 -4.7494 -12.3907 -44.6426
# 2 36.3703 68.5181 29.8214 0.8126 -10.9132 -19.7037
# 3 22.6901 29.8214 100.9868 -14.6221 8.2456 4.3317
# 4 -4.7494 0.8126 -14.6221 26.2323 -4.8926 -6.8650
# 5 -12.3907 -10.9132 8.2456 -4.8926 53.3375 -1.6214
# 6 -44.6426 -19.7037 4.3317 -6.8650 -1.6214 57.6190
#
#
#
# Elastic Compliance Matrix: (Units=1/GPa)
#
#
# Indices 1 2 3 4 5 6 
#
# 1 0.006853 -0.001333 -0.001185 0.002352 0.001879 0.005276
# 2 -0.001333 0.021032 -0.006908 -0.002077 0.005071 0.006574
# 3 -0.001185 -0.006908 0.013499 0.005937 -0.003343 -0.003682
# 4 0.002352 -0.002077 0.005937 0.044137 0.003435 0.006021
# 5 0.001879 0.005071 -0.003343 0.003435 0.021190 0.004446
# 6 0.005276 0.006574 -0.003682 0.006021 0.004446 0.024810
#
#
# Mechanical properties :
#
#
# Convention : Reuss Voigt Hill
#
# Bulk Modulus (GPa) = 44.38354 60.39902 52.39128
# Shear Modulus (GPa) = 31.66910 45.90079 38.78495
#
# Velocity S-wave (km/s) = 3.45805 4.16316 3.82688
# Velocity P-wave (km/s) = 5.71867 6.77611 6.26972
#
# Compressibility (1/GPa) = 0.02253087
#
# Stress axis : x y z
#
# Youngs Moduli (GPa) = 145.92633 47.54754 74.08013
#
# Poissons Ratio (x) = 0.06340 0.08779
# Poissons Ratio (y) = 0.19457 0.51173
# Poissons Ratio (z) = 0.17293 0.32845
#
# Static dielectric constant tensor:
#      x y z
#    x 2.184240 -0.027270 -0.119170 
#    y -0.027270 2.052650 0.064850 
#    z -0.119170 0.064850 2.050310 
# 
# From -- ./inp_files/228863.got.cif
#   From: 2010.05.17/outbox.cif.g08.bks.cpg/sg2_115_cif.got.tgz:228863.got - 2010.06.03 11:33:40.
