data_PCOD9107576
_publ_section_title
;
Structure prediction by ZEFSAII (Michael W. Deem and Ramdas Pophale) SiO2 
 PCOD9107576
Probable space group: P -1
;
_chemical_formula_sum "Si O2"
_cell_formula_units_Z 16
_cell_length_a 17.300350
_cell_length_b 10.873461
_cell_length_c 8.725549
_cell_angle_alpha 88.831052
_cell_angle_beta 151.681911
_cell_angle_gamma 95.878299
_cell_volume 766.021730
_symmetry_space_group_name_H-M "P -1"
_symmetry_group_IT_number 2
_symmetry_cell_setting 'triclinic'
loop_
_space_group_symop_operation_xyz
x,y,z
-x,-y,-z
loop_
_atom_site_type_symbol
_atom_site_label
_atom_site_fract_x
_atom_site_fract_y
_atom_site_fract_z
Si Si1 0.418013 0.241131 0.128571
Si Si2 0.340097 0.907722 0.284893
Si Si3 0.189394 0.659255 0.893832
Si Si4 0.812263 0.499368 0.819895
Si Si5 0.382371 0.666285 0.787906
Si Si6 0.531672 0.466090 0.755851
Si Si7 0.061808 0.710450 0.360478
Si Si8 0.124907 0.087529 0.827681
O O1 0.579553 0.182590 0.460607
O O2 0.454461 0.254674 0.009348
O O3 0.419224 0.384651 0.173305
O O4 0.262762 0.162501 0.948848
O O5 0.500000 0.000000 0.500000
O O6 0.242198 0.808150 0.997697
O O7 0.213851 0.000710 0.097634
O O8 0.070268 0.637192 0.539782
O O9 0.132572 0.596597 0.958296
O O10 0.354210 0.605344 0.144184
O O11 0.723392 0.423306 0.522386
O O12 0.661754 0.563764 0.619300
O O13 0.962427 0.614328 0.066741
O O14 0.251042 0.743697 0.631251
O O15 0.436313 0.580697 0.017001
O O16 0.968395 0.822208 0.238188
O O17 0.000000 0.000000 0.500000
#
# Coordination Sequence:
#
# PCOD9107576 Si02
#       8
#     2   2   2   2   2   2   2   2
#     4  10  20  40  65  85 119 160 204 246 306 362
#     4  10  21  36  61  84 118 162 210 247 298 346
#     4  11  20  36  58  93 125 157 205 254 305 369
#     4  11  20  35  62  91 123 164 196 251 314 366
#     4  10  22  42  61  94 129 160 192 247 325 378
#     4  10  21  35  64  96 125 153 204 251 314 372
#     4  11  24  38  59  92 131 156 201 257 307 360
#     4  11  23  41  61  89 120 163 213 256 293 344
#
# _framework density 20.887134
#
# number of rings (size 3 to 8) (size 9 to 14) (size 15 to 20)
#    0.000    1.500    3.750    3.375    3.500    1.000 
#    0.000    3.750    0.000    0.000    0.000    0.000 
#    0.000    0.000    0.000    0.000    0.000    0.000 
#
# Total GULP energy -89128.021773 kJ/mol
# GULP energy per Si atom -5570.501361 kJ/mol
# Density = 2.083959 g / cm^3
# Si number density = 20.887134 Si / 1000 Ang^3
#
#
#
# Elastic Constant Matrix: (Units=GPa)
#
#
# Indices 1 2 3 4 5 6 
#
# 1 78.7713 36.1086 7.9546 -10.9739 4.3003 -7.9761
# 2 36.1086 95.9325 19.6417 -21.3191 21.0870 -1.9753
# 3 7.9546 19.6417 48.0945 -12.7151 4.3283 -0.0001
# 4 -10.9739 -21.3191 -12.7151 43.2742 -2.8989 10.9917
# 5 4.3003 21.0870 4.3283 -2.8989 42.1120 -10.2020
# 6 -7.9761 -1.9753 -0.0001 10.9917 -10.2020 25.2288
#
#
#
# Elastic Compliance Matrix: (Units=1/GPa)
#
#
# Indices 1 2 3 4 5 6 
#
# 1 0.016180 -0.006743 -0.000395 -0.000691 0.003216 0.006189
# 2 -0.006743 0.016943 -0.003163 0.007001 -0.008783 -0.007407
# 3 -0.000395 -0.003163 0.023900 0.006189 -0.001275 -0.003584
# 4 -0.000691 0.007001 0.006189 0.031846 -0.005721 -0.015858
# 5 0.003216 -0.008783 -0.001275 -0.005721 0.031303 0.015480
# 6 0.006189 -0.007407 -0.003584 -0.015858 0.015480 0.054183
#
#
# Mechanical properties :
#
#
# Convention : Reuss Voigt Hill
#
# Bulk Modulus (GPa) = 27.45478 38.91200 33.18339
# Shear Modulus (GPa) = 24.14314 32.72922 28.43618
#
# Velocity S-wave (km/s) = 3.40352 3.96277 3.69375
# Velocity P-wave (km/s) = 5.34959 6.29350 5.84065
#
# Compressibility (1/GPa) = 0.03642353
#
# Stress axis : x y z
#
# Youngs Moduli (GPa) = 61.80298 59.01985 41.84017
#
# Poissons Ratio (x) = 0.39795 0.01651
# Poissons Ratio (y) = 0.41671 0.13235
# Poissons Ratio (z) = 0.02439 0.18669
#
# Static dielectric constant tensor:
#      x y z
#    x 1.842780 0.008190 -0.011510 
#    y 0.008190 1.744990 -0.011700 
#    z -0.011510 -0.011700 1.789600 
# 
# From -- ./inp_files/329083.got.cif
#   From: 2010.05.17/outbox.cif.g08.bks.cpg/sg2_165_cif.got.tgz:329083.got - 2010.06.03 11:33:40.
