data_PCOD9108030
_publ_section_title
;
Structure prediction by ZEFSAII (Michael W. Deem and Ramdas Pophale) SiO2 
 PCOD9108030
Probable space group: P -1
;
_chemical_formula_sum "Si O2"
_cell_formula_units_Z 14
_cell_length_a 10.393427
_cell_length_b 18.918402
_cell_length_c 9.697639
_cell_angle_alpha 46.648984
_cell_angle_beta 133.994999
_cell_angle_gamma 152.494409
_cell_volume 619.150879
_symmetry_space_group_name_H-M "P -1"
_symmetry_group_IT_number 2
_symmetry_cell_setting 'triclinic'
loop_
_space_group_symop_operation_xyz
x,y,z
-x,-y,-z
loop_
_atom_site_type_symbol
_atom_site_label
_atom_site_fract_x
_atom_site_fract_y
_atom_site_fract_z
Si Si1 0.753302 0.404154 0.056603
Si Si2 0.737741 0.932758 0.983409
Si Si3 0.054493 0.947145 0.730936
Si Si4 0.921804 0.381784 0.756173
Si Si5 0.553341 0.374764 0.338138
Si Si6 0.329614 0.420884 0.336649
Si Si7 0.716222 0.134654 0.155176
O O1 0.629376 0.459893 0.873018
O O2 0.521892 0.229153 0.071870
O O3 0.911327 0.462749 0.241349
O O4 0.000000 0.500000 0.000000
O O5 0.589081 0.976265 0.847200
O O6 0.818871 0.945004 0.186161
O O7 0.000000 0.000000 0.000000
O O8 0.246544 0.944913 0.805170
O O9 0.739629 0.768027 0.773835
O O10 0.000000 0.000000 0.500000
O O11 0.193549 0.456868 0.773147
O O12 0.693299 0.333174 0.550056
O O13 0.788312 0.253198 0.941988
O O14 0.457575 0.389915 0.382379
O O15 0.500000 0.500000 0.500000
O O16 0.984383 0.253504 0.303660
#
# Coordination Sequence:
#
# PCOD9108030 Si02
#       7
#     2   2   2   2   2   2   2
#     4  11  21  38  65  88 122 167 209 265 321 379
#     4  12  25  42  65 100 132 173 219 272 330 398
#     4  11  25  43  65  92 137 180 221 257 335 403
#     4  10  20  40  66  95 126 163 224 268 329 370
#     4  10  22  37  63  97 128 166 214 278 309 392
#     4  10  21  35  63  94 123 161 214 266 323 371
#     4  10  23  42  69  89 128 182 216 266 329 398
#
# _framework density 22.611612999999998
#
# number of rings (size 3 to 8) (size 9 to 14) (size 15 to 20)
#    0.000    1.429    2.857    3.000    4.000    6.286 
#    0.000    2.143    0.000    0.000    0.000    0.000 
#    0.000    0.000    0.000    0.000    0.000    0.000 
#
# Total GULP energy -78068.546470 kJ/mol
# GULP energy per Si atom -5576.324748 kJ/mol
# Density = 2.256015 g / cm^3
# Si number density = 22.611613 Si / 1000 Ang^3
#
#
#
# Elastic Constant Matrix: (Units=GPa)
#
#
# Indices 1 2 3 4 5 6 
#
# 1 134.0849 38.5959 26.1695 3.7685 2.3561 27.4241
# 2 38.5959 67.3340 6.9583 19.7808 -4.9785 17.3918
# 3 26.1695 6.9583 65.8596 17.9085 -6.5381 0.5855
# 4 3.7685 19.7808 17.9085 29.3624 -11.2814 0.5679
# 5 2.3561 -4.9785 -6.5381 -11.2814 31.7834 9.5067
# 6 27.4241 17.3918 0.5855 0.5679 9.5067 50.3861
#
#
#
# Elastic Compliance Matrix: (Units=1/GPa)
#
#
# Indices 1 2 3 4 5 6 
#
# 1 0.011019 -0.006696 -0.005397 0.006664 0.000525 -0.003798
# 2 -0.006696 0.025008 0.005254 -0.019021 0.000200 -0.004872
# 3 -0.005397 0.005254 0.021034 -0.015859 -0.000419 0.001137
# 4 0.006664 -0.019021 -0.015859 0.061555 0.015247 -0.000448
# 5 0.000525 0.000200 -0.000419 0.015247 0.039146 -0.007908
# 6 -0.003798 -0.004872 0.001137 -0.000448 -0.007908 0.025079
#
#
# Mechanical properties :
#
#
# Convention : Reuss Voigt Hill
#
# Bulk Modulus (GPa) = 23.05116 45.63620 34.34368
# Shear Modulus (GPa) = 23.69889 35.34338 29.52113
#
# Velocity S-wave (km/s) = 3.24093 3.95785 3.61719
# Velocity P-wave (km/s) = 4.92152 6.41191 5.71550
#
# Compressibility (1/GPa) = 0.04338176
#
# Stress axis : x y z
#
# Youngs Moduli (GPa) = 90.75225 39.98764 47.54249
#
# Poissons Ratio (x) = 0.26777 0.25659
# Poissons Ratio (y) = 0.60771 -0.24979
# Poissons Ratio (z) = 0.48980 -0.21010
#
# Static dielectric constant tensor:
#      x y z
#    x 1.928430 0.043310 0.012910 
#    y 0.043310 1.938500 -0.020470 
#    z 0.012910 -0.020470 1.866070 
# 
# From -- ./inp_files/217151.got.cif
#   From: 2010.05.17/outbox.cif.g08.bks.cpg/sg2_109_cif.got.tgz:217151.got - 2010.06.03 11:33:40.
