data_PCOD9108089
_publ_section_title
;
Structure prediction by ZEFSAII (Michael W. Deem and Ramdas Pophale) SiO2 
 PCOD9108089
Probable space group: P -1
;
_chemical_formula_sum "Si O2"
_cell_formula_units_Z 13
_cell_length_a 11.993699
_cell_length_b 8.037460
_cell_length_c 7.489036
_cell_angle_alpha 108.662416
_cell_angle_beta 92.329885
_cell_angle_gamma 130.405964
_cell_volume 489.068090
_symmetry_space_group_name_H-M "P -1"
_symmetry_group_IT_number 2
_symmetry_cell_setting 'triclinic'
loop_
_space_group_symop_operation_xyz
x,y,z
-x,-y,-z
loop_
_atom_site_type_symbol
_atom_site_label
_atom_site_fract_x
_atom_site_fract_y
_atom_site_fract_z
Si Si1 0.543070 0.822056 0.085485
Si Si2 0.269367 0.624909 0.786267
Si Si3 0.500000 0.000000 0.500000
Si Si4 0.257155 0.955048 0.341520
Si Si5 0.968995 0.770660 0.103591
Si Si6 0.887841 0.554048 0.657893
Si Si7 0.177903 0.039992 0.718219
O O1 0.647013 0.096329 0.110353
O O2 0.498825 0.848946 0.288223
O O3 0.664438 0.797308 0.103005
O O4 0.391929 0.629896 0.889875
O O5 0.120415 0.462297 0.851325
O O6 0.216610 0.520393 0.546937
O O7 0.568280 0.922532 0.622533
O O8 0.189269 0.702878 0.347232
O O9 0.228386 0.071357 0.528761
O O10 0.146951 0.900863 0.157863
O O11 0.930497 0.912974 0.240419
O O12 0.895744 0.690745 0.875344
O O13 0.064389 0.750993 0.664451
#
# Coordination Sequence:
#
# PCOD9108089 Si02
#       7
#     2   2   1   2   2   2   2
#     4  10  23  43  70  99 134 178 218 282 325 392
#     4  11  23  42  69  96 135 174 226 269 328 384
#     4  10  20  40  66  98 126 166 224 270 322 382
#     4  11  22  42  69  97 131 174 224 277 322 391
#     4  12  26  41  70 101 136 175 218 275 337 396
#     4  12  23  44  68 100 130 177 230 269 315 406
#     4  11  23  44  68  97 141 174 214 277 341 386
#
# _framework density 26.581168000000002
#
# number of rings (size 3 to 8) (size 9 to 14) (size 15 to 20)
#    0.000    0.923    4.615    3.692    0.000    3.077 
#    0.000    0.769    0.000    0.000    0.000    0.000 
#    0.000    0.000    0.000    0.000    0.000    0.000 
#
# Total GULP energy -72508.718395 kJ/mol
# GULP energy per Si atom -5577.593723 kJ/mol
# Density = 2.652067 g / cm^3
# Si number density = 26.581168 Si / 1000 Ang^3
#
#
#
# Elastic Constant Matrix: (Units=GPa)
#
#
# Indices 1 2 3 4 5 6 
#
# 1 126.8082 -1.7580 78.1325 -19.6555 30.7309 -9.5013
# 2 -1.7580 45.4116 6.7015 -12.5323 3.4053 1.2230
# 3 78.1325 6.7015 161.2411 -22.4004 23.5630 -3.0577
# 4 -19.6555 -12.5323 -22.4004 19.6911 1.0444 -1.1245
# 5 30.7309 3.4053 23.5630 1.0444 59.2358 4.0044
# 6 -9.5013 1.2230 -3.0577 -1.1245 4.0044 31.5743
#
#
#
# Elastic Compliance Matrix: (Units=1/GPa)
#
#
# Indices 1 2 3 4 5 6 
#
# 1 0.014908 0.005475 -0.004395 0.014030 -0.006901 0.005223
# 2 0.005475 0.029430 0.000419 0.025073 -0.005284 0.002111
# 3 -0.004395 0.000419 0.009495 0.006771 -0.001643 0.000030
# 4 0.014030 0.025073 0.006771 0.089674 -0.013591 0.008824
# 5 -0.006901 -0.005284 -0.001643 -0.013591 0.022018 -0.005308
# 6 0.005223 0.002111 0.000030 0.008824 -0.005308 0.034152
#
#
# Mechanical properties :
#
#
# Convention : Reuss Voigt Hill
#
# Bulk Modulus (GPa) = 17.59592 55.51255 36.55423
# Shear Modulus (GPa) = 23.18876 38.79258 30.99067
#
# Velocity S-wave (km/s) = 2.95680 3.82436 3.41821
# Velocity P-wave (km/s) = 4.27680 6.35849 5.41855
#
# Compressibility (1/GPa) = 0.05683136
#
# Stress axis : x y z
#
# Youngs Moduli (GPa) = 67.07675 33.97939 105.31513
#
# Poissons Ratio (x) = -0.18602 0.46285
# Poissons Ratio (y) = -0.36721 -0.04418
# Poissons Ratio (z) = 0.29480 -0.01425
#
# Static dielectric constant tensor:
#      x y z
#    x 2.636340 0.283460 0.110760 
#    y 0.283460 2.303690 0.065200 
#    z 0.110760 0.065200 2.090730 
# 
# From -- ./inp_files/235952.got.cif
#   From: 2010.05.17/outbox.cif.g08.bks.cpg/sg2_118_cif.got.tgz:235952.got - 2010.06.03 11:33:40.
