data_PCOD9108558
_publ_section_title
;
Structure prediction by ZEFSAII (Michael W. Deem and Ramdas Pophale) SiO2 
 PCOD9108558
Probable space group: P -1
;
_chemical_formula_sum "Si O2"
_cell_formula_units_Z 15
_cell_length_a 8.760473
_cell_length_b 10.337814
_cell_length_c 15.342279
_cell_angle_alpha 142.732837
_cell_angle_beta 71.895322
_cell_angle_gamma 122.180037
_cell_volume 694.560616
_symmetry_space_group_name_H-M "P -1"
_symmetry_group_IT_number 2
_symmetry_cell_setting 'triclinic'
loop_
_space_group_symop_operation_xyz
x,y,z
-x,-y,-z
loop_
_atom_site_type_symbol
_atom_site_label
_atom_site_fract_x
_atom_site_fract_y
_atom_site_fract_z
Si Si1 0.374826 0.468003 0.802352
Si Si2 0.067875 0.879723 0.850390
Si Si3 0.534443 0.754543 0.091559
Si Si4 0.809844 0.504348 0.323231
Si Si5 0.603494 0.911067 0.620125
Si Si6 0.500000 0.500000 0.500000
Si Si7 0.793171 0.072026 0.483384
Si Si8 0.696450 0.471946 0.639005
O O1 0.246879 0.477950 0.755284
O O2 0.569997 0.520595 0.754082
O O3 0.277593 0.180215 0.692235
O O4 0.421398 0.667995 0.974939
O O5 0.125588 0.696488 0.787361
O O6 0.896795 0.706431 0.724913
O O7 0.249020 0.076880 0.874589
O O8 0.000000 0.000000 0.000000
O O9 0.459704 0.898269 0.240039
O O10 0.500000 0.500000 0.000000
O O11 0.632813 0.433464 0.375183
O O12 0.988502 0.759458 0.456306
O O13 0.670673 0.809504 0.631523
O O14 0.424254 0.627550 0.481789
O O15 0.711315 0.989687 0.552231
O O16 0.716206 0.241661 0.546808
#
# Coordination Sequence:
#
# PCOD9108558 Si02
#       8
#     2   2   2   2   2   1   2   2
#     4  11  21  41  66  98 128 180 215 262 339 396
#     4  11  24  44  66  95 131 174 221 274 331 401
#     4  12  25  42  64  98 138 172 216 277 329 386
#     4  11  24  43  70  96 132 173 223 277 327 393
#     4  11  23  41  65  96 133 171 218 274 326 386
#     4  12  22  42  64 104 132 164 218 286 324 372
#     4  10  21  41  71  92 129 173 223 267 324 400
#     4  10  20  40  69  92 121 176 227 262 323 395
#
# _framework density 21.596387
#
# number of rings (size 3 to 8) (size 9 to 14) (size 15 to 20)
#    0.000    1.067    5.333    3.600    1.867    1.067 
#    4.800    0.667    0.000    0.000    0.000    0.000 
#    0.000    0.000    0.000    0.000    0.000    0.000 
#
# Total GULP energy -83665.848508 kJ/mol
# GULP energy per Si atom -5577.723234 kJ/mol
# Density = 2.154723 g / cm^3
# Si number density = 21.596387 Si / 1000 Ang^3
#
#
#
# Elastic Constant Matrix: (Units=GPa)
#
#
# Indices 1 2 3 4 5 6 
#
# 1 108.4497 21.3613 40.1495 7.7883 0.2570 4.3946
# 2 21.3613 82.7482 33.4140 19.0189 1.4005 8.1115
# 3 40.1495 33.4140 123.5997 5.6964 -11.5541 15.6112
# 4 7.7883 19.0189 5.6964 37.7732 2.4887 2.7354
# 5 0.2570 1.4005 -11.5541 2.4887 41.0082 4.4642
# 6 4.3946 8.1115 15.6112 2.7354 4.4642 27.0754
#
#
#
# Elastic Compliance Matrix: (Units=1/GPa)
#
#
# Indices 1 2 3 4 5 6 
#
# 1 0.010733 -0.001257 -0.003289 -0.001078 -0.000973 0.000800
# 2 -0.001257 0.015516 -0.003338 -0.006871 -0.000862 -0.001684
# 3 -0.003289 -0.003338 0.011083 0.000839 0.003812 -0.005570
# 4 -0.001078 -0.006871 0.000839 0.030190 -0.001235 -0.001097
# 5 -0.000973 -0.000862 0.003812 -0.001235 0.026221 -0.005981
# 6 0.000800 -0.001684 -0.005570 -0.001097 -0.005981 0.041617
#
#
# Mechanical properties :
#
#
# Convention : Reuss Voigt Hill
#
# Bulk Modulus (GPa) = 46.37187 56.07190 51.22189
# Shear Modulus (GPa) = 31.58263 35.82954 33.70609
#
# Velocity S-wave (km/s) = 3.82829 4.07757 3.95489
# Velocity P-wave (km/s) = 6.40778 6.94180 6.68013
#
# Compressibility (1/GPa) = 0.02156480
#
# Stress axis : x y z
#
# Youngs Moduli (GPa) = 93.16706 64.44991 90.23232
#
# Poissons Ratio (x) = 0.08100 0.29679
# Poissons Ratio (y) = 0.11710 0.30116
# Poissons Ratio (z) = 0.30644 0.21511
#
# Static dielectric constant tensor:
#      x y z
#    x 1.951280 -0.163340 0.032290 
#    y -0.163340 1.967500 -0.003920 
#    z 0.032290 -0.003920 1.799960 
# 
# From -- ./inp_files/460375.got.cif
#   From: 2010.05.17/outbox.cif.g08.bks.cpg/sg2_231_cif.got.tgz:460375.got - 2010.06.03 11:33:40.
