data_PCOD9108336
_publ_section_title
;
Structure prediction by ZEFSAII (Michael W. Deem and Ramdas Pophale) SiO2 
 PCOD9108336
Probable space group: P -1
;
_chemical_formula_sum "Si O2"
_cell_formula_units_Z 15
_cell_length_a 8.861031
_cell_length_b 24.693813
_cell_length_c 20.771936
_cell_angle_alpha 163.478981
_cell_angle_beta 37.385943
_cell_angle_gamma 133.545285
_cell_volume 711.541407
_symmetry_space_group_name_H-M "P -1"
_symmetry_group_IT_number 2
_symmetry_cell_setting 'triclinic'
loop_
_space_group_symop_operation_xyz
x,y,z
-x,-y,-z
loop_
_atom_site_type_symbol
_atom_site_label
_atom_site_fract_x
_atom_site_fract_y
_atom_site_fract_z
Si Si1 0.033682 0.124179 0.252515
Si Si2 0.500000 0.000000 0.500000
Si Si3 0.294739 0.655299 0.592835
Si Si4 0.496509 0.892200 0.632763
Si Si5 0.777012 0.718729 0.747563
Si Si6 0.785405 0.928147 0.456594
Si Si7 0.236113 0.724444 0.345570
Si Si8 0.852456 0.565012 0.224388
O O1 0.174830 0.246218 0.303252
O O2 0.776328 0.142061 0.317277
O O3 0.905973 0.218093 0.470963
O O4 0.220184 0.875003 0.905072
O O5 0.674530 0.017175 0.525563
O O6 0.342890 0.891814 0.474957
O O7 0.302488 0.471894 0.428337
O O8 0.580121 0.597687 0.394148
O O9 0.051245 0.680538 0.653205
O O10 0.541947 0.981438 0.651524
O O11 0.737581 0.668295 0.312174
O O12 0.451245 0.064746 0.899467
O O13 0.000000 0.000000 0.500000
O O14 0.942730 0.676393 0.112956
O O15 0.009813 0.697946 0.348338
O O16 0.500000 0.500000 0.000000
#
# Coordination Sequence:
#
# PCOD9108336 Si02
#       8
#     2   1   2   2   2   2   2   2
#     4  11  21  43  67  97 137 186 230 281 367 424
#     4  12  26  52  70 106 150 182 250 302 360 440
#     4  10  21  38  65 103 135 178 233 291 350 430
#     4  11  20  42  70 101 136 181 239 292 355 432
#     4  10  20  40  68 101 140 178 233 295 352 432
#     4  12  26  44  73 110 141 194 243 302 368 431
#     4  12  27  48  69  96 145 190 235 300 371 422
#     4  12  23  45  69 105 147 180 248 299 352 440
#
# _framework density 21.080992999999999
#
# number of rings (size 3 to 8) (size 9 to 14) (size 15 to 20)
#    0.000    0.800    5.333    2.800    0.000    2.667 
#    2.400    0.667    0.000    0.000    0.000    0.000 
#    0.000    0.000    0.000    0.000    0.000    0.000 
#
# Total GULP energy -83532.418913 kJ/mol
# GULP energy per Si atom -5568.827928 kJ/mol
# Density = 2.103301 g / cm^3
# Si number density = 21.080993 Si / 1000 Ang^3
#
#
#
# Elastic Constant Matrix: (Units=GPa)
#
#
# Indices 1 2 3 4 5 6 
#
# 1 63.8023 19.2501 0.3148 3.3872 2.0771 0.1507
# 2 19.2501 120.9293 21.3820 -10.3153 3.8217 -11.9730
# 3 0.3148 21.3820 45.7742 -18.2685 2.4975 -4.8761
# 4 3.3872 -10.3153 -18.2685 28.3236 2.0488 8.4067
# 5 2.0771 3.8217 2.4975 2.0488 20.4644 -2.0674
# 6 0.1507 -11.9730 -4.8761 8.4067 -2.0674 44.2171
#
#
#
# Elastic Compliance Matrix: (Units=1/GPa)
#
#
# Indices 1 2 3 4 5 6 
#
# 1 0.016738 -0.002935 0.000150 -0.002805 -0.000923 -0.000345
# 2 -0.002935 0.009730 -0.003929 0.000830 -0.000920 0.002011
# 3 0.000150 -0.003929 0.031732 0.019874 -0.005305 -0.001592
# 4 -0.002805 0.000830 0.019874 0.051670 -0.008255 -0.007784
# 5 -0.000923 -0.000920 -0.005305 -0.008255 0.050920 0.003119
# 6 -0.000345 0.002011 -0.001592 -0.007784 0.003119 0.024611
#
#
# Mechanical properties :
#
#
# Convention : Reuss Voigt Hill
#
# Bulk Modulus (GPa) = 22.33528 34.71107 28.52317
# Shear Modulus (GPa) = 23.39129 31.23828 27.31478
#
# Velocity S-wave (km/s) = 3.33467 3.85362 3.60350
# Velocity P-wave (km/s) = 5.04427 6.02510 5.55637
#
# Compressibility (1/GPa) = 0.04477222
#
# Stress axis : x y z
#
# Youngs Moduli (GPa) = 59.74415 102.77243 31.51345
#
# Poissons Ratio (x) = 0.30166 -0.00474
# Poissons Ratio (y) = 0.17536 0.12383
# Poissons Ratio (z) = -0.00898 0.40383
#
# Static dielectric constant tensor:
#      x y z
#    x 1.797150 -0.011800 0.002110 
#    y -0.011800 1.742870 -0.000850 
#    z 0.002110 -0.000850 1.783010 
# 
# From -- ./inp_files/390468.got.cif
#   From: 2010.05.17/outbox.cif.g08.bks.cpg/sg2_196_cif.got.tgz:390468.got - 2010.06.03 11:33:40.
