data_PCOD9108296
_publ_section_title
;
Structure prediction by ZEFSAII (Michael W. Deem and Ramdas Pophale) SiO2 
 PCOD9108296
Probable space group: P -1
;
_chemical_formula_sum "Si O2"
_cell_formula_units_Z 16
_cell_length_a 8.412502
_cell_length_b 27.864660
_cell_length_c 5.171386
_cell_angle_alpha 76.393413
_cell_angle_beta 89.617350
_cell_angle_gamma 144.434634
_cell_volume 641.853851
_symmetry_space_group_name_H-M "P -1"
_symmetry_group_IT_number 2
_symmetry_cell_setting 'triclinic'
loop_
_space_group_symop_operation_xyz
x,y,z
-x,-y,-z
loop_
_atom_site_type_symbol
_atom_site_label
_atom_site_fract_x
_atom_site_fract_y
_atom_site_fract_z
Si Si1 0.815254 0.964802 0.800069
Si Si2 0.815238 0.417385 0.920523
Si Si3 0.421480 0.196346 0.096657
Si Si4 0.231647 0.696548 0.511544
Si Si5 0.840289 0.676208 0.264996
Si Si6 0.179245 0.926444 0.490171
Si Si7 0.230015 0.492593 0.432272
Si Si8 0.813863 0.737029 0.684748
O O1 0.570287 0.859420 0.913462
O O2 0.764774 0.009940 0.760490
O O3 0.000000 0.000000 0.500000
O O4 0.000000 0.000000 0.000000
O O5 0.733433 0.438484 0.685476
O O6 0.033437 0.435996 0.761239
O O7 0.502382 0.321958 0.162755
O O8 0.000000 0.500000 0.000000
O O9 0.616400 0.250979 0.285577
O O10 0.088895 0.126415 0.251978
O O11 0.526981 0.254361 0.770704
O O12 0.072277 0.700585 0.367363
O O13 0.977706 0.589025 0.667045
O O14 0.569931 0.569087 0.333892
O O15 0.768674 0.693596 0.483447
O O16 0.903596 0.725132 0.943266
O O17 0.048907 0.841057 0.495557
O O18 0.500000 0.000000 0.500000
#
# Coordination Sequence:
#
# PCOD9108296 Si02
#       8
#     2   2   2   2   2   2   2   2
#     4  10  23  49  74 101 142 184 235 295 371 433
#     4  10  20  40  67  97 145 182 231 299 365 424
#     4  11  26  48  73 107 142 192 237 304 369 436
#     4  12  26  43  75 100 148 190 250 281 367 442
#     4  11  25  45  67 102 151 189 238 303 355 427
#     4  11  27  48  79 109 143 187 252 307 369 443
#     4  10  23  39  66 104 137 195 237 291 355 431
#     4  11  25  45  69 104 146 185 243 301 369 419
#
# _framework density 24.927792
#
# number of rings (size 3 to 8) (size 9 to 14) (size 15 to 20)
#    0.000    1.250    1.250    3.375    7.000    3.000 
#    0.000   10.625    0.000    0.000    0.000    0.000 
#    0.000    0.000    0.000    0.000    0.000    0.000 
#
# Total GULP energy -89321.400034 kJ/mol
# GULP energy per Si atom -5582.587502 kJ/mol
# Density = 2.487106 g / cm^3
# Si number density = 24.927792 Si / 1000 Ang^3
#
#
#
# Elastic Constant Matrix: (Units=GPa)
#
#
# Indices 1 2 3 4 5 6 
#
# 1 97.1962 57.5268 24.7064 -3.6671 29.7519 5.2311
# 2 57.5268 207.6598 65.5995 -7.3058 10.5960 -0.2302
# 3 24.7064 65.5995 101.5606 16.9972 22.5836 -4.5239
# 4 -3.6671 -7.3058 16.9972 51.8491 -0.7322 4.3300
# 5 29.7519 10.5960 22.5836 -0.7322 35.0990 -5.9320
# 6 5.2311 -0.2302 -4.5239 4.3300 -5.9320 43.7832
#
#
#
# Elastic Compliance Matrix: (Units=1/GPa)
#
#
# Indices 1 2 3 4 5 6 
#
# 1 0.017476 -0.004698 0.002018 0.000029 -0.015367 -0.003989
# 2 -0.004698 0.007630 -0.005357 0.002531 0.005265 0.000511
# 3 0.002018 -0.005357 0.016214 -0.006125 -0.010555 0.000582
# 4 0.000029 0.002531 -0.006125 0.021895 0.003212 -0.002353
# 5 -0.015367 0.005265 -0.010555 0.003212 0.047961 0.006954
# 6 -0.003989 0.000511 0.000582 -0.002353 0.006954 0.024554
#
#
# Mechanical properties :
#
#
# Convention : Reuss Voigt Hill
#
# Bulk Modulus (GPa) = 39.61132 78.00908 58.81020
# Shear Modulus (GPa) = 31.20714 43.38519 37.29616
#
# Velocity S-wave (km/s) = 3.54206 4.17638 3.87223
# Velocity P-wave (km/s) = 5.71430 7.39041 6.60573
#
# Compressibility (1/GPa) = 0.02524531
#
# Stress axis : x y z
#
# Youngs Moduli (GPa) = 57.22208 131.05665 61.67584
#
# Poissons Ratio (x) = 0.61569 -0.12445
# Poissons Ratio (y) = 0.26883 0.33041
# Poissons Ratio (z) = -0.11546 0.70209
#
# Static dielectric constant tensor:
#      x y z
#    x 2.114050 0.024330 0.063640 
#    y 0.024330 2.041120 -0.093710 
#    z 0.063640 -0.093710 2.017210 
# 
# From -- ./inp_files/56884.got.cif
#   From: 2010.05.17/outbox.cif.g08.bks.cpg/sg2_29_cif.got.tgz:56884.got - 2010.06.03 11:33:40.
