data_PCOD9108738
_publ_section_title
;
Structure prediction by ZEFSAII (Michael W. Deem and Ramdas Pophale) SiO2 
 PCOD9108738
Probable space group: P -1
;
_chemical_formula_sum "Si O2"
_cell_formula_units_Z 12
_cell_length_a 13.075973
_cell_length_b 9.125976
_cell_length_c 9.846989
_cell_angle_alpha 42.158027
_cell_angle_beta 132.228562
_cell_angle_gamma 135.175010
_cell_volume 528.715058
_symmetry_space_group_name_H-M "P -1"
_symmetry_group_IT_number 2
_symmetry_cell_setting 'triclinic'
loop_
_space_group_symop_operation_xyz
x,y,z
-x,-y,-z
loop_
_atom_site_type_symbol
_atom_site_label
_atom_site_fract_x
_atom_site_fract_y
_atom_site_fract_z
Si Si1 0.006735 0.747497 0.267039
Si Si2 0.920360 0.076768 0.497768
Si Si3 0.685306 0.530929 0.995623
Si Si4 0.834617 0.420593 0.656997
Si Si5 0.672761 0.564235 0.647350
Si Si6 0.432380 0.729416 0.677967
O O1 0.135517 0.797598 0.231237
O O2 0.000000 0.500000 0.500000
O O3 0.035877 0.916801 0.307921
O O4 0.149424 0.302867 0.911744
O O5 0.006135 0.637463 0.667566
O O6 0.755538 0.855205 0.501180
O O7 0.000000 0.000000 0.500000
O O8 0.688518 0.496645 0.862477
O O9 0.564702 0.642321 0.837497
O O10 0.623795 0.295359 0.199566
O O11 0.752145 0.432783 0.713943
O O12 0.714893 0.440336 0.426427
O O13 0.500000 0.500000 0.500000
O O14 0.500000 0.000000 0.500000
#
# Coordination Sequence:
#
# PCOD9108738 Si02
#       6
#     2   2   2   2   2   2
#     4  10  20  40  70  99 138 178 236 290 343 421
#     4   9  20  38  66  97 136 186 223 284 358 403
#     4  11  24  43  72 102 142 190 244 277 372 424
#     4  10  21  43  66  98 147 179 232 301 344 412
#     4  11  23  41  67 104 143 187 237 296 351 420
#     4  11  24  43  70 104 141 187 238 299 349 428
#
# _framework density 22.696534
#
# number of rings (size 3 to 8) (size 9 to 14) (size 15 to 20)
#    0.000    1.667    5.000    0.000    2.333    1.333 
#    0.000    0.833    0.000    0.000    0.000    0.000 
#    0.000    0.000    0.000    0.000    0.000    0.000 
#
# Total GULP energy -66824.577937 kJ/mol
# GULP energy per Si atom -5568.714828 kJ/mol
# Density = 2.264488 g / cm^3
# Si number density = 22.696534 Si / 1000 Ang^3
#
#
#
# Elastic Constant Matrix: (Units=GPa)
#
#
# Indices 1 2 3 4 5 6 
#
# 1 164.9948 76.3465 55.2686 33.7385 -26.4565 -4.8726
# 2 76.3465 126.7071 49.2931 25.9408 -14.5950 9.8897
# 3 55.2686 49.2931 96.0116 10.4486 -24.0325 -4.1710
# 4 33.7385 25.9408 10.4486 42.9296 -2.7654 -5.8321
# 5 -26.4565 -14.5950 -24.0325 -2.7654 46.8557 16.1454
# 6 -4.8726 9.8897 -4.1710 -5.8321 16.1454 54.8732
#
#
#
# Elastic Compliance Matrix: (Units=1/GPa)
#
#
# Indices 1 2 3 4 5 6 
#
# 1 0.010150 -0.003747 -0.002659 -0.004878 0.002912 -0.000001
# 2 -0.003747 0.012984 -0.003965 -0.004381 0.000915 -0.003709
# 3 -0.002659 -0.003965 0.015115 0.001166 0.004987 0.000284
# 4 -0.004878 -0.004381 0.001166 0.029901 -0.003343 0.004607
# 5 0.002912 0.000915 0.004987 -0.003343 0.028479 -0.008262
# 6 -0.000001 -0.003709 0.000284 0.004607 -0.008262 0.021834
#
#
# Mechanical properties :
#
#
# Convention : Reuss Voigt Hill
#
# Bulk Modulus (GPa) = 57.11764 83.28110 70.19937
# Shear Modulus (GPa) = 34.47297 42.71871 38.59584
#
# Velocity S-wave (km/s) = 3.90149 4.34310 4.12821
# Velocity P-wave (km/s) = 6.74655 7.86912 7.32936
#
# Compressibility (1/GPa) = 0.01750773
#
# Stress axis : x y z
#
# Youngs Moduli (GPa) = 98.52480 77.01746 66.15785
#
# Poissons Ratio (x) = 0.28858 0.17592
# Poissons Ratio (y) = 0.36917 0.26229
# Poissons Ratio (z) = 0.26199 0.30534
#
# Static dielectric constant tensor:
#      x y z
#    x 1.886010 -0.012590 -0.030320 
#    y -0.012590 1.919800 -0.060340 
#    z -0.030320 -0.060340 1.928220 
# 
# From -- ./inp_files/294222.got.cif
#   From: 2010.05.17/outbox.cif.g08.bks.cpg/sg2_148_cif.got.tgz:294222.got - 2010.06.03 11:33:40.
