data_PCOD9108513
_publ_section_title
;
Structure prediction by ZEFSAII (Michael W. Deem and Ramdas Pophale) SiO2 
 PCOD9108513
Probable space group: P -1
;
_chemical_formula_sum "Si O2"
_cell_formula_units_Z 16
_cell_length_a 16.986756
_cell_length_b 7.413031
_cell_length_c 7.039208
_cell_angle_alpha 62.897558
_cell_angle_beta 99.842670
_cell_angle_gamma 123.164425
_cell_volume 656.877437
_symmetry_space_group_name_H-M "P -1"
_symmetry_group_IT_number 2
_symmetry_cell_setting 'triclinic'
loop_
_space_group_symop_operation_xyz
x,y,z
-x,-y,-z
loop_
_atom_site_type_symbol
_atom_site_label
_atom_site_fract_x
_atom_site_fract_y
_atom_site_fract_z
Si Si1 0.183597 0.605271 0.002488
Si Si2 0.600060 0.027674 0.488928
Si Si3 0.389351 0.817740 0.986324
Si Si4 0.954216 0.586504 0.647110
Si Si5 0.391619 0.358866 0.079409
Si Si6 0.044344 0.866634 0.192962
Si Si7 0.787867 0.919068 0.100484
Si Si8 0.789661 0.482746 0.379173
O O1 0.287449 0.717357 0.092366
O O2 0.192773 0.528483 0.832921
O O3 0.175597 0.837788 0.888388
O O4 0.093887 0.403609 0.182542
O O5 0.615024 0.040162 0.264894
O O6 0.681746 0.286910 0.469010
O O7 0.500000 0.000000 0.500000
O O8 0.617004 0.834717 0.682214
O O9 0.377671 0.566339 0.048631
O O10 0.500000 0.000000 0.000000
O O11 0.990719 0.404573 0.767034
O O12 0.860446 0.442342 0.545358
O O13 0.021111 0.816403 0.432321
O O14 0.500000 0.500000 0.000000
O O15 0.320959 0.224820 0.939504
O O16 0.153369 0.015989 0.103446
O O17 0.000000 0.000000 0.000000
O O18 0.808569 0.742148 0.306060
#
# Coordination Sequence:
#
# PCOD9108513 Si02
#       8
#     2   2   2   2   2   2   2   2
#     4  10  23  43  65 102 134 175 234 272 340 403
#     4  11  22  38  63  93 125 180 219 264 343 390
#     4  11  24  41  61  97 139 165 228 287 315 412
#     4  10  22  41  70  93 138 183 211 291 341 385
#     4  12  22  42  69  95 133 180 219 271 345 392
#     4  10  20  40  69 100 133 177 230 270 342 407
#     4  11  21  42  72  92 136 181 211 290 334 387
#     4  11  22  44  68  97 137 174 229 279 330 408
#
# _framework density 24.357664
#
# number of rings (size 3 to 8) (size 9 to 14) (size 15 to 20)
#    0.000    1.250    5.000    2.250    1.750    0.500 
#    4.500    6.250    0.000    0.000    0.000    0.000 
#    0.000    0.000    0.000    0.000    0.000    0.000 
#
# Total GULP energy -89358.929483 kJ/mol
# GULP energy per Si atom -5584.933093 kJ/mol
# Density = 2.430222 g / cm^3
# Si number density = 24.357664 Si / 1000 Ang^3
#
#
#
# Elastic Constant Matrix: (Units=GPa)
#
#
# Indices 1 2 3 4 5 6 
#
# 1 106.9257 4.0867 29.5153 -12.5142 -4.3536 -1.6868
# 2 4.0867 64.9535 15.5031 -17.2033 9.4258 -14.0108
# 3 29.5153 15.5031 127.4998 -18.2211 16.9657 -18.8671
# 4 -12.5142 -17.2033 -18.2211 44.9173 -2.6547 6.8992
# 5 -4.3536 9.4258 16.9657 -2.6547 48.6421 -8.8314
# 6 -1.6868 -14.0108 -18.8671 6.8992 -8.8314 41.5383
#
#
#
# Elastic Compliance Matrix: (Units=1/GPa)
#
#
# Indices 1 2 3 4 5 6 
#
# 1 0.010329 0.000104 -0.002425 0.002134 0.001752 -0.000629
# 2 0.000104 0.018404 -0.000423 0.006077 -0.002255 0.004531
# 3 -0.002425 -0.000423 0.009639 0.002425 -0.002795 0.003140
# 4 0.002134 0.006077 0.002425 0.026327 -0.000626 -0.001268
# 5 0.001752 -0.002255 -0.002795 -0.000626 0.022629 0.002956
# 6 -0.000629 0.004531 0.003140 -0.001268 0.002956 0.027842
#
#
# Mechanical properties :
#
#
# Convention : Reuss Voigt Hill
#
# Bulk Modulus (GPa) = 30.40920 44.17658 37.29289
# Shear Modulus (GPa) = 37.98830 43.70447 40.84638
#
# Velocity S-wave (km/s) = 3.95347 4.24049 4.09949
# Velocity P-wave (km/s) = 5.77507 6.49243 6.14423
#
# Compressibility (1/GPa) = 0.03288479
#
# Stress axis : x y z
#
# Youngs Moduli (GPa) = 96.81593 54.33543 103.74487
#
# Poissons Ratio (x) = -0.00566 0.25158
# Poissons Ratio (y) = -0.01009 0.04387
# Poissons Ratio (z) = 0.23478 0.02298
#
# Static dielectric constant tensor:
#      x y z
#    x 2.008630 0.024590 -0.050200 
#    y 0.024590 1.911810 0.047480 
#    z -0.050200 0.047480 1.919250 
# 
# From -- ./inp_files/325604.got.cif
#   From: 2010.05.17/outbox.cif.g08.bks.cpg/sg2_163_cif.got.tgz:325604.got - 2010.06.03 11:33:40.
