data_PCOD9108414
_publ_section_title
;
Structure prediction by ZEFSAII (Michael W. Deem and Ramdas Pophale) SiO2 
 PCOD9108414
Probable space group: P -1
;
_chemical_formula_sum "Si O2"
_cell_formula_units_Z 15
_cell_length_a 14.650258
_cell_length_b 15.097985
_cell_length_c 24.045108
_cell_angle_alpha 20.880941
_cell_angle_beta 18.813842
_cell_angle_gamma 28.307501
_cell_volume 610.973609
_symmetry_space_group_name_H-M "P -1"
_symmetry_group_IT_number 2
_symmetry_cell_setting 'triclinic'
loop_
_space_group_symop_operation_xyz
x,y,z
-x,-y,-z
loop_
_atom_site_type_symbol
_atom_site_label
_atom_site_fract_x
_atom_site_fract_y
_atom_site_fract_z
Si Si1 0.776202 0.638862 0.647378
Si Si2 0.500000 0.500000 0.000000
Si Si3 0.497483 0.999460 0.068135
Si Si4 0.363066 0.822794 0.604880
Si Si5 0.408721 0.535142 0.630233
Si Si6 0.004469 0.832525 0.244707
Si Si7 0.716773 0.984479 0.136013
Si Si8 0.776447 0.527747 0.006653
O O1 0.999248 0.461028 0.595041
O O2 0.808293 0.930309 0.449247
O O3 0.736490 0.574908 0.772137
O O4 0.476281 0.551822 0.842593
O O5 0.521973 0.202757 0.142369
O O6 0.279563 0.192279 0.105962
O O7 0.458509 0.725670 0.277565
O O8 0.804559 0.103136 0.850812
O O9 0.500000 0.000000 0.000000
O O10 0.392280 0.684885 0.610266
O O11 0.682202 0.905551 0.391097
O O12 0.240715 0.639155 0.829994
O O13 0.083024 0.496158 0.822099
O O14 0.574863 0.713861 0.386800
O O15 0.176705 0.962109 0.018818
O O16 0.000000 0.000000 0.000000
#
# Coordination Sequence:
#
# PCOD9108414 Si02
#       8
#     2   1   2   2   2   2   2   2
#     4  10  22  41  68  97 126 169 216 268 318 378
#     4  10  20  40  68  94 126 160 210 272 314 372
#     4  11  25  45  64  95 138 174 210 265 324 386
#     4  12  22  42  68  98 125 171 218 266 314 381
#     4  12  25  42  69  95 130 173 211 265 326 384
#     4  10  24  43  68  97 128 170 220 264 319 379
#     4  11  22  43  68  96 126 163 219 267 318 379
#     4  11  26  44  63  96 135 170 214 261 326 383
#
# _framework density 24.550979000000002
#
# number of rings (size 3 to 8) (size 9 to 14) (size 15 to 20)
#    0.000    1.067    4.000    1.600    0.000    5.867 
#    0.000    6.000    0.000    0.000    0.000    0.000 
#    0.000    0.000    0.000    0.000    0.000    0.000 
#
# Total GULP energy -83897.321516 kJ/mol
# GULP energy per Si atom -5593.154768 kJ/mol
# Density = 2.449510 g / cm^3
# Si number density = 24.550979 Si / 1000 Ang^3
#
#
#
# Elastic Constant Matrix: (Units=GPa)
#
#
# Indices 1 2 3 4 5 6 
#
# 1 45.3637 8.4959 0.0463 0.4016 -5.5099 13.3839
# 2 8.4959 144.1163 51.3578 -47.6602 16.7494 2.0536
# 3 0.0463 51.3578 106.1627 -25.4671 35.1782 3.7534
# 4 0.4016 -47.6602 -25.4671 48.8409 -12.4500 5.2690
# 5 -5.5099 16.7494 35.1782 -12.4500 40.0469 -6.7775
# 6 13.3839 2.0536 3.7534 5.2690 -6.7775 24.8277
#
#
#
# Elastic Compliance Matrix: (Units=1/GPa)
#
#
# Indices 1 2 3 4 5 6 
#
# 1 0.026691 -0.001723 0.001025 0.000478 0.001244 -0.014163
# 2 -0.001723 0.011385 -0.003385 0.009699 0.000761 -0.001352
# 3 0.001025 -0.003385 0.016246 0.002565 -0.013075 -0.006842
# 4 0.000478 0.009699 0.002565 0.032776 0.002645 -0.007682
# 5 0.001244 0.000761 -0.013075 0.002645 0.039051 0.011342
# 6 -0.014163 -0.001352 -0.006842 -0.007682 0.011342 0.053785
#
#
# Mechanical properties :
#
#
# Convention : Reuss Voigt Hill
#
# Bulk Modulus (GPa) = 21.66528 46.16031 33.91280
# Shear Modulus (GPa) = 24.57186 38.45927 31.51557
#
# Velocity S-wave (km/s) = 3.16705 3.96221 3.58673
# Velocity P-wave (km/s) = 4.71353 6.30672 5.56741
#
# Compressibility (1/GPa) = 0.04615680
#
# Stress axis : x y z
#
# Youngs Moduli (GPa) = 37.46552 87.83614 61.55276
#
# Poissons Ratio (x) = 0.15138 -0.06311
# Poissons Ratio (y) = 0.06457 0.20833
# Poissons Ratio (z) = -0.03841 0.29728
#
# Static dielectric constant tensor:
#      x y z
#    x 1.973210 -0.006170 -0.028410 
#    y -0.006170 1.945990 -0.035830 
#    z -0.028410 -0.035830 1.953600 
# 
# From -- ./inp_files/282367.got.cif
#   From: 2010.05.17/outbox.cif.g08.bks.cpg/sg2_142_cif.got.tgz:282367.got - 2010.06.03 11:33:40.
