data_PCOD9108429
_publ_section_title
;
Structure prediction by ZEFSAII (Michael W. Deem and Ramdas Pophale) SiO2 
 PCOD9108429
Probable space group: P -1
;
_chemical_formula_sum "Si O2"
_cell_formula_units_Z 14
_cell_length_a 14.326602
_cell_length_b 8.833396
_cell_length_c 15.298607
_cell_angle_alpha 148.438394
_cell_angle_beta 136.474683
_cell_angle_gamma 42.242495
_cell_volume 656.355148
_symmetry_space_group_name_H-M "P -1"
_symmetry_group_IT_number 2
_symmetry_cell_setting 'triclinic'
loop_
_space_group_symop_operation_xyz
x,y,z
-x,-y,-z
loop_
_atom_site_type_symbol
_atom_site_label
_atom_site_fract_x
_atom_site_fract_y
_atom_site_fract_z
Si Si1 0.840734 0.289188 0.277854
Si Si2 0.299530 0.000320 0.432301
Si Si3 0.373183 0.201222 0.388768
Si Si4 0.920879 0.305772 0.904917
Si Si5 0.893666 0.269578 0.503477
Si Si6 0.915409 0.357948 0.125052
Si Si7 0.657648 0.265945 0.999816
O O1 0.799055 0.661429 0.431491
O O2 0.877844 0.190502 0.353957
O O3 0.703774 0.224639 0.111791
O O4 0.969819 0.049097 0.193247
O O5 0.328967 0.066850 0.383115
O O6 0.455261 0.877124 0.524493
O O7 0.219711 0.749539 0.257502
O O8 0.269239 0.555643 0.488250
O O9 0.334322 0.033487 0.196750
O O10 0.890716 0.452710 0.053174
O O11 0.000000 0.500000 0.000000
O O12 0.978833 0.507647 0.686290
O O13 0.000000 0.000000 0.500000
O O14 0.766959 0.412074 0.100481
O O15 0.000000 0.000000 0.000000
O O16 0.500000 0.500000 0.000000
#
# Coordination Sequence:
#
# PCOD9108429 Si02
#       7
#     2   2   2   2   2   2   2
#     4  11  23  37  68  98 128 177 236 280 324 410
#     4  10  21  39  67  98 132 180 231 285 336 397
#     4  10  20  40  68  95 136 179 232 285 336 401
#     4  12  24  40  65 104 142 179 224 280 353 416
#     4  11  24  41  64  99 138 176 223 280 347 410
#     4  12  22  42  67  92 135 182 229 286 334 396
#     4  12  23  39  67 104 132 170 232 293 334 387
#
# _framework density 21.329916000000001
#
# number of rings (size 3 to 8) (size 9 to 14) (size 15 to 20)
#    0.000    0.857    5.714    2.143    2.000    0.000 
#    0.000    1.429    0.000    8.571    0.000    0.000 
#    0.000    0.000    0.000    0.000    0.000    0.000 
#
# Total GULP energy -78165.311638 kJ/mol
# GULP energy per Si atom -5583.236546 kJ/mol
# Density = 2.128137 g / cm^3
# Si number density = 21.329916 Si / 1000 Ang^3
#
#
#
# Elastic Constant Matrix: (Units=GPa)
#
#
# Indices 1 2 3 4 5 6 
#
# 1 81.7518 38.8335 41.0610 -5.2492 2.1880 -6.9107
# 2 38.8335 126.2385 48.4085 -20.3303 -0.0685 -6.9867
# 3 41.0610 48.4085 135.0122 -33.8337 -10.4291 11.3690
# 4 -5.2492 -20.3303 -33.8337 42.3875 0.4543 -1.8391
# 5 2.1880 -0.0685 -10.4291 0.4543 46.4340 -6.2292
# 6 -6.9107 -6.9867 11.3690 -1.8391 -6.2292 33.5705
#
#
#
# Elastic Compliance Matrix: (Units=1/GPa)
#
#
# Indices 1 2 3 4 5 6 
#
# 1 0.016611 -0.003493 -0.005123 -0.003520 -0.001370 0.003980
# 2 -0.003493 0.010418 -0.002127 0.002968 -0.000014 0.002329
# 3 -0.005123 -0.002127 0.012294 0.007926 0.002277 -0.004804
# 4 -0.003520 0.002968 0.007926 0.030854 0.001539 -0.000815
# 5 -0.001370 -0.000014 0.002277 0.001539 0.022527 0.003208
# 6 0.003980 0.002329 -0.004804 -0.000815 0.003208 0.033270
#
#
# Mechanical properties :
#
#
# Convention : Reuss Voigt Hill
#
# Bulk Modulus (GPa) = 56.05644 66.62316 61.33980
# Shear Modulus (GPa) = 32.59336 38.79170 35.69253
#
# Velocity S-wave (km/s) = 3.91328 4.26919 4.09510
# Velocity P-wave (km/s) = 6.83784 7.45679 7.15401
#
# Compressibility (1/GPa) = 0.01783916
#
# Stress axis : x y z
#
# Youngs Moduli (GPa) = 60.19960 95.98360 81.34197
#
# Poissons Ratio (x) = 0.33526 0.41669
# Poissons Ratio (y) = 0.21027 0.17299
# Poissons Ratio (z) = 0.30838 0.20413
#
# Static dielectric constant tensor:
#      x y z
#    x 1.775300 0.011370 -0.039250 
#    y 0.011370 1.820390 -0.031960 
#    z -0.039250 -0.031960 1.805310 
# 
# From -- ./inp_files/207957.got.cif
#   From: 2010.05.17/outbox.cif.g08.bks.cpg/sg2_104_cif.got.tgz:207957.got - 2010.06.03 11:33:40.
