data_PCOD9108924
_publ_section_title
;
Structure prediction by ZEFSAII (Michael W. Deem and Ramdas Pophale) SiO2 
 PCOD9108924
Probable space group: P -1
;
_chemical_formula_sum "Si O2"
_cell_formula_units_Z 14
_cell_length_a 10.542188
_cell_length_b 18.703672
_cell_length_c 8.034629
_cell_angle_alpha 80.299004
_cell_angle_beta 119.024269
_cell_angle_gamma 147.115431
_cell_volume 649.948826
_symmetry_space_group_name_H-M "P -1"
_symmetry_group_IT_number 2
_symmetry_cell_setting 'triclinic'
loop_
_space_group_symop_operation_xyz
x,y,z
-x,-y,-z
loop_
_atom_site_type_symbol
_atom_site_label
_atom_site_fract_x
_atom_site_fract_y
_atom_site_fract_z
Si Si1 0.630644 0.839000 0.120789
Si Si2 0.740211 0.552401 0.045262
Si Si3 0.680049 0.702759 0.338258
Si Si4 0.667984 0.374644 0.275221
Si Si5 0.517798 0.079297 0.091876
Si Si6 0.880834 0.840747 0.751212
Si Si7 0.177465 0.830998 0.421872
O O1 0.597672 0.751582 0.239774
O O2 0.502565 0.760966 0.889042
O O3 0.454100 0.837143 0.042428
O O4 0.981432 0.020173 0.268932
O O5 0.713459 0.463636 0.152212
O O6 0.051430 0.725386 0.234081
O O7 0.500000 0.500000 0.000000
O O8 0.612046 0.477468 0.809737
O O9 0.825739 0.765535 0.587541
O O10 0.935349 0.787488 0.335562
O O11 0.432311 0.290970 0.301594
O O12 0.000000 0.500000 0.500000
O O13 0.755887 0.180175 0.354628
O O14 0.500000 0.000000 0.000000
O O15 0.171679 0.937850 0.999244
O O16 0.500000 0.000000 0.500000
#
# Coordination Sequence:
#
# PCOD9108924 Si02
#       7
#     2   2   2   2   2   2   2
#     4   9  21  36  64  87 125 160 204 249 300 360
#     4   9  22  39  60  84 124 160 198 247 305 359
#     4  10  20  41  59  91 126 160 200 256 306 355
#     4  11  22  40  61  87 122 163 207 249 301 365
#     4  10  21  38  60  94 124 153 206 255 299 354
#     4  10  22  37  64  89 125 158 205 250 306 347
#     4  11  22  38  64  90 121 162 207 246 299 373
#
# _framework density 21.540157000000001
#
# number of rings (size 3 to 8) (size 9 to 14) (size 15 to 20)
#    0.857    1.143    1.429    1.714    6.000    1.143 
#    0.000   10.000    0.000    0.000    0.000    0.000 
#    0.000    0.000    0.000    0.000    0.000    0.000 
#
# Total GULP energy -77954.651272 kJ/mol
# GULP energy per Si atom -5568.189377 kJ/mol
# Density = 2.149113 g / cm^3
# Si number density = 21.540157 Si / 1000 Ang^3
#
#
#
# Elastic Constant Matrix: (Units=GPa)
#
#
# Indices 1 2 3 4 5 6 
#
# 1 79.8558 12.0756 20.5174 14.8840 -3.1817 -19.8685
# 2 12.0756 29.6607 17.0226 31.2630 -10.6235 -13.2189
# 3 20.5174 17.0226 121.2521 35.8013 -12.5306 -12.7209
# 4 14.8840 31.2630 35.8013 39.4175 -18.1273 3.5316
# 5 -3.1817 -10.6235 -12.5306 -18.1273 44.2345 2.5990
# 6 -19.8685 -13.2189 -12.7209 3.5316 2.5990 30.2617
#
#
#
# Elastic Compliance Matrix: (Units=1/GPa)
#
#
# Indices 1 2 3 4 5 6 
#
# 1 0.013206 -0.017545 -0.003733 0.013046 0.001153 -0.002185
# 2 -0.017545 -0.074058 -0.020797 0.099148 0.019561 -0.065862
# 3 -0.003733 -0.020797 0.006871 0.014008 0.003043 -0.010544
# 4 0.013046 0.099148 0.014008 -0.080872 -0.008414 0.067924
# 5 0.001153 0.019561 0.003043 -0.008414 0.024245 0.009481
# 6 -0.002185 -0.065862 -0.010544 0.067924 0.009481 -0.010333
#
#
# Mechanical properties :
#
#
# Convention : Reuss Voigt Hill
#
# Bulk Modulus (GPa) = -7.23943 36.66664 14.71361
# Shear Modulus (GPa) = -60.36205 34.85960 -12.75123
#
# Velocity S-wave (km/s) = -5.29942 4.02724 -2.43569
# Velocity P-wave (km/s) = 6.38853 6.21967 1.03176
#
# Compressibility (1/GPa) = -0.13813249
#
# Stress axis : x y z
#
# Youngs Moduli (GPa) = 75.72448 -13.50298 145.53991
#
# Poissons Ratio (x) = -0.23691 0.54336
# Poissons Ratio (y) = 1.32858 3.02685
# Poissons Ratio (z) = 0.28271 -0.28083
#
# Static dielectric constant tensor:
#      x y z
#    x 1.781660 -0.025950 -0.006920 
#    y -0.025950 1.808070 -0.014170 
#    z -0.006920 -0.014170 1.858110 
# 
# From -- ./inp_files/281036.got.cif
#   From: 2010.05.17/outbox.cif.g08.bks.cpg/sg2_141_cif.got.tgz:281036.got - 2010.06.03 11:33:40.
