data_PCOD9108123
_publ_section_title
;
Structure prediction by ZEFSAII (Michael W. Deem and Ramdas Pophale) SiO2 
 PCOD9108123
Probable space group: P -1
;
_chemical_formula_sum "Si O2"
_cell_formula_units_Z 14
_cell_length_a 10.150902
_cell_length_b 13.696246
_cell_length_c 6.921064
_cell_angle_alpha 71.896185
_cell_angle_beta 43.839188
_cell_angle_gamma 90.792339
_cell_volume 590.652954
_symmetry_space_group_name_H-M "P -1"
_symmetry_group_IT_number 2
_symmetry_cell_setting 'triclinic'
loop_
_space_group_symop_operation_xyz
x,y,z
-x,-y,-z
loop_
_atom_site_type_symbol
_atom_site_label
_atom_site_fract_x
_atom_site_fract_y
_atom_site_fract_z
Si Si1 0.325918 0.118286 0.620311
Si Si2 0.496927 0.373894 0.308928
Si Si3 0.835171 0.239471 0.624246
Si Si4 0.767636 0.586386 0.727414
Si Si5 0.477726 0.309372 0.801557
Si Si6 0.074244 0.114131 0.233939
Si Si7 0.490915 0.976405 0.798078
O O1 0.440291 0.247430 0.384430
O O2 0.296553 0.192337 0.029386
O O3 0.677607 0.947723 0.531584
O O4 0.121319 0.102111 0.966096
O O5 0.304482 0.404267 0.419372
O O6 0.514839 0.373158 0.520146
O O7 0.700374 0.460486 0.944840
O O8 0.676917 0.288765 0.672272
O O9 0.707346 0.134357 0.953457
O O10 0.010409 0.332185 0.499405
O O11 0.934671 0.185253 0.387732
O O12 0.614315 0.629048 0.987050
O O13 0.458527 0.072615 0.651813
O O14 0.000000 0.000000 0.500000
O O15 0.500000 0.000000 0.000000
#
# Coordination Sequence:
#
# PCOD9108123 Si02
#       7
#     2   2   2   2   2   2   2
#     4  10  22  41  66  97 135 182 228 279 346 411
#     4  10  21  44  69  96 138 185 233 288 349 416
#     4  11  23  41  74 103 138 190 231 288 353 412
#     4  10  23  44  68  97 140 185 233 292 351 407
#     4  10  22  41  68 100 141 183 231 288 350 410
#     4  10  20  40  67 100 141 185 228 282 343 415
#     4  11  22  41  68  98 139 182 226 284 349 414
#
# _framework density 23.702580000000001
#
# number of rings (size 3 to 8) (size 9 to 14) (size 15 to 20)
#    0.000    1.714    1.429    3.000    0.000    1.714 
#    0.000   29.286    0.000    0.000    0.000    0.000 
#    0.000    0.000    0.000    0.000    0.000    0.000 
#
# Total GULP energy -78351.692646 kJ/mol
# GULP energy per Si atom -5596.549475 kJ/mol
# Density = 2.364863 g / cm^3
# Si number density = 23.702580 Si / 1000 Ang^3
#
#
#
# Elastic Constant Matrix: (Units=GPa)
#
#
# Indices 1 2 3 4 5 6 
#
# 1 119.7055 29.3083 58.0358 -11.9145 -1.1279 -16.7638
# 2 29.3083 101.4792 68.3116 -1.1972 0.4838 -6.5987
# 3 58.0358 68.3116 132.1360 -28.3355 -11.2897 -2.2837
# 4 -11.9145 -1.1972 -28.3355 65.3440 -0.2265 7.7066
# 5 -1.1279 0.4838 -11.2897 -0.2265 51.5384 -1.7377
# 6 -16.7638 -6.5987 -2.2837 7.7066 -1.7377 33.5484
#
#
#
# Elastic Compliance Matrix: (Units=1/GPa)
#
#
# Indices 1 2 3 4 5 6 
#
# 1 0.011629 0.000888 -0.005762 -0.001048 -0.000825 0.005791
# 2 0.000888 0.016535 -0.009989 -0.004334 -0.002212 0.003897
# 3 -0.005762 -0.009989 0.016916 0.006710 0.003532 -0.005051
# 4 -0.001048 -0.004334 0.006710 0.018550 0.001397 -0.005108
# 5 -0.000825 -0.002212 0.003532 0.001397 0.020190 0.000118
# 6 0.005791 0.003897 -0.005051 -0.005108 0.000118 0.034304
#
#
# Mechanical properties :
#
#
# Convention : Reuss Voigt Hill
#
# Bulk Modulus (GPa) = 65.12909 73.84800 69.48855
# Shear Modulus (GPa) = 32.68665 43.26382 37.97524
#
# Velocity S-wave (km/s) = 3.71756 4.27696 4.00704
# Velocity P-wave (km/s) = 6.77970 7.45745 7.12664
#
# Compressibility (1/GPa) = 0.01535412
#
# Stress axis : x y z
#
# Youngs Moduli (GPa) = 85.99367 60.47779 59.11436
#
# Poissons Ratio (x) = -0.05372 0.34061
# Poissons Ratio (y) = -0.07638 0.59052
# Poissons Ratio (z) = 0.49548 0.60414
#
# Static dielectric constant tensor:
#      x y z
#    x 1.909830 0.042010 -0.000590 
#    y 0.042010 1.960580 0.036820 
#    z -0.000590 0.036820 1.920110 
# 
# From -- ./inp_files/195531.got.cif
#   From: 2010.05.17/outbox.cif.g08.bks.cpg/sg2_98_cif.got.tgz:195531.got - 2010.06.03 11:33:40.
