data_PCOD9108357
_publ_section_title
;
Structure prediction by ZEFSAII (Michael W. Deem and Ramdas Pophale) SiO2 
 PCOD9108357
Probable space group: P -1
;
_chemical_formula_sum "Si O2"
_cell_formula_units_Z 15
_cell_length_a 5.014495
_cell_length_b 5.684182
_cell_length_c 19.829835
_cell_angle_alpha 80.280148
_cell_angle_beta 74.901277
_cell_angle_gamma 90.278457
_cell_volume 537.161303
_symmetry_space_group_name_H-M "P -1"
_symmetry_group_IT_number 2
_symmetry_cell_setting 'triclinic'
loop_
_space_group_symop_operation_xyz
x,y,z
-x,-y,-z
loop_
_atom_site_type_symbol
_atom_site_label
_atom_site_fract_x
_atom_site_fract_y
_atom_site_fract_z
Si Si1 0.882032 0.100607 0.838677
Si Si2 0.753115 0.573629 0.355718
Si Si3 0.873883 0.828035 0.617964
Si Si4 0.969295 0.599453 0.852210
Si Si5 0.659724 0.149947 0.716529
Si Si6 0.719188 0.793633 0.487929
Si Si7 0.500000 0.000000 0.000000
Si Si8 0.369028 0.454488 0.936003
O O1 0.047596 0.356792 0.821951
O O2 0.636606 0.117077 0.799297
O O3 0.747904 0.035889 0.923440
O O4 0.041202 0.870440 0.814031
O O5 0.526942 0.658651 0.314722
O O6 0.660964 0.623736 0.436246
O O7 0.881416 0.314163 0.358034
O O8 0.022947 0.747046 0.314798
O O9 0.763194 0.690792 0.564869
O O10 0.656831 0.908658 0.683643
O O11 0.997908 0.069181 0.562900
O O12 0.635216 0.559814 0.872220
O O13 0.103962 0.573114 0.918898
O O14 0.500000 0.000000 0.500000
O O15 0.317103 0.172753 0.957047
O O16 0.500000 0.500000 0.000000
#
# Coordination Sequence:
#
# PCOD9108357 Si02
#       8
#     2   2   2   2   2   2   1   2
#     4  11  27  50  74 111 145 204 249 324 375 470
#     4  11  25  44  71 104 143 198 239 306 371 451
#     4  10  23  42  68 103 146 190 241 307 368 445
#     4  11  27  44  75 102 148 180 247 296 385 442
#     4  11  27  46  68 102 145 191 257 297 380 450
#     4  10  20  40  68 107 143 185 244 303 363 446
#     4  10  24  44  76 102 150 180 254 308 386 432
#     4  11  23  43  71 109 137 185 225 311 373 455
#
# _framework density 27.924569999999999
#
# number of rings (size 3 to 8) (size 9 to 14) (size 15 to 20)
#    0.000    1.333    2.667    0.800    5.600    4.800 
#    0.000    0.000    0.000    0.000    0.000    0.000 
#    0.000    0.000    0.000    0.000    0.000    0.000 
#
# Total GULP energy -83626.349352 kJ/mol
# GULP energy per Si atom -5575.089957 kJ/mol
# Density = 2.786101 g / cm^3
# Si number density = 27.924570 Si / 1000 Ang^3
#
#
#
# Elastic Constant Matrix: (Units=GPa)
#
#
# Indices 1 2 3 4 5 6 
#
# 1 114.7291 38.9697 48.4063 -3.7566 27.8097 -9.0375
# 2 38.9697 161.0538 53.1914 -9.1931 23.8784 -14.4402
# 3 48.4063 53.1914 146.4042 10.0034 20.7113 -13.9319
# 4 -3.7566 -9.1931 10.0034 41.1438 -15.9757 14.7747
# 5 27.8097 23.8784 20.7113 -15.9757 53.2152 -7.1318
# 6 -9.0375 -14.4402 -13.9319 14.7747 -7.1318 48.9996
#
#
#
# Elastic Compliance Matrix: (Units=1/GPa)
#
#
# Indices 1 2 3 4 5 6 
#
# 1 0.011322 -0.001208 -0.002592 -0.000516 -0.004454 0.000503
# 2 -0.001208 0.007571 -0.002157 0.001256 -0.001442 0.000807
# 3 -0.002592 -0.002157 0.009412 -0.004928 -0.002460 0.002690
# 4 -0.000516 0.001256 -0.004928 0.033196 0.010298 -0.009637
# 5 -0.004454 -0.001442 -0.002460 0.010298 0.025638 -0.001319
# 6 0.000503 0.000807 0.002690 -0.009637 -0.001319 0.024217
#
#
# Mechanical properties :
#
#
# Convention : Reuss Voigt Hill
#
# Bulk Modulus (GPa) = 61.00090 78.14688 69.57389
# Shear Modulus (GPa) = 38.84021 47.44636 43.14328
#
# Velocity S-wave (km/s) = 3.73352 4.12647 3.93491
# Velocity P-wave (km/s) = 6.36222 7.12387 6.75379
#
# Compressibility (1/GPa) = 0.01639320
#
# Stress axis : x y z
#
# Youngs Moduli (GPa) = 88.32278 132.07610 106.25292
#
# Poissons Ratio (x) = 0.15951 0.27536
# Poissons Ratio (y) = 0.10667 0.22915
# Poissons Ratio (z) = 0.22889 0.28484
#
# Static dielectric constant tensor:
#      x y z
#    x 2.169200 0.082510 -0.032410 
#    y 0.082510 2.356780 0.109760 
#    z -0.032410 0.109760 2.208930 
# 
# From -- ./inp_files/581023.got.cif
#   From: 2010.05.17/outbox.cif.g08.bks.cpg/sg2_291_cif.got.tgz:581023.got - 2010.06.03 11:33:40.
