data_PCOD9109560
_publ_section_title
;
Structure prediction by ZEFSAII (Michael W. Deem and Ramdas Pophale) SiO2 
 PCOD9109560
Probable space group: P -1
;
_chemical_formula_sum "Si O2"
_cell_formula_units_Z 16
_cell_length_a 13.435798
_cell_length_b 12.340130
_cell_length_c 6.812832
_cell_angle_alpha 107.607082
_cell_angle_beta 69.702766
_cell_angle_gamma 135.660568
_cell_volume 737.886972
_symmetry_space_group_name_H-M "P -1"
_symmetry_group_IT_number 2
_symmetry_cell_setting 'triclinic'
loop_
_space_group_symop_operation_xyz
x,y,z
-x,-y,-z
loop_
_atom_site_type_symbol
_atom_site_label
_atom_site_fract_x
_atom_site_fract_y
_atom_site_fract_z
Si Si1 0.549687 0.861332 0.335712
Si Si2 0.900548 0.332756 0.383501
Si Si3 0.888716 0.816044 0.443657
Si Si4 0.362508 0.857506 0.776132
Si Si5 0.617346 0.303516 0.019048
Si Si6 0.346518 0.180969 0.392797
Si Si7 0.923251 0.651319 0.042304
Si Si8 0.114994 0.817444 0.340913
O O1 0.483514 0.888871 0.571878
O O2 0.629955 0.824695 0.391906
O O3 0.638670 0.010343 0.209687
O O4 0.428097 0.726587 0.194360
O O5 0.786323 0.300880 0.295035
O O6 0.820662 0.213712 0.553185
O O7 0.000000 0.500000 0.500000
O O8 0.997599 0.311957 0.194292
O O9 0.732469 0.756201 0.553616
O O10 0.967270 0.774182 0.491415
O O11 0.895798 0.760194 0.194740
O O12 0.000000 0.000000 0.500000
O O13 0.380052 0.823796 0.965295
O O14 0.493254 0.274511 0.219135
O O15 0.772248 0.474197 0.045357
O O16 0.233625 0.998725 0.304455
O O17 0.045813 0.699417 0.142304
#
# Coordination Sequence:
#
# PCOD9109560 Si02
#       8
#     2   2   2   2   2   2   2   2
#     4  10  21  38  57  91 123 158 210 247 303 367
#     4  12  23  38  64  92 127 164 201 252 312 367
#     4   8  19  43  65  88 121 158 206 267 301 353
#     4  10  22  36  57  86 124 165 200 251 299 363
#     4  11  23  38  59  92 126 161 199 252 311 373
#     4  10  20  41  66  88 118 161 208 256 303 358
#     4  10  24  41  61  94 125 160 208 249 310 370
#     4   9  21  41  63  90 122 157 209 254 301 363
#
# _framework density 21.683537000000001
#
# number of rings (size 3 to 8) (size 9 to 14) (size 15 to 20)
#    0.750    1.250    1.250    1.875    1.750    4.500 
#    2.250    1.875    0.000    0.000    0.000    0.000 
#    0.000    0.000    0.000    0.000    0.000    0.000 
#
# Total GULP energy -89105.058484 kJ/mol
# GULP energy per Si atom -5569.066155 kJ/mol
# Density = 2.163418 g / cm^3
# Si number density = 21.683537 Si / 1000 Ang^3
#
#
#
# Elastic Constant Matrix: (Units=GPa)
#
#
# Indices 1 2 3 4 5 6 
#
# 1 57.0564 -1.0193 26.7369 -4.2725 13.8846 15.7205
# 2 -1.0193 72.9650 32.7628 20.1291 3.0744 19.0068
# 3 26.7369 32.7628 89.9472 2.5391 8.1969 5.9212
# 4 -4.2725 20.1291 2.5391 27.7267 8.2796 1.1342
# 5 13.8846 3.0744 8.1969 8.2796 33.9732 6.3522
# 6 15.7205 19.0068 5.9212 1.1342 6.3522 28.0150
#
#
#
# Elastic Compliance Matrix: (Units=1/GPa)
#
#
# Indices 1 2 3 4 5 6 
#
# 1 0.030221 0.010681 -0.010913 0.000851 -0.007092 -0.020325
# 2 0.010681 0.031832 -0.013036 -0.020948 0.005733 -0.025287
# 3 -0.010913 -0.013036 0.018407 0.006372 -0.002483 0.011383
# 4 0.000851 -0.020948 0.006372 0.055029 -0.015978 0.013782
# 5 -0.007092 0.005733 -0.002483 -0.015978 0.037669 -0.007279
# 6 -0.020325 -0.025287 0.011383 0.013782 -0.007279 0.062943
#
#
# Mechanical properties :
#
#
# Convention : Reuss Voigt Hill
#
# Bulk Modulus (GPa) = 18.54496 37.43659 27.99077
# Shear Modulus (GPa) = 17.81819 28.70885 23.26352
#
# Velocity S-wave (km/s) = 2.86971 3.64262 3.27902
# Velocity P-wave (km/s) = 4.42170 5.91558 5.22233
#
# Compressibility (1/GPa) = 0.05392301
#
# Stress axis : x y z
#
# Youngs Moduli (GPa) = 33.08966 31.41468 54.32706
#
# Poissons Ratio (x) = -0.33554 0.59290
# Poissons Ratio (y) = -0.35343 0.70821
# Poissons Ratio (z) = 0.36112 0.40953
#
# Static dielectric constant tensor:
#      x y z
#    x 1.855590 0.002620 -0.001590 
#    y 0.002620 1.819270 0.018270 
#    z -0.001590 0.018270 1.821080 
# 
# From -- ./inp_files/98259.got.cif
#   From: 2010.05.17/outbox.cif.g08.bks.cpg/sg2_50_cif.got.tgz:98259.got - 2010.06.03 11:33:40.
