data_PCOD9109386
_publ_section_title
;
Structure prediction by ZEFSAII (Michael W. Deem and Ramdas Pophale) SiO2 
 PCOD9109386
Probable space group: P -1
;
_chemical_formula_sum "Si O2"
_cell_formula_units_Z 14
_cell_length_a 5.979083
_cell_length_b 16.432463
_cell_length_c 8.090332
_cell_angle_alpha 113.075161
_cell_angle_beta 120.257270
_cell_angle_gamma 54.228741
_cell_volume 551.670741
_symmetry_space_group_name_H-M "P -1"
_symmetry_group_IT_number 2
_symmetry_cell_setting 'triclinic'
loop_
_space_group_symop_operation_xyz
x,y,z
-x,-y,-z
loop_
_atom_site_type_symbol
_atom_site_label
_atom_site_fract_x
_atom_site_fract_y
_atom_site_fract_z
Si Si1 0.480855 0.280353 0.781803
Si Si2 0.842776 0.419884 0.718975
Si Si3 0.290126 0.024037 0.182702
Si Si4 0.292658 0.920522 0.454696
Si Si5 0.188740 0.600456 0.941415
Si Si6 0.393920 0.834535 0.949017
Si Si7 0.601508 0.636505 0.652050
O O1 0.645427 0.192753 0.639678
O O2 0.708323 0.315836 0.960870
O O3 0.149208 0.369181 0.687278
O O4 0.426405 0.224027 0.869855
O O5 0.945827 0.399384 0.929707
O O6 0.655997 0.540327 0.712116
O O7 0.626077 0.371674 0.567821
O O8 0.454865 0.085667 0.336337
O O9 0.953643 0.105490 0.086491
O O10 0.292625 0.970585 0.317629
O O11 0.440877 0.932712 0.033097
O O12 0.000000 0.000000 0.500000
O O13 0.500000 0.500000 0.000000
O O14 0.943909 0.610290 0.726178
O O15 0.458919 0.748653 0.769083
#
# Coordination Sequence:
#
# PCOD9109386 Si02
#       7
#     2   2   2   2   2   2   2
#     4  11  23  41  65  93 131 168 210 265 323 372
#     4  11  24  45  64  95 131 170 214 259 317 387
#     4   9  21  41  62  88 125 165 212 258 319 368
#     4  10  22  39  63  92 126 163 209 265 313 377
#     4  12  24  42  66  97 132 167 210 268 316 377
#     4  10  20  41  65  88 123 171 211 259 312 383
#     4  11  23  41  69  92 129 173 212 259 321 377
#
# _framework density 25.377455999999999
#
# number of rings (size 3 to 8) (size 9 to 14) (size 15 to 20)
#    0.000    1.429    2.857    2.143    2.000    2.857 
#    7.714    2.143    0.000    0.000    0.000    0.000 
#    0.000    0.000    0.000    0.000    0.000    0.000 
#
# Total GULP energy -78138.140492 kJ/mol
# GULP energy per Si atom -5581.295749 kJ/mol
# Density = 2.531970 g / cm^3
# Si number density = 25.377456 Si / 1000 Ang^3
#
#
#
# Elastic Constant Matrix: (Units=GPa)
#
#
# Indices 1 2 3 4 5 6 
#
# 1 53.8498 23.1020 28.7636 15.6234 23.8522 0.5445
# 2 23.1020 133.1868 31.0290 35.5760 2.5521 -6.3918
# 3 28.7636 31.0290 127.1565 14.0502 31.8199 -5.7228
# 4 15.6234 35.5760 14.0502 48.3538 5.9600 1.5522
# 5 23.8522 2.5521 31.8199 5.9600 52.0783 -0.8293
# 6 0.5445 -6.3918 -5.7228 1.5522 -0.8293 35.6965
#
#
#
# Elastic Compliance Matrix: (Units=1/GPa)
#
#
# Indices 1 2 3 4 5 6 
#
# 1 0.026923 -0.002721 -0.002412 -0.004695 -0.010207 -0.001318
# 2 -0.002721 0.010148 -0.001699 -0.006470 0.002559 0.001927
# 3 -0.002412 -0.001699 0.010162 -0.000352 -0.004960 0.001262
# 4 -0.004695 -0.006470 -0.000352 0.027193 -0.000467 -0.002337
# 5 -0.010207 0.002559 -0.004960 -0.000467 0.026843 0.000462
# 6 -0.001318 0.001927 0.001262 -0.002337 0.000462 0.028694
#
#
# Mechanical properties :
#
#
# Convention : Reuss Voigt Hill
#
# Bulk Modulus (GPa) = 29.79149 53.33138 41.56143
# Shear Modulus (GPa) = 32.29607 42.64561 37.47084
#
# Velocity S-wave (km/s) = 3.57126 4.10378 3.84675
# Velocity P-wave (km/s) = 5.36377 6.59663 6.01189
#
# Compressibility (1/GPa) = 0.03356664
#
# Stress axis : x y z
#
# Youngs Moduli (GPa) = 37.14301 98.54159 98.40945
#
# Poissons Ratio (x) = 0.26817 0.23739
# Poissons Ratio (y) = 0.10108 0.16723
# Poissons Ratio (z) = 0.08960 0.16745
#
# Static dielectric constant tensor:
#      x y z
#    x 2.170430 -0.052040 0.012660 
#    y -0.052040 2.080920 0.009400 
#    z 0.012660 0.009400 2.071110 
# 
# From -- ./inp_files/135609.got.cif
#   From: 2010.05.17/outbox.cif.g08.bks.cpg/sg2_68_cif.got.tgz:135609.got - 2010.06.03 11:33:40.
