data_PCOD9109788
_publ_section_title
;
Structure prediction by ZEFSAII (Michael W. Deem and Ramdas Pophale) SiO2 
 PCOD9109788
Probable space group: P -1
;
_chemical_formula_sum "Si O2"
_cell_formula_units_Z 14
_cell_length_a 15.151860
_cell_length_b 9.253105
_cell_length_c 7.480348
_cell_angle_alpha 102.681914
_cell_angle_beta 128.832096
_cell_angle_gamma 112.179309
_cell_volume 585.971164
_symmetry_space_group_name_H-M "P -1"
_symmetry_group_IT_number 2
_symmetry_cell_setting 'triclinic'
loop_
_space_group_symop_operation_xyz
x,y,z
-x,-y,-z
loop_
_atom_site_type_symbol
_atom_site_label
_atom_site_fract_x
_atom_site_fract_y
_atom_site_fract_z
Si Si1 0.989589 0.809203 0.114579
Si Si2 0.590916 0.449259 0.947286
Si Si3 0.592082 0.232254 0.225858
Si Si4 0.755809 0.815361 0.688839
Si Si5 0.103142 0.394217 0.713845
Si Si6 0.600275 0.713981 0.795956
Si Si7 0.944994 0.541119 0.710879
O O1 0.822039 0.714389 0.804048
O O2 0.018102 0.680705 0.014476
O O3 0.980352 0.793595 0.310639
O O4 0.120852 0.025670 0.256457
O O5 0.410400 0.304889 0.639149
O O6 0.649768 0.666450 0.023414
O O7 0.593973 0.365429 0.115318
O O8 0.712589 0.459389 0.991624
O O9 0.503150 0.236591 0.274571
O O10 0.770866 0.344778 0.491112
O O11 0.500000 0.000000 0.000000
O O12 0.736786 0.875958 0.876209
O O13 0.068214 0.357226 0.448477
O O14 0.044840 0.497888 0.745059
O O15 0.500000 0.500000 0.500000
#
# Coordination Sequence:
#
# PCOD9109788 Si02
#       7
#     2   2   2   2   2   2   2
#     4  11  22  43  64  96 130 176 215 283 333 395
#     4  10  21  42  67  97 127 179 221 275 337 402
#     4  11  25  41  67 102 136 171 224 285 337 391
#     4  10  23  39  65  97 128 159 235 275 326 394
#     4  10  22  40  67  89 129 172 220 264 339 396
#     4  10  20  41  67  92 131 174 215 273 327 403
#     4  10  23  42  65  91 134 181 218 262 344 418
#
# _framework density 23.891960999999998
#
# number of rings (size 3 to 8) (size 9 to 14) (size 15 to 20)
#    0.000    1.714    1.429    2.571    4.000    4.571 
#    0.000    5.000    0.000    0.000    0.000    0.000 
#    0.000    0.000    0.000    0.000    0.000    0.000 
#
# Total GULP energy -78007.912664 kJ/mol
# GULP energy per Si atom -5571.993762 kJ/mol
# Density = 2.383758 g / cm^3
# Si number density = 23.891961 Si / 1000 Ang^3
#
#
#
# Elastic Constant Matrix: (Units=GPa)
#
#
# Indices 1 2 3 4 5 6 
#
# 1 183.7404 40.0044 33.5714 -4.1669 26.6317 1.7829
# 2 40.0044 72.8922 24.2671 -15.9507 2.9152 29.4157
# 3 33.5714 24.2671 58.4242 -16.5987 20.6217 3.4347
# 4 -4.1669 -15.9507 -16.5987 26.4557 -4.6338 -0.5145
# 5 26.6317 2.9152 20.6217 -4.6338 44.4459 -7.5315
# 6 1.7829 29.4157 3.4347 -0.5145 -7.5315 50.5677
#
#
#
# Elastic Compliance Matrix: (Units=1/GPa)
#
#
# Indices 1 2 3 4 5 6 
#
# 1 0.007225 -0.004769 -0.002292 -0.003651 -0.002961 0.002197
# 2 -0.004769 0.026261 -0.004571 0.012304 0.002106 -0.014359
# 3 -0.002292 -0.004571 0.027306 0.012292 -0.009791 -0.000448
# 4 -0.003651 0.012304 0.012292 0.052189 -0.000127 -0.007351
# 5 -0.002961 0.002106 -0.009791 -0.000127 0.029328 0.003911
# 6 0.002197 -0.014359 -0.000448 -0.007351 0.003911 0.028589
#
#
# Mechanical properties :
#
#
# Convention : Reuss Voigt Hill
#
# Bulk Modulus (GPa) = 26.64689 56.74917 41.69803
# Shear Modulus (GPa) = 24.19330 38.77479 31.48405
#
# Velocity S-wave (km/s) = 3.18561 4.03292 3.63404
# Velocity P-wave (km/s) = 4.97072 6.74462 5.92444
#
# Compressibility (1/GPa) = 0.03752783
#
# Stress axis : x y z
#
# Youngs Moduli (GPa) = 138.41508 38.07997 36.62223
#
# Poissons Ratio (x) = 0.18161 0.08393
# Poissons Ratio (y) = 0.66014 0.16738
# Poissons Ratio (z) = 0.31722 0.17405
#
# Static dielectric constant tensor:
#      x y z
#    x 1.940260 0.029510 -0.049110 
#    y 0.029510 2.036220 -0.041010 
#    z -0.049110 -0.041010 1.999410 
# 
# From -- ./inp_files/278564.got.cif
#   From: 2010.05.17/outbox.cif.g08.bks.cpg/sg2_140_cif.got.tgz:278564.got - 2010.06.03 11:33:40.
