data_PCOD9109055
_publ_section_title
;
Structure prediction by ZEFSAII (Michael W. Deem and Ramdas Pophale) SiO2 
 PCOD9109055
Probable space group: P -1
;
_chemical_formula_sum "Si O2"
_cell_formula_units_Z 16
_cell_length_a 21.649884
_cell_length_b 8.097896
_cell_length_c 7.214775
_cell_angle_alpha 57.554000
_cell_angle_beta 35.412833
_cell_angle_gamma 63.929202
_cell_volume 618.531722
_symmetry_space_group_name_H-M "P -1"
_symmetry_group_IT_number 2
_symmetry_cell_setting 'triclinic'
loop_
_space_group_symop_operation_xyz
x,y,z
-x,-y,-z
loop_
_atom_site_type_symbol
_atom_site_label
_atom_site_fract_x
_atom_site_fract_y
_atom_site_fract_z
Si Si1 0.649462 0.786558 0.585901
Si Si2 0.192712 0.818337 0.466899
Si Si3 0.822560 0.930611 0.320752
Si Si4 0.391018 0.836523 0.757798
Si Si5 0.002218 0.213461 0.283304
Si Si6 0.258809 0.653246 0.883200
Si Si7 0.829663 0.586010 0.022265
Si Si8 0.521530 0.500946 0.667232
O O1 0.741703 0.730250 0.243973
O O2 0.712248 0.823817 0.603270
O O3 0.596389 0.987670 0.522962
O O4 0.564083 0.620101 0.933460
O O5 0.149025 0.000550 0.584318
O O6 0.192208 0.623159 0.705235
O O7 0.114682 0.759290 0.526755
O O8 0.312026 0.885083 0.087827
O O9 0.800416 0.141341 0.142335
O O10 0.915214 0.801973 0.080098
O O11 0.313964 0.682393 0.929477
O O12 0.498267 0.730004 0.625348
O O13 0.055016 0.348150 0.228578
O O14 0.000000 0.000000 0.500000
O O15 0.185469 0.466984 0.125178
O O16 0.363877 0.598976 0.534155
O O17 0.500000 0.500000 0.500000
#
# Coordination Sequence:
#
# PCOD9109055 Si02
#       8
#     2   2   2   2   2   2   2   2
#     4  10  20  41  62  88 132 163 204 258 307 357
#     4  11  20  40  63  91 125 161 210 253 308 376
#     4   9  21  38  62  90 124 164 202 258 307 366
#     4  10  21  40  63  94 126 166 205 257 303 368
#     4  11  22  40  62  91 124 161 207 256 315 371
#     4   9  20  39  62  85 126 159 209 253 310 356
#     4  10  21  39  62  90 120 165 202 255 312 366
#     4  10  21  39  65  91 123 168 211 252 310 364
#
# _framework density 25.867712999999998
#
# number of rings (size 3 to 8) (size 9 to 14) (size 15 to 20)
#    0.000    2.000    1.250    3.000    0.000    5.000 
#    9.000    7.500    0.000    0.000    0.000    0.000 
#    0.000    0.000    0.000    0.000    0.000    0.000 
#
# Total GULP energy -89378.362846 kJ/mol
# GULP energy per Si atom -5586.147678 kJ/mol
# Density = 2.580884 g / cm^3
# Si number density = 25.867713 Si / 1000 Ang^3
#
#
#
# Elastic Constant Matrix: (Units=GPa)
#
#
# Indices 1 2 3 4 5 6 
#
# 1 92.8946 10.5656 4.7853 -14.4675 -25.6253 18.0610
# 2 10.5656 64.1609 7.7386 1.8963 -16.8579 -8.4338
# 3 4.7853 7.7386 57.6359 2.1483 -14.4890 -10.5239
# 4 -14.4675 1.8963 2.1483 39.3602 -4.9707 -1.3434
# 5 -25.6253 -16.8579 -14.4890 -4.9707 29.5085 -9.7420
# 6 18.0610 -8.4338 -10.5239 -1.3434 -9.7420 48.4948
#
#
#
# Elastic Compliance Matrix: (Units=1/GPa)
#
#
# Indices 1 2 3 4 5 6 
#
# 1 0.016868 0.000886 0.002028 0.008101 0.016827 -0.002083
# 2 0.000886 0.020256 0.002486 0.001490 0.016128 0.007014
# 3 0.002028 0.002486 0.022598 0.001849 0.017263 0.008100
# 4 0.008101 0.001490 0.001849 0.030064 0.014304 0.001350
# 5 0.016827 0.016128 0.017263 0.014304 0.073714 0.015489
# 6 -0.002083 0.007014 0.008100 0.001350 0.015489 0.027523
#
#
# Mechanical properties :
#
#
# Convention : Reuss Voigt Hill
#
# Bulk Modulus (GPa) = 14.17995 28.98562 21.58279
# Shear Modulus (GPa) = 24.54234 36.24618 30.39426
#
# Velocity S-wave (km/s) = 3.08354 3.74734 3.43153
# Velocity P-wave (km/s) = 4.26278 5.47294 4.90532
#
# Compressibility (1/GPa) = 0.07052209
#
# Stress axis : x y z
#
# Youngs Moduli (GPa) = 59.28345 49.36918 44.25179
#
# Poissons Ratio (x) = -0.04372 -0.08976
# Poissons Ratio (y) = -0.05250 -0.11002
# Poissons Ratio (z) = -0.12025 -0.12275
#
# Static dielectric constant tensor:
#      x y z
#    x 2.419480 0.124800 0.036000 
#    y 0.124800 2.074830 0.048000 
#    z 0.036000 0.048000 2.013850 
# 
# From -- ./inp_files/218182.got.cif
#   From: 2010.05.17/outbox.cif.g08.bks.cpg/sg2_110_cif.got.tgz:218182.got - 2010.06.03 11:33:40.
