data_PCOD9109192
_publ_section_title
;
Structure prediction by ZEFSAII (Michael W. Deem and Ramdas Pophale) SiO2 
 PCOD9109192
Probable space group: P -1
;
_chemical_formula_sum "Si O2"
_cell_formula_units_Z 16
_cell_length_a 10.248866
_cell_length_b 12.223424
_cell_length_c 21.607585
_cell_angle_alpha 36.430471
_cell_angle_beta 154.560085
_cell_angle_gamma 135.053803
_cell_volume 688.645793
_symmetry_space_group_name_H-M "P -1"
_symmetry_group_IT_number 2
_symmetry_cell_setting 'triclinic'
loop_
_space_group_symop_operation_xyz
x,y,z
-x,-y,-z
loop_
_atom_site_type_symbol
_atom_site_label
_atom_site_fract_x
_atom_site_fract_y
_atom_site_fract_z
Si Si1 0.033740 0.279727 0.121831
Si Si2 0.924081 0.720318 0.250285
Si Si3 0.550931 0.772258 0.185718
Si Si4 0.516810 0.570058 0.387454
Si Si5 0.568707 0.294633 0.150060
Si Si6 0.656073 0.944851 0.741198
Si Si7 0.326116 0.842839 0.874422
Si Si8 0.229787 0.253622 0.474010
O O1 0.976951 0.226792 0.192545
O O2 0.318741 0.172422 0.258370
O O3 0.744091 0.207526 0.993673
O O4 0.000000 0.500000 0.000000
O O5 0.825163 0.718186 0.280699
O O6 0.165531 0.553339 0.416031
O O7 0.617224 0.714059 0.082314
O O8 0.088007 0.906338 0.219329
O O9 0.481960 0.632722 0.273951
O O10 0.624900 0.957939 0.167425
O O11 0.271687 0.435152 0.367676
O O12 0.552915 0.729964 0.380608
O O13 0.310901 0.208089 0.120310
O O14 0.655064 0.167634 0.185645
O O15 0.877719 0.271723 0.332769
O O16 0.500000 0.500000 0.000000
O O17 0.354962 0.076088 0.569118
#
# Coordination Sequence:
#
# PCOD9109192 Si02
#       8
#     2   2   2   2   2   2   2   2
#     4  11  23  41  66  95 132 169 215 270 328 374
#     4  10  20  41  63  96 129 166 216 258 327 382
#     4  11  21  40  67  97 125 167 223 263 314 393
#     4  10  22  39  68  91 129 171 213 267 318 387
#     4  12  26  40  66  97 131 169 222 269 322 382
#     4  11  22  43  65  88 132 175 208 269 325 383
#     4  11  22  41  66  95 129 170 212 270 315 387
#     4  10  24  44  60  94 133 171 214 266 329 384
#
# _framework density 23.234005
#
# number of rings (size 3 to 8) (size 9 to 14) (size 15 to 20)
#    0.000    1.250    2.500    3.750    3.500    1.500 
#    0.000    1.875    0.000    0.000    0.000    0.000 
#    0.000    0.000    0.000    0.000    0.000    0.000 
#
# Total GULP energy -89433.985925 kJ/mol
# GULP energy per Si atom -5589.624120 kJ/mol
# Density = 2.318112 g / cm^3
# Si number density = 23.234005 Si / 1000 Ang^3
#
#
#
# Elastic Constant Matrix: (Units=GPa)
#
#
# Indices 1 2 3 4 5 6 
#
# 1 131.6265 26.6840 1.4968 -4.4894 -4.8727 19.4476
# 2 26.6840 76.5522 0.1865 -17.0931 4.1880 1.8093
# 3 1.4968 0.1865 33.7497 -10.1364 15.4380 2.1644
# 4 -4.4894 -17.0931 -10.1364 20.0288 -5.3077 -1.2996
# 5 -4.8727 4.1880 15.4380 -5.3077 40.1724 -14.2312
# 6 19.4476 1.8093 2.1644 -1.2996 -14.2312 38.1366
#
#
#
# Elastic Compliance Matrix: (Units=1/GPa)
#
#
# Indices 1 2 3 4 5 6 
#
# 1 0.008873 -0.003279 -0.000414 -0.001357 -0.000182 -0.004460
# 2 -0.003279 0.018200 0.006348 0.017388 -0.002383 0.000152
# 3 -0.000414 0.006348 0.045370 0.022902 -0.018194 -0.008674
# 4 -0.001357 0.017388 0.022902 0.076021 -0.000373 0.001019
# 5 -0.000182 -0.002383 -0.018194 -0.000373 0.037446 0.015199
# 6 -0.004460 0.000152 -0.008674 0.001019 0.015199 0.034687
#
#
# Mechanical properties :
#
#
# Convention : Reuss Voigt Hill
#
# Bulk Modulus (GPa) = 12.86136 33.18478 23.02307
# Shear Modulus (GPa) = 20.72920 33.90496 27.31708
#
# Velocity S-wave (km/s) = 2.99020 3.82420 3.43262
# Velocity P-wave (km/s) = 4.17963 5.81491 5.06372
#
# Compressibility (1/GPa) = 0.07775227
#
# Stress axis : x y z
#
# Youngs Moduli (GPa) = 112.70578 54.94532 22.04084
#
# Poissons Ratio (x) = 0.18019 0.00912
# Poissons Ratio (y) = 0.36960 -0.13991
# Poissons Ratio (z) = 0.04661 -0.34877
#
# Static dielectric constant tensor:
#      x y z
#    x 1.929320 0.009720 -0.000370 
#    y 0.009720 1.884800 -0.022850 
#    z -0.000370 -0.022850 1.864080 
# 
# From -- ./inp_files/222772.got.cif
#   From: 2010.05.17/outbox.cif.g08.bks.cpg/sg2_112_cif.got.tgz:222772.got - 2010.06.03 11:33:40.
