data_PCOD9109123
_publ_section_title
;
Structure prediction by ZEFSAII (Michael W. Deem and Ramdas Pophale) SiO2 
 PCOD9109123
Probable space group: P -1
;
_chemical_formula_sum "Si O2"
_cell_formula_units_Z 15
_cell_length_a 10.947847
_cell_length_b 17.602154
_cell_length_c 15.022212
_cell_angle_alpha 30.327724
_cell_angle_beta 151.973146
_cell_angle_gamma 153.985911
_cell_volume 561.278311
_symmetry_space_group_name_H-M "P -1"
_symmetry_group_IT_number 2
_symmetry_cell_setting 'triclinic'
loop_
_space_group_symop_operation_xyz
x,y,z
-x,-y,-z
loop_
_atom_site_type_symbol
_atom_site_label
_atom_site_fract_x
_atom_site_fract_y
_atom_site_fract_z
Si Si1 0.665435 0.755644 0.272419
Si Si2 0.385181 0.213505 0.983989
Si Si3 0.080716 0.853323 0.961672
Si Si4 0.337828 0.857849 0.310464
Si Si5 0.420310 0.810765 0.601160
Si Si6 0.000000 0.000000 0.500000
Si Si7 0.093176 0.330790 0.316352
Si Si8 0.331380 0.525708 0.948157
O O1 0.352060 0.549033 0.273452
O O2 0.875262 0.752917 0.486894
O O3 0.653506 0.932639 0.107471
O O4 0.780900 0.792627 0.207089
O O5 0.411485 0.347398 0.940420
O O6 0.757637 0.300148 0.115725
O O7 0.276133 0.010687 0.146083
O O8 0.770505 0.852728 0.775390
O O9 0.175420 0.800484 0.167190
O O10 0.953569 0.675412 0.998549
O O11 0.274880 0.749141 0.470941
O O12 0.703094 0.948646 0.426004
O O13 0.227642 0.648169 0.713549
O O14 0.500000 0.000000 0.500000
O O15 0.153698 0.223455 0.389234
O O16 0.500000 0.500000 0.000000
#
# Coordination Sequence:
#
# PCOD9109123 Si02
#       8
#     2   2   2   2   2   1   2   2
#     4  10  22  39  62  95 125 169 219 266 324 402
#     4  10  20  41  63  87 128 177 213 264 337 397
#     4  10  23  42  63  98 133 171 226 275 336 396
#     4  10  22  42  67 100 132 178 221 270 341 402
#     4  11  22  43  69  94 131 178 224 281 334 387
#     4  10  22  42  68  96 142 168 214 282 326 402
#     4  10  22  40  63  96 128 171 221 266 332 395
#     4  10  23  42  64  96 132 171 223 283 334 393
#
# _framework density 26.724709000000001
#
# number of rings (size 3 to 8) (size 9 to 14) (size 15 to 20)
#    0.000    1.867    1.333    2.000    0.000    6.400 
#    2.400   11.333    0.000    0.000    0.000    0.000 
#    0.000    0.000    0.000    0.000    0.000    0.000 
#
# Total GULP energy -83593.262797 kJ/mol
# GULP energy per Si atom -5572.884186 kJ/mol
# Density = 2.666388 g / cm^3
# Si number density = 26.724709 Si / 1000 Ang^3
#
#
#
# Elastic Constant Matrix: (Units=GPa)
#
#
# Indices 1 2 3 4 5 6 
#
# 1 72.0487 11.8425 36.5259 -6.7420 9.6079 -15.2842
# 2 11.8425 161.1577 38.5399 -30.0704 0.5709 -20.6538
# 3 36.5259 38.5399 108.8609 5.7915 -35.1418 -11.6990
# 4 -6.7420 -30.0704 5.7915 50.8516 -9.2793 0.2087
# 5 9.6079 0.5709 -35.1418 -9.2793 53.0696 -1.8513
# 6 -15.2842 -20.6538 -11.6990 0.2087 -1.8513 42.7192
#
#
#
# Elastic Compliance Matrix: (Units=1/GPa)
#
#
# Indices 1 2 3 4 5 6 
#
# 1 0.022236 0.002561 -0.011450 0.003777 -0.010780 0.005573
# 2 0.002561 0.008630 -0.004628 0.005493 -0.002532 0.003685
# 3 -0.011450 -0.004628 0.019454 -0.003856 0.014318 -0.000367
# 4 0.003777 0.005493 -0.003856 0.024024 0.001005 0.002877
# 5 -0.010780 -0.002532 0.014318 0.001005 0.030484 0.000156
# 6 0.005573 0.003685 -0.000367 0.002877 0.000156 0.027076
#
#
# Mechanical properties :
#
#
# Convention : Reuss Voigt Hill
#
# Bulk Modulus (GPa) = 42.94352 57.32043 50.13197
# Shear Modulus (GPa) = 29.99396 46.33868 38.16632
#
# Velocity S-wave (km/s) = 3.35375 4.16856 3.78316
# Velocity P-wave (km/s) = 5.57679 6.68313 6.15487
#
# Compressibility (1/GPa) = 0.02328640
#
# Stress axis : x y z
#
# Youngs Moduli (GPa) = 44.97151 115.87818 51.40358
#
# Poissons Ratio (x) = -0.29679 0.58856
# Poissons Ratio (y) = -0.11518 0.23791
# Poissons Ratio (z) = 0.51491 0.53631
#
# Static dielectric constant tensor:
#      x y z
#    x 2.150190 0.085330 0.037110 
#    y 0.085330 2.359790 -0.030000 
#    z 0.037110 -0.030000 2.124230 
# 
# From -- ./inp_files/523232.got.cif
#   From: 2010.05.17/outbox.cif.g08.bks.cpg/sg2_262_cif.got.tgz:523232.got - 2010.06.03 11:33:40.
