data_PCOD9109524
_publ_section_title
;
Structure prediction by ZEFSAII (Michael W. Deem and Ramdas Pophale) SiO2 
 PCOD9109524
Probable space group: P -1
;
_chemical_formula_sum "Si O2"
_cell_formula_units_Z 12
_cell_length_a 9.386136
_cell_length_b 7.436103
_cell_length_c 15.599226
_cell_angle_alpha 34.066115
_cell_angle_beta 63.679969
_cell_angle_gamma 74.653890
_cell_volume 535.101734
_symmetry_space_group_name_H-M "P -1"
_symmetry_group_IT_number 2
_symmetry_cell_setting 'triclinic'
loop_
_space_group_symop_operation_xyz
x,y,z
-x,-y,-z
loop_
_atom_site_type_symbol
_atom_site_label
_atom_site_fract_x
_atom_site_fract_y
_atom_site_fract_z
Si Si1 0.058471 0.845507 0.803534
Si Si2 0.469082 0.837661 0.332458
Si Si3 0.901586 0.215778 0.576908
Si Si4 0.010800 0.350326 0.765997
Si Si5 0.723190 0.865663 0.106096
Si Si6 0.414423 0.785020 0.686620
O O1 0.242083 0.884761 0.709026
O O2 0.947905 0.895353 0.732311
O O3 0.046735 0.100726 0.781311
O O4 0.000000 0.500000 0.000000
O O5 0.500000 0.500000 0.500000
O O6 0.287969 0.785324 0.365599
O O7 0.603562 0.932796 0.185804
O O8 0.486643 0.107266 0.296046
O O9 0.000000 0.500000 0.500000
O O10 0.958153 0.310942 0.427496
O O11 0.142786 0.324786 0.813699
O O12 0.830475 0.194407 0.907823
O O13 0.621310 0.601107 0.172720
O O14 0.500000 0.000000 0.500000
#
# Coordination Sequence:
#
# PCOD9109524 Si02
#       6
#     2   2   2   2   2   2
#     4  11  22  43  68  96 135 175 222 281 329 395
#     4  12  21  42  67  98 137 176 219 279 334 392
#     4  10  22  41  70  96 130 180 223 270 338 396
#     4  10  20  41  65  99 131 176 224 265 332 399
#     4  11  22  37  71  98 132 178 222 266 336 397
#     4  12  23  38  68  99 129 178 224 269 336 397
#
# _framework density 22.425640000000001
#
# number of rings (size 3 to 8) (size 9 to 14) (size 15 to 20)
#    0.000    1.000    6.667    1.000    0.000    0.000 
#    0.000    9.167    0.000    0.000    0.000    0.000 
#    0.000    0.000    0.000    0.000    0.000    0.000 
#
# Total GULP energy -67149.819878 kJ/mol
# GULP energy per Si atom -5595.818323 kJ/mol
# Density = 2.237460 g / cm^3
# Si number density = 22.425640 Si / 1000 Ang^3
#
#
#
# Elastic Constant Matrix: (Units=GPa)
#
#
# Indices 1 2 3 4 5 6 
#
# 1 116.4013 11.6479 42.0876 10.2630 -16.4675 -8.7341
# 2 11.6479 85.0111 35.4902 21.3045 -22.1274 10.6861
# 3 42.0876 35.4902 137.2943 33.6779 -9.3580 -29.0978
# 4 10.2630 21.3045 33.6779 44.4367 -13.6528 -14.8480
# 5 -16.4675 -22.1274 -9.3580 -13.6528 42.7273 -0.1014
# 6 -8.7341 10.6861 -29.0978 -14.8480 -0.1014 33.0645
#
#
#
# Elastic Compliance Matrix: (Units=1/GPa)
#
#
# Indices 1 2 3 4 5 6 
#
# 1 0.010169 0.000745 -0.003283 0.000985 0.003900 0.000010
# 2 0.000745 0.019923 -0.006179 -0.008122 0.006620 -0.015307
# 3 -0.003283 -0.006179 0.012802 -0.003119 -0.002632 0.010987
# 4 0.000985 -0.008122 -0.003119 0.036200 0.007097 0.016418
# 5 0.003900 0.006620 -0.002632 0.007097 0.030027 -0.000147
# 6 0.000010 -0.015307 0.010987 0.016418 -0.000147 0.052235
#
#
# Mechanical properties :
#
#
# Convention : Reuss Voigt Hill
#
# Bulk Modulus (GPa) = 39.27941 57.46199 48.37070
# Shear Modulus (GPa) = 26.69825 40.67775 33.68800
#
# Velocity S-wave (km/s) = 3.45414 4.26360 3.88004
# Velocity P-wave (km/s) = 5.78459 7.06518 6.45671
#
# Compressibility (1/GPa) = 0.02545863
#
# Stress axis : x y z
#
# Youngs Moduli (GPa) = 98.33407 50.19231 78.11518
#
# Poissons Ratio (x) = -0.03737 0.25648
# Poissons Ratio (y) = -0.07322 0.48268
# Poissons Ratio (z) = 0.32287 0.31014
#
# Static dielectric constant tensor:
#      x y z
#    x 1.829530 0.024790 0.025440 
#    y 0.024790 1.848860 -0.053220 
#    z 0.025440 -0.053220 1.890960 
# 
# From -- ./inp_files/553980.got.cif
#   From: 2010.05.17/outbox.cif.g08.bks.cpg/sg2_277_cif.got.tgz:553980.got - 2010.06.03 11:33:40.
