data_PCOD9109546
_publ_section_title
;
Structure prediction by ZEFSAII (Michael W. Deem and Ramdas Pophale) SiO2 
 PCOD9109546
Probable space group: P -1
;
_chemical_formula_sum "Si O2"
_cell_formula_units_Z 16
_cell_length_a 9.053889
_cell_length_b 18.194071
_cell_length_c 7.223435
_cell_angle_alpha 109.047639
_cell_angle_beta 88.529295
_cell_angle_gamma 134.969653
_cell_volume 757.434840
_symmetry_space_group_name_H-M "P -1"
_symmetry_group_IT_number 2
_symmetry_cell_setting 'triclinic'
loop_
_space_group_symop_operation_xyz
x,y,z
-x,-y,-z
loop_
_atom_site_type_symbol
_atom_site_label
_atom_site_fract_x
_atom_site_fract_y
_atom_site_fract_z
Si Si1 0.751172 0.921803 0.400788
Si Si2 0.063635 0.647019 0.989681
Si Si3 0.866007 0.731983 0.979707
Si Si4 0.344251 0.992697 0.222144
Si Si5 0.496065 0.591105 0.579655
Si Si6 0.544057 0.675807 0.237342
Si Si7 0.472428 0.100449 0.925770
Si Si8 0.150545 0.508373 0.814270
O O1 0.608477 0.790770 0.340958
O O2 0.724057 0.933380 0.197714
O O3 0.670865 0.963588 0.556918
O O4 0.000000 0.000000 0.500000
O O5 0.046103 0.553066 0.831667
O O6 0.307728 0.770085 0.036043
O O7 0.909673 0.655937 0.924612
O O8 0.018507 0.617039 0.186539
O O9 0.741323 0.707962 0.151909
O O10 0.101498 0.865771 0.075523
O O11 0.707572 0.694781 0.785532
O O12 0.498467 0.977057 0.206855
O O13 0.434353 0.081870 0.129048
O O14 0.500000 0.500000 0.500000
O O15 0.508403 0.629187 0.404593
O O16 0.277538 0.532115 0.647295
O O17 0.337747 0.586571 0.033090
#
# Coordination Sequence:
#
# PCOD9109546 Si02
#       8
#     2   2   2   2   2   2   2   2
#     4  12  24  39  63  94 125 161 206 253 304 364
#     4  10  20  41  66  85 121 166 200 250 315 355
#     4  10  22  41  63  89 125 163 200 253 308 363
#     4  10  23  41  65  90 123 166 206 247 305 365
#     4  11  24  41  64  93 122 161 208 253 302 371
#     4  11  23  41  62  94 125 163 202 253 307 363
#     4  10  23  43  63  89 125 165 204 253 303 362
#     4  10  22  42  64  89 124 160 202 258 308 359
#
# _framework density 21.123930999999999
#
# number of rings (size 3 to 8) (size 9 to 14) (size 15 to 20)
#    0.000    1.500    2.500    1.875    3.500    2.500 
#    0.000   11.875    0.000    0.000    0.000    0.000 
#    0.000    0.000    0.000    0.000    0.000    0.000 
#
# Total GULP energy -89430.949766 kJ/mol
# GULP energy per Si atom -5589.434360 kJ/mol
# Density = 2.107585 g / cm^3
# Si number density = 21.123931 Si / 1000 Ang^3
#
#
#
# Elastic Constant Matrix: (Units=GPa)
#
#
# Indices 1 2 3 4 5 6 
#
# 1 51.4560 4.2444 7.6751 -9.2934 0.0024 9.7588
# 2 4.2444 96.2442 31.5603 -21.8861 14.8283 -1.8006
# 3 7.6751 31.5603 81.2723 -24.4753 3.2275 -0.2163
# 4 -9.2934 -21.8861 -24.4753 24.1716 -6.1304 -2.3469
# 5 0.0024 14.8283 3.2275 -6.1304 29.1225 -1.9742
# 6 9.7588 -1.8006 -0.2163 -2.3469 -1.9742 29.4654
#
#
#
# Elastic Compliance Matrix: (Units=1/GPa)
#
#
# Indices 1 2 3 4 5 6 
#
# 1 0.022215 0.000706 0.000323 0.009152 0.001088 -0.006510
# 2 0.000706 0.014076 -0.002529 0.009323 -0.004855 0.001025
# 3 0.000323 -0.002529 0.018358 0.017325 0.002999 0.001454
# 4 0.009152 0.009323 0.017325 0.073584 0.009102 0.004137
# 5 0.001088 -0.004855 0.002999 0.009102 0.038574 0.002675
# 6 -0.006510 0.001025 0.001454 0.004137 0.002675 0.036676
#
#
# Mechanical properties :
#
#
# Convention : Reuss Voigt Hill
#
# Bulk Modulus (GPa) = 19.36141 35.10356 27.23249
# Shear Modulus (GPa) = 22.35137 28.91808 25.63472
#
# Velocity S-wave (km/s) = 3.25638 3.70398 3.48737
# Velocity P-wave (km/s) = 4.82952 5.91156 5.39772
#
# Compressibility (1/GPa) = 0.05164912
#
# Stress axis : x y z
#
# Youngs Moduli (GPa) = 45.01432 71.04366 54.47182
#
# Poissons Ratio (x) = -0.05015 -0.01762
# Poissons Ratio (y) = -0.03178 0.13778
# Poissons Ratio (z) = -0.01456 0.17970
#
# Static dielectric constant tensor:
#      x y z
#    x 1.764760 0.022010 0.001500 
#    y 0.022010 1.778150 0.018500 
#    z 0.001500 0.018500 1.742870 
# 
# From -- ./inp_files/48300.got.cif
#   From: 2010.05.17/outbox.cif.g08.bks.cpg/sg2_25_cif.got.tgz:48300.got - 2010.06.03 11:33:40.
