data_PCOD9109407
_publ_section_title
;
Structure prediction by ZEFSAII (Michael W. Deem and Ramdas Pophale) SiO2 
 PCOD9109407
Probable space group: P -1
;
_chemical_formula_sum "Si O2"
_cell_formula_units_Z 16
_cell_length_a 22.398787
_cell_length_b 9.019600
_cell_length_c 18.970926
_cell_angle_alpha 50.473127
_cell_angle_beta 161.431654
_cell_angle_gamma 119.399695
_cell_volume 836.994595
_symmetry_space_group_name_H-M "P -1"
_symmetry_group_IT_number 2
_symmetry_cell_setting 'triclinic'
loop_
_space_group_symop_operation_xyz
x,y,z
-x,-y,-z
loop_
_atom_site_type_symbol
_atom_site_label
_atom_site_fract_x
_atom_site_fract_y
_atom_site_fract_z
Si Si1 0.258537 0.049359 0.730999
Si Si2 0.045784 0.753312 0.537517
Si Si3 0.956279 0.470917 0.695941
Si Si4 0.884532 0.716769 0.213785
Si Si5 0.396440 0.797038 0.289813
Si Si6 0.814267 0.244560 0.717634
Si Si7 0.428758 0.249967 0.344821
Si Si8 0.193992 0.553806 0.203422
O O1 0.129625 0.274534 0.478216
O O2 0.159798 0.118415 0.679546
O O3 0.195850 0.865529 0.688907
O O4 0.500000 0.000000 0.000000
O O5 0.155821 0.493494 0.754944
O O6 0.973761 0.765240 0.371695
O O7 0.835154 0.384070 0.636793
O O8 0.959791 0.374994 0.651169
O O9 0.190345 0.376067 0.017636
O O10 0.702846 0.948601 0.913707
O O11 0.515363 0.719929 0.521730
O O12 0.217341 0.714988 0.122638
O O13 0.581376 0.660940 0.483568
O O14 0.578747 0.275800 0.447512
O O15 0.837478 0.333660 0.791356
O O16 0.000000 0.000000 0.000000
O O17 0.500000 0.000000 0.500000
O O18 0.000000 0.500000 0.000000
#
# Coordination Sequence:
#
# PCOD9109407 Si02
#       8
#     2   2   2   2   2   2   2   2
#     4  10  23  44  65  91 124 159 209 262 317 377
#     4   9  22  43  67  89 121 157 209 264 317 367
#     4  11  22  38  62  91 124 164 207 252 309 367
#     4  10  20  41  65  90 120 163 205 261 313 364
#     4  10  21  38  58  87 125 159 205 248 301 364
#     4  11  22  36  57  88 122 163 206 244 296 369
#     4  11  20  37  61  88 127 164 204 248 294 365
#     4  10  22  36  54  82 121 160 197 247 297 358
#
# _framework density 19.116012999999999
#
# number of rings (size 3 to 8) (size 9 to 14) (size 15 to 20)
#    0.000    1.750    2.500    1.500    0.000    8.000 
#    0.000    8.125    0.000    0.000    0.000    0.000 
#    0.000    0.000    0.000    0.000    0.000    0.000 
#
# Total GULP energy -89088.154548 kJ/mol
# GULP energy per Si atom -5568.009659 kJ/mol
# Density = 1.907250 g / cm^3
# Si number density = 19.116013 Si / 1000 Ang^3
#
#
#
# Elastic Constant Matrix: (Units=GPa)
#
#
# Indices 1 2 3 4 5 6 
#
# 1 121.5238 73.5904 49.1346 3.7480 10.6757 8.4453
# 2 73.5904 148.7448 62.0344 -3.7603 14.4140 1.7547
# 3 49.1346 62.0344 92.7725 -1.6851 6.4296 10.5159
# 4 3.7480 -3.7603 -1.6851 38.3537 6.4217 5.1976
# 5 10.6757 14.4140 6.4296 6.4217 23.9687 -1.7053
# 6 8.4453 1.7547 10.5159 5.1976 -1.7053 32.2139
#
#
#
# Elastic Compliance Matrix: (Units=1/GPa)
#
#
# Indices 1 2 3 4 5 6 
#
# 1 0.012778 -0.004818 -0.003235 -0.001318 -0.001709 -0.001909
# 2 -0.004818 0.011646 -0.005145 0.001781 -0.003826 0.001818
# 3 -0.003235 -0.005145 0.016501 0.001235 -0.000542 -0.004486
# 4 -0.001318 0.001781 0.001235 0.028624 -0.008857 -0.005242
# 5 -0.001709 -0.003826 -0.000542 -0.008857 0.047641 0.004784
# 6 -0.001909 0.001818 -0.004486 -0.005242 0.004784 0.034007
#
#
# Mechanical properties :
#
#
# Convention : Reuss Voigt Hill
#
# Bulk Modulus (GPa) = 68.82166 81.39553 75.10859
# Shear Modulus (GPa) = 27.40685 30.79273 29.09979
#
# Velocity S-wave (km/s) = 3.79055 4.01787 3.90586
# Velocity P-wave (km/s) = 7.43222 8.01228 7.72769
#
# Compressibility (1/GPa) = 0.01453031
#
# Stress axis : x y z
#
# Youngs Moduli (GPa) = 78.26119 85.86415 60.60249
#
# Poissons Ratio (x) = 0.41367 0.19605
# Poissons Ratio (y) = 0.37704 0.31178
# Poissons Ratio (z) = 0.25318 0.44174
#
# Static dielectric constant tensor:
#      x y z
#    x 1.601040 -0.028410 -0.002780 
#    y -0.028410 1.753610 0.042030 
#    z -0.002780 0.042030 1.657130 
# 
# From -- ./inp_files/577258.got.cif
#   From: 2010.05.17/outbox.cif.g08.bks.cpg/sg2_289_cif.got.tgz:577258.got - 2010.06.03 11:33:40.
