data_PCOD9109912
_publ_section_title
;
Structure prediction by ZEFSAII (Michael W. Deem and Ramdas Pophale) SiO2 
 PCOD9109912
Probable space group: P -1
;
_chemical_formula_sum "Si O2"
_cell_formula_units_Z 14
_cell_length_a 11.336010
_cell_length_b 21.520395
_cell_length_c 15.026311
_cell_angle_alpha 151.667440
_cell_angle_beta 146.343118
_cell_angle_gamma 21.470369
_cell_volume 634.919885
_symmetry_space_group_name_H-M "P -1"
_symmetry_group_IT_number 2
_symmetry_cell_setting 'triclinic'
loop_
_space_group_symop_operation_xyz
x,y,z
-x,-y,-z
loop_
_atom_site_type_symbol
_atom_site_label
_atom_site_fract_x
_atom_site_fract_y
_atom_site_fract_z
Si Si1 0.212991 0.805409 0.948868
Si Si2 0.648559 0.598236 0.795259
Si Si3 0.762025 0.504073 0.024234
Si Si4 0.958222 0.547715 0.680091
Si Si5 0.003302 0.138008 0.628708
Si Si6 0.667870 0.293185 0.430566
Si Si7 0.274934 0.196790 0.311409
O O1 0.505419 0.646704 0.863399
O O2 0.988563 0.787738 0.808600
O O3 0.422880 0.733207 0.078800
O O4 0.000000 0.000000 0.000000
O O5 0.749977 0.402722 0.589870
O O6 0.368127 0.768316 0.762523
O O7 0.949191 0.553092 0.916685
O O8 0.861756 0.466960 0.143367
O O9 0.770064 0.351628 0.799617
O O10 0.687444 0.573332 0.581961
O O11 0.775571 0.732258 0.732116
O O12 0.205723 0.352984 0.528499
O O13 0.907652 0.157050 0.490502
O O14 0.367810 0.020997 0.720757
O O15 0.000000 0.000000 0.500000
#
# Coordination Sequence:
#
# PCOD9109912 Si02
#       7
#     2   2   2   2   2   2   2
#     4  12  25  42  63  98 131 168 213 270 325 375
#     4  10  21  41  67  90 127 171 214 256 315 382
#     4  11  25  43  68  94 130 172 220 265 314 386
#     4  10  22  45  67  95 129 172 213 268 326 373
#     4  12  24  43  68  97 128 171 218 264 322 386
#     4  10  20  41  68  91 123 172 214 257 314 386
#     4  11  24  42  67  94 134 170 210 269 326 380
#
# _framework density 22.050025999999999
#
# number of rings (size 3 to 8) (size 9 to 14) (size 15 to 20)
#    0.000    1.143    4.286    1.286    4.000    2.286 
#    2.571    1.429    0.000    0.000    0.000    0.000 
#    0.000    0.000    0.000    0.000    0.000    0.000 
#
# Total GULP energy -78115.802247 kJ/mol
# GULP energy per Si atom -5579.700160 kJ/mol
# Density = 2.199984 g / cm^3
# Si number density = 22.050026 Si / 1000 Ang^3
#
#
#
# Elastic Constant Matrix: (Units=GPa)
#
#
# Indices 1 2 3 4 5 6 
#
# 1 94.6284 25.8047 32.3854 -16.6382 0.6047 29.0756
# 2 25.8047 134.2709 39.2125 -31.7754 -8.9075 31.5963
# 3 32.3854 39.2125 70.3532 -21.9353 7.9046 19.3915
# 4 -16.6382 -31.7754 -21.9353 34.5789 11.0515 -5.5801
# 5 0.6047 -8.9075 7.9046 11.0515 31.3773 -4.3404
# 6 29.0756 31.5963 19.3915 -5.5801 -4.3404 37.6006
#
#
#
# Elastic Compliance Matrix: (Units=1/GPa)
#
#
# Indices 1 2 3 4 5 6 
#
# 1 0.015784 0.001907 -0.002601 0.006792 -0.003135 -0.011820
# 2 0.001907 0.012024 -0.002020 0.009424 -0.000709 -0.009220
# 3 -0.002601 -0.002020 0.025479 0.016071 -0.013798 -0.008639
# 4 0.006792 0.009424 0.016071 0.055964 -0.023409 -0.015855
# 5 -0.003135 -0.000709 -0.013798 -0.023409 0.045092 0.011867
# 6 -0.011820 -0.009220 -0.008639 -0.015855 0.011867 0.046955
#
#
# Mechanical properties :
#
#
# Convention : Reuss Voigt Hill
#
# Bulk Modulus (GPa) = 20.89489 54.89530 37.89510
# Shear Modulus (GPa) = 22.45377 34.16802 28.31089
#
# Velocity S-wave (km/s) = 3.19456 3.94073 3.58710
# Velocity P-wave (km/s) = 4.80663 6.75689 5.86341
#
# Compressibility (1/GPa) = 0.04785858
#
# Stress axis : x y z
#
# Youngs Moduli (GPa) = 63.35597 83.16814 39.24733
#
# Poissons Ratio (x) = -0.15860 0.10207
# Poissons Ratio (y) = -0.12082 0.07930
# Poissons Ratio (z) = 0.16477 0.16804
#
# Static dielectric constant tensor:
#      x y z
#    x 1.806710 0.021850 -0.046040 
#    y 0.021850 1.883200 -0.012380 
#    z -0.046040 -0.012380 1.836620 
# 
# From -- ./inp_files/182290.got.cif
#   From: 2010.05.17/outbox.cif.g08.bks.cpg/sg2_92_cif.got.tgz:182290.got - 2010.06.03 11:33:40.
