data_PCOD9109204
_publ_section_title
;
Structure prediction by ZEFSAII (Michael W. Deem and Ramdas Pophale) SiO2 
 PCOD9109204
Probable space group: P -1
;
_chemical_formula_sum "Si O2"
_cell_formula_units_Z 15
_cell_length_a 14.307660
_cell_length_b 8.453133
_cell_length_c 8.160083
_cell_angle_alpha 85.089766
_cell_angle_beta 134.040485
_cell_angle_gamma 68.533727
_cell_volume 568.609037
_symmetry_space_group_name_H-M "P -1"
_symmetry_group_IT_number 2
_symmetry_cell_setting 'triclinic'
loop_
_space_group_symop_operation_xyz
x,y,z
-x,-y,-z
loop_
_atom_site_type_symbol
_atom_site_label
_atom_site_fract_x
_atom_site_fract_y
_atom_site_fract_z
Si Si1 0.865726 0.235280 0.824118
Si Si2 0.546622 0.143105 0.842976
Si Si3 0.854778 0.504600 0.569900
Si Si4 0.398161 0.269392 0.000063
Si Si5 0.170136 0.161911 0.315118
Si Si6 0.000000 0.500000 0.500000
Si Si7 0.117852 0.057695 0.597307
Si Si8 0.418538 0.775064 0.464777
O O1 0.821026 0.350731 0.588688
O O2 0.702108 0.287264 0.695612
O O3 0.979474 0.291949 0.029806
O O4 0.000000 0.000000 0.000000
O O5 0.492142 0.244988 0.591433
O O6 0.553041 0.947174 0.884017
O O7 0.465891 0.263821 0.902480
O O8 0.731335 0.064951 0.087989
O O9 0.787579 0.692757 0.584478
O O10 0.036747 0.407963 0.752709
O O11 0.792108 0.591060 0.295895
O O12 0.460924 0.325035 0.223535
O O13 0.188844 0.023046 0.501561
O O14 0.291781 0.007747 0.340378
O O15 0.965589 0.713050 0.506819
O O16 0.000000 0.000000 0.500000
#
# Coordination Sequence:
#
# PCOD9109204 Si02
#       8
#     2   2   2   2   2   1   2   2
#     4  10  24  39  63  97 133 176 230 286 352 419
#     4  11  22  42  68 101 135 182 235 282 348 430
#     4  11  23  42  66  96 140 182 225 298 348 417
#     4  11  22  43  67 100 139 180 234 281 352 427
#     4  10  20  41  63  98 136 176 229 284 347 410
#     4  10  24  38  62 104 134 178 246 280 354 422
#     4  11  22  40  69 100 142 185 231 295 357 417
#     4  11  23  40  68 101 132 181 232 279 348 424
#
# _framework density 26.380164000000001
#
# number of rings (size 3 to 8) (size 9 to 14) (size 15 to 20)
#    0.000    1.333    4.000    2.400    7.467    0.533 
#    0.000    3.333    0.000    0.000    0.000    0.000 
#    0.000    0.000    0.000    0.000    0.000    0.000 
#
# Total GULP energy -83710.693177 kJ/mol
# GULP energy per Si atom -5580.712878 kJ/mol
# Density = 2.632012 g / cm^3
# Si number density = 26.380164 Si / 1000 Ang^3
#
#
#
# Elastic Constant Matrix: (Units=GPa)
#
#
# Indices 1 2 3 4 5 6 
#
# 1 205.6099 60.6322 37.8590 2.9753 -20.4575 9.4714
# 2 60.6322 75.2991 37.5081 -5.1023 -6.9817 3.0527
# 3 37.8590 37.5081 122.7247 11.1788 2.2339 6.3368
# 4 2.9753 -5.1023 11.1788 39.0557 6.7447 -3.8561
# 5 -20.4575 -6.9817 2.2339 6.7447 45.1689 -1.1280
# 6 9.4714 3.0527 6.3368 -3.8561 -1.1280 41.4041
#
#
#
# Elastic Compliance Matrix: (Units=1/GPa)
#
#
# Indices 1 2 3 4 5 6 
#
# 1 0.006760 -0.005091 -0.000365 -0.001627 0.002506 -0.001198
# 2 -0.005091 0.020213 -0.005070 0.004494 0.000420 0.000880
# 3 -0.000365 -0.005070 0.010226 -0.003540 -0.000963 -0.001464
# 4 -0.001627 0.004494 -0.003540 0.028330 -0.004020 0.003111
# 5 0.002506 0.000420 -0.000963 -0.004020 0.023982 -0.000178
# 6 -0.001198 0.000880 -0.001464 0.003111 -0.000178 0.024870
#
#
# Mechanical properties :
#
#
# Convention : Reuss Voigt Hill
#
# Bulk Modulus (GPa) = 61.92811 75.07025 68.49918
# Shear Modulus (GPa) = 35.50765 42.96802 39.23784
#
# Velocity S-wave (km/s) = 3.67276 4.04022 3.86087
# Velocity P-wave (km/s) = 6.44297 7.09108 6.77478
#
# Compressibility (1/GPa) = 0.01614776
#
# Stress axis : x y z
#
# Youngs Moduli (GPa) = 147.92699 49.47409 97.79136
#
# Poissons Ratio (x) = 0.25186 0.03570
# Poissons Ratio (y) = 0.75307 0.49576
# Poissons Ratio (z) = 0.05400 0.25081
#
# Static dielectric constant tensor:
#      x y z
#    x 2.236590 -0.097940 -0.014750 
#    y -0.097940 2.069890 -0.008060 
#    z -0.014750 -0.008060 2.434290 
# 
# From -- ./inp_files/295320.got.cif
#   From: 2010.05.17/outbox.cif.g08.bks.cpg/sg2_148_cif.got.tgz:295320.got - 2010.06.03 11:33:40.
