data_PCOD9109627
_publ_section_title
;
Structure prediction by ZEFSAII (Michael W. Deem and Ramdas Pophale) SiO2 
 PCOD9109627
Probable space group: P -1
;
_chemical_formula_sum "Si O2"
_cell_formula_units_Z 16
_cell_length_a 18.618856
_cell_length_b 5.930236
_cell_length_c 8.600383
_cell_angle_alpha 100.252322
_cell_angle_beta 47.677733
_cell_angle_gamma 102.535300
_cell_volume 684.704401
_symmetry_space_group_name_H-M "P -1"
_symmetry_group_IT_number 2
_symmetry_cell_setting 'triclinic'
loop_
_space_group_symop_operation_xyz
x,y,z
-x,-y,-z
loop_
_atom_site_type_symbol
_atom_site_label
_atom_site_fract_x
_atom_site_fract_y
_atom_site_fract_z
Si Si1 0.973923 0.304132 0.888287
Si Si2 0.356331 0.037061 0.327901
Si Si3 0.816157 0.536178 0.964467
Si Si4 0.050085 0.273101 0.467421
Si Si5 0.341686 0.832254 0.773416
Si Si6 0.195785 0.036775 0.786901
Si Si7 0.549034 0.832512 0.099884
Si Si8 0.451419 0.497060 0.403170
O O1 0.894224 0.374546 0.890210
O O2 0.063696 0.294168 0.637002
O O3 0.000000 0.500000 0.000000
O O4 0.914354 0.086079 0.036175
O O5 0.247793 0.961249 0.544973
O O6 0.393740 0.255507 0.410078
O O7 0.442965 0.876208 0.193205
O O8 0.367107 0.124824 0.146315
O O9 0.856075 0.692477 0.779504
O O10 0.716775 0.367679 0.059923
O O11 0.805508 0.693113 0.151003
O O12 0.000000 0.500000 0.500000
O O13 0.000000 0.000000 0.500000
O O14 0.384833 0.699090 0.551876
O O15 0.265480 0.974851 0.818554
O O16 0.419370 0.993221 0.782190
O O17 0.531047 0.577841 0.166190
O O18 0.500000 0.500000 0.500000
#
# Coordination Sequence:
#
# PCOD9109627 Si02
#       8
#     2   2   2   2   2   2   2   2
#     4  10  23  41  65  95 124 160 207 263 327 396
#     4  11  23  39  60  85 129 160 201 262 312 368
#     4  10  22  39  65  91 121 163 210 258 316 383
#     4  10  20  41  66  93 126 166 211 264 321 394
#     4  11  22  37  61  88 118 159 218 254 301 377
#     4  11  21  40  63  88 121 162 208 259 316 384
#     4  11  24  39  56  91 122 166 207 257 312 362
#     4  12  21  37  62  87 116 169 216 250 304 377
#
# _framework density 23.367744999999999
#
# number of rings (size 3 to 8) (size 9 to 14) (size 15 to 20)
#    0.000    1.250    5.000    1.500    0.000    1.500 
#    0.000    1.250    0.000    0.000    0.000    0.000 
#    0.000    0.000    0.000    0.000    0.000    0.000 
#
# Total GULP energy -89183.269053 kJ/mol
# GULP energy per Si atom -5573.954316 kJ/mol
# Density = 2.331456 g / cm^3
# Si number density = 23.367745 Si / 1000 Ang^3
#
#
#
# Elastic Constant Matrix: (Units=GPa)
#
#
# Indices 1 2 3 4 5 6 
#
# 1 28.4673 2.2973 2.9106 -6.2678 0.9250 -4.9008
# 2 2.2973 72.6726 11.4052 -16.0967 -2.2193 7.5302
# 3 2.9106 11.4052 163.0318 -29.6730 16.4538 -5.5893
# 4 -6.2678 -16.0967 -29.6730 50.8876 2.0327 0.0143
# 5 0.9250 -2.2193 16.4538 2.0327 24.3524 6.2233
# 6 -4.9008 7.5302 -5.5893 0.0143 6.2233 26.7543
#
#
#
# Elastic Compliance Matrix: (Units=1/GPa)
#
#
# Indices 1 2 3 4 5 6 
#
# 1 0.037904 -0.001298 0.001148 0.005125 -0.004986 0.008706
# 2 -0.001298 0.015510 -0.000802 0.004158 0.003059 -0.005484
# 3 0.001148 -0.000802 0.007833 0.004723 -0.006733 0.003636
# 4 0.005125 0.004158 0.004723 0.024574 -0.005580 0.002040
# 5 -0.004986 0.003059 -0.006733 -0.005580 0.050352 -0.014890
# 6 0.008706 -0.005484 0.003636 0.002040 -0.014890 0.044738
#
#
# Mechanical properties :
#
#
# Convention : Reuss Voigt Hill
#
# Bulk Modulus (GPa) = 16.85051 33.04421 24.94736
# Shear Modulus (GPa) = 24.67979 36.90276 30.79128
#
# Velocity S-wave (km/s) = 3.25337 3.97825 3.63393
# Velocity P-wave (km/s) = 4.61944 5.93916 5.32038
#
# Compressibility (1/GPa) = 0.05934540
#
# Stress axis : x y z
#
# Youngs Moduli (GPa) = 26.38218 64.47494 127.66182
#
# Poissons Ratio (x) = 0.08367 -0.14662
# Poissons Ratio (y) = 0.03424 0.10236
# Poissons Ratio (z) = -0.03030 0.05170
#
# Static dielectric constant tensor:
#      x y z
#    x 1.920680 -0.096620 -0.060030 
#    y -0.096620 1.940530 0.003490 
#    z -0.060030 0.003490 2.043530 
# 
# From -- ./inp_files/37914.got.cif
#   From: 2010.05.17/outbox.cif.g08.bks.cpg/sg2_19_cif.got.tgz:37914.got - 2010.06.03 11:33:40.
