data_PCOD9109696
_publ_section_title
;
Structure prediction by ZEFSAII (Michael W. Deem and Ramdas Pophale) SiO2 
 PCOD9109696
Probable space group: P -1
;
_chemical_formula_sum "Si O2"
_cell_formula_units_Z 16
_cell_length_a 5.955717
_cell_length_b 9.046543
_cell_length_c 13.917732
_cell_angle_alpha 92.313356
_cell_angle_beta 67.644010
_cell_angle_gamma 114.019415
_cell_volume 627.613217
_symmetry_space_group_name_H-M "P -1"
_symmetry_group_IT_number 2
_symmetry_cell_setting 'triclinic'
loop_
_space_group_symop_operation_xyz
x,y,z
-x,-y,-z
loop_
_atom_site_type_symbol
_atom_site_label
_atom_site_fract_x
_atom_site_fract_y
_atom_site_fract_z
Si Si1 0.889725 0.242707 0.281811
Si Si2 0.348898 0.241869 0.445308
Si Si3 0.769519 0.493516 0.611010
Si Si4 0.987788 0.978222 0.348887
Si Si5 0.707574 0.228375 0.756376
Si Si6 0.691572 0.918391 0.010892
Si Si7 0.064484 0.483134 0.848469
Si Si8 0.570057 0.385881 0.054446
O O1 0.607858 0.217788 0.372911
O O2 0.923104 0.341057 0.179477
O O3 0.103844 0.379897 0.318655
O O4 0.901578 0.068860 0.281979
O O5 0.396494 0.425757 0.417626
O O6 0.248824 0.175785 0.566135
O O7 0.109426 0.120050 0.413123
O O8 0.653795 0.317027 0.675495
O O9 0.000000 0.500000 0.500000
O O10 0.216510 0.920159 0.282947
O O11 0.470010 0.175524 0.870428
O O12 0.972432 0.363365 0.770422
O O13 0.659866 0.791717 0.926566
O O14 0.500000 0.000000 0.000000
O O15 0.000000 0.000000 0.000000
O O16 0.350028 0.533349 0.852841
O O17 0.839984 0.387929 0.962745
O O18 0.500000 0.500000 0.000000
#
# Coordination Sequence:
#
# PCOD9109696 Si02
#       8
#     2   2   2   2   2   2   2   2
#     4  10  22  38  64  98 137 186 243 291 366 446
#     4  10  21  39  64  94 141 187 242 293 366 440
#     4  10  20  41  66  97 138 185 245 305 358 437
#     4  10  21  41  63  96 145 189 232 301 365 448
#     4  10  22  46  70 107 143 194 254 307 377 446
#     4  11  28  51  76 114 156 196 250 319 390 457
#     4   9  22  42  65 104 135 180 252 301 367 445
#     4  10  23  45  78  95 140 191 241 311 379 448
#
# _framework density 25.493407000000001
#
# number of rings (size 3 to 8) (size 9 to 14) (size 15 to 20)
#    0.000    2.000    1.250    0.375    5.250    6.500 
#    4.500    0.000    0.000    0.000    0.000    0.000 
#    0.000    0.000    0.000    0.000    0.000    0.000 
#
# Total GULP energy -89422.584932 kJ/mol
# GULP energy per Si atom -5588.911558 kJ/mol
# Density = 2.543538 g / cm^3
# Si number density = 25.493407 Si / 1000 Ang^3
#
#
#
# Elastic Constant Matrix: (Units=GPa)
#
#
# Indices 1 2 3 4 5 6 
#
# 1 131.2105 63.1178 51.3093 -15.8963 11.0245 1.2149
# 2 63.1178 97.0931 26.7450 -16.0115 23.6417 -18.9375
# 3 51.3093 26.7450 123.0345 -36.2630 -5.0575 1.9110
# 4 -15.8963 -16.0115 -36.2630 37.0945 5.2234 11.8373
# 5 11.0245 23.6417 -5.0575 5.2234 54.2264 1.1849
# 6 1.2149 -18.9375 1.9110 11.8373 1.1849 50.0691
#
#
#
# Elastic Compliance Matrix: (Units=1/GPa)
#
#
# Indices 1 2 3 4 5 6 
#
# 1 0.012962 -0.008336 -0.003754 -0.000820 0.000797 -0.003149
# 2 -0.008336 0.019455 -0.000118 0.003534 -0.007289 0.006902
# 3 -0.003754 -0.000118 0.013495 0.012500 0.000945 -0.003446
# 4 -0.000820 0.003534 0.012500 0.043952 -0.004236 -0.009411
# 5 0.000797 -0.007289 0.000945 -0.004236 0.022004 -0.002332
# 6 -0.003149 0.006902 -0.003446 -0.009411 -0.002332 0.025071
#
#
# Mechanical properties :
#
#
# Convention : Reuss Voigt Hill
#
# Bulk Modulus (GPa) = 46.51751 70.40916 58.46334
# Shear Modulus (GPa) = 29.67014 42.28906 35.97960
#
# Velocity S-wave (km/s) = 3.41520 4.07728 3.76084
# Velocity P-wave (km/s) = 5.81704 7.06004 6.46847
#
# Compressibility (1/GPa) = 0.02149728
#
# Stress axis : x y z
#
# Youngs Moduli (GPa) = 77.14979 51.40176 74.09882
#
# Poissons Ratio (x) = 0.42847 0.27814
# Poissons Ratio (y) = 0.64309 0.00875
# Poissons Ratio (z) = 0.28959 0.00607
#
# Static dielectric constant tensor:
#      x y z
#    x 2.050750 0.008920 0.002080 
#    y 0.008920 2.061360 0.038700 
#    z 0.002080 0.038700 2.063190 
# 
# From -- ./inp_files/480420.got.cif
#   From: 2010.05.17/outbox.cif.g08.bks.cpg/sg2_241_cif.got.tgz:480420.got - 2010.06.03 11:33:40.
