data_PCOD9109157
_publ_section_title
;
Structure prediction by ZEFSAII (Michael W. Deem and Ramdas Pophale) SiO2 
 PCOD9109157
Probable space group: P -1
;
_chemical_formula_sum "Si O2"
_cell_formula_units_Z 16
_cell_length_a 8.920925
_cell_length_b 12.731803
_cell_length_c 13.860816
_cell_angle_alpha 53.828357
_cell_angle_beta 44.055455
_cell_angle_gamma 47.425600
_cell_volume 789.335883
_symmetry_space_group_name_H-M "P -1"
_symmetry_group_IT_number 2
_symmetry_cell_setting 'triclinic'
loop_
_space_group_symop_operation_xyz
x,y,z
-x,-y,-z
loop_
_atom_site_type_symbol
_atom_site_label
_atom_site_fract_x
_atom_site_fract_y
_atom_site_fract_z
Si Si1 0.909704 0.859201 0.845445
Si Si2 0.576786 0.746353 0.989213
Si Si3 0.967590 0.059434 0.874359
Si Si4 0.302416 0.536087 0.805660
Si Si5 0.556727 0.916475 0.417492
Si Si6 0.243246 0.424635 0.487639
Si Si7 0.173838 0.135006 0.330828
Si Si8 0.217626 0.556699 0.619755
O O1 0.894492 0.917989 0.709919
O O2 0.134344 0.699621 0.827864
O O3 0.946848 0.951404 0.862256
O O4 0.671105 0.831666 0.974940
O O5 0.292799 0.803265 0.087198
O O6 0.693589 0.580642 0.057387
O O7 0.668569 0.784585 0.825962
O O8 0.194774 0.087677 0.731975
O O9 0.000000 0.000000 0.000000
O O10 0.569305 0.516767 0.667995
O O11 0.196027 0.519672 0.760392
O O12 0.610874 0.749433 0.493667
O O13 0.500000 0.000000 0.500000
O O14 0.339034 0.008085 0.394761
O O15 0.155271 0.471732 0.612470
O O16 0.000000 0.500000 0.500000
O O17 0.937667 0.268142 0.412551
O O18 0.500000 0.500000 0.500000
#
# Coordination Sequence:
#
# PCOD9109157 Si02
#       8
#     2   2   2   2   2   2   2   2
#     4   9  21  38  64  92 126 162 212 265 315 379
#     4  10  21  39  66  92 126 159 210 265 318 376
#     4  12  23  42  61  95 131 167 213 259 317 379
#     4  10  20  41  63  92 120 165 211 260 322 373
#     4  12  25  43  67  91 135 175 209 265 317 382
#     4  11  23  40  61  92 128 169 213 257 317 383
#     4   9  21  41  63  95 126 164 214 264 326 373
#     4   9  20  38  63  89 124 163 212 266 311 382
#
# _framework density 20.270204
#
# number of rings (size 3 to 8) (size 9 to 14) (size 15 to 20)
#    0.750    1.000    1.250    3.000    0.000    3.000 
#    0.000   10.625    0.000    0.000    0.000    0.000 
#    0.000    0.000    0.000    0.000    0.000    0.000 
#
# Total GULP energy -89242.024223 kJ/mol
# GULP energy per Si atom -5577.626514 kJ/mol
# Density = 2.022407 g / cm^3
# Si number density = 20.270204 Si / 1000 Ang^3
#
#
#
# Elastic Constant Matrix: (Units=GPa)
#
#
# Indices 1 2 3 4 5 6 
#
# 1 119.7786 63.1610 22.6360 -1.3555 14.5127 -14.7406
# 2 63.1610 99.8574 25.0959 1.1888 24.7122 -20.0310
# 3 22.6360 25.0959 73.9391 -0.6535 -6.5094 -7.2217
# 4 -1.3555 1.1888 -0.6535 31.0967 -5.5516 -0.1284
# 5 14.5127 24.7122 -6.5094 -5.5516 36.9755 5.9714
# 6 -14.7406 -20.0310 -7.2217 -0.1284 5.9714 39.7981
#
#
#
# Elastic Compliance Matrix: (Units=1/GPa)
#
#
# Indices 1 2 3 4 5 6 
#
# 1 0.012671 -0.007525 -0.001263 0.000788 -0.000161 0.000703
# 2 -0.007525 0.021658 -0.005455 -0.003831 -0.014558 0.009296
# 3 -0.001263 -0.005455 0.016306 0.001831 0.007509 -0.001375
# 4 0.000788 -0.003831 0.001831 0.033802 0.008037 -0.002401
# 5 -0.000161 -0.014558 0.007509 0.008037 0.041337 -0.012201
# 6 0.000703 0.009296 -0.001375 -0.002401 -0.012201 0.031639
#
#
# Mechanical properties :
#
#
# Convention : Reuss Voigt Hill
#
# Bulk Modulus (GPa) = 45.15188 57.26232 51.20710
# Shear Modulus (GPa) = 25.86891 33.75286 29.81089
#
# Velocity S-wave (km/s) = 3.57628 4.08505 3.83910
# Velocity P-wave (km/s) = 6.27506 7.11062 6.70587
#
# Compressibility (1/GPa) = 0.02214747
#
# Stress axis : x y z
#
# Youngs Moduli (GPa) = 78.92250 46.17230 61.32775
#
# Poissons Ratio (x) = 0.34746 0.07749
# Poissons Ratio (y) = 0.59391 0.33453
# Poissons Ratio (z) = 0.09972 0.25186
#
# Static dielectric constant tensor:
#      x y z
#    x 1.541460 -0.009450 -0.084240 
#    y -0.009450 1.703750 0.016650 
#    z -0.084240 0.016650 1.735720 
# 
# From -- ./inp_files/498925.got.cif
#   From: 2010.05.17/outbox.cif.g08.bks.cpg/sg2_250_cif.got.tgz:498925.got - 2010.06.03 11:33:40.
