data_PCOD9109674
_publ_section_title
;
Structure prediction by ZEFSAII (Michael W. Deem and Ramdas Pophale) SiO2 
 PCOD9109674
Probable space group: P -1
;
_chemical_formula_sum "Si O2"
_cell_formula_units_Z 16
_cell_length_a 14.489978
_cell_length_b 13.581992
_cell_length_c 8.172142
_cell_angle_alpha 74.387220
_cell_angle_beta 138.238011
_cell_angle_gamma 133.423557
_cell_volume 672.150002
_symmetry_space_group_name_H-M "P -1"
_symmetry_group_IT_number 2
_symmetry_cell_setting 'triclinic'
loop_
_space_group_symop_operation_xyz
x,y,z
-x,-y,-z
loop_
_atom_site_type_symbol
_atom_site_label
_atom_site_fract_x
_atom_site_fract_y
_atom_site_fract_z
Si Si1 0.228507 0.703204 0.846569
Si Si2 0.053116 0.910254 0.631583
Si Si3 0.274222 0.493623 0.126755
Si Si4 0.499889 0.789262 0.881366
Si Si5 0.089214 0.795580 0.413014
Si Si6 0.486976 0.925099 0.355465
Si Si7 0.751913 0.391130 0.681979
Si Si8 0.598206 0.621926 0.224084
O O1 0.422065 0.807412 0.927843
O O2 0.060754 0.672482 0.531845
O O3 0.217242 0.579903 0.950711
O O4 0.282972 0.811695 0.016298
O O5 0.064983 0.868750 0.484216
O O6 0.849603 0.745081 0.520799
O O7 0.000000 0.000000 0.500000
O O8 0.282418 0.035717 0.967973
O O9 0.288345 0.522020 0.326681
O O10 0.472612 0.561298 0.256550
O O11 0.086478 0.312774 0.910304
O O12 0.301564 0.658977 0.555955
O O13 0.566442 0.716757 0.065205
O O14 0.309913 0.936660 0.547561
O O15 0.443018 0.785523 0.422005
O O16 0.500000 0.000000 0.500000
O O17 0.000000 0.500000 0.000000
O O18 0.500000 0.500000 0.000000
#
# Coordination Sequence:
#
# PCOD9109674 Si02
#       8
#     2   2   2   2   2   2   2   2
#     4  10  21  36  60  94 124 160 213 260 322 385
#     4  10  22  38  66  90 125 163 219 264 311 353
#     4  10  22  39  63  92 130 165 207 267 324 369
#     4  10  21  41  66  91 127 166 211 261 320 382
#     4  12  21  38  65  93 125 166 214 267 313 382
#     4  11  23  35  57  90 131 161 200 255 321 388
#     4  11  24  43  61  90 136 170 199 261 333 392
#     4  10  20  41  66  96 119 165 224 267 300 367
#
# _framework density 23.804210000000001
#
# number of rings (size 3 to 8) (size 9 to 14) (size 15 to 20)
#    0.000    1.500    2.500    3.000    3.500    3.000 
#    0.000    2.500    0.000    0.000    0.000    0.000 
#    0.000    0.000    0.000    0.000    0.000    0.000 
#
# Total GULP energy -89159.576916 kJ/mol
# GULP energy per Si atom -5572.473557 kJ/mol
# Density = 2.375003 g / cm^3
# Si number density = 23.804210 Si / 1000 Ang^3
#
#
#
# Elastic Constant Matrix: (Units=GPa)
#
#
# Indices 1 2 3 4 5 6 
#
# 1 151.0402 28.6732 41.3028 22.1177 -31.3724 -14.5878
# 2 28.6732 71.2192 2.8317 12.1580 4.9783 -2.1571
# 3 41.3028 2.8317 125.6554 35.8038 -29.4823 -4.0061
# 4 22.1177 12.1580 35.8038 29.3331 -4.6281 -0.0369
# 5 -31.3724 4.9783 -29.4823 -4.6281 35.8750 9.3119
# 6 -14.5878 -2.1571 -4.0061 -0.0369 9.3119 36.4433
#
#
#
# Elastic Compliance Matrix: (Units=1/GPa)
#
#
# Indices 1 2 3 4 5 6 
#
# 1 0.009839 -0.003666 0.000221 -0.004867 0.008242 0.001635
# 2 -0.003666 0.017088 0.001608 -0.007142 -0.005465 0.001110
# 3 0.000221 0.001608 0.015424 -0.017998 0.010540 -0.000832
# 4 -0.004867 -0.007142 -0.017998 0.061157 -0.009697 -0.001810
# 5 0.008242 -0.005465 0.010540 -0.009697 0.045178 -0.007419
# 6 0.001635 0.001110 -0.000832 -0.001810 -0.007419 0.029962
#
#
# Mechanical properties :
#
#
# Convention : Reuss Voigt Hill
#
# Bulk Modulus (GPa) = 25.85424 54.83669 40.34547
# Shear Modulus (GPa) = 25.61303 38.67076 32.14189
#
# Velocity S-wave (km/s) = 3.28378 4.03492 3.67858
# Velocity P-wave (km/s) = 5.02617 6.69284 5.91847
#
# Compressibility (1/GPa) = 0.03867837
#
# Stress axis : x y z
#
# Youngs Moduli (GPa) = 101.63973 58.52080 64.83370
#
# Poissons Ratio (x) = 0.21452 -0.01435
# Poissons Ratio (y) = 0.37258 -0.10426
# Poissons Ratio (z) = -0.02250 -0.09411
#
# Static dielectric constant tensor:
#      x y z
#    x 1.924990 0.009140 -0.016570 
#    y 0.009140 2.048950 -0.055900 
#    z -0.016570 -0.055900 1.966440 
# 
# From -- ./inp_files/315357.got.cif
#   From: 2010.05.17/outbox.cif.g08.bks.cpg/sg2_158_cif.got.tgz:315357.got - 2010.06.03 11:33:40.
