data_PCOD9109348
_publ_section_title
;
Structure prediction by ZEFSAII (Michael W. Deem and Ramdas Pophale) SiO2 
 PCOD9109348
Probable space group: P -1
;
_chemical_formula_sum "Si O2"
_cell_formula_units_Z 15
_cell_length_a 12.813494
_cell_length_b 10.267314
_cell_length_c 8.650410
_cell_angle_alpha 65.824463
_cell_angle_beta 37.116322
_cell_angle_gamma 74.338859
_cell_volume 623.186224
_symmetry_space_group_name_H-M "P -1"
_symmetry_group_IT_number 2
_symmetry_cell_setting 'triclinic'
loop_
_space_group_symop_operation_xyz
x,y,z
-x,-y,-z
loop_
_atom_site_type_symbol
_atom_site_label
_atom_site_fract_x
_atom_site_fract_y
_atom_site_fract_z
Si Si1 0.723843 0.275880 0.070582
Si Si2 0.974910 0.133522 0.073238
Si Si3 0.215720 0.926763 0.377075
Si Si4 0.074021 0.638331 0.511668
Si Si5 0.673786 0.559313 0.128608
Si Si6 0.500000 0.000000 0.500000
Si Si7 0.562018 0.856746 0.174176
Si Si8 0.837899 0.565464 0.245705
O O1 0.825099 0.216515 0.127501
O O2 0.603262 0.138323 0.218585
O O3 0.869263 0.335175 0.744821
O O4 0.623903 0.410780 0.171658
O O5 0.922112 0.058624 0.333098
O O6 0.123892 0.263420 0.860475
O O7 0.000000 0.000000 0.000000
O O8 0.149035 0.782118 0.440005
O O9 0.391545 0.910146 0.272439
O O10 0.264525 0.055392 0.140768
O O11 0.169703 0.512329 0.542750
O O12 0.868965 0.608460 0.805190
O O13 0.569512 0.696461 0.181147
O O14 0.694169 0.532002 0.301346
O O15 0.544976 0.889755 0.359296
O O16 0.000000 0.500000 0.000000
#
# Coordination Sequence:
#
# PCOD9109348 Si02
#       8
#     2   2   2   2   2   1   2   2
#     4  12  25  45  67 103 139 176 228 296 334 410
#     4  12  25  40  69 101 138 178 227 287 346 401
#     4  11  23  47  66  98 143 180 229 277 351 405
#     4  11  22  42  75  98 136 177 227 296 336 400
#     4  11  24  44  73 103 134 180 233 278 353 407
#     4  12  26  46  62  98 138 180 226 276 348 400
#     4  11  27  44  71  97 141 190 223 281 342 423
#     4  10  20  41  64  99 132 173 216 282 343 396
#
# _framework density 24.069853999999999
#
# number of rings (size 3 to 8) (size 9 to 14) (size 15 to 20)
#    0.000    0.800    8.000    0.400    3.733    1.067 
#    0.000    2.000    0.000    0.000    0.000    0.000 
#    0.000    0.000    0.000    0.000    0.000    0.000 
#
# Total GULP energy -83647.706650 kJ/mol
# GULP energy per Si atom -5576.513777 kJ/mol
# Density = 2.401507 g / cm^3
# Si number density = 24.069854 Si / 1000 Ang^3
#
#
#
# Elastic Constant Matrix: (Units=GPa)
#
#
# Indices 1 2 3 4 5 6 
#
# 1 30.7019 3.8054 15.4867 6.2864 5.2842 -0.7253
# 2 3.8054 147.5547 43.2843 -8.1089 -10.9068 35.4094
# 3 15.4867 43.2843 145.0442 -17.6102 21.6402 10.0924
# 4 6.2864 -8.1089 -17.6102 44.0414 14.9458 -1.2196
# 5 5.2842 -10.9068 21.6402 14.9458 22.1298 -1.7140
# 6 -0.7253 35.4094 10.0924 -1.2196 -1.7140 35.2864
#
#
#
# Elastic Compliance Matrix: (Units=1/GPa)
#
#
# Indices 1 2 3 4 5 6 
#
# 1 0.036599 -0.000291 -0.005188 -0.007857 0.001678 0.002338
# 2 -0.000291 0.011277 -0.005222 -0.004704 0.013187 -0.009350
# 3 -0.005188 -0.005222 0.014379 0.013951 -0.024795 0.000299
# 4 -0.007857 -0.004704 0.013951 0.043227 -0.043282 -0.000039
# 5 0.001678 0.013187 -0.024795 -0.043282 0.104569 -0.002523
# 6 0.002338 -0.009350 0.000299 -0.000039 -0.002523 0.037561
#
#
# Mechanical properties :
#
#
# Convention : Reuss Voigt Hill
#
# Bulk Modulus (GPa) = 24.47770 49.82818 37.15294
# Shear Modulus (GPa) = 17.69091 37.67315 27.68203
#
# Velocity S-wave (km/s) = 2.71400 3.96050 3.39495
# Velocity P-wave (km/s) = 4.47354 6.45450 5.55307
#
# Compressibility (1/GPa) = 0.04085352
#
# Stress axis : x y z
#
# Youngs Moduli (GPa) = 27.32289 88.67960 69.54505
#
# Poissons Ratio (x) = 0.02579 0.36079
# Poissons Ratio (y) = 0.00795 0.36317
# Poissons Ratio (z) = 0.14175 0.46309
#
# Static dielectric constant tensor:
#      x y z
#    x 1.954920 -0.043410 -0.038890 
#    y -0.043410 1.600570 -0.069600 
#    z -0.038890 -0.069600 1.973210 
# 
# From -- ./inp_files/297768.got.cif
#   From: 2010.05.17/outbox.cif.g08.bks.cpg/sg2_149_cif.got.tgz:297768.got - 2010.06.03 11:33:40.
