data_PCOD9109220
_publ_section_title
;
Structure prediction by ZEFSAII (Michael W. Deem and Ramdas Pophale) SiO2 
 PCOD9109220
Probable space group: P -1
;
_chemical_formula_sum "Si O2"
_cell_formula_units_Z 16
_cell_length_a 5.690047
_cell_length_b 28.596332
_cell_length_c 9.281731
_cell_angle_alpha 137.189101
_cell_angle_beta 135.041013
_cell_angle_gamma 47.520046
_cell_volume 685.765917
_symmetry_space_group_name_H-M "P -1"
_symmetry_group_IT_number 2
_symmetry_cell_setting 'triclinic'
loop_
_space_group_symop_operation_xyz
x,y,z
-x,-y,-z
loop_
_atom_site_type_symbol
_atom_site_label
_atom_site_fract_x
_atom_site_fract_y
_atom_site_fract_z
Si Si1 0.686776 0.471164 0.366546
Si Si2 0.570173 0.081293 0.867184
Si Si3 0.781132 0.185869 0.818056
Si Si4 0.764487 0.660707 0.584560
Si Si5 0.600454 0.050550 0.470121
Si Si6 0.266652 0.305485 0.692662
Si Si7 0.761823 0.211800 0.209170
Si Si8 0.713499 0.441033 0.843556
O O1 0.500000 0.500000 0.500000
O O2 0.352881 0.505016 0.196958
O O3 0.000000 0.500000 0.500000
O O4 0.876858 0.386466 0.289536
O O5 0.561224 0.067041 0.660508
O O6 0.184506 0.135634 0.863298
O O7 0.621981 0.003033 0.785326
O O8 0.824969 0.129591 0.104714
O O9 0.568699 0.128549 0.566842
O O10 0.632998 0.253482 0.798475
O O11 0.732541 0.212229 0.023338
O O12 0.756316 0.669425 0.427705
O O13 0.599683 0.737586 0.762257
O O14 0.512347 0.613063 0.397742
O O15 0.000000 0.000000 0.500000
O O16 0.033262 0.251472 0.466889
O O17 0.094544 0.379240 0.879141
O O18 0.500000 0.500000 0.000000
#
# Coordination Sequence:
#
# PCOD9109220 Si02
#       8
#     2   2   2   2   2   2   2   2
#     4  10  20  41  64  85 119 164 212 264 330 387
#     4   9  17  35  61  91 120 164 208 251 309 374
#     4  10  21  37  62  93 123 165 208 258 316 378
#     4  10  22  40  58  84 121 165 203 266 322 384
#     4   8  16  33  61  90 124 159 204 253 305 371
#     4  11  23  41  59  90 129 161 208 266 321 380
#     4  10  22  39  60  87 125 166 211 255 317 379
#     4  10  23  41  59  89 119 161 215 270 320 386
#
# _framework density 23.331576999999999
#
# number of rings (size 3 to 8) (size 9 to 14) (size 15 to 20)
#    0.000    2.250    1.250    0.750    1.750    4.500 
#    2.250    0.625    0.000   30.750    0.000    0.000 
#    0.000    0.000    0.000    0.000    0.000    0.000 
#
# Total GULP energy -89105.451202 kJ/mol
# GULP energy per Si atom -5569.090700 kJ/mol
# Density = 2.327847 g / cm^3
# Si number density = 23.331577 Si / 1000 Ang^3
#
#
#
# Elastic Constant Matrix: (Units=GPa)
#
#
# Indices 1 2 3 4 5 6 
#
# 1 66.1195 17.8139 23.5667 1.7363 -19.6765 -2.2305
# 2 17.8139 131.5625 28.9554 10.7411 -15.4187 8.9637
# 3 23.5667 28.9554 87.2126 30.5624 2.9377 -5.3371
# 4 1.7363 10.7411 30.5624 33.1291 -3.3023 1.3323
# 5 -19.6765 -15.4187 2.9377 -3.3023 57.4222 13.2777
# 6 -2.2305 8.9637 -5.3371 1.3323 13.2777 31.3412
#
#
#
# Elastic Compliance Matrix: (Units=1/GPa)
#
#
# Indices 1 2 3 4 5 6 
#
# 1 0.020685 -0.000166 -0.009015 0.008345 0.008946 -0.004160
# 2 -0.000166 0.009155 -0.003829 0.001151 0.003807 -0.004944
# 3 -0.009015 -0.003829 0.023406 -0.021098 -0.008605 0.008982
# 4 0.008345 0.001151 -0.021098 0.050144 0.009306 -0.009402
# 5 0.008946 0.003807 -0.008605 0.009306 0.025512 -0.013121
# 6 -0.004160 -0.004944 0.008982 -0.009402 -0.013121 0.040513
#
#
# Mechanical properties :
#
#
# Convention : Reuss Voigt Hill
#
# Bulk Modulus (GPa) = 36.72802 47.28518 42.00660
# Shear Modulus (GPa) = 24.44875 38.68241 31.56558
#
# Velocity S-wave (km/s) = 3.24061 4.07620 3.68219
# Velocity P-wave (km/s) = 5.45693 6.51648 6.01010
#
# Compressibility (1/GPa) = 0.02722717
#
# Stress axis : x y z
#
# Youngs Moduli (GPa) = 48.34453 109.22884 42.72339
#
# Poissons Ratio (x) = 0.01814 0.38514
# Poissons Ratio (y) = 0.00803 0.16358
# Poissons Ratio (z) = 0.43581 0.41821
#
# Static dielectric constant tensor:
#      x y z
#    x 1.979390 -0.014610 0.031850 
#    y -0.014610 1.862460 0.026640 
#    z 0.031850 0.026640 1.930600 
# 
# From -- ./inp_files/116431.got.cif
#   From: 2010.05.17/outbox.cif.g08.bks.cpg/sg2_59_cif.got.tgz:116431.got - 2010.06.03 11:33:40.
