data_PCOD9109862
_publ_section_title
;
Structure prediction by ZEFSAII (Michael W. Deem and Ramdas Pophale) SiO2 
 PCOD9109862
Probable space group: P -1
;
_chemical_formula_sum "Si O2"
_cell_formula_units_Z 13
_cell_length_a 9.662131
_cell_length_b 7.510273
_cell_length_c 11.138579
_cell_angle_alpha 41.927470
_cell_angle_beta 108.005856
_cell_angle_gamma 94.654446
_cell_volume 499.343329
_symmetry_space_group_name_H-M "P -1"
_symmetry_group_IT_number 2
_symmetry_cell_setting 'triclinic'
loop_
_space_group_symop_operation_xyz
x,y,z
-x,-y,-z
loop_
_atom_site_type_symbol
_atom_site_label
_atom_site_fract_x
_atom_site_fract_y
_atom_site_fract_z
Si Si1 0.882825 0.523759 0.064867
Si Si2 0.251554 0.000806 0.736011
Si Si3 0.895038 0.418977 0.704290
Si Si4 0.369052 0.708931 0.134910
Si Si5 0.586753 0.187198 0.354956
Si Si6 0.500000 0.500000 0.500000
Si Si7 0.773238 0.088347 0.662650
O O1 0.831806 0.243026 0.190074
O O2 0.958351 0.580752 0.180537
O O3 0.000000 0.500000 0.000000
O O4 0.762394 0.793808 0.856106
O O5 0.386521 0.924318 0.715329
O O6 0.158860 0.299360 0.524175
O O7 0.296335 0.962794 0.906049
O O8 0.763435 0.406567 0.774540
O O9 0.904502 0.174804 0.731942
O O10 0.480848 0.489313 0.190173
O O11 0.464328 0.734993 0.263476
O O12 0.752708 0.118692 0.498520
O O13 0.500000 0.000000 0.500000
O O14 0.632205 0.320753 0.546919
#
# Coordination Sequence:
#
# PCOD9109862 Si02
#       7
#     2   2   2   2   2   1   2
#     4  12  24  45  72 102 142 191 241 290 345 422
#     4  12  24  42  72 106 136 191 242 286 355 421
#     4  11  23  45  68 101 145 182 237 294 348 424
#     4  10  20  41  67  98 138 181 226 289 353 409
#     4  11  21  42  69 101 142 181 239 295 350 419
#     4   8  20  42  70  94 144 174 222 290 356 416
#     4  10  23  44  71 102 140 192 225 297 361 406
#
# _framework density 26.034192000000001
#
# number of rings (size 3 to 8) (size 9 to 14) (size 15 to 20)
#    0.000    1.231    3.077    3.231    0.000    0.000 
#    5.538    5.385    0.000    0.000    0.000    0.000 
#    0.000    0.000    0.000    0.000    0.000    0.000 
#
# Total GULP energy -72463.035557 kJ/mol
# GULP energy per Si atom -5574.079658 kJ/mol
# Density = 2.597494 g / cm^3
# Si number density = 26.034192 Si / 1000 Ang^3
#
#
#
# Elastic Constant Matrix: (Units=GPa)
#
#
# Indices 1 2 3 4 5 6 
#
# 1 46.1111 17.1554 37.2515 -4.2295 -15.4527 7.8389
# 2 17.1554 84.3232 19.0680 42.7634 5.5930 32.8199
# 3 37.2515 19.0680 188.6772 41.6122 2.1089 17.8829
# 4 -4.2295 42.7634 41.6122 42.9482 -4.8517 -10.2408
# 5 -15.4527 5.5930 2.1089 -4.8517 34.2079 -9.8657
# 6 7.8389 32.8199 17.8829 -10.2408 -9.8657 24.5388
#
#
#
# Elastic Compliance Matrix: (Units=1/GPa)
#
#
# Indices 1 2 3 4 5 6 
#
# 1 0.022964 0.008296 -0.001371 -0.009379 0.001827 -0.020612
# 2 0.008296 -0.002567 -0.006156 0.014342 0.011115 0.015723
# 3 -0.001371 -0.006156 0.004507 0.003942 0.003050 0.008258
# 4 -0.009379 0.014342 0.003942 -0.003809 -0.015067 -0.026705
# 5 0.001827 0.011115 0.003050 -0.015067 0.021498 -0.015317
# 6 -0.020612 0.015723 0.008258 -0.026705 -0.015317 0.002985
#
#
# Mechanical properties :
#
#
# Convention : Reuss Voigt Hill
#
# Bulk Modulus (GPa) = 37.81917 51.78458 44.80188
# Shear Modulus (GPa) = 94.59952 36.71477 65.65714
#
# Velocity S-wave (km/s) = 6.03453 3.75941 5.02736
# Velocity P-wave (km/s) = 7.94433 6.22723 7.13760
#
# Compressibility (1/GPa) = 0.02644162
#
# Stress axis : x y z
#
# Youngs Moduli (GPa) = 43.54726 -389.61360 221.89768
#
# Poissons Ratio (x) = 3.23205 0.30412
# Poissons Ratio (y) = -0.36125 1.36599
# Poissons Ratio (z) = 0.05968 -2.39843
#
# Static dielectric constant tensor:
#      x y z
#    x 2.142030 0.191140 0.047220 
#    y 0.191140 1.961320 -0.266160 
#    z 0.047220 -0.266160 1.826250 
# 
# From -- ./inp_files/61393.got.cif
#   From: 2010.05.17/outbox.cif.g08.bks.cpg/sg2_31_cif.got.tgz:61393.got - 2010.06.03 11:33:40.
