data_PCOD9109578
_publ_section_title
;
Structure prediction by ZEFSAII (Michael W. Deem and Ramdas Pophale) SiO2 
 PCOD9109578
Probable space group: P -1
;
_chemical_formula_sum "Si O2"
_cell_formula_units_Z 15
_cell_length_a 16.194516
_cell_length_b 10.921837
_cell_length_c 13.397698
_cell_angle_alpha 31.463106
_cell_angle_beta 152.402133
_cell_angle_gamma 137.931378
_cell_volume 572.089079
_symmetry_space_group_name_H-M "P -1"
_symmetry_group_IT_number 2
_symmetry_cell_setting 'triclinic'
loop_
_space_group_symop_operation_xyz
x,y,z
-x,-y,-z
loop_
_atom_site_type_symbol
_atom_site_label
_atom_site_fract_x
_atom_site_fract_y
_atom_site_fract_z
Si Si1 0.500000 0.500000 0.000000
Si Si2 0.322235 0.529923 0.002111
Si Si3 0.321037 0.796787 0.061702
Si Si4 0.830154 0.674052 0.838924
Si Si5 0.135644 0.819417 0.208891
Si Si6 0.313421 0.046773 0.691370
Si Si7 0.935153 0.597026 0.467724
Si Si8 0.359878 0.017686 0.158131
O O1 0.606629 0.549294 0.973565
O O2 0.496221 0.786918 0.822626
O O3 0.109700 0.599446 0.718418
O O4 0.391068 0.783329 0.927850
O O5 0.317587 0.334220 0.221953
O O6 0.198922 0.580262 0.063429
O O7 0.527639 0.775189 0.261363
O O8 0.243519 0.005068 0.758330
O O9 0.359274 0.842949 0.186007
O O10 0.805247 0.858801 0.593757
O O11 0.014886 0.724635 0.055745
O O12 0.194164 0.597160 0.495202
O O13 0.311174 0.914107 0.284322
O O14 0.000000 0.000000 0.000000
O O15 0.824001 0.832105 0.170693
O O16 0.000000 0.500000 0.500000
#
# Coordination Sequence:
#
# PCOD9109578 Si02
#       8
#     1   2   2   2   2   2   2   2
#     4  12  22  42  64  94 138 160 212 280 318 378
#     4  10  21  40  63  96 124 169 214 261 321 387
#     4  10  23  40  62  97 131 167 215 268 316 388
#     4  10  22  41  68  91 128 172 215 262 328 384
#     4  11  23  42  65  96 127 168 219 264 314 395
#     4  10  20  41  66  89 131 173 209 261 333 378
#     4  11  21  40  66  88 128 176 209 254 329 381
#     4  12  24  42  65  95 133 167 215 273 318 386
#
# _framework density 26.219694
#
# number of rings (size 3 to 8) (size 9 to 14) (size 15 to 20)
#    0.000    1.333    4.000    2.000    0.000    1.600 
#    2.400   10.667    0.000    0.000    0.000    0.000 
#    0.000    0.000    0.000    0.000    0.000    0.000 
#
# Total GULP energy -83561.792786 kJ/mol
# GULP energy per Si atom -5570.786186 kJ/mol
# Density = 2.616002 g / cm^3
# Si number density = 26.219694 Si / 1000 Ang^3
#
#
#
# Elastic Constant Matrix: (Units=GPa)
#
#
# Indices 1 2 3 4 5 6 
#
# 1 103.7817 20.3942 12.6197 -12.5471 -35.2011 22.1005
# 2 20.3942 141.1711 -3.5315 -5.5003 -9.8031 1.5220
# 3 12.6197 -3.5315 43.9995 1.4628 -24.7204 11.2611
# 4 -12.5471 -5.5003 1.4628 38.5813 9.2069 -13.8735
# 5 -35.2011 -9.8031 -24.7204 9.2069 40.1347 -9.1072
# 6 22.1005 1.5220 11.2611 -13.8735 -9.1072 42.0662
#
#
#
# Elastic Compliance Matrix: (Units=1/GPa)
#
#
# Indices 1 2 3 4 5 6 
#
# 1 0.015946 -0.000982 0.006499 -0.001684 0.016533 -0.007058
# 2 -0.000982 0.007438 0.002060 0.000221 0.002230 0.000251
# 3 0.006499 0.002060 0.042488 -0.011052 0.032296 -0.011516
# 4 -0.001684 0.000221 -0.011052 0.033259 -0.013146 0.011958
# 5 0.016533 0.002230 0.032296 -0.013146 0.060928 -0.008558
# 6 -0.007058 0.000251 -0.011516 0.011958 -0.008558 0.032645
#
#
# Mechanical properties :
#
#
# Convention : Reuss Voigt Hill
#
# Bulk Modulus (GPa) = 12.34181 38.65746 25.49963
# Shear Modulus (GPa) = 24.44284 41.45443 32.94863
#
# Velocity S-wave (km/s) = 3.05656 3.98054 3.54875
# Velocity P-wave (km/s) = 4.14416 5.99183 5.15151
#
# Compressibility (1/GPa) = 0.08102541
#
# Stress axis : x y z
#
# Youngs Moduli (GPa) = 62.71334 134.44762 23.53580
#
# Poissons Ratio (x) = 0.13208 -0.15296
# Poissons Ratio (y) = 0.06161 -0.04849
# Poissons Ratio (z) = -0.40757 -0.27699
#
# Static dielectric constant tensor:
#      x y z
#    x 1.954930 -0.391900 -0.426030 
#    y -0.391900 0.912600 -1.080950 
#    z -0.426030 -1.080950 1.063780 
# 
# From -- ./inp_files/537922.got.cif
#   From: 2010.05.17/outbox.cif.g08.bks.cpg/sg2_269_cif.got.tgz:537922.got - 2010.06.03 11:33:40.
