data_PCOD9109772
_publ_section_title
;
Structure prediction by ZEFSAII (Michael W. Deem and Ramdas Pophale) SiO2 
 PCOD9109772
Probable space group: P -1
;
_chemical_formula_sum "Si O2"
_cell_formula_units_Z 16
_cell_length_a 8.956409
_cell_length_b 11.269476
_cell_length_c 13.921310
_cell_angle_alpha 136.786725
_cell_angle_beta 52.876388
_cell_angle_gamma 110.491963
_cell_volume 756.684745
_symmetry_space_group_name_H-M "P -1"
_symmetry_group_IT_number 2
_symmetry_cell_setting 'triclinic'
loop_
_space_group_symop_operation_xyz
x,y,z
-x,-y,-z
loop_
_atom_site_type_symbol
_atom_site_label
_atom_site_fract_x
_atom_site_fract_y
_atom_site_fract_z
Si Si1 0.214756 0.028346 0.912173
Si Si2 0.569825 0.883893 0.309190
Si Si3 0.507950 0.299884 0.405972
Si Si4 0.842467 0.064543 0.490126
Si Si5 0.762655 0.329056 0.498437
Si Si6 0.853157 0.664782 0.192767
Si Si7 0.871807 0.629739 0.743223
Si Si8 0.100280 0.323682 0.602845
O O1 0.284018 0.064248 0.797040
O O2 0.342039 0.848056 0.789454
O O3 0.240613 0.201189 0.062322
O O4 0.000000 0.000000 0.000000
O O5 0.359968 0.902595 0.355092
O O6 0.675331 0.703977 0.211482
O O7 0.500000 0.000000 0.500000
O O8 0.500000 0.500000 0.500000
O O9 0.586798 0.296173 0.482863
O O10 0.301190 0.261413 0.438862
O O11 0.803438 0.190676 0.486229
O O12 0.991261 0.158459 0.546316
O O13 0.899366 0.865932 0.309024
O O14 0.744851 0.523867 0.664340
O O15 0.953431 0.315140 0.352100
O O16 0.834574 0.619075 0.284666
O O17 0.000000 0.500000 0.000000
O O18 0.973969 0.487155 0.696273
#
# Coordination Sequence:
#
# PCOD9109772 Si02
#       8
#     2   2   2   2   2   2   2   2
#     4  12  23  40  67 100 131 170 229 277 325 402
#     4  10  22  42  66  95 126 180 219 258 332 408
#     4  12  22  39  63  94 130 175 219 275 336 394
#     4  10  22  42  67  89 128 182 222 261 326 413
#     4  10  20  41  67  91 131 177 224 254 344 403
#     4  11  22  37  63  96 132 160 214 279 332 379
#     4  10  22  40  67  94 132 177 221 275 326 402
#     4  11  22  41  63  95 128 173 224 271 334 387
#
# _framework density 21.144867999999999
#
# number of rings (size 3 to 8) (size 9 to 14) (size 15 to 20)
#    0.000    1.250    2.500    4.875    0.000    0.000 
#    0.000   11.250    0.000    0.000    0.000    0.000 
#    0.000    0.000    0.000    0.000    0.000    0.000 
#
# Total GULP energy -89117.909336 kJ/mol
# GULP energy per Si atom -5569.869333 kJ/mol
# Density = 2.109674 g / cm^3
# Si number density = 21.144868 Si / 1000 Ang^3
#
#
#
# Elastic Constant Matrix: (Units=GPa)
#
#
# Indices 1 2 3 4 5 6 
#
# 1 68.9726 3.5917 37.9894 11.0714 -6.8218 20.4122
# 2 3.5917 85.2494 36.4618 -1.8149 -6.4324 -1.5155
# 3 37.9894 36.4618 170.9596 25.6501 -13.4130 6.2408
# 4 11.0714 -1.8149 25.6501 33.4982 -6.3081 -5.6293
# 5 -6.8218 -6.4324 -13.4130 -6.3081 35.9546 -2.3215
# 6 20.4122 -1.5155 6.2408 -5.6293 -2.3215 36.0801
#
#
#
# Elastic Compliance Matrix: (Units=1/GPa)
#
#
# Indices 1 2 3 4 5 6 
#
# 1 0.021004 0.000220 -0.003246 -0.006330 0.000913 -0.012241
# 2 0.000220 0.013448 -0.003418 0.003944 0.001979 0.001774
# 3 -0.003246 -0.003418 0.008180 -0.005296 0.000863 -0.000493
# 4 -0.006330 0.003944 -0.005296 0.039035 0.005093 0.011081
# 5 0.000913 0.001979 0.000863 0.005093 0.029693 0.002123
# 6 -0.012241 0.001774 -0.000493 0.011081 0.002123 0.036667
#
#
# Mechanical properties :
#
#
# Convention : Reuss Voigt Hill
#
# Bulk Modulus (GPa) = 33.62142 53.47417 43.54779
# Shear Modulus (GPa) = 29.26909 37.58249 33.42579
#
# Velocity S-wave (km/s) = 3.72454 4.22047 3.98024
# Velocity P-wave (km/s) = 5.86782 7.00673 6.46241
#
# Compressibility (1/GPa) = 0.02974295
#
# Stress axis : x y z
#
# Youngs Moduli (GPa) = 47.61016 74.36122 122.24881
#
# Poissons Ratio (x) = -0.01636 0.39683
# Poissons Ratio (y) = -0.01047 0.41788
# Poissons Ratio (z) = 0.15455 0.25419
#
# Static dielectric constant tensor:
#      x y z
#    x 1.887650 0.040070 -0.022140 
#    y 0.040070 1.796720 0.016660 
#    z -0.022140 0.016660 1.742390 
# 
# From -- ./inp_files/500943.got.cif
#   From: 2010.05.17/outbox.cif.g08.bks.cpg/sg2_251_cif.got.tgz:500943.got - 2010.06.03 11:33:40.
