data_PCOD9109635
_publ_section_title
;
Structure prediction by ZEFSAII (Michael W. Deem and Ramdas Pophale) SiO2 
 PCOD9109635
Probable space group: P -1
;
_chemical_formula_sum "Si O2"
_cell_formula_units_Z 16
_cell_length_a 18.058370
_cell_length_b 7.719365
_cell_length_c 10.740192
_cell_angle_alpha 120.326372
_cell_angle_beta 59.305678
_cell_angle_gamma 145.162203
_cell_volume 724.100771
_symmetry_space_group_name_H-M "P -1"
_symmetry_group_IT_number 2
_symmetry_cell_setting 'triclinic'
loop_
_space_group_symop_operation_xyz
x,y,z
-x,-y,-z
loop_
_atom_site_type_symbol
_atom_site_label
_atom_site_fract_x
_atom_site_fract_y
_atom_site_fract_z
Si Si1 0.791368 0.362077 0.412403
Si Si2 0.741707 0.790801 0.979255
Si Si3 0.647916 0.266562 0.733408
Si Si4 0.594682 0.707605 0.614192
Si Si5 0.869550 0.146688 0.443009
Si Si6 0.563284 0.817343 0.235339
Si Si7 0.055642 0.895921 0.860967
Si Si8 0.035908 0.655045 0.162562
O O1 0.752241 0.433737 0.588477
O O2 0.803620 0.171226 0.403680
O O3 0.926652 0.604005 0.303654
O O4 0.671054 0.130740 0.336651
O O5 0.696787 0.484836 0.886008
O O6 0.832157 0.996347 0.856308
O O7 0.636848 0.784761 0.074115
O O8 0.822061 0.940996 0.094234
O O9 0.524763 0.175598 0.755586
O O10 0.610521 0.976373 0.702114
O O11 0.500000 0.500000 0.500000
O O12 0.523574 0.471894 0.702646
O O13 0.746146 0.892327 0.545633
O O14 0.911708 0.027899 0.284896
O O15 0.000000 0.500000 0.500000
O O16 0.955769 0.530888 0.828721
O O17 0.000000 0.000000 0.000000
O O18 0.000000 0.500000 0.000000
#
# Coordination Sequence:
#
# PCOD9109635 Si02
#       8
#     2   2   2   2   2   2   2   2
#     4  10  20  41  66  93 131 170 232 279 326 417
#     4  11  23  45  62  98 142 168 226 288 335 406
#     4  11  26  41  69 103 128 179 233 281 338 409
#     4  11  23  45  70  97 137 181 226 282 346 403
#     4  10  21  40  66  96 136 172 221 289 336 389
#     4  12  22  46  68  93 136 183 226 278 336 411
#     4  10  21  39  64  94 132 179 219 270 346 414
#     4   9  18  41  65  86 130 177 204 274 346 386
#
# _framework density 22.096373
#
# number of rings (size 3 to 8) (size 9 to 14) (size 15 to 20)
#    0.000    1.500    6.250    0.750    3.500    3.000 
#    9.000    0.000    0.000    0.000    0.000    0.000 
#    0.000    0.000    0.000    0.000    0.000    0.000 
#
# Total GULP energy -89240.505541 kJ/mol
# GULP energy per Si atom -5577.531596 kJ/mol
# Density = 2.204608 g / cm^3
# Si number density = 22.096373 Si / 1000 Ang^3
#
#
#
# Elastic Constant Matrix: (Units=GPa)
#
#
# Indices 1 2 3 4 5 6 
#
# 1 46.5986 8.5418 10.6775 -7.2996 -12.6395 -0.8547
# 2 8.5418 56.4698 7.6052 -17.3568 4.9207 7.1825
# 3 10.6775 7.6052 96.6381 -3.5490 -16.2841 14.4737
# 4 -7.2996 -17.3568 -3.5490 45.6285 3.9658 -5.0914
# 5 -12.6395 4.9207 -16.2841 3.9658 28.3842 -1.3964
# 6 -0.8547 7.1825 14.4737 -5.0914 -1.3964 24.4151
#
#
#
# Elastic Compliance Matrix: (Units=1/GPa)
#
#
# Indices 1 2 3 4 5 6 
#
# 1 0.026132 -0.004835 -0.001048 0.001676 0.011836 0.003985
# 2 -0.004835 0.022374 -0.001645 0.007815 -0.008295 -0.004621
# 3 -0.001048 -0.001645 0.012767 -0.001184 0.006966 -0.006970
# 4 0.001676 0.007815 -0.001184 0.025876 -0.004726 0.003587
# 5 0.011836 -0.008295 0.006966 -0.004726 0.046616 0.000406
# 6 0.003985 -0.004621 -0.006970 0.003587 0.000406 0.047360
#
#
# Mechanical properties :
#
#
# Convention : Reuss Voigt Hill
#
# Bulk Modulus (GPa) = 21.63662 28.15062 24.89362
# Shear Modulus (GPa) = 23.63097 31.21103 27.42100
#
# Velocity S-wave (km/s) = 3.27379 3.76240 3.52657
# Velocity P-wave (km/s) = 4.90953 5.62510 5.27945
#
# Compressibility (1/GPa) = 0.04621795
#
# Stress axis : x y z
#
# Youngs Moduli (GPa) = 38.26710 44.69469 78.32505
#
# Poissons Ratio (x) = 0.21609 0.08206
# Poissons Ratio (y) = 0.18501 0.12887
# Poissons Ratio (z) = 0.04009 0.07353
#
# Static dielectric constant tensor:
#      x y z
#    x 1.460130 0.477110 -0.072970 
#    y 0.477110 1.308080 0.030820 
#    z -0.072970 0.030820 1.878000 
# 
# From -- ./inp_files/469580.got.cif
#   From: 2010.05.17/outbox.cif.g08.bks.cpg/sg2_235_cif.got.tgz:469580.got - 2010.06.03 11:33:40.
