data_PCOD9109998
_publ_section_title
;
Structure prediction by ZEFSAII (Michael W. Deem and Ramdas Pophale) SiO2 
 PCOD9109998
Probable space group: P -1
;
_chemical_formula_sum "Si O2"
_cell_formula_units_Z 15
_cell_length_a 17.944677
_cell_length_b 12.339956
_cell_length_c 9.069392
_cell_angle_alpha 136.238950
_cell_angle_beta 133.842331
_cell_angle_gamma 28.176402
_cell_volume 646.163483
_symmetry_space_group_name_H-M "P -1"
_symmetry_group_IT_number 2
_symmetry_cell_setting 'triclinic'
loop_
_space_group_symop_operation_xyz
x,y,z
-x,-y,-z
loop_
_atom_site_type_symbol
_atom_site_label
_atom_site_fract_x
_atom_site_fract_y
_atom_site_fract_z
Si Si1 0.500000 0.500000 0.000000
Si Si2 0.572609 0.514149 0.418368
Si Si3 0.723310 0.325075 0.734686
Si Si4 0.100447 0.228255 0.831531
Si Si5 0.031575 0.809996 0.643085
Si Si6 0.370674 0.029998 0.782074
Si Si7 0.163734 0.011287 0.021041
Si Si8 0.860732 0.478296 0.215085
O O1 0.395747 0.534736 0.757909
O O2 0.345100 0.792467 0.109947
O O3 0.714991 0.334010 0.554597
O O4 0.451240 0.509984 0.279140
O O5 0.475852 0.776835 0.598028
O O6 0.848779 0.047964 0.683795
O O7 0.777366 0.427982 0.969798
O O8 0.987457 0.245226 0.596362
O O9 0.255360 0.096119 0.817064
O O10 0.155041 0.080898 0.910114
O O11 0.000000 0.500000 0.000000
O O12 0.092666 0.917170 0.842398
O O13 0.127227 0.584564 0.660252
O O14 0.247999 0.252059 0.717229
O O15 0.500000 0.000000 0.000000
O O16 0.041484 0.267715 0.193020
#
# Coordination Sequence:
#
# PCOD9109998 Si02
#       8
#     1   2   2   2   2   2   2   2
#     4  12  26  40  66 110 134 176 238 300 354 396
#     4  11  23  41  71  98 141 183 233 295 346 425
#     4  10  20  41  68  98 130 180 233 281 349 416
#     4  12  26  46  69 104 147 190 239 291 358 431
#     4  11  23  42  71 102 135 182 238 295 353 416
#     4  12  26  46  72 105 147 194 240 281 364 438
#     4  11  25  44  71 101 144 181 237 302 354 420
#     4  11  23  44  72 103 140 183 239 294 353 435
#
# _framework density 23.213941999999999
#
# number of rings (size 3 to 8) (size 9 to 14) (size 15 to 20)
#    0.000    0.800    4.000    4.400    1.867    4.800 
#    0.000    0.000    0.000    4.000    0.000    0.000 
#    0.000    0.000    0.000    0.000    0.000    0.000 
#
# Total GULP energy -83710.831321 kJ/mol
# GULP energy per Si atom -5580.722088 kJ/mol
# Density = 2.316111 g / cm^3
# Si number density = 23.213942 Si / 1000 Ang^3
#
#
#
# Elastic Constant Matrix: (Units=GPa)
#
#
# Indices 1 2 3 4 5 6 
#
# 1 60.7467 33.5955 6.5034 -3.9054 -5.4386 18.2146
# 2 33.5955 163.7366 22.9236 -7.5709 -7.1223 21.1943
# 3 6.5034 22.9236 54.3055 -9.9580 -10.4786 3.1234
# 4 -3.9054 -7.5709 -9.9580 42.6874 -4.2985 -5.3314
# 5 -5.4386 -7.1223 -10.4786 -4.2985 19.9984 -2.2854
# 6 18.2146 21.1943 3.1234 -5.3314 -2.2854 35.9565
#
#
#
# Elastic Compliance Matrix: (Units=1/GPa)
#
#
# Indices 1 2 3 4 5 6 
#
# 1 0.021086 -0.003035 0.000140 0.000750 0.003911 -0.008545
# 2 -0.003035 0.007440 -0.002560 0.000143 0.000218 -0.002590
# 3 0.000140 -0.002560 0.023025 0.006356 0.012693 0.001187
# 4 0.000750 0.000143 0.006356 0.026415 0.009665 0.003515
# 5 0.003911 0.000218 0.012693 0.009665 0.060107 0.002041
# 6 -0.008545 -0.002590 0.001187 0.003515 0.002041 0.034215
#
#
# Mechanical properties :
#
#
# Convention : Reuss Voigt Hill
#
# Bulk Modulus (GPa) = 24.60630 44.98152 34.79391
# Shear Modulus (GPa) = 25.41379 34.11288 29.76334
#
# Velocity S-wave (km/s) = 3.31231 3.83756 3.58457
# Velocity P-wave (km/s) = 5.02507 6.24939 5.67037
#
# Compressibility (1/GPa) = 0.04063999
#
# Stress axis : x y z
#
# Youngs Moduli (GPa) = 47.42504 134.41048 43.43189
#
# Poissons Ratio (x) = 0.40795 -0.00607
# Poissons Ratio (y) = 0.14394 0.11118
# Poissons Ratio (z) = -0.00663 0.34407
#
# Static dielectric constant tensor:
#      x y z
#    x 1.915410 -0.028760 -0.036810 
#    y -0.028760 1.877580 -0.003290 
#    z -0.036810 -0.003290 1.889000 
# 
# From -- ./inp_files/332489.got.cif
#   From: 2010.05.17/outbox.cif.g08.bks.cpg/sg2_167_cif.got.tgz:332489.got - 2010.06.03 11:33:40.
