data_PCOD9109145
_publ_section_title
;
Structure prediction by ZEFSAII (Michael W. Deem and Ramdas Pophale) SiO2 
 PCOD9109145
Probable space group: P -1
;
_chemical_formula_sum "Si O2"
_cell_formula_units_Z 16
_cell_length_a 18.847660
_cell_length_b 9.402481
_cell_length_c 7.540375
_cell_angle_alpha 44.953652
_cell_angle_beta 82.235794
_cell_angle_gamma 57.716747
_cell_volume 729.211615
_symmetry_space_group_name_H-M "P -1"
_symmetry_group_IT_number 2
_symmetry_cell_setting 'triclinic'
loop_
_space_group_symop_operation_xyz
x,y,z
-x,-y,-z
loop_
_atom_site_type_symbol
_atom_site_label
_atom_site_fract_x
_atom_site_fract_y
_atom_site_fract_z
Si Si1 0.119528 0.659965 0.904444
Si Si2 0.209685 0.462435 0.506419
Si Si3 0.280503 0.575680 0.110437
Si Si4 0.088958 0.976278 0.278542
Si Si5 0.420237 0.049049 0.363889
Si Si6 0.329319 0.950139 0.769077
Si Si7 0.213495 0.153311 0.107748
Si Si8 0.584894 0.197864 0.744139
O O1 0.107270 0.825651 0.590016
O O2 0.177979 0.693111 0.989554
O O3 0.171618 0.361578 0.096359
O O4 0.018778 0.788391 0.898913
O O5 0.289611 0.473148 0.398692
O O6 0.123222 0.757534 0.312036
O O7 0.232963 0.241887 0.555935
O O8 0.216567 0.319310 0.808059
O O9 0.340657 0.354314 0.139657
O O10 0.305278 0.761111 0.938297
O O11 0.148611 0.075978 0.162573
O O12 0.500000 0.000000 0.500000
O O13 0.384570 0.923417 0.602885
O O14 0.439712 0.947439 0.247291
O O15 0.388539 0.888100 0.983057
O O16 0.319270 0.893776 0.298018
O O17 0.500000 0.500000 0.500000
#
# Coordination Sequence:
#
# PCOD9109145 Si02
#       8
#     2   2   2   2   2   2   2   2
#     4  10  22  38  62  95 129 169 219 268 323 391
#     4   9  20  38  60  88 126 164 211 264 318 380
#     4  11  22  42  64  91 131 174 214 271 324 389
#     4  10  21  38  63  95 128 170 218 269 327 387
#     4  11  25  44  65  96 133 169 224 275 325 395
#     4  10  24  44  65  95 134 174 216 270 332 388
#     4  10  20  41  63  90 128 172 215 269 329 392
#     4  11  23  41  67  97 127 172 222 266 333 392
#
# _framework density 21.941504999999999
#
# number of rings (size 3 to 8) (size 9 to 14) (size 15 to 20)
#    0.000    1.750    1.250    2.625    1.750    4.000 
#    0.000    2.500    0.000    0.000    0.000    0.000 
#    0.000    0.000    0.000    0.000    0.000    0.000 
#
# Total GULP energy -89135.156030 kJ/mol
# GULP energy per Si atom -5570.947252 kJ/mol
# Density = 2.189157 g / cm^3
# Si number density = 21.941505 Si / 1000 Ang^3
#
#
#
# Elastic Constant Matrix: (Units=GPa)
#
#
# Indices 1 2 3 4 5 6 
#
# 1 122.5910 40.3280 47.7801 -14.8067 -6.7660 6.5849
# 2 40.3280 120.3401 63.9931 -6.7678 2.2301 1.1473
# 3 47.7801 63.9931 82.1265 -18.6914 -17.9261 4.0312
# 4 -14.8067 -6.7678 -18.6914 30.8798 5.0254 15.0066
# 5 -6.7660 2.2301 -17.9261 5.0254 39.3271 -4.6077
# 6 6.5849 1.1473 4.0312 15.0066 -4.6077 27.9023
#
#
#
# Elastic Compliance Matrix: (Units=1/GPa)
#
#
# Indices 1 2 3 4 5 6 
#
# 1 0.011030 -0.000817 -0.004789 0.004682 -0.001379 -0.004624
# 2 -0.000817 0.016793 -0.016096 -0.007675 -0.006884 0.004819
# 3 -0.004789 -0.016096 0.035067 0.018956 0.012311 -0.011437
# 4 0.004682 -0.007675 0.018956 0.063338 -0.002668 -0.038034
# 5 -0.001379 -0.006884 0.012311 -0.002668 0.032187 0.005580
# 6 -0.004624 0.004819 -0.011437 -0.038034 0.005580 0.059762
#
#
# Mechanical properties :
#
#
# Convention : Reuss Voigt Hill
#
# Bulk Modulus (GPa) = 51.31667 69.91776 60.61722
# Shear Modulus (GPa) = 18.65136 31.15225 24.90181
#
# Velocity S-wave (km/s) = 2.91872 3.77209 3.37251
# Velocity P-wave (km/s) = 5.89892 7.13486 6.54613
#
# Compressibility (1/GPa) = 0.01948685
#
# Stress axis : x y z
#
# Youngs Moduli (GPa) = 90.65938 59.54976 28.51649
#
# Poissons Ratio (x) = 0.04863 0.13657
# Poissons Ratio (y) = 0.07404 0.45900
# Poissons Ratio (z) = 0.43420 0.95850
#
# Static dielectric constant tensor:
#      x y z
#    x 1.840930 -0.001860 0.051130 
#    y -0.001860 1.869600 0.044030 
#    z 0.051130 0.044030 1.897750 
# 
# From -- ./inp_files/38973.got.cif
#   From: 2010.05.17/outbox.cif.g08.bks.cpg/sg2_20_cif.got.tgz:38973.got - 2010.06.03 11:33:40.
