data_PCOD9109322
_publ_section_title
;
Structure prediction by ZEFSAII (Michael W. Deem and Ramdas Pophale) SiO2 
 PCOD9109322
Probable space group: P -1
;
_chemical_formula_sum "Si O2"
_cell_formula_units_Z 14
_cell_length_a 8.812111
_cell_length_b 7.284028
_cell_length_c 10.490411
_cell_angle_alpha 62.186407
_cell_angle_beta 81.204281
_cell_angle_gamma 106.287007
_cell_volume 538.782823
_symmetry_space_group_name_H-M "P -1"
_symmetry_group_IT_number 2
_symmetry_cell_setting 'triclinic'
loop_
_space_group_symop_operation_xyz
x,y,z
-x,-y,-z
loop_
_atom_site_type_symbol
_atom_site_label
_atom_site_fract_x
_atom_site_fract_y
_atom_site_fract_z
Si Si1 0.760799 0.220987 0.684783
Si Si2 0.247870 0.238875 0.938129
Si Si3 0.663457 0.619148 0.528871
Si Si4 0.026974 0.101538 0.783116
Si Si5 0.824666 0.355214 0.134075
Si Si6 0.514023 0.256842 0.047954
Si Si7 0.838133 0.058214 0.468204
O O1 0.703152 0.421114 0.649085
O O2 0.911422 0.244501 0.754148
O O3 0.826139 0.214413 0.534891
O O4 0.610422 0.974463 0.794785
O O5 0.249245 0.483821 0.833825
O O6 0.141134 0.086296 0.888472
O O7 0.424422 0.221954 0.933227
O O8 0.131797 0.144394 0.111309
O O9 0.500000 0.500000 0.500000
O O10 0.830261 0.765674 0.378930
O O11 0.673152 0.818135 0.560136
O O12 0.693394 0.271780 0.060839
O O13 0.843453 0.185081 0.291933
O O14 0.000000 0.500000 0.000000
O O15 0.500000 0.500000 0.000000
O O16 0.000000 0.000000 0.500000
#
# Coordination Sequence:
#
# PCOD9109322 Si02
#       7
#     2   2   2   2   2   2   2
#     4  11  24  45  71  97 143 184 234 292 346 418
#     4   9  20  38  67  92 126 184 229 278 352 405
#     4  12  26  42  66 103 142 179 232 291 346 419
#     4  10  20  41  64  95 133 178 230 285 342 414
#     4  11  23  40  65  98 139 177 231 289 342 418
#     4   9  21  41  67  98 132 185 231 283 355 414
#     4  12  27  44  73 105 138 190 237 282 357 416
#
# _framework density 25.984496
#
# number of rings (size 3 to 8) (size 9 to 14) (size 15 to 20)
#    0.000    1.429    1.429    3.000    6.000    4.571 
#    0.000    0.000    0.000    6.857    0.000    0.000 
#    0.000    0.000    0.000    0.000    0.000    0.000 
#
# Total GULP energy -78070.626023 kJ/mol
# GULP energy per Si atom -5576.473287 kJ/mol
# Density = 2.592535 g / cm^3
# Si number density = 25.984496 Si / 1000 Ang^3
#
#
#
# Elastic Constant Matrix: (Units=GPa)
#
#
# Indices 1 2 3 4 5 6 
#
# 1 188.5381 41.0743 88.6086 -2.6859 39.4267 47.0898
# 2 41.0743 71.0981 40.8977 -13.0201 9.7409 19.0479
# 3 88.6086 40.8977 138.5878 -29.4334 14.8325 -4.3940
# 4 -2.6859 -13.0201 -29.4334 39.4997 -1.6908 9.1073
# 5 39.4267 9.7409 14.8325 -1.6908 54.1558 1.1751
# 6 47.0898 19.0479 -4.3940 9.1073 1.1751 50.6601
#
#
#
# Elastic Compliance Matrix: (Units=1/GPa)
#
#
# Indices 1 2 3 4 5 6 
#
# 1 0.015412 0.001875 -0.010653 -0.003128 -0.008407 -0.015197
# 2 0.001875 0.020829 -0.006392 0.004613 -0.002981 -0.010889
# 3 -0.010653 -0.006392 0.017461 0.007501 0.004089 0.012377
# 4 -0.003128 0.004613 0.007501 0.033195 0.000520 -0.004156
# 5 -0.008407 -0.002981 0.004089 0.000520 0.023831 0.008644
# 6 -0.015197 -0.010889 0.012377 -0.004156 0.008644 0.039580
#
#
# Mechanical properties :
#
#
# Convention : Reuss Voigt Hill
#
# Bulk Modulus (GPa) = 42.80576 82.15390 62.47983
# Shear Modulus (GPa) = 26.53423 44.03933 35.28678
#
# Velocity S-wave (km/s) = 3.19902 4.12130 3.68909
# Velocity P-wave (km/s) = 5.49129 7.37102 6.49947
#
# Compressibility (1/GPa) = 0.02336134
#
# Stress axis : x y z
#
# Youngs Moduli (GPa) = 64.88641 48.00922 57.26911
#
# Poissons Ratio (x) = -0.09002 0.61011
# Poissons Ratio (y) = -0.12167 0.36607
# Poissons Ratio (z) = 0.69126 0.30688
#
# Static dielectric constant tensor:
#      x y z
#    x 2.056170 -0.072280 -0.090670 
#    y -0.072280 2.312700 0.134040 
#    z -0.090670 0.134040 2.266270 
# 
# From -- ./inp_files/375437.got.cif
#   From: 2010.05.17/outbox.cif.g08.bks.cpg/sg2_188_cif.got.tgz:375437.got - 2010.06.03 11:33:40.
