data_PCOD9109870
_publ_section_title
;
Structure prediction by ZEFSAII (Michael W. Deem and Ramdas Pophale) SiO2 
 PCOD9109870
Probable space group: P -1
;
_chemical_formula_sum "Si O2"
_cell_formula_units_Z 12
_cell_length_a 8.274126
_cell_length_b 5.132150
_cell_length_c 13.708989
_cell_angle_alpha 121.789468
_cell_angle_beta 99.510987
_cell_angle_gamma 62.320972
_cell_volume 435.738764
_symmetry_space_group_name_H-M "P -1"
_symmetry_group_IT_number 2
_symmetry_cell_setting 'triclinic'
loop_
_space_group_symop_operation_xyz
x,y,z
-x,-y,-z
loop_
_atom_site_type_symbol
_atom_site_label
_atom_site_fract_x
_atom_site_fract_y
_atom_site_fract_z
Si Si1 0.479122 0.040109 0.834822
Si Si2 0.693824 0.290674 0.535145
Si Si3 0.136605 0.287180 0.241084
Si Si4 0.546590 0.656309 0.314747
Si Si5 0.922527 0.276637 0.388078
Si Si6 0.089940 0.590682 0.936117
O O1 0.458966 0.118816 0.732771
O O2 0.308402 0.366896 0.925745
O O3 0.688841 0.963264 0.856232
O O4 0.462130 0.693483 0.788120
O O5 0.500000 0.500000 0.500000
O O6 0.782854 0.495160 0.646501
O O7 0.621350 0.143705 0.588413
O O8 0.844813 0.110464 0.430414
O O9 0.064306 0.106144 0.279050
O O10 0.975421 0.499843 0.191277
O O11 0.738312 0.524568 0.362068
O O12 0.000000 0.500000 0.500000
O O13 0.000000 0.500000 0.000000
O O14 0.000000 0.000000 0.000000
#
# Coordination Sequence:
#
# PCOD9109870 Si02
#       6
#     2   2   2   2   2   2
#     4  11  24  45  72 100 137 180 233 291 354 413
#     4   8  17  36  68 104 144 184 232 272 339 416
#     4  10  22  42  73 103 145 187 228 291 352 409
#     4  10  20  41  67  99 147 183 223 285 337 407
#     4   9  17  38  66 103 143 185 233 274 342 415
#     4  12  28  48  75 103 136 180 239 298 358 420
#
# _framework density 27.539432999999999
#
# number of rings (size 3 to 8) (size 9 to 14) (size 15 to 20)
#    0.000    2.000    1.667    1.000    0.000    4.000 
#    0.000   31.667    0.000    0.000    0.000    0.000 
#    0.000    0.000    0.000    0.000    0.000    0.000 
#
# Total GULP energy -67152.455364 kJ/mol
# GULP energy per Si atom -5596.037947 kJ/mol
# Density = 2.747675 g / cm^3
# Si number density = 27.539433 Si / 1000 Ang^3
#
#
#
# Elastic Constant Matrix: (Units=GPa)
#
#
# Indices 1 2 3 4 5 6 
#
# 1 169.1769 25.7232 49.8272 15.1840 -36.4710 -3.5137
# 2 25.7232 85.8787 16.9372 -0.2082 -5.4561 -5.8055
# 3 49.8272 16.9372 99.4952 17.8867 -8.6175 13.2776
# 4 15.1840 -0.2082 17.8867 55.5159 -4.7050 -4.5227
# 5 -36.4710 -5.4561 -8.6175 -4.7050 64.4287 -7.9802
# 6 -3.5137 -5.8055 13.2776 -4.5227 -7.9802 58.3096
#
#
#
# Elastic Compliance Matrix: (Units=1/GPa)
#
#
# Indices 1 2 3 4 5 6 
#
# 1 0.008177 -0.001353 -0.003626 -0.000578 0.004199 0.001714
# 2 -0.001353 0.012562 -0.001877 0.001193 0.000349 0.001737
# 3 -0.003626 -0.001877 0.013267 -0.003706 -0.001188 -0.003876
# 4 -0.000578 0.001193 -0.003706 0.019669 0.001036 0.002595
# 5 0.004199 0.000349 -0.001188 0.001036 0.018233 0.003134
# 6 0.001714 0.001737 -0.003876 0.002595 0.003134 0.018939
#
#
# Mechanical properties :
#
#
# Convention : Reuss Voigt Hill
#
# Bulk Modulus (GPa) = 49.27398 59.94733 54.61066
# Shear Modulus (GPa) = 44.91409 53.12171 49.01790
#
# Velocity S-wave (km/s) = 4.04282 4.39673 4.22348
# Velocity P-wave (km/s) = 6.30266 6.89855 6.60733
#
# Compressibility (1/GPa) = 0.02029469
#
# Stress axis : x y z
#
# Youngs Moduli (GPa) = 122.28802 79.60348 75.37585
#
# Poissons Ratio (x) = 0.10770 0.27331
# Poissons Ratio (y) = 0.16546 0.14147
# Poissons Ratio (z) = 0.44342 0.14941
#
# Static dielectric constant tensor:
#      x y z
#    x 2.106990 0.002330 -0.012320 
#    y 0.002330 2.205850 0.097130 
#    z -0.012320 0.097130 2.187080 
# 
# From -- ./inp_files/227183.got.cif
#   From: 2010.05.17/outbox.cif.g08.bks.cpg/sg2_114_cif.got.tgz:227183.got - 2010.06.03 11:33:40.
