data_PCOD9110232
_publ_section_title
;
Structure prediction by ZEFSAII (Michael W. Deem and Ramdas Pophale) SiO2 
 PCOD9110232
Probable space group: P -1
;
_chemical_formula_sum "Si O2"
_cell_formula_units_Z 16
_cell_length_a 16.085157
_cell_length_b 8.608915
_cell_length_c 10.690289
_cell_angle_alpha 137.606359
_cell_angle_beta 68.061926
_cell_angle_gamma 133.985995
_cell_volume 687.887157
_symmetry_space_group_name_H-M "P -1"
_symmetry_group_IT_number 2
_symmetry_cell_setting 'triclinic'
loop_
_space_group_symop_operation_xyz
x,y,z
-x,-y,-z
loop_
_atom_site_type_symbol
_atom_site_label
_atom_site_fract_x
_atom_site_fract_y
_atom_site_fract_z
Si Si1 0.503406 0.292850 0.469832
Si Si2 0.229006 0.258422 0.334673
Si Si3 0.937578 0.366348 0.796110
Si Si4 0.435406 0.086322 0.889306
Si Si5 0.032336 0.025309 0.138852
Si Si6 0.374625 0.206820 0.728228
Si Si7 0.815664 0.501598 0.262068
Si Si8 0.136025 0.964000 0.611199
O O1 0.500000 0.500000 0.500000
O O2 0.629226 0.520683 0.609905
O O3 0.402246 0.124497 0.533387
O O4 0.508713 0.070290 0.253534
O O5 0.194161 0.400878 0.536528
O O6 0.161968 0.922933 0.232313
O O7 0.170554 0.217796 0.210985
O O8 0.061822 0.433540 0.772330
O O9 0.892399 0.265358 0.618773
O O10 0.963353 0.670204 0.001614
O O11 0.402832 0.117278 0.785543
O O12 0.308380 0.851769 0.894175
O O13 0.532945 0.419577 0.095217
O O14 0.981784 0.152904 0.320242
O O15 0.000000 0.000000 0.000000
O O16 0.237331 0.053398 0.702892
O O17 0.818584 0.727411 0.303477
#
# Coordination Sequence:
#
# PCOD9110232 Si02
#       8
#     2   2   2   2   2   2   2   2
#     4  11  24  43  71  98 130 170 226 272 324 386
#     4  10  21  43  65  98 130 165 217 270 320 383
#     4  11  22  41  69  90 129 172 210 268 328 367
#     4  10  25  43  65  99 130 175 218 267 330 384
#     4  12  27  39  61  99 132 172 213 260 322 397
#     4  11  25  43  67  94 137 176 213 270 325 388
#     4  10  20  41  71  90 128 169 216 270 319 379
#     4  11  24  44  64  98 130 166 223 264 317 392
#
# _framework density 23.259629
#
# number of rings (size 3 to 8) (size 9 to 14) (size 15 to 20)
#    0.000    1.250    2.500    3.750    3.500    7.500 
#    0.000    0.000    0.000    0.000    0.000    0.000 
#    0.000    0.000    0.000    0.000    0.000    0.000 
#
# Total GULP energy -89605.108090 kJ/mol
# GULP energy per Si atom -5600.319256 kJ/mol
# Density = 2.320669 g / cm^3
# Si number density = 23.259629 Si / 1000 Ang^3
#
#
#
# Elastic Constant Matrix: (Units=GPa)
#
#
# Indices 1 2 3 4 5 6 
#
# 1 98.9635 -0.9630 19.8991 -7.5302 8.6383 1.7370
# 2 -0.9630 29.6332 -1.5606 1.4756 -4.3404 2.8405
# 3 19.8991 -1.5606 63.1952 -4.2815 4.1260 -3.1991
# 4 -7.5302 1.4756 -4.2815 32.0085 -5.3754 6.6898
# 5 8.6383 -4.3404 4.1260 -5.3754 34.0355 -8.0801
# 6 1.7370 2.8405 -3.1991 6.6898 -8.0801 26.0896
#
#
#
# Elastic Compliance Matrix: (Units=1/GPa)
#
#
# Indices 1 2 3 4 5 6 
#
# 1 0.011230 -0.000074 -0.003337 0.002282 -0.002705 -0.002572
# 2 -0.000074 0.034569 0.000482 -0.000411 0.003724 -0.002441
# 3 -0.003337 0.000482 0.017084 0.000999 -0.000570 0.001832
# 4 0.002282 -0.000411 0.000999 0.034037 0.002757 -0.007858
# 5 -0.002705 0.003724 -0.000570 0.002757 0.033254 0.009297
# 6 -0.002572 -0.002441 0.001832 -0.007858 0.009297 0.043885
#
#
# Mechanical properties :
#
#
# Convention : Reuss Voigt Hill
#
# Bulk Modulus (GPa) = 17.53592 25.17144 21.35368
# Shear Modulus (GPa) = 25.13512 30.05449 27.59480
#
# Velocity S-wave (km/s) = 3.29086 3.59852 3.44813
# Velocity P-wave (km/s) = 4.68991 5.30200 5.00532
#
# Compressibility (1/GPa) = 0.05702582
#
# Stress axis : x y z
#
# Youngs Moduli (GPa) = 89.04793 28.92781 58.53339
#
# Poissons Ratio (x) = 0.00215 0.19532
# Poissons Ratio (y) = 0.00660 -0.02824
# Poissons Ratio (z) = 0.29714 -0.01396
#
# Static dielectric constant tensor:
#      x y z
#    x 1.846060 -0.020090 -0.005030 
#    y -0.020090 1.896170 0.015610 
#    z -0.005030 0.015610 1.880300 
# 
# From -- ./inp_files/271736.got.cif
#   From: 2010.05.17/outbox.cif.g08.bks.cpg/sg2_136_cif.got.tgz:271736.got - 2010.06.03 11:33:40.
