data_PCOD9110946
_publ_section_title
;
Structure prediction by ZEFSAII (Michael W. Deem and Ramdas Pophale) SiO2 
 PCOD9110946
Probable space group: P -1
;
_chemical_formula_sum "Si O2"
_cell_formula_units_Z 16
_cell_length_a 9.298218
_cell_length_b 18.577928
_cell_length_c 11.907207
_cell_angle_alpha 38.115329
_cell_angle_beta 141.281756
_cell_angle_gamma 142.862805
_cell_volume 698.880963
_symmetry_space_group_name_H-M "P -1"
_symmetry_group_IT_number 2
_symmetry_cell_setting 'triclinic'
loop_
_space_group_symop_operation_xyz
x,y,z
-x,-y,-z
loop_
_atom_site_type_symbol
_atom_site_label
_atom_site_fract_x
_atom_site_fract_y
_atom_site_fract_z
Si Si1 0.327781 0.278077 0.367503
Si Si2 0.268744 0.112231 0.745896
Si Si3 0.399108 0.526720 0.218712
Si Si4 0.792385 0.145394 0.090146
Si Si5 0.096013 0.639847 0.747814
Si Si6 0.684776 0.202156 0.529405
Si Si7 0.169795 0.177618 0.847924
Si Si8 0.563449 0.081636 0.274385
O O1 0.211105 0.175757 0.524890
O O2 0.469845 0.424627 0.325091
O O3 0.524878 0.241638 0.468162
O O4 0.082402 0.253927 0.168409
O O5 0.139598 0.127373 0.762675
O O6 0.193545 0.961974 0.851878
O O7 0.585583 0.187959 0.862695
O O8 0.625706 0.666793 0.221944
O O9 0.206974 0.447161 0.301378
O O10 0.233169 0.561960 0.983969
O O11 0.646326 0.075670 0.203164
O O12 0.177998 0.681246 0.620005
O O13 0.216798 0.782146 0.708145
O O14 0.912245 0.172235 0.751152
O O15 0.489706 0.057909 0.534512
O O16 0.308644 0.105112 0.086887
#
# Coordination Sequence:
#
# PCOD9110946 Si02
#       8
#     2   2   2   2   2   2   2   2
#     4  12  24  41  68  99 139 176 217 278 329 401
#     4  10  22  40  67  95 132 175 223 274 321 397
#     4  10  23  46  68  90 129 185 227 270 312 402
#     4  10  21  41  66 103 132 172 228 266 338 392
#     4  10  22  41  68  95 125 170 232 270 323 395
#     4  12  25  38  62 104 134 170 214 275 353 389
#     4  10  24  43  66  96 131 176 225 272 326 394
#     4  10  20  42  67  95 134 166 218 285 332 393
#
# _framework density 22.893742
#
# number of rings (size 3 to 8) (size 9 to 14) (size 15 to 20)
#    0.000    1.500    2.500    1.875    1.750    4.000 
#    4.500    0.000    0.000    0.000    0.000    0.000 
#    0.000    0.000    0.000    0.000    0.000    0.000 
#
# Total GULP energy -89475.715433 kJ/mol
# GULP energy per Si atom -5592.232215 kJ/mol
# Density = 2.284163 g / cm^3
# Si number density = 22.893742 Si / 1000 Ang^3
#
#
#
# Elastic Constant Matrix: (Units=GPa)
#
#
# Indices 1 2 3 4 5 6 
#
# 1 115.5153 27.6575 30.0757 -7.2524 30.6863 -6.5984
# 2 27.6575 66.0687 -2.7877 -18.4008 1.9179 0.1107
# 3 30.0757 -2.7877 65.4834 -4.2097 9.3118 6.8679
# 4 -7.2524 -18.4008 -4.2097 40.3342 0.0523 1.4268
# 5 30.6863 1.9179 9.3118 0.0523 29.3791 -3.5737
# 6 -6.5984 0.1107 6.8679 1.4268 -3.5737 29.6862
#
#
#
# Elastic Compliance Matrix: (Units=1/GPa)
#
#
# Indices 1 2 3 4 5 6 
#
# 1 0.015471 -0.006600 -0.005872 -0.000939 -0.013471 0.003245
# 2 -0.006600 0.020364 0.004149 0.008618 0.003937 -0.002443
# 3 -0.005872 0.004149 0.019101 0.003044 -0.000927 -0.005997
# 4 -0.000939 0.008618 0.003044 0.028961 -0.000895 -0.002445
# 5 -0.013471 0.003937 -0.000927 -0.000895 0.048522 0.003090
# 6 0.003245 -0.002443 -0.005997 -0.002445 0.003090 0.036293
#
#
# Mechanical properties :
#
#
# Convention : Reuss Voigt Hill
#
# Bulk Modulus (GPa) = 26.11724 39.66205 32.88964
# Shear Modulus (GPa) = 25.23719 32.68803 28.96261
#
# Velocity S-wave (km/s) = 3.32379 3.78274 3.56067
# Velocity P-wave (km/s) = 5.11496 6.03663 5.59481
#
# Compressibility (1/GPa) = 0.03828889
#
# Stress axis : x y z
#
# Youngs Moduli (GPa) = 64.63827 49.10721 52.35343
#
# Poissons Ratio (x) = 0.32411 0.30740
# Poissons Ratio (y) = 0.42662 -0.21719
# Poissons Ratio (z) = 0.37954 -0.20373
#
# Static dielectric constant tensor:
#      x y z
#    x 1.834490 0.024920 0.002950 
#    y 0.024920 1.847250 0.049320 
#    z 0.002950 0.049320 1.881290 
# 
# From -- ./inp_files/243618.got.cif
#   From: 2010.05.17/outbox.cif.g08.bks.cpg/sg2_122_cif.got.tgz:243618.got - 2010.06.03 11:33:40.
