data_PCOD9110829
_publ_section_title
;
Structure prediction by ZEFSAII (Michael W. Deem and Ramdas Pophale) SiO2 
 PCOD9110829
Probable space group: P -1
;
_chemical_formula_sum "Si O2"
_cell_formula_units_Z 16
_cell_length_a 8.005987
_cell_length_b 12.332602
_cell_length_c 10.748246
_cell_angle_alpha 52.776498
_cell_angle_beta 63.864795
_cell_angle_gamma 77.514919
_cell_volume 756.756249
_symmetry_space_group_name_H-M "P -1"
_symmetry_group_IT_number 2
_symmetry_cell_setting 'triclinic'
loop_
_space_group_symop_operation_xyz
x,y,z
-x,-y,-z
loop_
_atom_site_type_symbol
_atom_site_label
_atom_site_fract_x
_atom_site_fract_y
_atom_site_fract_z
Si Si1 0.588541 0.894567 0.201766
Si Si2 0.607413 0.837221 0.953064
Si Si3 0.981895 0.499990 0.651784
Si Si4 0.995222 0.134333 0.298393
Si Si5 0.402017 0.592821 0.064744
Si Si6 0.068725 0.749952 0.000581
Si Si7 0.837469 0.210532 0.561201
Si Si8 0.097702 0.051329 0.750471
O O1 0.383578 0.820700 0.341471
O O2 0.548901 0.055051 0.091591
O O3 0.346452 0.151919 0.923314
O O4 0.732027 0.877240 0.279204
O O5 0.786615 0.890108 0.775253
O O6 0.539325 0.683570 0.045769
O O7 0.047132 0.906712 0.938138
O O8 0.103006 0.629829 0.570935
O O9 0.000000 0.500000 0.500000
O O10 0.761045 0.502775 0.750485
O O11 0.032022 0.360569 0.798933
O O12 0.926616 0.155700 0.443218
O O13 0.987609 0.261781 0.117317
O O14 0.281939 0.709006 0.961703
O O15 0.500000 0.500000 0.000000
O O16 0.135944 0.981093 0.651753
O O17 0.933951 0.146124 0.697206
#
# Coordination Sequence:
#
# PCOD9110829 Si02
#       8
#     2   2   2   2   2   2   2   2
#     4  11  23  40  64 100 135 171 215 274 334 391
#     4  11  21  39  66  98 131 169 226 273 318 397
#     4  10  22  42  64  92 134 174 212 266 336 390
#     4  10  22  43  65  94 131 168 223 269 325 390
#     4  10  20  42  66  95 127 176 222 268 323 390
#     4   8  21  41  65  90 121 178 213 259 325 394
#     4  12  24  42  68  99 132 174 216 281 332 382
#     4  10  22  44  66  95 134 172 221 269 332 392
#
# _framework density 21.142872000000001
#
# number of rings (size 3 to 8) (size 9 to 14) (size 15 to 20)
#    1.500    0.250    2.500    1.875    0.000    2.500 
#    4.500    0.000    0.000    3.000    0.000    0.000 
#    0.000    0.000    0.000    0.000    0.000    0.000 
#
# Total GULP energy -89114.986065 kJ/mol
# GULP energy per Si atom -5569.686629 kJ/mol
# Density = 2.109475 g / cm^3
# Si number density = 21.142872 Si / 1000 Ang^3
#
#
#
# Elastic Constant Matrix: (Units=GPa)
#
#
# Indices 1 2 3 4 5 6 
#
# 1 133.1039 43.1610 51.4503 -0.0647 -4.2280 18.2788
# 2 43.1610 109.7967 47.6183 2.2757 -15.4399 19.4764
# 3 51.4503 47.6183 132.6856 -2.0282 -6.7797 4.5814
# 4 -0.0647 2.2757 -2.0282 37.7977 -6.0924 -4.9386
# 5 -4.2280 -15.4399 -6.7797 -6.0924 38.5961 -3.3744
# 6 18.2788 19.4764 4.5814 -4.9386 -3.3744 30.5157
#
#
#
# Elastic Compliance Matrix: (Units=1/GPa)
#
#
# Indices 1 2 3 4 5 6 
#
# 1 0.009889 -0.001847 -0.003064 -0.000735 -0.000702 -0.004481
# 2 -0.001847 0.013080 -0.003587 -0.001247 0.003635 -0.006503
# 3 -0.003064 -0.003587 0.009952 0.001187 0.000416 0.002868
# 4 -0.000735 -0.001247 0.001187 0.028136 0.004605 0.006121
# 5 -0.000702 0.003635 0.000416 0.004605 0.028253 0.001908
# 6 -0.004481 -0.006503 0.002868 0.006121 0.001908 0.040376
#
#
# Mechanical properties :
#
#
# Convention : Reuss Voigt Hill
#
# Bulk Modulus (GPa) = 62.79220 73.33839 68.06529
# Shear Modulus (GPa) = 32.89682 36.93900 34.91791
#
# Velocity S-wave (km/s) = 3.94881 4.18438 4.06830
# Velocity P-wave (km/s) = 7.11015 7.62285 7.37096
#
# Compressibility (1/GPa) = 0.01592555
#
# Stress axis : x y z
#
# Youngs Moduli (GPa) = 101.12274 76.45327 100.47950
#
# Poissons Ratio (x) = 0.14121 0.30787
# Poissons Ratio (y) = 0.18678 0.36039
# Poissons Ratio (z) = 0.30985 0.27422
#
# Static dielectric constant tensor:
#      x y z
#    x 1.817030 -0.026000 0.024470 
#    y -0.026000 1.797440 -0.033790 
#    z 0.024470 -0.033790 1.799270 
# 
# From -- ./inp_files/393793.got.cif
#   From: 2010.05.17/outbox.cif.g08.bks.cpg/sg2_197_cif.got.tgz:393793.got - 2010.06.03 11:33:40.
