data_PCOD9110837
_publ_section_title
;
Structure prediction by ZEFSAII (Michael W. Deem and Ramdas Pophale) SiO2 
 PCOD9110837
Probable space group: P -1
;
_chemical_formula_sum "Si O2"
_cell_formula_units_Z 15
_cell_length_a 11.025964
_cell_length_b 12.512203
_cell_length_c 6.205435
_cell_angle_alpha 57.428302
_cell_angle_beta 90.942921
_cell_angle_gamma 60.976604
_cell_volume 584.357184
_symmetry_space_group_name_H-M "P -1"
_symmetry_group_IT_number 2
_symmetry_cell_setting 'triclinic'
loop_
_space_group_symop_operation_xyz
x,y,z
-x,-y,-z
loop_
_atom_site_type_symbol
_atom_site_label
_atom_site_fract_x
_atom_site_fract_y
_atom_site_fract_z
Si Si1 0.357927 0.776369 0.033952
Si Si2 0.576807 0.867423 0.828723
Si Si3 0.132080 0.822491 0.265262
Si Si4 0.272699 0.404581 0.184768
Si Si5 0.099062 0.093219 0.510739
Si Si6 0.231065 0.218332 0.707922
Si Si7 0.016510 0.688512 0.098103
Si Si8 0.500000 0.500000 0.000000
O O1 0.462105 0.834695 0.953523
O O2 0.437597 0.613128 0.092717
O O3 0.206696 0.907696 0.753983
O O4 0.293504 0.783141 0.263479
O O5 0.705804 0.705092 0.892877
O O6 0.500000 0.000000 0.500000
O O7 0.647750 0.903594 0.984358
O O8 0.070143 0.823124 0.496125
O O9 0.123598 0.705104 0.238250
O O10 0.000000 0.000000 0.000000
O O11 0.297185 0.301729 0.507098
O O12 0.107804 0.559146 0.059261
O O13 0.388692 0.446242 0.108984
O O14 0.175001 0.153771 0.597916
O O15 0.087883 0.146895 0.209834
O O16 0.085088 0.330572 0.726525
#
# Coordination Sequence:
#
# PCOD9110837 Si02
#       8
#     2   2   2   2   2   2   2   1
#     4  10  20  42  66  95 137 175 228 276 342 408
#     4  11  25  44  68  99 135 180 230 281 345 414
#     4   9  20  39  63  99 133 171 224 280 338 400
#     4  11  24  43  66  98 138 182 229 279 344 405
#     4  10  23  41  71 104 133 176 234 289 343 401
#     4  11  24  43  69 100 136 177 228 288 341 404
#     4  11  22  42  69 101 136 177 230 288 345 403
#     4  10  22  44  64  92 144 186 222 278 332 416
#
# _framework density 25.669231
#
# number of rings (size 3 to 8) (size 9 to 14) (size 15 to 20)
#    0.000    1.600    1.333    2.800    0.000    8.533 
#    2.400    5.333    0.000    0.000    0.000    0.000 
#    0.000    0.000    0.000    0.000    0.000    0.000 
#
# Total GULP energy -83693.507355 kJ/mol
# GULP energy per Si atom -5579.567157 kJ/mol
# Density = 2.561081 g / cm^3
# Si number density = 25.669231 Si / 1000 Ang^3
#
#
#
# Elastic Constant Matrix: (Units=GPa)
#
#
# Indices 1 2 3 4 5 6 
#
# 1 127.6423 45.2123 36.6528 28.5460 -33.9955 4.7115
# 2 45.2123 105.9380 -8.0243 8.6319 -15.8055 -12.0812
# 3 36.6528 -8.0243 49.8535 12.1191 -9.4032 8.6538
# 4 28.5460 8.6319 12.1191 23.7400 -11.7889 -9.4090
# 5 -33.9955 -15.8055 -9.4032 -11.7889 43.8764 15.9839
# 6 4.7115 -12.0812 8.6538 -9.4090 15.9839 50.6217
#
#
#
# Elastic Compliance Matrix: (Units=1/GPa)
#
#
# Indices 1 2 3 4 5 6 
#
# 1 0.018400 -0.006852 -0.008300 -0.013853 0.008958 -0.007332
# 2 -0.006852 0.013065 0.006286 0.001479 0.000073 0.002933
# 3 -0.008300 0.006286 0.030650 -0.009104 0.001868 -0.005249
# 4 -0.013853 0.001479 -0.009104 0.069561 0.000749 0.015891
# 5 0.008958 0.000073 0.001868 0.000749 0.034716 -0.011958
# 6 -0.007332 0.002933 -0.005249 0.015891 -0.011958 0.028763
#
#
# Mechanical properties :
#
#
# Convention : Reuss Voigt Hill
#
# Bulk Modulus (GPa) = 22.53239 47.90170 35.21705
# Shear Modulus (GPa) = 21.96052 37.62048 29.79050
#
# Velocity S-wave (km/s) = 2.92810 3.83245 3.41038
# Velocity P-wave (km/s) = 4.49763 6.18751 5.40897
#
# Compressibility (1/GPa) = 0.04438055
#
# Stress axis : x y z
#
# Youngs Moduli (GPa) = 54.34911 76.54090 32.62684
#
# Poissons Ratio (x) = 0.52448 0.27082
# Poissons Ratio (y) = 0.37241 -0.20509
# Poissons Ratio (z) = 0.45112 -0.48113
#
# Static dielectric constant tensor:
#      x y z
#    x 2.033550 -0.041000 -0.007080 
#    y -0.041000 2.000490 -0.041680 
#    z -0.007080 -0.041680 2.048720 
# 
# From -- ./inp_files/68409.got.cif
#   From: 2010.05.17/outbox.cif.g08.bks.cpg/sg2_35_cif.got.tgz:68409.got - 2010.06.03 11:33:40.
