data_PCOD9110582
_publ_section_title
;
Structure prediction by ZEFSAII (Michael W. Deem and Ramdas Pophale) SiO2 
 PCOD9110582
Probable space group: P -1
;
_chemical_formula_sum "Si O2"
_cell_formula_units_Z 12
_cell_length_a 18.508449
_cell_length_b 9.102383
_cell_length_c 9.543914
_cell_angle_alpha 42.764968
_cell_angle_beta 148.533000
_cell_angle_gamma 136.587139
_cell_volume 546.628117
_symmetry_space_group_name_H-M "P -1"
_symmetry_group_IT_number 2
_symmetry_cell_setting 'triclinic'
loop_
_space_group_symop_operation_xyz
x,y,z
-x,-y,-z
loop_
_atom_site_type_symbol
_atom_site_label
_atom_site_fract_x
_atom_site_fract_y
_atom_site_fract_z
Si Si1 0.370512 0.755173 0.809751
Si Si2 0.809877 0.916529 0.812340
Si Si3 0.654700 0.464238 0.774011
Si Si4 0.312053 0.959097 0.939659
Si Si5 0.979535 0.256902 0.557023
Si Si6 0.735732 0.717202 0.124683
O O1 0.360930 0.539722 0.846754
O O2 0.250961 0.881737 0.481395
O O3 0.670502 0.283396 0.813397
O O4 0.533510 0.916516 0.962703
O O5 0.765183 0.708443 0.776174
O O6 0.716928 0.825809 0.865908
O O7 0.966102 0.910613 0.132688
O O8 0.500000 0.500000 0.500000
O O9 0.668890 0.354561 0.025712
O O10 0.285751 0.120566 0.903507
O O11 0.170414 0.880427 0.663069
O O12 0.000000 0.500000 0.500000
O O13 0.100710 0.302602 0.603391
#
# Coordination Sequence:
#
# PCOD9110582 Si02
#       6
#     2   2   2   2   2   2
#     4  11  22  42  64  91 124 162 212 253 299 373
#     4   9  21  40  64  85 128 159 208 247 310 358
#     4  11  22  40  63  94 122 161 211 255 304 363
#     4  12  21  38  68  91 126 161 206 259 304 362
#     4  10  20  42  64  90 126 168 201 251 309 368
#     4   9  23  41  61  90 131 160 203 251 316 361
#
# _framework density 21.952769
#
# number of rings (size 3 to 8) (size 9 to 14) (size 15 to 20)
#    1.000    0.667    3.333    1.500    0.000    0.667 
#    3.000    5.833    0.000    0.000    0.000    0.000 
#    0.000    0.000    0.000    0.000    0.000    0.000 
#
# Total GULP energy -66873.233722 kJ/mol
# GULP energy per Si atom -5572.769477 kJ/mol
# Density = 2.190280 g / cm^3
# Si number density = 21.952769 Si / 1000 Ang^3
#
#
#
# Elastic Constant Matrix: (Units=GPa)
#
#
# Indices 1 2 3 4 5 6 
#
# 1 54.4252 41.7535 17.8189 -18.4664 14.5674 -24.7041
# 2 41.7535 177.4164 61.7561 -16.8834 12.3303 -28.9537
# 3 17.8189 61.7561 152.3579 -15.2343 12.6246 0.2048
# 4 -18.4664 -16.8834 -15.2343 41.1225 5.0532 14.4922
# 5 14.5674 12.3303 12.6246 5.0532 28.6223 -12.7754
# 6 -24.7041 -28.9537 0.2048 14.4922 -12.7754 43.4965
#
#
#
# Elastic Compliance Matrix: (Units=1/GPa)
#
#
# Indices 1 2 3 4 5 6 
#
# 1 0.032969 -0.004512 0.000296 0.012024 -0.013650 0.007705
# 2 -0.004512 0.008141 -0.003117 -0.001538 0.002239 0.004041
# 3 0.000296 -0.003117 0.008744 0.004637 -0.005803 -0.005197
# 4 0.012024 -0.001538 0.004637 0.037661 -0.019762 -0.012568
# 5 -0.013650 0.002239 -0.005803 -0.019762 0.054235 0.016279
# 6 0.007705 0.004041 -0.005197 -0.012568 0.016279 0.039050
#
#
# Mechanical properties :
#
#
# Convention : Reuss Voigt Hill
#
# Bulk Modulus (GPa) = 28.41846 69.65069 49.03458
# Shear Modulus (GPa) = 24.13204 40.17300 32.15252
#
# Velocity S-wave (km/s) = 3.31912 4.28246 3.83119
# Velocity P-wave (km/s) = 5.25948 7.49993 6.47731
#
# Compressibility (1/GPa) = 0.03518839
#
# Stress axis : x y z
#
# Youngs Moduli (GPa) = 30.33162 122.83970 114.36778
#
# Poissons Ratio (x) = 0.55420 -0.03385
# Poissons Ratio (y) = 0.13684 0.35646
# Poissons Ratio (z) = -0.00898 0.38287
#
# Static dielectric constant tensor:
#      x y z
#    x 1.905030 0.035000 0.022020 
#    y 0.035000 1.859760 -0.000650 
#    z 0.022020 -0.000650 1.867920 
# 
# From -- ./inp_files/241673.got.cif
#   From: 2010.05.17/outbox.cif.g08.bks.cpg/sg2_121_cif.got.tgz:241673.got - 2010.06.03 11:33:40.
