data_PCOD9110364
_publ_section_title
;
Structure prediction by ZEFSAII (Michael W. Deem and Ramdas Pophale) SiO2 
 PCOD9110364
Probable space group: P -1
;
_chemical_formula_sum "Si O2"
_cell_formula_units_Z 13
_cell_length_a 7.717848
_cell_length_b 11.093767
_cell_length_c 13.909658
_cell_angle_alpha 134.922351
_cell_angle_beta 132.380345
_cell_angle_gamma 76.581597
_cell_volume 551.026072
_symmetry_space_group_name_H-M "P -1"
_symmetry_group_IT_number 2
_symmetry_cell_setting 'triclinic'
loop_
_space_group_symop_operation_xyz
x,y,z
-x,-y,-z
loop_
_atom_site_type_symbol
_atom_site_label
_atom_site_fract_x
_atom_site_fract_y
_atom_site_fract_z
Si Si1 0.615267 0.698874 0.279997
Si Si2 0.691997 0.210462 0.157925
Si Si3 0.000000 0.500000 0.000000
Si Si4 0.277006 0.635942 0.940237
Si Si5 0.220696 0.902188 0.395669
Si Si6 0.268069 0.632195 0.405949
Si Si7 0.283290 0.476088 0.533844
O O1 0.336635 0.605780 0.181286
O O2 0.725000 0.547880 0.216962
O O3 0.829283 0.912535 0.511305
O O4 0.515909 0.723323 0.151120
O O5 0.708455 0.219519 0.054246
O O6 0.596486 0.356500 0.248950
O O7 0.996481 0.308849 0.362210
O O8 0.500000 0.000000 0.000000
O O9 0.019473 0.712048 0.157589
O O10 0.996612 0.543757 0.841510
O O11 0.264827 0.820382 0.468674
O O12 0.500000 0.000000 0.500000
O O13 0.245192 0.576308 0.478650
O O14 0.528942 0.618935 0.467551
#
# Coordination Sequence:
#
# PCOD9110364 Si02
#       7
#     2   2   1   2   2   2   2
#     4  10  22  40  59  95 123 168 202 248 313 372
#     4  10  22  42  63  92 120 160 207 259 306 365
#     4  10  20  42  58  88 122 158 208 258 292 372
#     4  10  22  40  63  88 134 161 204 256 309 366
#     4  10  22  37  64  90 124 158 210 247 313 365
#     4  10  20  43  63  86 125 164 199 264 299 366
#     4   9  22  42  64  87 122 160 209 253 313 355
#
# _framework density 23.592348999999999
#
# number of rings (size 3 to 8) (size 9 to 14) (size 15 to 20)
#    0.000    2.154    1.538    0.000    6.462    0.615 
#    8.308    2.308    0.000    0.000    0.000    0.000 
#    0.000    0.000    0.000    0.000    0.000    0.000 
#
# Total GULP energy -72373.968200 kJ/mol
# GULP energy per Si atom -5567.228323 kJ/mol
# Density = 2.353865 g / cm^3
# Si number density = 23.592349 Si / 1000 Ang^3
#
#
#
# Elastic Constant Matrix: (Units=GPa)
#
#
# Indices 1 2 3 4 5 6 
#
# 1 66.0293 13.7006 28.6889 21.2946 16.2328 -12.9549
# 2 13.7006 73.5393 48.0504 14.9470 13.5565 15.9292
# 3 28.6889 48.0504 139.7137 50.1059 -5.3198 4.2252
# 4 21.2946 14.9470 50.1059 38.5871 6.0422 5.7032
# 5 16.2328 13.5565 -5.3198 6.0422 32.9143 3.6532
# 6 -12.9549 15.9292 4.2252 5.7032 3.6532 33.3771
#
#
#
# Elastic Compliance Matrix: (Units=1/GPa)
#
#
# Indices 1 2 3 4 5 6 
#
# 1 0.025728 -0.003144 -0.000408 -0.012976 -0.010735 0.014930
# 2 -0.003144 0.024203 -0.011694 0.011037 -0.011005 -0.011972
# 3 -0.000408 -0.011694 0.020268 -0.024302 0.012124 0.005682
# 4 -0.012976 0.011037 -0.024302 0.064757 -0.012078 -0.016970
# 5 -0.010735 -0.011005 0.012124 -0.012078 0.044750 -0.003283
# 6 0.014930 -0.011972 0.005682 -0.016970 -0.003283 0.044009
#
#
# Mechanical properties :
#
#
# Convention : Reuss Voigt Hill
#
# Bulk Modulus (GPa) = 25.18441 51.12913 38.15677
# Shear Modulus (GPa) = 18.69556 33.56519 26.13037
#
# Velocity S-wave (km/s) = 2.81809 3.77598 3.33164
# Velocity P-wave (km/s) = 4.61376 6.38198 5.56850
#
# Compressibility (1/GPa) = 0.03970710
#
# Stress axis : x y z
#
# Youngs Moduli (GPa) = 38.86880 41.31675 49.33811
#
# Poissons Ratio (x) = 0.12991 0.02015
# Poissons Ratio (y) = 0.12221 0.57694
# Poissons Ratio (z) = 0.01587 0.48314
#
# Static dielectric constant tensor:
#      x y z
#    x 1.848140 -0.158070 0.067270 
#    y -0.158070 1.756980 0.056750 
#    z 0.067270 0.056750 1.811400 
# 
# From -- ./inp_files/303875.got.cif
#   From: 2010.05.17/outbox.cif.g08.bks.cpg/sg2_152_cif.got.tgz:303875.got - 2010.06.03 11:33:40.
