data_PCOD9110139
_publ_section_title
;
Structure prediction by ZEFSAII (Michael W. Deem and Ramdas Pophale) SiO2 
 PCOD9110139
Probable space group: P -1
;
_chemical_formula_sum "Si O2"
_cell_formula_units_Z 14
_cell_length_a 9.035677
_cell_length_b 8.007865
_cell_length_c 17.913834
_cell_angle_alpha 52.009343
_cell_angle_beta 59.540365
_cell_angle_gamma 100.378415
_cell_volume 606.942425
_symmetry_space_group_name_H-M "P -1"
_symmetry_group_IT_number 2
_symmetry_cell_setting 'triclinic'
loop_
_space_group_symop_operation_xyz
x,y,z
-x,-y,-z
loop_
_atom_site_type_symbol
_atom_site_label
_atom_site_fract_x
_atom_site_fract_y
_atom_site_fract_z
Si Si1 0.353245 0.232736 0.506679
Si Si2 0.461489 0.423498 0.118060
Si Si3 0.042544 0.249695 0.015857
Si Si4 0.440317 0.147538 0.669341
Si Si5 0.889626 0.620189 0.206091
Si Si6 0.873296 0.229798 0.549293
Si Si7 0.901711 0.601646 0.711748
O O1 0.330133 0.151277 0.621653
O O2 0.409726 0.534950 0.411005
O O3 0.603916 0.351150 0.378474
O O4 0.120685 0.935079 0.603234
O O5 0.712190 0.548682 0.052696
O O6 0.363328 0.545514 0.152537
O O7 0.243138 0.063342 0.292544
O O8 0.500000 0.500000 0.000000
O O9 0.092248 0.396584 0.882432
O O10 0.797867 0.136335 0.144699
O O11 0.970739 0.935532 0.111697
O O12 0.635676 0.142039 0.600390
O O13 0.049904 0.594355 0.218539
O O14 0.053176 0.335301 0.405558
O O15 0.000000 0.500000 0.500000
#
# Coordination Sequence:
#
# PCOD9110139 Si02
#       7
#     2   2   2   2   2   2   2
#     4  10  20  41  70 103 131 176 231 287 342 406
#     4  12  29  47  68 102 147 186 228 288 349 421
#     4  10  24  43  66 100 140 176 228 281 353 408
#     4  10  22  41  71  99 140 175 226 289 339 414
#     4  10  22  40  71 102 130 177 233 289 339 414
#     4  12  28  46  71 104 139 186 237 288 352 411
#     4  12  25  44  74 100 140 185 236 289 346 415
#
# _framework density 23.066441000000001
#
# number of rings (size 3 to 8) (size 9 to 14) (size 15 to 20)
#    0.000    1.143    1.429    3.429    6.000    4.571 
#    0.000    0.000    0.000    0.000    0.000    0.000 
#    0.000    0.000    0.000    0.000    0.000    0.000 
#
# Total GULP energy -78394.896859 kJ/mol
# GULP energy per Si atom -5599.635490 kJ/mol
# Density = 2.301394 g / cm^3
# Si number density = 23.066441 Si / 1000 Ang^3
#
#
#
# Elastic Constant Matrix: (Units=GPa)
#
#
# Indices 1 2 3 4 5 6 
#
# 1 78.2381 16.7286 30.3818 11.6811 8.1709 -9.1395
# 2 16.7286 74.1605 27.8817 17.2106 5.7312 14.9027
# 3 30.3818 27.8817 90.0469 35.5483 13.8895 1.2929
# 4 11.6811 17.2106 35.5483 48.5883 -0.1707 -0.6328
# 5 8.1709 5.7312 13.8895 -0.1707 38.2963 10.2154
# 6 -9.1395 14.9027 1.2929 -0.6328 10.2154 44.6293
#
#
#
# Elastic Compliance Matrix: (Units=1/GPa)
#
#
# Indices 1 2 3 4 5 6 
#
# 1 0.015853 -0.002842 -0.004266 0.000371 -0.002729 0.004949
# 2 -0.002842 0.017305 -0.003180 -0.003202 0.000894 -0.006518
# 3 -0.004266 -0.003180 0.019076 -0.011815 -0.005797 0.000795
# 4 0.000371 -0.003202 -0.011815 0.030297 0.004589 0.000867
# 5 -0.002729 0.000894 -0.005797 0.004589 0.030726 -0.007657
# 6 0.004949 -0.006518 0.000795 0.000867 -0.007657 0.027339
#
#
# Mechanical properties :
#
#
# Convention : Reuss Voigt Hill
#
# Bulk Modulus (GPa) = 31.58623 43.60332 37.59478
# Shear Modulus (GPa) = 29.11648 37.46633 33.29141
#
# Velocity S-wave (km/s) = 3.55672 4.03461 3.80318
# Velocity P-wave (km/s) = 5.53085 6.37561 5.96820
#
# Compressibility (1/GPa) = 0.03165937
#
# Stress axis : x y z
#
# Youngs Moduli (GPa) = 63.07836 57.78816 52.42182
#
# Poissons Ratio (x) = 0.16424 0.22361
# Poissons Ratio (y) = 0.17928 0.16668
# Poissons Ratio (z) = 0.26907 0.18374
#
# Static dielectric constant tensor:
#      x y z
#    x 1.869630 -0.055680 0.001420 
#    y -0.055680 1.901870 -0.031390 
#    z 0.001420 -0.031390 1.824670 
# 
# From -- ./inp_files/159563.got.cif
#   From: 2010.05.17/outbox.cif.g08.bks.cpg/sg2_80_cif.got.tgz:159563.got - 2010.06.03 11:33:40.
