data_PCOD9110327
_publ_section_title
;
Structure prediction by ZEFSAII (Michael W. Deem and Ramdas Pophale) SiO2 
 PCOD9110327
Probable space group: P -1
;
_chemical_formula_sum "Si O2"
_cell_formula_units_Z 16
_cell_length_a 20.029461
_cell_length_b 9.525629
_cell_length_c 13.094232
_cell_angle_alpha 134.534188
_cell_angle_beta 153.754391
_cell_angle_gamma 55.314059
_cell_volume 773.157671
_symmetry_space_group_name_H-M "P -1"
_symmetry_group_IT_number 2
_symmetry_cell_setting 'triclinic'
loop_
_space_group_symop_operation_xyz
x,y,z
-x,-y,-z
loop_
_atom_site_type_symbol
_atom_site_label
_atom_site_fract_x
_atom_site_fract_y
_atom_site_fract_z
Si Si1 0.857406 0.350867 0.774625
Si Si2 0.484490 0.958272 0.576056
Si Si3 0.106422 0.390715 0.518510
Si Si4 0.384401 0.655765 0.915835
Si Si5 0.337012 0.920583 0.792505
Si Si6 0.270755 0.334712 0.914187
Si Si7 0.427513 0.435271 0.477221
Si Si8 0.147472 0.702626 0.027665
O O1 0.788086 0.175732 0.511946
O O2 0.721085 0.474114 0.664895
O O3 0.893853 0.284494 0.904292
O O4 0.000000 0.500000 0.000000
O O5 0.594622 0.801593 0.670488
O O6 0.500000 0.000000 0.500000
O O7 0.536716 0.157167 0.812505
O O8 0.310803 0.848211 0.307406
O O9 0.204415 0.298037 0.690120
O O10 0.000000 0.500000 0.500000
O O11 0.987425 0.255513 0.210248
O O12 0.224601 0.545210 0.690824
O O13 0.500000 0.500000 0.000000
O O14 0.356087 0.753159 0.817202
O O15 0.286012 0.119422 0.870605
O O16 0.500000 0.000000 0.000000
O O17 0.176300 0.477035 0.921420
O O18 0.441949 0.469109 0.213883
O O19 0.500000 0.500000 0.500000
#
# Coordination Sequence:
#
# PCOD9110327 Si02
#       8
#     2   2   2   2   2   2   2   2
#     4  12  25  42  64 100 141 171 216 275 337 383
#     4  11  23  41  73  99 123 172 236 265 325 398
#     4  10  22  45  68  93 137 175 213 274 335 392
#     4  12  26  43  66 101 135 172 223 279 328 395
#     4  12  24  41  67  98 134 175 223 270 333 394
#     4  10  20  41  73  95 121 177 230 265 323 392
#     4  11  20  42  73  93 129 178 224 273 318 395
#     4  10  22  45  68  94 136 176 217 275 330 397
#
# _framework density 20.694357
#
# number of rings (size 3 to 8) (size 9 to 14) (size 15 to 20)
#    0.000    1.000    3.750    5.250    1.750    0.000 
#    6.750    4.375    0.000    0.000    0.000    0.000 
#    0.000    0.000    0.000    0.000    0.000    0.000 
#
# Total GULP energy -89407.704705 kJ/mol
# GULP energy per Si atom -5587.981544 kJ/mol
# Density = 2.064726 g / cm^3
# Si number density = 20.694357 Si / 1000 Ang^3
#
#
#
# Elastic Constant Matrix: (Units=GPa)
#
#
# Indices 1 2 3 4 5 6 
#
# 1 80.3913 -10.6172 0.1499 -3.1450 1.9042 13.6462
# 2 -10.6172 63.6575 -30.9735 1.1796 -9.4343 -9.1480
# 3 0.1499 -30.9735 72.2091 -7.7861 -13.0268 -15.0704
# 4 -3.1450 1.1796 -7.7861 35.9010 3.1651 -10.3791
# 5 1.9042 -9.4343 -13.0268 3.1651 49.0955 -1.8273
# 6 13.6462 -9.1480 -15.0704 -10.3791 -1.8273 32.4776
#
#
#
# Elastic Compliance Matrix: (Units=1/GPa)
#
#
# Indices 1 2 3 4 5 6 
#
# 1 0.013620 0.000426 -0.001538 -0.000998 -0.001039 -0.006694
# 2 0.000426 0.030309 0.020425 0.008598 0.011463 0.021228
# 3 -0.001538 0.020425 0.031571 0.012369 0.012521 0.025706
# 4 -0.000998 0.008598 0.012369 0.035700 0.003422 0.020182
# 5 -0.001039 0.011463 0.012521 0.003422 0.026161 0.012041
# 6 -0.006694 0.021228 0.025706 0.020182 0.012041 0.058638
#
#
# Mechanical properties :
#
#
# Convention : Reuss Voigt Hill
#
# Bulk Modulus (GPa) = 8.76220 14.81962 11.79091
# Shear Modulus (GPa) = 25.58683 40.67473 33.13078
#
# Velocity S-wave (km/s) = 3.52009 4.43820 4.00554
# Velocity P-wave (km/s) = 4.55682 5.78276 5.20600
#
# Compressibility (1/GPa) = 0.11412659
#
# Stress axis : x y z
#
# Youngs Moduli (GPa) = 73.42091 32.99399 31.67508
#
# Poissons Ratio (x) = -0.01406 0.04870
# Poissons Ratio (y) = -0.03128 -0.64697
# Poissons Ratio (z) = 0.11289 -0.67391
#
# Static dielectric constant tensor:
#      x y z
#    x 1.731850 0.002900 -0.056960 
#    y 0.002900 1.762830 -0.026060 
#    z -0.056960 -0.026060 1.768370 
# 
# From -- ./inp_files/403503.got.cif
#   From: 2010.05.17/outbox.cif.g08.bks.cpg/sg2_202_cif.got.tgz:403503.got - 2010.06.03 11:33:40.
