data_PCOD9110906
_publ_section_title
;
Structure prediction by ZEFSAII (Michael W. Deem and Ramdas Pophale) SiO2 
 PCOD9110906
Probable space group: P -1
;
_chemical_formula_sum "Si O2"
_cell_formula_units_Z 16
_cell_length_a 7.800960
_cell_length_b 12.933315
_cell_length_c 16.964004
_cell_angle_alpha 137.868616
_cell_angle_beta 124.378685
_cell_angle_gamma 85.786477
_cell_volume 740.746860
_symmetry_space_group_name_H-M "P -1"
_symmetry_group_IT_number 2
_symmetry_cell_setting 'triclinic'
loop_
_space_group_symop_operation_xyz
x,y,z
-x,-y,-z
loop_
_atom_site_type_symbol
_atom_site_label
_atom_site_fract_x
_atom_site_fract_y
_atom_site_fract_z
Si Si1 0.198309 0.942965 0.056816
Si Si2 0.797021 0.323698 0.207021
Si Si3 0.048308 0.062532 0.747746
Si Si4 0.398274 0.625559 0.529529
Si Si5 0.981262 0.378180 0.852283
Si Si6 0.371954 0.707418 0.023180
Si Si7 0.300119 0.236943 0.080665
Si Si8 0.527397 0.333115 0.615150
O O1 0.247684 0.820932 0.061937
O O2 0.421621 0.166835 0.263422
O O3 0.788873 0.144080 0.071393
O O4 0.905972 0.866241 0.959627
O O5 0.568007 0.262136 0.172656
O O6 0.094742 0.497011 0.405944
O O7 0.720476 0.382087 0.140033
O O8 0.309877 0.133885 0.806851
O O9 0.980246 0.203458 0.782480
O O10 0.144541 0.109479 0.890277
O O11 0.782678 0.839340 0.545930
O O12 0.500000 0.500000 0.500000
O O13 0.416227 0.657967 0.458387
O O14 0.718383 0.303213 0.693307
O O15 0.000000 0.500000 0.000000
O O16 0.237664 0.533671 0.952473
O O17 0.388497 0.455385 0.219668
#
# Coordination Sequence:
#
# PCOD9110906 Si02
#       8
#     2   2   2   2   2   2   2   2
#     4  10  20  42  67  90 129 171 210 268 330 381
#     4   9  22  41  66  94 124 172 213 265 328 376
#     4  11  23  37  64  97 130 177 218 263 321 388
#     4  12  25  43  71  97 128 172 219 273 332 391
#     4  12  21  39  64  93 132 178 220 260 323 385
#     4   9  20  41  63  90 132 173 213 264 317 384
#     4  11  20  41  68  90 129 174 212 268 323 387
#     4  12  23  43  65  94 136 171 219 274 327 383
#
# _framework density 21.599820999999999
#
# number of rings (size 3 to 8) (size 9 to 14) (size 15 to 20)
#    0.750    0.500    6.250    0.750    1.750    0.500 
#    0.000    1.875    0.000    0.000    0.000    0.000 
#    0.000    0.000    0.000    0.000    0.000    0.000 
#
# Total GULP energy -89465.607346 kJ/mol
# GULP energy per Si atom -5591.600459 kJ/mol
# Density = 2.155066 g / cm^3
# Si number density = 21.599821 Si / 1000 Ang^3
#
#
#
# Elastic Constant Matrix: (Units=GPa)
#
#
# Indices 1 2 3 4 5 6 
#
# 1 104.1815 9.3978 40.9007 -4.5475 34.9617 -13.0504
# 2 9.3978 50.2543 21.6256 -8.9987 11.3753 5.4607
# 3 40.9007 21.6256 150.9589 1.8237 35.2633 -11.2558
# 4 -4.5475 -8.9987 1.8237 38.5743 -3.3641 2.3771
# 5 34.9617 11.3753 35.2633 -3.3641 46.0314 -2.2684
# 6 -13.0504 5.4607 -11.2558 2.3771 -2.2684 30.5667
#
#
#
# Elastic Compliance Matrix: (Units=1/GPa)
#
#
# Indices 1 2 3 4 5 6 
#
# 1 0.013816 -0.000429 -0.001176 0.000484 -0.009214 0.004821
# 2 -0.000429 0.023710 -0.003104 0.005746 -0.003043 -0.006235
# 3 -0.001176 -0.003104 0.008829 -0.001914 -0.005092 0.003075
# 4 0.000484 0.005746 -0.001914 0.027766 0.001532 -0.003570
# 5 -0.009214 -0.003043 -0.005092 0.001532 0.033344 -0.002910
# 6 0.004821 -0.006235 0.003075 -0.003570 -0.002910 0.037081
#
#
# Mechanical properties :
#
#
# Convention : Reuss Voigt Hill
#
# Bulk Modulus (GPa) = 27.07297 49.91587 38.49442
# Shear Modulus (GPa) = 30.07044 38.59919 34.33482
#
# Velocity S-wave (km/s) = 3.73522 4.23190 3.99129
# Velocity P-wave (km/s) = 5.58243 6.85844 6.25307
#
# Compressibility (1/GPa) = 0.03693722
#
# Stress axis : x y z
#
# Youngs Moduli (GPa) = 72.37999 42.17664 113.25755
#
# Poissons Ratio (x) = 0.01811 0.13318
# Poissons Ratio (y) = 0.03108 0.35152
# Poissons Ratio (z) = 0.08511 0.13091
#
# Static dielectric constant tensor:
#      x y z
#    x 1.800080 0.006840 0.022760 
#    y 0.006840 1.833520 -0.011760 
#    z 0.022760 -0.011760 1.743730 
# 
# From -- ./inp_files/237565.got.cif
#   From: 2010.05.17/outbox.cif.g08.bks.cpg/sg2_119_cif.got.tgz:237565.got - 2010.06.03 11:33:40.
