data_PCOD9110930
_publ_section_title
;
Structure prediction by ZEFSAII (Michael W. Deem and Ramdas Pophale) SiO2 
 PCOD9110930
Probable space group: P -1
;
_chemical_formula_sum "Si O2"
_cell_formula_units_Z 16
_cell_length_a 11.854724
_cell_length_b 15.080446
_cell_length_c 9.255797
_cell_angle_alpha 116.003609
_cell_angle_beta 73.824137
_cell_angle_gamma 51.583363
_cell_volume 725.570142
_symmetry_space_group_name_H-M "P -1"
_symmetry_group_IT_number 2
_symmetry_cell_setting 'triclinic'
loop_
_space_group_symop_operation_xyz
x,y,z
-x,-y,-z
loop_
_atom_site_type_symbol
_atom_site_label
_atom_site_fract_x
_atom_site_fract_y
_atom_site_fract_z
Si Si1 0.051442 0.222042 0.490930
Si Si2 0.866489 0.687990 0.249576
Si Si3 0.246903 0.516125 0.470624
Si Si4 0.790074 0.219897 0.675733
Si Si5 0.593550 0.000888 0.192236
Si Si6 0.564989 0.823120 0.943922
Si Si7 0.463176 0.527249 0.789613
Si Si8 0.967562 0.284177 0.031244
O O1 0.971894 0.288446 0.402788
O O2 0.901596 0.247440 0.639050
O O3 0.025405 0.345152 0.666803
O O4 0.316646 0.998012 0.234872
O O5 0.601991 0.859579 0.513593
O O6 0.000000 0.500000 0.000000
O O7 0.912143 0.741812 0.157148
O O8 0.422973 0.480972 0.371602
O O9 0.179290 0.544760 0.679580
O O10 0.330252 0.359898 0.244180
O O11 0.646420 0.315791 0.643398
O O12 0.603206 0.355930 0.966802
O O13 0.000000 0.000000 0.500000
O O14 0.685914 0.822577 0.993291
O O15 0.806975 0.914794 0.102343
O O16 0.474329 0.115433 0.164958
O O17 0.223236 0.653883 0.913097
#
# Coordination Sequence:
#
# PCOD9110930 Si02
#       8
#     2   2   2   2   2   2   2   2
#     4  10  21  42  64  96 128 165 225 271 314 399
#     4  11  24  42  64  96 131 173 220 272 336 392
#     4  11  23  40  71  91 131 178 217 266 334 390
#     4  10  20  42  67  93 128 176 215 267 328 387
#     4  10  23  42  65  95 137 168 226 273 327 391
#     4  10  21  42  65  97 126 175 224 270 320 395
#     4  10  23  42  63 100 132 167 225 268 323 400
#     4  12  23  44  62  96 138 170 211 285 326 383
#
# _framework density 22.051621999999998
#
# number of rings (size 3 to 8) (size 9 to 14) (size 15 to 20)
#    0.000    1.500    2.500    2.250    1.750    0.500 
#    4.500    0.625    0.000    0.000    0.000    0.000 
#    0.000    0.000    0.000    0.000    0.000    0.000 
#
# Total GULP energy -89200.684689 kJ/mol
# GULP energy per Si atom -5575.042793 kJ/mol
# Density = 2.200143 g / cm^3
# Si number density = 22.051622 Si / 1000 Ang^3
#
#
#
# Elastic Constant Matrix: (Units=GPa)
#
#
# Indices 1 2 3 4 5 6 
#
# 1 99.0647 34.5345 38.8684 13.8463 -19.3778 -20.9566
# 2 34.5345 60.9402 30.2428 4.4781 -10.0249 -8.5296
# 3 38.8684 30.2428 114.1117 -11.9842 -8.6759 -5.8349
# 4 13.8463 4.4781 -11.9842 33.6001 0.4929 0.6807
# 5 -19.3778 -10.0249 -8.6759 0.4929 35.3986 5.0891
# 6 -20.9566 -8.5296 -5.8349 0.6807 5.0891 21.7496
#
#
#
# Elastic Compliance Matrix: (Units=1/GPa)
#
#
# Indices 1 2 3 4 5 6 
#
# 1 0.019266 -0.004684 -0.005134 -0.009523 0.006049 0.014233
# 2 -0.004684 0.022093 -0.004226 -0.002608 0.002326 0.002555
# 3 -0.005134 -0.004226 0.012154 0.007092 -0.000636 -0.003417
# 4 -0.009523 -0.002608 0.007092 0.036790 -0.003485 -0.008632
# 5 0.006049 0.002326 -0.000636 -0.003485 0.032236 -0.000864
# 6 0.014233 0.002555 -0.003417 -0.008632 -0.000864 0.060249
#
#
# Mechanical properties :
#
#
# Convention : Reuss Voigt Hill
#
# Bulk Modulus (GPa) = 39.32974 53.48976 46.40975
# Shear Modulus (GPa) = 22.79450 29.51439 26.15445
#
# Velocity S-wave (km/s) = 3.21859 3.66242 3.44765
# Velocity P-wave (km/s) = 5.62907 6.49566 6.07783
#
# Compressibility (1/GPa) = 0.02542605
#
# Stress axis : x y z
#
# Youngs Moduli (GPa) = 51.90369 45.26328 82.27824
#
# Poissons Ratio (x) = 0.21199 0.42240
# Poissons Ratio (y) = 0.24309 0.34774
# Poissons Ratio (z) = 0.26646 0.19130
#
# Static dielectric constant tensor:
#      x y z
#    x 1.833540 -0.018810 -0.005690 
#    y -0.018810 1.878850 0.008210 
#    z -0.005690 0.008210 1.821970 
# 
# From -- ./inp_files/273661.got.cif
#   From: 2010.05.17/outbox.cif.g08.bks.cpg/sg2_137_cif.got.tgz:273661.got - 2010.06.03 11:33:40.
