data_PCOD9110248
_publ_section_title
;
Structure prediction by ZEFSAII (Michael W. Deem and Ramdas Pophale) SiO2 
 PCOD9110248
Probable space group: P -1
;
_chemical_formula_sum "Si O2"
_cell_formula_units_Z 12
_cell_length_a 5.100841
_cell_length_b 8.361787
_cell_length_c 12.661457
_cell_angle_alpha 103.376621
_cell_angle_beta 101.822525
_cell_angle_gamma 104.034452
_cell_volume 489.830691
_symmetry_space_group_name_H-M "P -1"
_symmetry_group_IT_number 2
_symmetry_cell_setting 'triclinic'
loop_
_space_group_symop_operation_xyz
x,y,z
-x,-y,-z
loop_
_atom_site_type_symbol
_atom_site_label
_atom_site_fract_x
_atom_site_fract_y
_atom_site_fract_z
Si Si1 0.556698 0.346445 0.884965
Si Si2 0.062835 0.479449 0.624567
Si Si3 0.634147 0.848117 0.968679
Si Si4 0.697516 0.617649 0.768132
Si Si5 0.817130 0.072388 0.574907
Si Si6 0.051926 0.858677 0.183593
O O1 0.727541 0.514463 0.862171
O O2 0.677777 0.200187 0.825837
O O3 0.225496 0.297307 0.826724
O O4 0.566612 0.319761 0.007775
O O5 0.938103 0.603238 0.706257
O O6 0.905247 0.280254 0.610117
O O7 0.000000 0.500000 0.500000
O O8 0.396726 0.524611 0.676331
O O9 0.670898 0.792994 0.844346
O O10 0.918684 0.895419 0.068722
O O11 0.500000 0.000000 0.000000
O O12 0.871968 0.018704 0.690413
O O13 0.500000 0.000000 0.500000
O O14 0.000000 0.000000 0.500000
#
# Coordination Sequence:
#
# PCOD9110248 Si02
#       6
#     2   2   2   2   2   2
#     4  10  20  41  71  95 136 179 233 274 349 417
#     4  12  27  49  68 106 144 185 244 297 353 426
#     4  10  26  43  69 106 146 180 230 293 359 422
#     4  12  23  46  74  99 140 195 232 287 358 427
#     4  12  24  44  75 102 137 189 241 293 348 416
#     4  10  22  42  69 100 142 173 237 284 345 420
#
# _framework density 24.498260999999999
#
# number of rings (size 3 to 8) (size 9 to 14) (size 15 to 20)
#    1.000    0.000    3.333    3.000    2.333    2.667 
#    3.000    0.000    0.000    0.000    0.000    0.000 
#    0.000    0.000    0.000    0.000    0.000    0.000 
#
# Total GULP energy -67068.069627 kJ/mol
# GULP energy per Si atom -5589.005802 kJ/mol
# Density = 2.444250 g / cm^3
# Si number density = 24.498261 Si / 1000 Ang^3
#
#
#
# Elastic Constant Matrix: (Units=GPa)
#
#
# Indices 1 2 3 4 5 6 
#
# 1 115.4877 10.8968 45.1187 10.4808 -18.4307 -3.1736
# 2 10.8968 52.7562 31.4122 -4.4650 11.0229 -6.1276
# 3 45.1187 31.4122 154.9169 -3.6569 -26.3822 -13.1565
# 4 10.4808 -4.4650 -3.6569 40.3633 5.1647 -3.6830
# 5 -18.4307 11.0229 -26.3822 5.1647 59.1207 15.2103
# 6 -3.1736 -6.1276 -13.1565 -3.6830 15.2103 36.3157
#
#
#
# Elastic Compliance Matrix: (Units=1/GPa)
#
#
# Indices 1 2 3 4 5 6 
#
# 1 0.010631 -0.002129 -0.002332 -0.003860 0.003563 -0.002159
# 2 -0.002129 0.026198 -0.005744 0.004889 -0.010334 0.006978
# 3 -0.002332 -0.005744 0.009063 0.000276 0.004275 0.000348
# 4 -0.003860 0.004889 0.000276 0.027636 -0.005916 0.005868
# 5 0.003563 -0.010334 0.004275 -0.005916 0.025218 -0.011046
# 6 -0.002159 0.006978 0.000348 0.005868 -0.011046 0.033873
#
#
# Mechanical properties :
#
#
# Convention : Reuss Voigt Hill
#
# Bulk Modulus (GPa) = 39.24384 55.33511 47.28948
# Shear Modulus (GPa) = 30.95546 42.87547 36.91547
#
# Velocity S-wave (km/s) = 3.55854 4.18801 3.88604
# Velocity P-wave (km/s) = 5.73917 6.78397 6.28333
#
# Compressibility (1/GPa) = 0.02548170
#
# Stress axis : x y z
#
# Youngs Moduli (GPa) = 94.06891 38.17029 110.33878
#
# Poissons Ratio (x) = 0.08127 0.25732
# Poissons Ratio (y) = 0.20028 0.63378
# Poissons Ratio (z) = 0.21937 0.21925
#
# Static dielectric constant tensor:
#      x y z
#    x 1.895570 0.021620 -0.038270 
#    y 0.021620 2.193020 -0.049890 
#    z -0.038270 -0.049890 1.936850 
# 
# From -- ./inp_files/360338.got.cif
#   From: 2010.05.17/outbox.cif.g08.bks.cpg/sg2_181_cif.got.tgz:360338.got - 2010.06.03 11:33:40.
