data_PCOD9110609
_publ_section_title
;
Structure prediction by ZEFSAII (Michael W. Deem and Ramdas Pophale) SiO2 
 PCOD9110609
Probable space group: P -1
;
_chemical_formula_sum "Si O2"
_cell_formula_units_Z 14
_cell_length_a 20.659875
_cell_length_b 23.424486
_cell_length_c 12.080957
_cell_angle_alpha 150.674894
_cell_angle_beta 20.556593
_cell_angle_gamma 162.310968
_cell_volume 612.494809
_symmetry_space_group_name_H-M "P -1"
_symmetry_group_IT_number 2
_symmetry_cell_setting 'triclinic'
loop_
_space_group_symop_operation_xyz
x,y,z
-x,-y,-z
loop_
_atom_site_type_symbol
_atom_site_label
_atom_site_fract_x
_atom_site_fract_y
_atom_site_fract_z
Si Si1 0.504831 0.709054 0.507503
Si Si2 0.027377 0.624834 0.049118
Si Si3 0.061352 0.519518 0.604027
Si Si4 0.284514 0.316887 0.333105
Si Si5 0.013977 0.306619 0.149891
Si Si6 0.940564 0.008658 0.735970
Si Si7 0.276353 0.224586 0.956780
O O1 0.204119 0.506473 0.701232
O O2 0.761894 0.857098 0.436248
O O3 0.629413 0.691964 0.177894
O O4 0.369295 0.762127 0.764549
O O5 0.955674 0.719152 0.283675
O O6 0.924525 0.482622 0.878956
O O7 0.943893 0.343156 0.436179
O O8 0.417448 0.679201 0.324285
O O9 0.034947 0.620018 0.740393
O O10 0.624148 0.536624 0.165242
O O11 0.186015 0.255959 0.259763
O O12 0.291530 0.196440 0.180695
O O13 0.858241 0.104257 0.039064
O O14 0.000000 0.000000 0.500000
O O15 0.000000 0.000000 0.000000
#
# Coordination Sequence:
#
# PCOD9110609 Si02
#       7
#     2   2   2   2   2   2   2
#     4  10  22  42  63  94 133 164 219 263 322 384
#     4  10  21  41  67 100 124 172 215 269 330 376
#     4   9  21  41  70  90 130 178 211 265 327 380
#     4  11  23  40  72  95 128 177 213 265 329 380
#     4  10  22  45  65  94 133 174 219 260 320 394
#     4  12  25  40  65 100 129 169 217 266 324 388
#     4  10  20  42  64  93 131 165 219 264 314 389
#
# _framework density 22.857337000000001
#
# number of rings (size 3 to 8) (size 9 to 14) (size 15 to 20)
#    0.000    1.714    2.857    0.857    2.000    2.286 
#    7.714    6.429    3.143    0.000    0.000    0.000 
#    0.000    0.000    0.000    0.000    0.000    0.000 
#
# Total GULP energy -78128.125339 kJ/mol
# GULP energy per Si atom -5580.580381 kJ/mol
# Density = 2.280531 g / cm^3
# Si number density = 22.857337 Si / 1000 Ang^3
#
#
#
# Elastic Constant Matrix: (Units=GPa)
#
#
# Indices 1 2 3 4 5 6 
#
# 1 100.0740 17.1511 36.9667 17.8251 27.2642 13.9551
# 2 17.1511 76.6315 28.0927 21.8946 11.7749 -10.3213
# 3 36.9667 28.0927 96.0399 38.7885 22.1207 1.0981
# 4 17.8251 21.8946 38.7885 37.9708 -1.0087 -0.6855
# 5 27.2642 11.7749 22.1207 -1.0087 48.6697 -1.5861
# 6 13.9551 -10.3213 1.0981 -0.6855 -1.5861 32.9843
#
#
#
# Elastic Compliance Matrix: (Units=1/GPa)
#
#
# Indices 1 2 3 4 5 6 
#
# 1 0.014672 -0.001051 -0.001406 -0.005174 -0.007660 -0.006965
# 2 -0.001051 0.017285 -0.000123 -0.009343 -0.003552 0.005492
# 3 -0.001406 -0.000123 0.022262 -0.022292 -0.009800 -0.001119
# 4 -0.005174 -0.009343 -0.022292 0.057400 0.016545 0.001996
# 5 -0.007660 -0.003552 -0.009800 0.016545 0.030633 0.004272
# 6 -0.006965 0.005492 -0.001119 0.001996 0.004272 0.035267
#
#
# Mechanical properties :
#
#
# Convention : Reuss Voigt Hill
#
# Bulk Modulus (GPa) = 20.38337 48.57403 34.47870
# Shear Modulus (GPa) = 25.12156 36.62728 30.87442
#
# Velocity S-wave (km/s) = 3.31880 4.00738 3.67923
# Velocity P-wave (km/s) = 4.86034 6.53523 5.75900
#
# Compressibility (1/GPa) = 0.04905959
#
# Stress axis : x y z
#
# Youngs Moduli (GPa) = 68.15685 57.85477 44.91864
#
# Poissons Ratio (x) = 0.06081 0.06316
# Poissons Ratio (y) = 0.07164 0.00550
# Poissons Ratio (z) = 0.09584 0.00709
#
# Static dielectric constant tensor:
#      x y z
#    x 1.922730 -0.054550 -0.023970 
#    y -0.054550 1.860500 0.064170 
#    z -0.023970 0.064170 1.920660 
# 
# From -- ./inp_files/213080.got.cif
#   From: 2010.05.17/outbox.cif.g08.bks.cpg/sg2_107_cif.got.tgz:213080.got - 2010.06.03 11:33:40.
