data_PCOD9110927
_publ_section_title
;
Structure prediction by ZEFSAII (Michael W. Deem and Ramdas Pophale) SiO2 
 PCOD9110927
Probable space group: P -1
;
_chemical_formula_sum "Si O2"
_cell_formula_units_Z 16
_cell_length_a 12.055565
_cell_length_b 11.928545
_cell_length_c 14.816512
_cell_angle_alpha 31.135077
_cell_angle_beta 57.295273
_cell_angle_gamma 80.103102
_cell_volume 689.930980
_symmetry_space_group_name_H-M "P -1"
_symmetry_group_IT_number 2
_symmetry_cell_setting 'triclinic'
loop_
_space_group_symop_operation_xyz
x,y,z
-x,-y,-z
loop_
_atom_site_type_symbol
_atom_site_label
_atom_site_fract_x
_atom_site_fract_y
_atom_site_fract_z
Si Si1 0.838177 0.142028 0.414120
Si Si2 0.758874 0.250860 0.184741
Si Si3 0.358776 0.541832 0.444817
Si Si4 0.338347 0.253587 0.964542
Si Si5 0.132116 0.888994 0.932136
Si Si6 0.256144 0.530968 0.682692
Si Si7 0.376718 0.436987 0.015112
Si Si8 0.073109 0.599473 0.499603
O O1 0.751253 0.222855 0.464603
O O2 0.043446 0.429056 0.120964
O O3 0.804927 0.868765 0.656414
O O4 0.753569 0.104263 0.379657
O O5 0.752545 0.084087 0.217302
O O6 0.636834 0.324403 0.167548
O O7 0.527180 0.706294 0.193429
O O8 0.390869 0.608414 0.491596
O O9 0.237156 0.613574 0.425146
O O10 0.235254 0.197757 0.719538
O O11 0.298888 0.450864 0.809657
O O12 0.416134 0.358952 0.957448
O O13 0.155281 0.919734 0.270083
O O14 0.942040 0.752093 0.068025
O O15 0.076194 0.645724 0.196472
O O16 0.500000 0.500000 0.000000
O O17 0.000000 0.500000 0.500000
#
# Coordination Sequence:
#
# PCOD9110927 Si02
#       8
#     2   2   2   2   2   2   2   2
#     4  10  22  43  71  93 126 171 231 282 327 389
#     4  10  22  44  68  95 125 179 227 279 326 387
#     4  11  23  39  65  97 133 171 214 269 342 408
#     4  12  24  41  64  98 136 175 217 275 342 399
#     4  10  22  41  66  95 126 171 227 272 329 400
#     4  10  20  42  67  93 125 175 219 276 333 396
#     4  12  27  42  63  99 140 179 222 273 337 405
#     4  11  23  42  67  97 132 168 220 281 336 396
#
# _framework density 23.190726999999999
#
# number of rings (size 3 to 8) (size 9 to 14) (size 15 to 20)
#    0.000    1.250    1.250    6.375    1.750    2.500 
#    0.000    1.250    0.000    0.000    0.000    0.000 
#    0.000    0.000    0.000    0.000    0.000    0.000 
#
# Total GULP energy -89527.911998 kJ/mol
# GULP energy per Si atom -5595.494500 kJ/mol
# Density = 2.313794 g / cm^3
# Si number density = 23.190727 Si / 1000 Ang^3
#
#
#
# Elastic Constant Matrix: (Units=GPa)
#
#
# Indices 1 2 3 4 5 6 
#
# 1 83.0341 31.4673 10.6570 -1.9085 19.0056 21.4335
# 2 31.4673 101.8934 8.0820 16.0222 4.3214 26.2582
# 3 10.6570 8.0820 67.7865 9.7828 14.0214 7.4025
# 4 -1.9085 16.0222 9.7828 24.1198 -0.3550 6.3863
# 5 19.0056 4.3214 14.0214 -0.3550 28.8138 3.7184
# 6 21.4335 26.2582 7.4025 6.3863 3.7184 40.6481
#
#
#
# Elastic Compliance Matrix: (Units=1/GPa)
#
#
# Indices 1 2 3 4 5 6 
#
# 1 0.017860 -0.004308 -0.000369 0.006024 -0.010030 -0.006596
# 2 -0.004308 0.013776 0.000605 -0.008254 0.001095 -0.005541
# 3 -0.000369 0.000605 0.017687 -0.007330 -0.008351 -0.001502
# 4 0.006024 -0.008254 -0.007330 0.051700 0.002091 -0.004823
# 5 -0.010030 0.001095 -0.008351 0.002091 0.045033 0.001654
# 6 -0.006596 -0.005541 -0.001502 -0.004823 0.001654 0.032539
#
#
# Mechanical properties :
#
#
# Convention : Reuss Voigt Hill
#
# Bulk Modulus (GPa) = 24.28427 39.23629 31.76028
# Shear Modulus (GPa) = 24.94183 32.21686 28.57935
#
# Velocity S-wave (km/s) = 3.28305 3.73126 3.51431
# Velocity P-wave (km/s) = 4.98653 5.95976 5.49474
#
# Compressibility (1/GPa) = 0.04117893
#
# Stress axis : x y z
#
# Youngs Moduli (GPa) = 55.99093 72.58917 56.53780
#
# Poissons Ratio (x) = 0.31274 0.02084
# Poissons Ratio (y) = 0.24123 -0.03419
# Poissons Ratio (z) = 0.02064 -0.04389
#
# Static dielectric constant tensor:
#      x y z
#    x 1.871320 0.002630 -0.013420 
#    y 0.002630 1.872530 0.014370 
#    z -0.013420 0.014370 1.901360 
# 
# From -- ./inp_files/519480.got.cif
#   From: 2010.05.17/outbox.cif.g08.bks.cpg/sg2_260_cif.got.tgz:519480.got - 2010.06.03 11:33:40.
