data_PCOD9110094
_publ_section_title
;
Structure prediction by ZEFSAII (Michael W. Deem and Ramdas Pophale) SiO2 
 PCOD9110094
Probable space group: P -1
;
_chemical_formula_sum "Si O2"
_cell_formula_units_Z 16
_cell_length_a 9.830534
_cell_length_b 18.895252
_cell_length_c 5.332959
_cell_angle_alpha 125.018405
_cell_angle_beta 124.423862
_cell_angle_gamma 80.948597
_cell_volume 648.408505
_symmetry_space_group_name_H-M "P -1"
_symmetry_group_IT_number 2
_symmetry_cell_setting 'triclinic'
loop_
_space_group_symop_operation_xyz
x,y,z
-x,-y,-z
loop_
_atom_site_type_symbol
_atom_site_label
_atom_site_fract_x
_atom_site_fract_y
_atom_site_fract_z
Si Si1 0.111153 0.271223 0.539358
Si Si2 0.092150 0.086267 0.433498
Si Si3 0.823110 0.364599 0.507204
Si Si4 0.139463 0.851858 0.314387
Si Si5 0.388668 0.352764 0.629627
Si Si6 0.653602 0.272437 0.630357
Si Si7 0.347911 0.494807 0.532470
Si Si8 0.388738 0.997912 0.627534
O O1 0.114905 0.183767 0.526219
O O2 0.289045 0.326912 0.730117
O O3 0.999160 0.335879 0.655242
O O4 0.010783 0.229194 0.097481
O O5 0.276101 0.070340 0.659724
O O6 0.956757 0.086283 0.512571
O O7 0.000000 0.000000 0.000000
O O8 0.725310 0.337624 0.609773
O O9 0.805345 0.464623 0.640266
O O10 0.729249 0.304997 0.051677
O O11 0.278149 0.814322 0.533822
O O12 0.245529 0.904309 0.302122
O O13 0.455024 0.269339 0.433748
O O14 0.296043 0.399874 0.424384
O O15 0.558463 0.430502 0.016937
O O16 0.500000 0.500000 0.500000
O O17 0.500000 0.000000 0.500000
O O18 0.500000 0.000000 0.000000
#
# Coordination Sequence:
#
# PCOD9110094 Si02
#       8
#     2   2   2   2   2   2   2   2
#     4  11  25  44  69 105 141 185 241 300 363 430
#     4  12  25  48  75 100 146 193 242 302 372 435
#     4  10  21  42  66  98 137 180 231 284 350 422
#     4  11  25  46  72  96 144 190 235 298 370 426
#     4  10  23  40  68 104 138 183 240 293 354 429
#     4  10  21  41  66  97 135 182 229 287 346 421
#     4  10  20  41  69  95 141 189 232 289 359 428
#     4  12  29  46  71 107 139 183 245 299 359 432
#
# _framework density 24.675802000000001
#
# number of rings (size 3 to 8) (size 9 to 14) (size 15 to 20)
#    0.000    1.250    3.750    1.125    3.500    1.500 
#    2.250    0.625    0.000    0.000    0.000    0.000 
#    0.000    0.000    0.000    0.000    0.000    0.000 
#
# Total GULP energy -89411.839181 kJ/mol
# GULP energy per Si atom -5588.239949 kJ/mol
# Density = 2.461964 g / cm^3
# Si number density = 24.675802 Si / 1000 Ang^3
#
#
#
# Elastic Constant Matrix: (Units=GPa)
#
#
# Indices 1 2 3 4 5 6 
#
# 1 182.1701 76.4647 33.0322 -13.8638 -15.8125 -15.6428
# 2 76.4647 203.1859 29.1073 -20.3358 13.8872 -30.3684
# 3 33.0322 29.1073 82.5195 -2.1402 -4.9762 -3.7850
# 4 -13.8638 -20.3358 -2.1402 30.0998 0.0495 3.2951
# 5 -15.8125 13.8872 -4.9762 0.0495 33.5564 -3.8592
# 6 -15.6428 -30.3684 -3.7850 3.2951 -3.8592 60.7214
#
#
#
# Elastic Compliance Matrix: (Units=1/GPa)
#
#
# Indices 1 2 3 4 5 6 
#
# 1 0.007452 -0.002606 -0.001727 0.001464 0.004413 0.000710
# 2 -0.002606 0.007071 -0.001508 0.003221 -0.004114 0.002335
# 3 -0.001727 -0.001508 0.013418 -0.000841 0.001778 -0.000204
# 4 0.001464 0.003221 -0.000841 0.036022 -0.000829 -0.000072
# 5 0.004413 -0.004114 0.001778 -0.000829 0.034008 0.001397
# 6 0.000710 0.002335 -0.000204 -0.000072 0.001397 0.017899
#
#
# Mechanical properties :
#
#
# Convention : Reuss Voigt Hill
#
# Bulk Modulus (GPa) = 61.50992 82.78709 72.14850
# Shear Modulus (GPa) = 37.60178 46.82695 42.21437
#
# Velocity S-wave (km/s) = 3.90786 4.36097 4.14062
# Velocity P-wave (km/s) = 6.73374 7.67985 7.22230
#
# Compressibility (1/GPa) = 0.01625754
#
# Stress axis : x y z
#
# Youngs Moduli (GPa) = 134.19585 141.42506 74.52788
#
# Poissons Ratio (x) = 0.36855 0.12871
# Poissons Ratio (y) = 0.34971 0.11242
# Poissons Ratio (z) = 0.23176 0.21333
#
# Static dielectric constant tensor:
#      x y z
#    x 1.951680 -0.075570 -0.014710 
#    y -0.075570 2.031810 0.005160 
#    z -0.014710 0.005160 2.074170 
# 
# From -- ./inp_files/49176.got.cif
#   From: 2010.05.17/outbox.cif.g08.bks.cpg/sg2_25_cif.got.tgz:49176.got - 2010.06.03 11:33:40.
