data_PCOD9110938
_publ_section_title
;
Structure prediction by ZEFSAII (Michael W. Deem and Ramdas Pophale) SiO2 
 PCOD9110938
Probable space group: P -1
;
_chemical_formula_sum "Si O2"
_cell_formula_units_Z 16
_cell_length_a 11.153204
_cell_length_b 5.675119
_cell_length_c 16.645521
_cell_angle_alpha 86.412070
_cell_angle_beta 58.887986
_cell_angle_gamma 50.488839
_cell_volume 636.922506
_symmetry_space_group_name_H-M "P -1"
_symmetry_group_IT_number 2
_symmetry_cell_setting 'triclinic'
loop_
_space_group_symop_operation_xyz
x,y,z
-x,-y,-z
loop_
_atom_site_type_symbol
_atom_site_label
_atom_site_fract_x
_atom_site_fract_y
_atom_site_fract_z
Si Si1 0.821391 0.197119 0.779649
Si Si2 0.725543 0.801623 0.408496
Si Si3 0.113009 0.763336 0.540779
Si Si4 0.495709 0.211645 0.927583
Si Si5 0.856482 0.019084 0.993700
Si Si6 0.543886 0.341097 0.347920
Si Si7 0.855950 0.325176 0.224596
Si Si8 0.538298 0.092374 0.188449
O O1 0.704283 0.099908 0.849481
O O2 0.651355 0.571199 0.799447
O O3 0.965987 0.001562 0.658128
O O4 0.977717 0.066417 0.798369
O O5 0.844771 0.567791 0.449889
O O6 0.809087 0.548712 0.310765
O O7 0.500000 0.000000 0.500000
O O8 0.692018 0.093966 0.374430
O O9 0.330595 0.619631 0.457242
O O10 0.000000 0.000000 0.500000
O O11 0.455271 0.165775 0.852239
O O12 0.319008 0.610770 0.993690
O O13 0.500000 0.000000 0.000000
O O14 0.732110 0.991323 0.091580
O O15 0.014998 0.701927 0.887366
O O16 0.000000 0.000000 0.000000
O O17 0.651133 0.441227 0.271641
O O18 0.522824 0.171524 0.287026
#
# Coordination Sequence:
#
# PCOD9110938 Si02
#       8
#     2   2   2   2   2   2   2   2
#     4  10  23  42  67  97 130 177 226 273 341 402
#     4   9  23  40  64  97 129 170 222 271 329 399
#     4  10  20  42  67  94 133 170 221 275 330 400
#     4  11  25  44  67  96 135 177 228 279 331 397
#     4  11  24  41  63 101 134 174 222 272 337 397
#     4  11  23  41  69  98 134 177 221 278 340 397
#     4  11  23  42  70  94 141 176 219 280 342 394
#     4  11  23  42  69  97 136 176 227 277 335 398
#
# _framework density 25.120795999999999
#
# number of rings (size 3 to 8) (size 9 to 14) (size 15 to 20)
#    0.000    1.500    2.500    1.500    1.750   12.000 
#    0.000    1.875    0.000    0.000    0.000    0.000 
#    0.000    0.000    0.000    0.000    0.000    0.000 
#
# Total GULP energy -89210.997286 kJ/mol
# GULP energy per Si atom -5575.687330 kJ/mol
# Density = 2.506362 g / cm^3
# Si number density = 25.120796 Si / 1000 Ang^3
#
#
#
# Elastic Constant Matrix: (Units=GPa)
#
#
# Indices 1 2 3 4 5 6 
#
# 1 88.7012 16.2733 43.9159 8.2566 -18.6086 -7.5845
# 2 16.2733 129.7911 28.6639 -15.4832 -5.1307 -40.6024
# 3 43.9159 28.6639 215.3369 18.2614 -23.4181 2.6792
# 4 8.2566 -15.4832 18.2614 28.8497 -7.6541 3.6794
# 5 -18.6086 -5.1307 -23.4181 -7.6541 51.3046 1.9536
# 6 -7.5845 -40.6024 2.6792 3.6794 1.9536 25.2741
#
#
#
# Elastic Compliance Matrix: (Units=1/GPa)
#
#
# Indices 1 2 3 4 5 6 
#
# 1 0.013706 0.000116 -0.002318 -0.002064 0.003442 0.004580
# 2 0.000116 0.018577 -0.003536 0.008605 0.000467 0.028964
# 3 -0.002318 -0.003536 0.006142 -0.003950 0.001269 -0.006550
# 4 -0.002064 0.008605 -0.003950 0.042636 0.004401 0.007075
# 5 0.003442 0.000467 0.001269 0.004401 0.022049 -0.000697
# 6 0.004580 0.028964 -0.006550 0.007075 -0.000697 0.087189
#
#
# Mechanical properties :
#
#
# Convention : Reuss Voigt Hill
#
# Bulk Modulus (GPa) = 37.10759 67.94838 52.52798
# Shear Modulus (GPa) = 23.72392 44.08409 33.90400
#
# Velocity S-wave (km/s) = 3.07643 4.19368 3.67773
# Velocity P-wave (km/s) = 5.23670 7.11032 6.24418
#
# Compressibility (1/GPa) = 0.02694866
#
# Stress axis : x y z
#
# Youngs Moduli (GPa) = 72.95984 53.83084 162.81904
#
# Poissons Ratio (x) = -0.00625 0.37746
# Poissons Ratio (y) = -0.00847 0.57569
# Poissons Ratio (z) = 0.16914 0.19033
#
# Static dielectric constant tensor:
#      x y z
#    x 2.027780 0.008400 0.056260 
#    y 0.008400 2.201160 -0.068020 
#    z 0.056260 -0.068020 1.989090 
# 
# From -- ./inp_files/511161.got.cif
#   From: 2010.05.17/outbox.cif.g08.bks.cpg/sg2_256_cif.got.tgz:511161.got - 2010.06.03 11:33:40.
