data_PCOD9110730
_publ_section_title
;
Structure prediction by ZEFSAII (Michael W. Deem and Ramdas Pophale) SiO2 
 PCOD9110730
Probable space group: P -1
;
_chemical_formula_sum "Si O2"
_cell_formula_units_Z 16
_cell_length_a 8.858490
_cell_length_b 8.753517
_cell_length_c 13.959452
_cell_angle_alpha 69.413020
_cell_angle_beta 60.414199
_cell_angle_gamma 107.937513
_cell_volume 710.477971
_symmetry_space_group_name_H-M "P -1"
_symmetry_group_IT_number 2
_symmetry_cell_setting 'triclinic'
loop_
_space_group_symop_operation_xyz
x,y,z
-x,-y,-z
loop_
_atom_site_type_symbol
_atom_site_label
_atom_site_fract_x
_atom_site_fract_y
_atom_site_fract_z
Si Si1 0.842175 0.553095 0.007822
Si Si2 0.101733 0.435595 0.399346
Si Si3 0.633913 0.621198 0.337617
Si Si4 0.697237 0.784735 0.545862
Si Si5 0.004125 0.194056 0.288647
Si Si6 0.975969 0.165438 0.932675
Si Si7 0.630607 0.856949 0.758273
Si Si8 0.497227 0.139098 0.798053
O O1 0.941262 0.684158 0.852229
O O2 0.878205 0.677405 0.063764
O O3 0.601548 0.357492 0.108893
O O4 0.000000 0.500000 0.000000
O O5 0.157138 0.296381 0.467245
O O6 0.000707 0.315123 0.355949
O O7 0.323357 0.651548 0.251147
O O8 0.000000 0.500000 0.500000
O O9 0.500000 0.500000 0.500000
O O10 0.535483 0.421360 0.348202
O O11 0.891394 0.742983 0.227587
O O12 0.575152 0.769388 0.282375
O O13 0.694976 0.884418 0.621490
O O14 0.789586 0.963149 0.401176
O O15 0.192856 0.163552 0.246415
O O16 0.000000 0.000000 0.000000
O O17 0.719103 0.045536 0.039926
O O18 0.610886 0.035005 0.752954
#
# Coordination Sequence:
#
# PCOD9110730 Si02
#       8
#     2   2   2   2   2   2   2   2
#     4  12  25  46  65  96 138 177 224 280 331 400
#     4  10  20  42  66 100 138 171 223 282 331 400
#     4  10  22  40  63  98 133 176 223 271 338 405
#     4  10  21  39  65  93 132 175 217 276 337 389
#     4  11  25  41  70 100 131 179 228 270 343 403
#     4  10  22  42  66  91 136 180 217 277 344 386
#     4  11  21  44  66  96 134 175 218 278 340 399
#     4  10  21  39  70  96 132 177 216 280 343 394
#
# _framework density 22.520050000000001
#
# number of rings (size 3 to 8) (size 9 to 14) (size 15 to 20)
#    0.000    1.500    2.500    3.375    5.250    0.000 
#    6.750    3.125    0.000    0.000    0.000    0.000 
#    0.000    0.000    0.000    0.000    0.000    0.000 
#
# Total GULP energy -89073.353052 kJ/mol
# GULP energy per Si atom -5567.084566 kJ/mol
# Density = 2.246879 g / cm^3
# Si number density = 22.520050 Si / 1000 Ang^3
#
#
#
# Elastic Constant Matrix: (Units=GPa)
#
#
# Indices 1 2 3 4 5 6 
#
# 1 32.8629 18.4397 39.5193 -2.3607 -8.4758 -7.5345
# 2 18.4397 119.8995 49.9695 -11.3850 -11.0360 -17.5145
# 3 39.5193 49.9695 183.6001 -12.7328 -0.1945 -4.0065
# 4 -2.3607 -11.3850 -12.7328 29.9466 -2.3195 -1.0833
# 5 -8.4758 -11.0360 -0.1945 -2.3195 24.9127 0.5325
# 6 -7.5345 -17.5145 -4.0065 -1.0833 0.5325 14.3955
#
#
#
# Elastic Compliance Matrix: (Units=1/GPa)
#
#
# Indices 1 2 3 4 5 6 
#
# 1 0.054527 0.002580 -0.011611 0.002846 0.019271 0.027947
# 2 0.002580 0.012727 -0.003336 0.004713 0.006586 0.016018
# 3 -0.011611 -0.003336 0.008746 0.000869 -0.005120 -0.007447
# 4 0.002846 0.004713 0.000869 0.036625 0.006259 0.009990
# 5 0.019271 0.006586 -0.005120 0.006259 0.049830 0.015302
# 6 0.027947 0.016018 -0.007447 0.009990 0.015302 0.101695
#
#
# Mechanical properties :
#
#
# Convention : Reuss Voigt Hill
#
# Bulk Modulus (GPa) = 19.50613 61.35773 40.43193
# Shear Modulus (GPa) = 16.34124 29.07988 22.71056
#
# Velocity S-wave (km/s) = 2.69668 3.59735 3.17907
# Velocity P-wave (km/s) = 4.28679 6.67529 5.60964
#
# Compressibility (1/GPa) = 0.05126594
#
# Stress axis : x y z
#
# Youngs Moduli (GPa) = 18.33945 78.57046 114.33577
#
# Poissons Ratio (x) = -0.20269 1.32758
# Poissons Ratio (y) = -0.04731 0.38141
# Poissons Ratio (z) = 0.21294 0.26210
#
# Static dielectric constant tensor:
#      x y z
#    x 1.794960 -0.004760 -0.071170 
#    y -0.004760 1.801990 0.033770 
#    z -0.071170 0.033770 1.889330 
# 
# From -- ./inp_files/494472.got.cif
#   From: 2010.05.17/outbox.cif.g08.bks.cpg/sg2_248_cif.got.tgz:494472.got - 2010.06.03 11:33:40.
