data_PCOD9110954
_publ_section_title
;
Structure prediction by ZEFSAII (Michael W. Deem and Ramdas Pophale) SiO2 
 PCOD9110954
Probable space group: P -1
;
_chemical_formula_sum "Si O2"
_cell_formula_units_Z 14
_cell_length_a 11.434346
_cell_length_b 7.324263
_cell_length_c 12.466420
_cell_angle_alpha 35.534965
_cell_angle_beta 72.085922
_cell_angle_gamma 62.933427
_cell_volume 536.359467
_symmetry_space_group_name_H-M "P -1"
_symmetry_group_IT_number 2
_symmetry_cell_setting 'triclinic'
loop_
_space_group_symop_operation_xyz
x,y,z
-x,-y,-z
loop_
_atom_site_type_symbol
_atom_site_label
_atom_site_fract_x
_atom_site_fract_y
_atom_site_fract_z
Si Si1 0.365645 0.631747 0.408503
Si Si2 0.260592 0.629451 0.950263
Si Si3 0.220926 0.234671 0.313077
Si Si4 0.998351 0.858028 0.285149
Si Si5 0.231542 0.086721 0.059366
Si Si6 0.046174 0.671365 0.719076
Si Si7 0.367389 0.011103 0.592168
O O1 0.500000 0.500000 0.500000
O O2 0.330149 0.312623 0.543338
O O3 0.264342 0.894720 0.391634
O O4 0.364682 0.804164 0.208511
O O5 0.134272 0.974703 0.826511
O O6 0.367113 0.694036 0.812551
O O7 0.303058 0.453173 0.137718
O O8 0.215040 0.360145 0.028156
O O9 0.069126 0.458239 0.223372
O O10 0.257955 0.105922 0.484032
O O11 0.000000 0.500000 0.500000
O O12 0.130695 0.885246 0.183650
O O13 0.977969 0.128877 0.257442
O O14 0.184479 0.350445 0.846557
O O15 0.000000 0.000000 0.500000
O O16 0.500000 0.000000 0.500000
#
# Coordination Sequence:
#
# PCOD9110954 Si02
#       7
#     2   2   2   2   2   2   2
#     4  11  23  45  71  96 137 189 227 292 350 404
#     4  10  21  40  68  96 136 186 223 288 358 397
#     4  11  22  46  71  96 143 182 230 289 353 415
#     4  11  19  36  65  98 131 172 223 276 342 423
#     4  10  20  42  67  96 138 176 229 273 350 425
#     4  11  21  40  68  99 138 182 220 287 357 408
#     4  12  26  45  69 104 134 180 252 287 339 432
#
# _framework density 26.101897000000001
#
# number of rings (size 3 to 8) (size 9 to 14) (size 15 to 20)
#    0.000    1.143    5.714    3.429    0.000    0.571 
#    2.571    7.143    0.000    0.000    0.000    0.000 
#    0.000    0.000    0.000    0.000    0.000    0.000 
#
# Total GULP energy -78028.538864 kJ/mol
# GULP energy per Si atom -5573.467062 kJ/mol
# Density = 2.604249 g / cm^3
# Si number density = 26.101897 Si / 1000 Ang^3
#
#
#
# Elastic Constant Matrix: (Units=GPa)
#
#
# Indices 1 2 3 4 5 6 
#
# 1 96.8137 26.7439 50.3956 2.3996 10.5524 4.7239
# 2 26.7439 69.1887 8.3673 -0.9714 -4.2284 17.8326
# 3 50.3956 8.3673 172.8951 7.1163 -17.3207 -0.5582
# 4 2.3996 -0.9714 7.1163 39.3367 4.1584 -0.8558
# 5 10.5524 -4.2284 -17.3207 4.1584 49.4988 0.1466
# 6 4.7239 17.8326 -0.5582 -0.8558 0.1466 39.3039
#
#
#
# Elastic Compliance Matrix: (Units=1/GPa)
#
#
# Indices 1 2 3 4 5 6 
#
# 1 0.014816 -0.005687 -0.004585 0.000360 -0.005281 0.000762
# 2 -0.005687 0.018735 0.001041 0.000114 0.003190 -0.007812
# 3 -0.004585 0.001041 0.007513 -0.001454 0.003817 0.000140
# 4 0.000360 0.000114 -0.001454 0.025967 -0.002759 0.000460
# 5 -0.005281 0.003190 0.003817 -0.002759 0.023171 -0.000905
# 6 0.000762 -0.007812 0.000140 0.000460 -0.000905 0.028911
#
#
# Mechanical properties :
#
#
# Convention : Reuss Voigt Hill
#
# Bulk Modulus (GPa) = 44.24319 56.65678 50.44998
# Shear Modulus (GPa) = 34.45690 42.52058 38.48874
#
# Velocity S-wave (km/s) = 3.63725 4.04049 3.84416
# Velocity P-wave (km/s) = 5.88442 6.59701 6.25088
#
# Compressibility (1/GPa) = 0.02260235
#
# Stress axis : x y z
#
# Youngs Moduli (GPa) = 67.49408 53.37498 133.11025
#
# Poissons Ratio (x) = 0.30352 0.61029
# Poissons Ratio (y) = 0.38381 -0.13850
# Poissons Ratio (z) = 0.30945 -0.05554
#
# Static dielectric constant tensor:
#      x y z
#    x 2.283810 -0.099730 -0.067210 
#    y -0.099730 2.108490 0.061710 
#    z -0.067210 0.061710 2.214780 
# 
# From -- ./inp_files/514807.got.cif
#   From: 2010.05.17/outbox.cif.g08.bks.cpg/sg2_258_cif.got.tgz:514807.got - 2010.06.03 11:33:40.
