data_PCOD9110527
_publ_section_title
;
Structure prediction by ZEFSAII (Michael W. Deem and Ramdas Pophale) SiO2 
 PCOD9110527
Probable space group: P -1
;
_chemical_formula_sum "Si O2"
_cell_formula_units_Z 16
_cell_length_a 8.462259
_cell_length_b 8.404983
_cell_length_c 11.214697
_cell_angle_alpha 92.439825
_cell_angle_beta 76.906813
_cell_angle_gamma 65.957414
_cell_volume 701.305449
_symmetry_space_group_name_H-M "P -1"
_symmetry_group_IT_number 2
_symmetry_cell_setting 'triclinic'
loop_
_space_group_symop_operation_xyz
x,y,z
-x,-y,-z
loop_
_atom_site_type_symbol
_atom_site_label
_atom_site_fract_x
_atom_site_fract_y
_atom_site_fract_z
Si Si1 0.636039 0.926052 0.720444
Si Si2 0.269191 0.737012 0.519010
Si Si3 0.829272 0.972706 0.068981
Si Si4 0.264547 0.065549 0.654564
Si Si5 0.474142 0.329360 0.131895
Si Si6 0.941904 0.704821 0.493438
Si Si7 0.390743 0.469961 0.700923
Si Si8 0.632509 0.738025 0.092360
O O1 0.638082 0.757740 0.782970
O O2 0.825938 0.844058 0.620117
O O3 0.473770 0.986038 0.652775
O O4 0.555353 0.095687 0.828285
O O5 0.274551 0.627040 0.635574
O O6 0.459997 0.661734 0.417933
O O7 0.124594 0.726711 0.453519
O O8 0.230260 0.929216 0.573420
O O9 0.838545 0.928247 0.205841
O O10 0.763195 0.826427 0.029009
O O11 0.665732 0.161884 0.081425
O O12 0.000000 0.000000 0.000000
O O13 0.183660 0.243154 0.599541
O O14 0.503829 0.462505 0.219727
O O15 0.395670 0.373569 0.013903
O O16 0.000000 0.500000 0.500000
O O17 0.302890 0.378078 0.802120
#
# Coordination Sequence:
#
# PCOD9110527 Si02
#       8
#     2   2   2   2   2   2   2   2
#     4  10  21  42  64  93 133 175 222 262 340 403
#     4  11  24  40  66  90 142 174 221 268 340 389
#     4  10  22  41  65  94 129 169 225 275 335 398
#     4  10  22  44  65  89 134 182 214 258 351 403
#     4  10  20  42  63  94 128 178 223 273 323 400
#     4  12  26  37  65 104 133 167 225 288 319 391
#     4  11  22  41  65  98 133 182 219 279 331 399
#     4  10  22  39  72  93 126 177 230 265 334 401
#
# _framework density 22.814596000000002
#
# number of rings (size 3 to 8) (size 9 to 14) (size 15 to 20)
#    0.000    1.750    2.500    4.125    5.250    3.000 
#    0.000    1.875    0.000    0.000    0.000    0.000 
#    0.000    0.000    0.000    0.000    0.000    0.000 
#
# Total GULP energy -89309.564596 kJ/mol
# GULP energy per Si atom -5581.847787 kJ/mol
# Density = 2.276267 g / cm^3
# Si number density = 22.814596 Si / 1000 Ang^3
#
#
#
# Elastic Constant Matrix: (Units=GPa)
#
#
# Indices 1 2 3 4 5 6 
#
# 1 55.2822 14.7046 34.2628 1.3690 -8.9552 4.2633
# 2 14.7046 69.1235 27.1169 -20.7662 2.8471 4.9906
# 3 34.2628 27.1169 62.9450 -18.5621 17.6674 -3.0733
# 4 1.3690 -20.7662 -18.5621 32.1484 9.7566 12.6153
# 5 -8.9552 2.8471 17.6674 9.7566 45.3334 4.9680
# 6 4.2633 4.9906 -3.0733 12.6153 4.9680 27.0152
#
#
#
# Elastic Compliance Matrix: (Units=1/GPa)
#
#
# Indices 1 2 3 4 5 6 
#
# 1 0.090998 -0.014579 -0.089701 -0.089690 0.072420 0.006693
# 2 -0.014579 0.024787 0.009747 0.031660 -0.013574 -0.013457
# 3 -0.089701 0.009747 0.115128 0.105627 -0.085030 -0.008235
# 4 -0.089690 0.031660 0.105627 0.158458 -0.090924 -0.036953
# 5 0.072420 -0.013574 -0.085030 -0.090924 0.089104 0.007479
# 6 0.006693 -0.013457 -0.008235 -0.036953 0.007479 0.053390
#
#
# Mechanical properties :
#
#
# Convention : Reuss Voigt Hill
#
# Bulk Modulus (GPa) = 23.89725 37.72436 30.81081
# Shear Modulus (GPa) = 6.80382 28.31714 17.56048
#
# Velocity S-wave (km/s) = 1.72879 3.52687 2.77736
# Velocity P-wave (km/s) = 3.80555 5.75814 4.88049
#
# Compressibility (1/GPa) = 0.04184582
#
# Stress axis : x y z
#
# Youngs Moduli (GPa) = 10.98920 40.34449 8.68600
#
# Poissons Ratio (x) = 0.58819 0.77915
# Poissons Ratio (y) = 0.16021 -0.08466
# Poissons Ratio (z) = 0.98575 -0.39325
#
# Static dielectric constant tensor:
#      x y z
#    x 1.868880 0.035930 -0.022640 
#    y 0.035930 1.865850 -0.021570 
#    z -0.022640 -0.021570 1.911610 
# 
# From -- ./inp_files/379117.got.cif
#   From: 2010.05.17/outbox.cif.g08.bks.cpg/sg2_190_cif.got.tgz:379117.got - 2010.06.03 11:33:40.
