data_PCOD9110013
_publ_section_title
;
Structure prediction by ZEFSAII (Michael W. Deem and Ramdas Pophale) SiO2 
 PCOD9110013
Probable space group: P -1
;
_chemical_formula_sum "Si O2"
_cell_formula_units_Z 12
_cell_length_a 9.173304
_cell_length_b 12.216863
_cell_length_c 8.870273
_cell_angle_alpha 75.805348
_cell_angle_beta 79.016641
_cell_angle_gamma 138.698366
_cell_volume 515.586800
_symmetry_space_group_name_H-M "P -1"
_symmetry_group_IT_number 2
_symmetry_cell_setting 'triclinic'
loop_
_space_group_symop_operation_xyz
x,y,z
-x,-y,-z
loop_
_atom_site_type_symbol
_atom_site_label
_atom_site_fract_x
_atom_site_fract_y
_atom_site_fract_z
Si Si1 0.546153 0.661712 0.923154
Si Si2 0.559461 0.854451 0.078086
Si Si3 0.866935 0.028120 0.254669
Si Si4 0.145015 0.773226 0.300718
Si Si5 0.173734 0.773561 0.640859
Si Si6 0.684869 0.385642 0.320130
O O1 0.405313 0.619968 0.817382
O O2 0.875712 0.883211 0.781153
O O3 0.500000 0.500000 0.000000
O O4 0.451994 0.673018 0.082755
O O5 0.331031 0.780044 0.237167
O O6 0.796065 0.979868 0.108845
O O7 0.674899 0.008864 0.871209
O O8 0.927502 0.196557 0.233694
O O9 0.593262 0.816280 0.466032
O O10 0.081265 0.741493 0.499903
O O11 0.879763 0.588783 0.312644
O O12 0.151926 0.627789 0.732625
O O13 0.500000 0.000000 0.500000
#
# Coordination Sequence:
#
# PCOD9110013 Si02
#       6
#     2   2   2   2   2   2
#     4  12  28  46  64  96 139 181 216 265 337 401
#     4  11  24  43  68  99 136 170 219 273 334 390
#     4  11  24  44  70  98 134 176 218 275 327 394
#     4  11  23  41  72 104 130 168 221 281 330 381
#     4  10  20  41  69 100 130 167 224 271 325 380
#     4  11  24  42  68  99 130 175 225 271 322 387
#
# _framework density 23.274450000000002
#
# number of rings (size 3 to 8) (size 9 to 14) (size 15 to 20)
#    0.000    1.000    3.333    4.500    4.667    0.667 
#    0.000    2.500    0.000    0.000    0.000    0.000 
#    0.000    0.000    0.000    0.000    0.000    0.000 
#
# Total GULP energy -67233.815152 kJ/mol
# GULP energy per Si atom -5602.817929 kJ/mol
# Density = 2.322148 g / cm^3
# Si number density = 23.274450 Si / 1000 Ang^3
#
#
#
# Elastic Constant Matrix: (Units=GPa)
#
#
# Indices 1 2 3 4 5 6 
#
# 1 68.9235 35.8969 31.1643 22.0478 -3.0366 10.7153
# 2 35.8969 136.8380 33.1161 34.4163 19.3857 5.5370
# 3 31.1643 33.1161 81.4897 16.2665 13.9366 2.5731
# 4 22.0478 34.4163 16.2665 44.6212 19.2883 6.3165
# 5 -3.0366 19.3857 13.9366 19.2883 35.4857 -1.7179
# 6 10.7153 5.5370 2.5731 6.3165 -1.7179 52.3708
#
#
#
# Elastic Compliance Matrix: (Units=1/GPa)
#
#
# Indices 1 2 3 4 5 6 
#
# 1 0.024716 -0.003302 -0.007901 -0.012330 0.013608 -0.002386
# 2 -0.003302 0.010019 -0.001461 -0.004370 -0.002800 0.000123
# 3 -0.007901 -0.001461 0.016744 0.002151 -0.007602 0.000440
# 4 -0.012330 -0.004370 0.002151 0.040953 -0.021907 -0.002779
# 5 0.013608 -0.002800 -0.007602 -0.021907 0.045866 0.002032
# 6 -0.002386 0.000123 0.000440 -0.002779 0.002032 0.019950
#
#
# Mechanical properties :
#
#
# Convention : Reuss Voigt Hill
#
# Bulk Modulus (GPa) = 38.24117 54.17843 46.20980
# Shear Modulus (GPa) = 26.00218 38.96714 32.48466
#
# Velocity S-wave (km/s) = 3.34608 4.09619 3.73999
# Velocity P-wave (km/s) = 5.60308 6.76020 6.20866
#
# Compressibility (1/GPa) = 0.02614983
#
# Stress axis : x y z
#
# Youngs Moduli (GPa) = 40.46013 99.81454 59.72374
#
# Poissons Ratio (x) = 0.32956 0.47188
# Poissons Ratio (y) = 0.13359 0.08728
# Poissons Ratio (z) = 0.31968 0.14586
#
# Static dielectric constant tensor:
#      x y z
#    x 1.876060 -0.003110 -0.049170 
#    y -0.003110 1.882440 -0.062760 
#    z -0.049170 -0.062760 1.883660 
# 
# From -- ./inp_files/146925.got.cif
#   From: 2010.05.17/outbox.cif.g08.bks.cpg/sg2_74_cif.got.tgz:146925.got - 2010.06.03 11:33:40.
