data_PCOD9110230
_publ_section_title
;
Structure prediction by ZEFSAII (Michael W. Deem and Ramdas Pophale) SiO2 
 PCOD9110230
Probable space group: P -1
;
_chemical_formula_sum "Si O2"
_cell_formula_units_Z 16
_cell_length_a 8.536836
_cell_length_b 11.396758
_cell_length_c 11.302862
_cell_angle_alpha 138.675012
_cell_angle_beta 118.293173
_cell_angle_gamma 55.691937
_cell_volume 597.217939
_symmetry_space_group_name_H-M "P -1"
_symmetry_group_IT_number 2
_symmetry_cell_setting 'triclinic'
loop_
_space_group_symop_operation_xyz
x,y,z
-x,-y,-z
loop_
_atom_site_type_symbol
_atom_site_label
_atom_site_fract_x
_atom_site_fract_y
_atom_site_fract_z
Si Si1 0.833513 0.423340 0.330459
Si Si2 0.261265 0.237612 0.849277
Si Si3 0.691815 0.381783 0.912294
Si Si4 0.418410 0.901085 0.516600
Si Si5 0.429067 0.333793 0.384099
Si Si6 0.048106 0.074170 0.834125
Si Si7 0.141808 0.212945 0.450943
Si Si8 0.407146 0.825585 0.916171
O O1 0.757030 0.554994 0.521929
O O2 0.858638 0.573744 0.359658
O O3 0.665440 0.342033 0.194066
O O4 0.023696 0.256698 0.314759
O O5 0.233749 0.457715 0.993201
O O6 0.471248 0.142714 0.910200
O O7 0.278350 0.120364 0.645279
O O8 0.116388 0.184294 0.840189
O O9 0.640211 0.242001 0.696002
O O10 0.858319 0.233176 0.938301
O O11 0.500000 0.500000 0.000000
O O12 0.428878 0.806212 0.577839
O O13 0.631902 0.900053 0.568403
O O14 0.500000 0.500000 0.500000
O O15 0.446682 0.231786 0.186846
O O16 0.217526 0.984837 0.919476
O O17 0.982282 0.905923 0.631268
#
# Coordination Sequence:
#
# PCOD9110230 Si02
#       8
#     2   2   2   2   2   2   2   2
#     4   8  16  32  62  97 148 186 229 284 348 425
#     4  12  25  47  78 108 147 188 240 304 363 432
#     4  12  29  53  73 101 146 197 249 299 357 432
#     4  11  24  45  74 101 138 195 241 295 360 423
#     4   9  16  33  63 103 140 177 223 289 354 417
#     4  11  24  44  72 108 146 190 241 296 366 433
#     4   9  18  37  60 100 140 184 238 282 348 424
#     4  10  20  41  71 111 146 184 236 297 370 427
#
# _framework density 26.790889
#
# number of rings (size 3 to 8) (size 9 to 14) (size 15 to 20)
#    0.000    1.750    1.250    3.750    0.000    2.500 
#    2.250    8.125    0.000    0.000    0.000    0.000 
#    0.000    0.000    0.000    0.000    0.000    0.000 
#
# Total GULP energy -89376.488313 kJ/mol
# GULP energy per Si atom -5586.030520 kJ/mol
# Density = 2.672991 g / cm^3
# Si number density = 26.790889 Si / 1000 Ang^3
#
#
#
# Elastic Constant Matrix: (Units=GPa)
#
#
# Indices 1 2 3 4 5 6 
#
# 1 123.3959 32.1543 62.0461 13.2894 36.4009 7.9982
# 2 32.1543 85.3442 51.4970 18.8740 8.4851 -10.7203
# 3 62.0461 51.4970 172.5895 7.7085 33.4340 1.8396
# 4 13.2894 18.8740 7.7085 42.2119 11.4284 4.2926
# 5 36.4009 8.4851 33.4340 11.4284 66.9332 12.7465
# 6 7.9982 -10.7203 1.8396 4.2926 12.7465 50.4070
#
#
#
# Elastic Compliance Matrix: (Units=1/GPa)
#
#
# Indices 1 2 3 4 5 6 
#
# 1 0.011401 -0.002285 -0.002535 -0.000834 -0.004303 -0.001043
# 2 -0.002285 0.017136 -0.004335 -0.007029 0.001606 0.004358
# 3 -0.002535 -0.004335 0.008408 0.001923 -0.002533 -0.000350
# 4 -0.000834 -0.007029 0.001923 0.028081 -0.003869 -0.002846
# 5 -0.004303 0.001606 -0.002533 -0.003869 0.019675 -0.003529
# 6 -0.001043 0.004358 -0.000350 -0.002846 -0.003529 0.022078
#
#
# Mechanical properties :
#
#
# Convention : Reuss Voigt Hill
#
# Bulk Modulus (GPa) = 53.66327 74.74717 64.20522
# Shear Modulus (GPa) = 38.08074 47.61924 42.84999
#
# Velocity S-wave (km/s) = 3.77424 4.22055 4.00362
# Velocity P-wave (km/s) = 6.25037 7.19107 6.73716
#
# Compressibility (1/GPa) = 0.01863472
#
# Stress axis : x y z
#
# Youngs Moduli (GPa) = 87.71329 58.35622 118.94050
#
# Poissons Ratio (x) = 0.13332 0.30150
# Poissons Ratio (y) = 0.20039 0.51565
# Poissons Ratio (z) = 0.22235 0.25300
#
# Static dielectric constant tensor:
#      x y z
#    x 2.104580 0.038850 -0.030300 
#    y 0.038850 2.201710 0.046910 
#    z -0.030300 0.046910 2.118320 
# 
# From -- ./inp_files/558698.got.cif
#   From: 2010.05.17/outbox.cif.g08.bks.cpg/sg2_280_cif.got.tgz:558698.got - 2010.06.03 11:33:40.
