data_PCOD9110593
_publ_section_title
;
Structure prediction by ZEFSAII (Michael W. Deem and Ramdas Pophale) SiO2 
 PCOD9110593
Probable space group: P -1
;
_chemical_formula_sum "Si O2"
_cell_formula_units_Z 16
_cell_length_a 5.294610
_cell_length_b 26.510035
_cell_length_c 19.719232
_cell_angle_alpha 163.308469
_cell_angle_beta 64.178871
_cell_angle_gamma 122.438475
_cell_volume 635.024741
_symmetry_space_group_name_H-M "P -1"
_symmetry_group_IT_number 2
_symmetry_cell_setting 'triclinic'
loop_
_space_group_symop_operation_xyz
x,y,z
-x,-y,-z
loop_
_atom_site_type_symbol
_atom_site_label
_atom_site_fract_x
_atom_site_fract_y
_atom_site_fract_z
Si Si1 0.907740 0.603595 0.061477
Si Si2 0.947871 0.172563 0.262136
Si Si3 0.699634 0.053425 0.868887
Si Si4 0.706789 0.006654 0.418354
Si Si5 0.828393 0.489152 0.434888
Si Si6 0.552523 0.175646 0.527162
Si Si7 0.578571 0.607849 0.968310
Si Si8 0.825035 0.761010 0.539791
O O1 0.634572 0.382235 0.821387
O O2 0.975844 0.790452 0.342520
O O3 0.241255 0.592597 0.012461
O O4 0.819819 0.643276 0.047064
O O5 0.968684 0.329896 0.406274
O O6 0.202051 0.280253 0.430613
O O7 0.623838 0.059243 0.195589
O O8 0.000000 0.000000 0.000000
O O9 0.686648 0.945953 0.661001
O O10 0.913148 0.990157 0.809899
O O11 0.771750 0.277521 0.139526
O O12 0.546132 0.031089 0.401143
O O13 0.500000 0.000000 0.500000
O O14 0.721601 0.802044 0.155243
O O15 0.500000 0.500000 0.500000
O O16 0.000000 0.500000 0.500000
O O17 0.878691 0.252192 0.544352
O O18 0.478640 0.404187 0.677153
#
# Coordination Sequence:
#
# PCOD9110593 Si02
#       8
#     2   2   2   2   2   2   2   2
#     4  10  20  42  64  92 125 175 220 276 336 407
#     4  11  24  45  74 101 142 186 232 290 349 411
#     4  11  24  46  72  98 146 183 235 288 353 415
#     4  10  22  41  66  94 134 173 229 288 345 410
#     4  12  28  47  74 111 142 184 238 287 347 422
#     4  10  22  43  64  97 132 181 227 285 348 416
#     4  10  21  41  63  95 131 168 223 274 341 402
#     4  10  23  43  65  98 135 185 225 287 347 416
#
# _framework density 25.195867
#
# number of rings (size 3 to 8) (size 9 to 14) (size 15 to 20)
#    0.000    1.500    2.500    1.500    5.250    1.000 
#   11.250    3.750    0.000    0.000    0.000    0.000 
#    0.000    0.000    0.000    0.000    0.000    0.000 
#
# Total GULP energy -89472.073467 kJ/mol
# GULP energy per Si atom -5592.004592 kJ/mol
# Density = 2.513852 g / cm^3
# Si number density = 25.195867 Si / 1000 Ang^3
#
#
#
# Elastic Constant Matrix: (Units=GPa)
#
#
# Indices 1 2 3 4 5 6 
#
# 1 65.9835 35.2226 34.5486 1.8758 0.8496 -24.3265
# 2 35.2226 154.5106 62.4482 3.5789 -5.1403 -37.6064
# 3 34.5486 62.4482 163.8774 6.4782 -32.8433 -9.9819
# 4 1.8758 3.5789 6.4782 52.4994 -7.7096 -6.6217
# 5 0.8496 -5.1403 -32.8433 -7.7096 40.4491 9.9921
# 6 -24.3265 -37.6064 -9.9819 -6.6217 9.9921 62.5716
#
#
#
# Elastic Compliance Matrix: (Units=1/GPa)
#
#
# Indices 1 2 3 4 5 6 
#
# 1 0.021306 -0.001209 -0.004852 -0.000046 -0.006480 0.007813
# 2 -0.001209 0.009321 -0.003580 0.000054 -0.002930 0.005035
# 3 -0.004852 -0.003580 0.010002 -0.000021 0.008712 -0.003836
# 4 -0.000046 0.000054 -0.000021 0.019740 0.003367 0.001563
# 5 -0.006480 -0.002930 0.008712 0.003367 0.034176 -0.007992
# 6 0.007813 0.005035 -0.003836 0.001563 -0.007992 0.022875
#
#
# Mechanical properties :
#
#
# Convention : Reuss Voigt Hill
#
# Bulk Modulus (GPa) = 46.84242 72.09004 59.46623
# Shear Modulus (GPa) = 34.76624 47.91417 41.34021
#
# Velocity S-wave (km/s) = 3.71865 4.36554 4.05502
# Velocity P-wave (km/s) = 6.08847 7.35422 6.75108
#
# Compressibility (1/GPa) = 0.02134817
#
# Stress axis : x y z
#
# Youngs Moduli (GPa) = 46.93483 107.28277 99.97635
#
# Poissons Ratio (x) = 0.12971 0.48508
# Poissons Ratio (y) = 0.05674 0.35790
# Poissons Ratio (z) = 0.22772 0.38405
#
# Static dielectric constant tensor:
#      x y z
#    x 2.256170 0.064930 -0.016690 
#    y 0.064930 1.983750 0.015750 
#    z -0.016690 0.015750 2.017400 
# 
# From -- ./inp_files/52277.got.cif
#   From: 2010.05.17/outbox.cif.g08.bks.cpg/sg2_27_cif.got.tgz:52277.got - 2010.06.03 11:33:40.
