data_PCOD9110838
_publ_section_title
;
Structure prediction by ZEFSAII (Michael W. Deem and Ramdas Pophale) SiO2 
 PCOD9110838
Probable space group: P -1
;
_chemical_formula_sum "Si O2"
_cell_formula_units_Z 16
_cell_length_a 23.453254
_cell_length_b 8.991727
_cell_length_c 9.231256
_cell_angle_alpha 65.774628
_cell_angle_beta 52.061161
_cell_angle_gamma 32.452148
_cell_volume 796.321006
_symmetry_space_group_name_H-M "P -1"
_symmetry_group_IT_number 2
_symmetry_cell_setting 'triclinic'
loop_
_space_group_symop_operation_xyz
x,y,z
-x,-y,-z
loop_
_atom_site_type_symbol
_atom_site_label
_atom_site_fract_x
_atom_site_fract_y
_atom_site_fract_z
Si Si1 0.013872 0.317851 0.154138
Si Si2 0.906180 0.322315 0.065711
Si Si3 0.723649 0.228877 0.572839
Si Si4 0.375289 0.303435 0.647501
Si Si5 0.620396 0.788883 0.000719
Si Si6 0.730345 0.307185 0.872929
Si Si7 0.977286 0.618037 0.331218
Si Si8 0.453670 0.716757 0.104317
O O1 0.950736 0.293318 0.168408
O O2 0.950678 0.506994 0.321079
O O3 0.156391 0.001310 0.104287
O O4 0.000000 0.500000 0.000000
O O5 0.759155 0.543017 0.214189
O O6 0.921947 0.450198 0.881272
O O7 0.000000 0.000000 0.000000
O O8 0.645391 0.494850 0.489995
O O9 0.736244 0.269789 0.703694
O O10 0.655017 0.182046 0.687396
O O11 0.859789 0.955848 0.398731
O O12 0.500000 0.000000 0.500000
O O13 0.396565 0.274211 0.797530
O O14 0.731807 0.491589 0.855267
O O15 0.614761 0.992531 0.962980
O O16 0.500000 0.000000 0.000000
O O17 0.587452 0.511372 0.054415
O O18 0.000000 0.500000 0.500000
O O19 0.500000 0.500000 0.000000
#
# Coordination Sequence:
#
# PCOD9110838 Si02
#       8
#     2   2   2   2   2   2   2   2
#     4  10  23  40  67  95 133 179 228 280 336 408
#     4  11  24  46  69  95 136 185 225 279 350 399
#     4  11  23  42  66  99 137 175 230 279 336 412
#     4  12  25  44  71  99 136 175 229 282 337 407
#     4  10  22  42  67  98 134 176 218 278 346 408
#     4  10  20  42  66  95 138 175 225 286 337 399
#     4  11  23  44  67  99 135 179 230 284 338 409
#     4   9  20  38  66  94 127 175 215 267 343 398
#
# _framework density 20.092400000000001
#
# number of rings (size 3 to 8) (size 9 to 14) (size 15 to 20)
#    0.000    1.500    2.500    3.000    3.500    3.000 
#    6.750    3.750    0.000    0.000    0.000    0.000 
#    0.000    0.000    0.000    0.000    0.000    0.000 
#
# Total GULP energy -89070.780104 kJ/mol
# GULP energy per Si atom -5566.923757 kJ/mol
# Density = 2.004667 g / cm^3
# Si number density = 20.092400 Si / 1000 Ang^3
#
#
#
# Elastic Constant Matrix: (Units=GPa)
#
#
# Indices 1 2 3 4 5 6 
#
# 1 101.9510 35.8602 37.0173 2.9748 34.8008 7.2552
# 2 35.8602 147.5425 22.9392 -5.3438 22.5428 9.5556
# 3 37.0173 22.9392 66.3188 2.4545 13.6014 -3.5178
# 4 2.9748 -5.3438 2.4545 41.3800 -3.7647 7.0906
# 5 34.8008 22.5428 13.6014 -3.7647 34.5345 -1.8228
# 6 7.2552 9.5556 -3.5178 7.0906 -1.8228 39.9569
#
#
#
# Elastic Compliance Matrix: (Units=1/GPa)
#
#
# Indices 1 2 3 4 5 6 
#
# 1 0.018236 -0.000780 -0.006873 -0.001711 -0.015566 -0.004136
# 2 -0.000780 0.008004 -0.001735 0.001249 -0.003742 -0.002318
# 3 -0.006873 -0.001735 0.019698 -0.001498 0.000331 0.003678
# 4 -0.001711 0.001249 -0.001498 0.025679 0.004061 -0.004492
# 5 -0.015566 -0.003742 0.000331 0.004061 0.047672 0.005204
# 6 -0.004136 -0.002318 0.003678 -0.004492 0.005204 0.027691
#
#
# Mechanical properties :
#
#
# Convention : Reuss Voigt Hill
#
# Bulk Modulus (GPa) = 36.81535 56.38286 46.59911
# Shear Modulus (GPa) = 28.60288 37.84065 33.22177
#
# Velocity S-wave (km/s) = 3.77711 4.34444 4.07067
# Velocity P-wave (km/s) = 6.11432 7.29988 6.73325
#
# Compressibility (1/GPa) = 0.02716258
#
# Stress axis : x y z
#
# Youngs Moduli (GPa) = 54.83709 124.93700 50.76747
#
# Poissons Ratio (x) = 0.09739 0.34891
# Poissons Ratio (y) = 0.04275 0.08809
# Poissons Ratio (z) = 0.37688 0.21679
#
# Static dielectric constant tensor:
#      x y z
#    x 1.791370 0.039480 -0.018150 
#    y 0.039480 1.658870 0.057050 
#    z -0.018150 0.057050 1.722740 
# 
# From -- ./inp_files/352111.got.cif
#   From: 2010.05.17/outbox.cif.g08.bks.cpg/sg2_177_cif.got.tgz:352111.got - 2010.06.03 11:33:40.
