data_PCOD9110745
_publ_section_title
;
Structure prediction by ZEFSAII (Michael W. Deem and Ramdas Pophale) SiO2 
 PCOD9110745
Probable space group: P -1
;
_chemical_formula_sum "Si O2"
_cell_formula_units_Z 12
_cell_length_a 9.572080
_cell_length_b 8.234911
_cell_length_c 15.675345
_cell_angle_alpha 145.242116
_cell_angle_beta 131.114329
_cell_angle_gamma 68.510858
_cell_volume 485.272317
_symmetry_space_group_name_H-M "P -1"
_symmetry_group_IT_number 2
_symmetry_cell_setting 'triclinic'
loop_
_space_group_symop_operation_xyz
x,y,z
-x,-y,-z
loop_
_atom_site_type_symbol
_atom_site_label
_atom_site_fract_x
_atom_site_fract_y
_atom_site_fract_z
Si Si1 0.852831 0.069128 0.191181
Si Si2 0.200037 0.965922 0.533919
Si Si3 0.418982 0.620323 0.824903
Si Si4 0.449128 0.901859 0.146580
Si Si5 0.874343 0.952727 0.842913
Si Si6 0.079223 0.406415 0.869399
O O1 0.751667 0.317183 0.271178
O O2 0.032100 0.213672 0.256658
O O3 0.930140 0.906670 0.225868
O O4 0.649564 0.768215 0.947528
O O5 0.341172 0.263313 0.663768
O O6 0.331203 0.960125 0.664784
O O7 0.000000 0.000000 0.500000
O O8 0.105216 0.678883 0.308172
O O9 0.435124 0.810842 0.002751
O O10 0.346817 0.126293 0.240396
O O11 0.299715 0.566284 0.981535
O O12 0.918236 0.280421 0.950804
O O13 0.000000 0.000000 0.000000
#
# Coordination Sequence:
#
# PCOD9110745 Si02
#       6
#     2   2   2   2   2   2
#     4  11  21  38  64  91 124 161 199 252 308 361
#     4  12  21  37  65  95 123 158 207 248 304 362
#     4  11  21  37  64  93 123 160 201 250 307 358
#     4  10  21  41  63  88 120 166 203 243 301 362
#     4  10  20  42  66  84 120 167 208 244 304 361
#     4  10  22  37  65  86 123 160 203 249 304 352
#
# _framework density 24.728382
#
# number of rings (size 3 to 8) (size 9 to 14) (size 15 to 20)
#    1.000    0.333    5.000    2.000    0.000    0.667 
#    0.000    4.167    0.000    0.000    0.000    0.000 
#    0.000    0.000    0.000    0.000    0.000    0.000 
#
# Total GULP energy -66823.993228 kJ/mol
# GULP energy per Si atom -5568.666102 kJ/mol
# Density = 2.467210 g / cm^3
# Si number density = 24.728382 Si / 1000 Ang^3
#
#
#
# Elastic Constant Matrix: (Units=GPa)
#
#
# Indices 1 2 3 4 5 6 
#
# 1 88.6516 -0.0044 16.5337 -14.4448 17.3776 -12.5049
# 2 -0.0044 92.1336 17.2579 -14.9774 4.7982 2.8035
# 3 16.5337 17.2579 91.4352 -15.8223 13.4739 -9.6206
# 4 -14.4448 -14.9774 -15.8223 42.3395 -7.1334 9.2674
# 5 17.3776 4.7982 13.4739 -7.1334 23.0696 -6.2188
# 6 -12.5049 2.8035 -9.6206 9.2674 -6.2188 32.8653
#
#
#
# Elastic Compliance Matrix: (Units=1/GPa)
#
#
# Indices 1 2 3 4 5 6 
#
# 1 0.013940 0.000957 -0.000654 0.002810 -0.008753 0.002582
# 2 0.000957 0.012038 -0.001755 0.004244 -0.001609 -0.002678
# 3 -0.000654 -0.001755 0.012825 0.002638 -0.005303 0.001908
# 4 0.002810 0.004244 0.002638 0.028869 0.002730 -0.006145
# 5 -0.008753 -0.001609 -0.005303 0.002730 0.055564 0.004999
# 6 0.002582 -0.002678 0.001908 -0.006145 0.004999 0.034875
#
#
# Mechanical properties :
#
#
# Convention : Reuss Voigt Hill
#
# Bulk Modulus (GPa) = 27.85577 37.75498 32.80538
# Shear Modulus (GPa) = 28.90492 35.55043 32.22767
#
# Velocity S-wave (km/s) = 3.42262 3.79573 3.61399
# Velocity P-wave (km/s) = 5.18732 5.87462 5.54163
#
# Compressibility (1/GPa) = 0.03589921
#
# Stress axis : x y z
#
# Youngs Moduli (GPa) = 71.73621 83.07145 77.97363
#
# Poissons Ratio (x) = -0.07952 0.05096
# Poissons Ratio (y) = -0.06867 0.13688
# Poissons Ratio (z) = 0.04688 0.14582
#
# Static dielectric constant tensor:
#      x y z
#    x 2.073580 -0.009960 -0.046120 
#    y -0.009960 2.054070 0.015840 
#    z -0.046120 0.015840 1.971500 
# 
# From -- ./inp_files/62360.got.cif
#   From: 2010.05.17/outbox.cif.g08.bks.cpg/sg2_32_cif.got.tgz:62360.got - 2010.06.03 11:33:40.
