data_PCOD9110256
_publ_section_title
;
Structure prediction by ZEFSAII (Michael W. Deem and Ramdas Pophale) SiO2 
 PCOD9110256
Probable space group: P -1
;
_chemical_formula_sum "Si O2"
_cell_formula_units_Z 16
_cell_length_a 9.604057
_cell_length_b 20.779023
_cell_length_c 9.337980
_cell_angle_alpha 130.472115
_cell_angle_beta 47.881329
_cell_angle_gamma 150.742383
_cell_volume 664.970070
_symmetry_space_group_name_H-M "P -1"
_symmetry_group_IT_number 2
_symmetry_cell_setting 'triclinic'
loop_
_space_group_symop_operation_xyz
x,y,z
-x,-y,-z
loop_
_atom_site_type_symbol
_atom_site_label
_atom_site_fract_x
_atom_site_fract_y
_atom_site_fract_z
Si Si1 0.533258 0.186269 0.946263
Si Si2 0.110881 0.121471 0.516472
Si Si3 0.815706 0.067154 0.349198
Si Si4 0.644864 0.622841 0.983525
Si Si5 0.612746 0.665216 0.750865
Si Si6 0.763632 0.146334 0.962890
Si Si7 0.716505 0.362076 0.580266
Si Si8 0.999141 0.582313 0.236935
O O1 0.640817 0.183420 0.015591
O O2 0.825835 0.288711 0.791659
O O3 0.274557 0.034759 0.851123
O O4 0.430893 0.247655 0.094893
O O5 0.469450 0.244073 0.465288
O O6 0.975287 0.076533 0.386126
O O7 0.953600 0.150003 0.734424
O O8 0.000000 0.000000 0.500000
O O9 0.046522 0.219250 0.359960
O O10 0.500000 0.000000 0.500000
O O11 0.562522 0.603929 0.849188
O O12 0.500000 0.500000 0.000000
O O13 0.502417 0.652613 0.202764
O O14 0.998568 0.741575 0.922177
O O15 0.347497 0.534623 0.652864
O O16 0.500000 0.000000 0.000000
O O17 0.000000 0.500000 0.500000
O O18 0.846651 0.361945 0.632345
O O19 0.000000 0.500000 0.000000
#
# Coordination Sequence:
#
# PCOD9110256 Si02
#       8
#     2   2   2   2   2   2   2   2
#     4  11  22  43  71  92 135 176 225 277 327 400
#     4  11  26  44  64  94 138 177 217 273 340 401
#     4  12  25  45  65  99 138 174 227 276 332 396
#     4  11  24  43  65  99 137 171 224 272 337 400
#     4  11  24  43  73  98 128 184 226 271 335 404
#     4  11  25  41  64  99 132 174 224 278 331 393
#     4  11  23  44  66 100 133 171 222 277 333 395
#     4  10  20  41  71  97 128 172 231 270 327 402
#
# _framework density 24.061233000000001
#
# number of rings (size 3 to 8) (size 9 to 14) (size 15 to 20)
#    0.000    1.000    3.750    3.375    5.250    1.000 
#    2.250    0.625    0.000    0.000    0.000    0.000 
#    0.000    0.000    0.000    0.000    0.000    0.000 
#
# Total GULP energy -89277.759919 kJ/mol
# GULP energy per Si atom -5579.859995 kJ/mol
# Density = 2.400647 g / cm^3
# Si number density = 24.061233 Si / 1000 Ang^3
#
#
#
# Elastic Constant Matrix: (Units=GPa)
#
#
# Indices 1 2 3 4 5 6 
#
# 1 159.9117 60.1458 31.1971 4.7715 30.2549 11.1247
# 2 60.1458 181.0849 1.6263 -33.3308 8.5543 35.1100
# 3 31.1971 1.6263 55.4860 -6.0823 -4.0111 11.7728
# 4 4.7715 -33.3308 -6.0823 29.4765 -0.4736 12.5576
# 5 30.2549 8.5543 -4.0111 -0.4736 30.9499 -3.4659
# 6 11.1247 35.1100 11.7728 12.5576 -3.4659 48.4517
#
#
#
# Elastic Compliance Matrix: (Units=1/GPa)
#
#
# Indices 1 2 3 4 5 6 
#
# 1 0.016326 -0.012527 -0.015930 -0.026781 -0.013270 0.015192
# 2 -0.012527 0.023142 0.017875 0.044486 0.005558 -0.029369
# 3 -0.015930 0.017875 0.038252 0.043184 0.013020 -0.028851
# 4 -0.026781 0.044486 0.043184 0.126868 0.013753 -0.068478
# 5 -0.013270 0.005558 0.013020 0.013753 0.045142 -0.004480
# 6 0.015192 -0.029369 -0.028851 -0.068478 -0.004480 0.062870
#
#
# Mechanical properties :
#
#
# Convention : Reuss Voigt Hill
#
# Bulk Modulus (GPa) = 17.68201 64.71345 41.19773
# Shear Modulus (GPa) = 14.17963 42.00985 28.09474
#
# Velocity S-wave (km/s) = 2.43021 4.18300 3.42077
# Velocity P-wave (km/s) = 3.90375 7.09110 5.72376
#
# Compressibility (1/GPa) = 0.05655466
#
# Stress axis : x y z
#
# Youngs Moduli (GPa) = 61.25210 43.21067 26.14246
#
# Poissons Ratio (x) = 0.54131 0.41646
# Poissons Ratio (y) = 0.76733 -0.46729
# Poissons Ratio (z) = 0.97577 -0.77239
#
# Static dielectric constant tensor:
#      x y z
#    x 2.040200 0.082340 -0.065790 
#    y 0.082340 1.935610 -0.008500 
#    z -0.065790 -0.008500 2.061760 
# 
# From -- ./inp_files/223788.got.cif
#   From: 2010.05.17/outbox.cif.g08.bks.cpg/sg2_112_cif.got.tgz:223788.got - 2010.06.03 11:33:40.
