data_PCOD9110915
_publ_section_title
;
Structure prediction by ZEFSAII (Michael W. Deem and Ramdas Pophale) SiO2 
 PCOD9110915
Probable space group: P -1
;
_chemical_formula_sum "Si O2"
_cell_formula_units_Z 16
_cell_length_a 5.376145
_cell_length_b 18.258137
_cell_length_c 10.374796
_cell_angle_alpha 54.531901
_cell_angle_beta 59.833150
_cell_angle_gamma 59.130178
_cell_volume 680.669545
_symmetry_space_group_name_H-M "P -1"
_symmetry_group_IT_number 2
_symmetry_cell_setting 'triclinic'
loop_
_space_group_symop_operation_xyz
x,y,z
-x,-y,-z
loop_
_atom_site_type_symbol
_atom_site_label
_atom_site_fract_x
_atom_site_fract_y
_atom_site_fract_z
Si Si1 0.844022 0.449552 0.691656
Si Si2 0.373314 0.929812 0.187506
Si Si3 0.823319 0.303361 0.446431
Si Si4 0.495967 0.188379 0.471276
Si Si5 0.199101 0.967994 0.610508
Si Si6 0.646871 0.627615 0.055217
Si Si7 0.586987 0.726682 0.203640
Si Si8 0.845756 0.550083 0.840742
O O1 0.547512 0.423866 0.759105
O O2 0.745771 0.527026 0.751536
O O3 0.000000 0.500000 0.500000
O O4 0.081614 0.346583 0.773018
O O5 0.504581 0.888297 0.337062
O O6 0.469323 0.833745 0.175852
O O7 0.022645 0.987023 0.258806
O O8 0.500000 0.000000 0.000000
O O9 0.654831 0.257484 0.431221
O O10 0.627557 0.317994 0.611807
O O11 0.152218 0.232813 0.471399
O O12 0.909092 0.395065 0.291551
O O13 0.676550 0.143617 0.340045
O O14 0.500000 0.000000 0.500000
O O15 0.000000 0.000000 0.500000
O O16 0.585190 0.723351 0.051727
O O17 0.989794 0.557216 0.043490
O O18 0.586601 0.616654 0.932109
#
# Coordination Sequence:
#
# PCOD9110915 Si02
#       8
#     2   2   2   2   2   2   2   2
#     4  11  22  38  67  94 128 173 217 268 332 403
#     4  10  23  43  68  99 132 176 223 286 346 402
#     4  11  23  41  67 101 130 177 225 273 329 401
#     4  10  23  42  67  96 136 172 225 280 329 407
#     4  10  20  42  67  91 127 175 223 275 337 400
#     4  10  22  41  61  89 137 167 220 275 334 394
#     4  10  23  40  62  93 131 168 222 273 333 398
#     4  10  23  39  61  96 127 178 218 272 330 399
#
# _framework density 23.506266
#
# number of rings (size 3 to 8) (size 9 to 14) (size 15 to 20)
#    0.000    1.750    0.000    4.125    8.750    3.000 
#    2.250   10.000    0.000    0.000    0.000    0.000 
#    0.000    0.000    0.000    0.000    0.000    0.000 
#
# Total GULP energy -89125.066481 kJ/mol
# GULP energy per Si atom -5570.316655 kJ/mol
# Density = 2.345276 g / cm^3
# Si number density = 23.506266 Si / 1000 Ang^3
#
#
#
# Elastic Constant Matrix: (Units=GPa)
#
#
# Indices 1 2 3 4 5 6 
#
# 1 67.5821 43.9453 16.3995 15.5837 -13.2294 3.1555
# 2 43.9453 191.3251 78.3478 55.9931 5.9103 18.2202
# 3 16.3995 78.3478 98.9668 11.0170 -11.1510 10.3856
# 4 15.5837 55.9931 11.0170 49.3687 5.0781 5.2593
# 5 -13.2294 5.9103 -11.1510 5.0781 24.9879 7.9329
# 6 3.1555 18.2202 10.3856 5.2593 7.9329 46.2867
#
#
#
# Elastic Compliance Matrix: (Units=1/GPa)
#
#
# Indices 1 2 3 4 5 6 
#
# 1 0.021462 -0.005943 0.003363 -0.002128 0.015426 -0.002280
# 2 -0.005943 0.014221 -0.009989 -0.011113 -0.008643 -0.000208
# 3 0.003363 -0.009989 0.018611 0.005177 0.012408 -0.003188
# 4 -0.002128 -0.011113 0.005177 0.032657 -0.002868 0.000139
# 5 0.015426 -0.008643 0.012408 -0.002868 0.059629 -0.010327
# 6 -0.002280 -0.000208 -0.003188 0.000139 -0.010327 0.024311
#
#
# Mechanical properties :
#
#
# Convention : Reuss Voigt Hill
#
# Bulk Modulus (GPa) = 34.29756 70.58437 52.44096
# Shear Modulus (GPa) = 24.30152 38.74077 31.52114
#
# Velocity S-wave (km/s) = 3.21881 4.06409 3.66590
# Velocity P-wave (km/s) = 5.33262 7.21911 6.34635
#
# Compressibility (1/GPa) = 0.02915659
#
# Stress axis : x y z
#
# Youngs Moduli (GPa) = 46.59344 70.31697 53.73189
#
# Poissons Ratio (x) = 0.41791 -0.18069
# Poissons Ratio (y) = 0.27692 0.53670
# Poissons Ratio (z) = -0.15669 0.70236
#
# Static dielectric constant tensor:
#      x y z
#    x 1.977530 0.026550 0.067490 
#    y 0.026550 1.963510 0.010450 
#    z 0.067490 0.010450 1.949800 
# 
# From -- ./inp_files/368948.got.cif
#   From: 2010.05.17/outbox.cif.g08.bks.cpg/sg2_185_cif.got.tgz:368948.got - 2010.06.03 11:33:40.
