data_PCOD9110109
_publ_section_title
;
Structure prediction by ZEFSAII (Michael W. Deem and Ramdas Pophale) SiO2 
 PCOD9110109
Probable space group: P -1
;
_chemical_formula_sum "Si O2"
_cell_formula_units_Z 16
_cell_length_a 15.916551
_cell_length_b 14.655585
_cell_length_c 15.186628
_cell_angle_alpha 151.167084
_cell_angle_beta 152.166217
_cell_angle_gamma 29.235416
_cell_volume 718.258209
_symmetry_space_group_name_H-M "P -1"
_symmetry_group_IT_number 2
_symmetry_cell_setting 'triclinic'
loop_
_space_group_symop_operation_xyz
x,y,z
-x,-y,-z
loop_
_atom_site_type_symbol
_atom_site_label
_atom_site_fract_x
_atom_site_fract_y
_atom_site_fract_z
Si Si1 0.997903 0.552409 0.146261
Si Si2 0.456837 0.297181 0.765578
Si Si3 0.395985 0.062415 0.860900
Si Si4 0.761460 0.332400 0.836244
Si Si5 0.819727 0.855258 0.704658
Si Si6 0.504444 0.709820 0.014089
Si Si7 0.545277 0.601174 0.541664
Si Si8 0.064172 0.946091 0.867488
O O1 0.218452 0.502734 0.339416
O O2 0.836816 0.790919 0.214043
O O3 0.917811 0.409976 0.006127
O O4 0.000000 0.500000 0.000000
O O5 0.278573 0.302254 0.542245
O O6 0.424084 0.226723 0.774645
O O7 0.649797 0.095994 0.738218
O O8 0.500000 0.500000 0.000000
O O9 0.456433 0.845067 0.685822
O O10 0.467683 0.187302 0.963184
O O11 0.500000 0.000000 0.000000
O O12 0.579893 0.409749 0.665453
O O13 0.880920 0.084463 0.751963
O O14 0.649091 0.463283 0.928531
O O15 0.893965 0.875890 0.888815
O O16 0.993878 0.826159 0.772877
O O17 0.267794 0.790282 0.877768
O O18 0.500000 0.500000 0.500000
#
# Coordination Sequence:
#
# PCOD9110109 Si02
#       8
#     2   2   2   2   2   2   2   2
#     4  11  22  44  63  92 131 171 221 278 335 397
#     4  10  20  41  69  97 138 179 228 284 344 415
#     4  11  23  41  70  93 136 179 222 278 340 402
#     4  11  24  42  64  95 134 167 233 278 332 413
#     4   9  21  41  67  98 136 178 224 283 354 416
#     4  10  23  42  64  98 131 175 226 279 337 412
#     4  12  24  41  66  95 126 179 226 280 342 399
#     4  10  21  42  69  97 137 177 224 286 351 405
#
# _framework density 22.276111
#
# number of rings (size 3 to 8) (size 9 to 14) (size 15 to 20)
#    0.000    1.500    2.500    2.250    1.750    1.500 
#    9.000    8.750    0.000    0.000    0.000    0.000 
#    0.000    0.000    0.000    0.000    0.000    0.000 
#
# Total GULP energy -89326.247465 kJ/mol
# GULP energy per Si atom -5582.890467 kJ/mol
# Density = 2.222541 g / cm^3
# Si number density = 22.276111 Si / 1000 Ang^3
#
#
#
# Elastic Constant Matrix: (Units=GPa)
#
#
# Indices 1 2 3 4 5 6 
#
# 1 98.8183 35.8329 19.4158 -13.0315 3.9310 -20.9089
# 2 35.8329 121.6024 25.5754 -7.3678 19.2617 -24.9263
# 3 19.4158 25.5754 100.9737 -12.5612 13.9627 -3.8405
# 4 -13.0315 -7.3678 -12.5612 42.8748 -0.1673 3.7825
# 5 3.9310 19.2617 13.9627 -0.1673 17.9825 -9.3768
# 6 -20.9089 -24.9263 -3.8405 3.7825 -9.3768 45.6556
#
#
#
# Elastic Compliance Matrix: (Units=1/GPa)
#
#
# Indices 1 2 3 4 5 6 
#
# 1 0.012684 -0.002911 -0.001806 0.002424 0.004241 0.004737
# 2 -0.002911 0.011359 -0.000844 0.000534 -0.009398 0.002823
# 3 -0.001806 -0.000844 0.012030 0.003009 -0.009282 -0.002432
# 4 0.002424 0.000534 0.003009 0.025126 -0.003838 -0.001215
# 5 0.004241 -0.009398 -0.009282 -0.003838 0.078414 0.012453
# 6 0.004737 0.002823 -0.002432 -0.001215 0.012453 0.028068
#
#
# Mechanical properties :
#
#
# Convention : Reuss Voigt Hill
#
# Bulk Modulus (GPa) = 40.08137 53.67142 46.87639
# Shear Modulus (GPa) = 26.72095 37.34058 32.03077
#
# Velocity S-wave (km/s) = 3.46719 4.09866 3.79608
# Velocity P-wave (km/s) = 5.83614 6.82237 6.34843
#
# Compressibility (1/GPa) = 0.02494925
#
# Stress axis : x y z
#
# Youngs Moduli (GPa) = 78.84222 88.03979 83.12602
#
# Poissons Ratio (x) = 0.25632 0.15014
# Poissons Ratio (y) = 0.22955 0.07014
# Poissons Ratio (z) = 0.14240 0.07428
#
# Static dielectric constant tensor:
#      x y z
#    x 1.922210 0.090460 0.004450 
#    y 0.090460 1.884880 -0.008510 
#    z 0.004450 -0.008510 1.845130 
# 
# From -- ./inp_files/534628.got.cif
#   From: 2010.05.17/outbox.cif.g08.bks.cpg/sg2_268_cif.got.tgz:534628.got - 2010.06.03 11:33:40.
