data_PCOD9110446
_publ_section_title
;
Structure prediction by ZEFSAII (Michael W. Deem and Ramdas Pophale) SiO2 
 PCOD9110446
Probable space group: P -1
;
_chemical_formula_sum "Si O2"
_cell_formula_units_Z 15
_cell_length_a 16.732354
_cell_length_b 13.346276
_cell_length_c 8.053885
_cell_angle_alpha 103.599452
_cell_angle_beta 61.348288
_cell_angle_gamma 153.626004
_cell_volume 607.690645
_symmetry_space_group_name_H-M "P -1"
_symmetry_group_IT_number 2
_symmetry_cell_setting 'triclinic'
loop_
_space_group_symop_operation_xyz
x,y,z
-x,-y,-z
loop_
_atom_site_type_symbol
_atom_site_label
_atom_site_fract_x
_atom_site_fract_y
_atom_site_fract_z
Si Si1 0.403713 0.262926 0.352665
Si Si2 0.977177 0.397527 0.730653
Si Si3 0.698371 0.370016 0.052359
Si Si4 0.649982 0.340997 0.713579
Si Si5 0.223373 0.164897 0.813263
Si Si6 0.500000 0.000000 0.000000
Si Si7 0.414380 0.294824 0.997673
Si Si8 0.175904 0.808954 0.826141
O O1 0.561215 0.324801 0.236984
O O2 0.237195 0.113653 0.611623
O O3 0.573216 0.538102 0.282627
O O4 0.294310 0.142753 0.231480
O O5 0.752535 0.202528 0.783516
O O6 0.116739 0.458023 0.512506
O O7 0.139123 0.663282 0.711863
O O8 0.904513 0.277239 0.934781
O O9 0.612647 0.248044 0.897895
O O10 0.626633 0.185039 0.120168
O O11 0.970625 0.664954 0.893621
O O12 0.626763 0.436843 0.823182
O O13 0.444875 0.112495 0.697430
O O14 0.263155 0.135043 0.922118
O O15 0.000000 0.000000 0.000000
O O16 0.500000 0.500000 0.000000
#
# Coordination Sequence:
#
# PCOD9110446 Si02
#       8
#     2   2   2   2   2   1   2   2
#     4   9  21  42  60  90 130 158 207 269 311 380
#     4  10  22  41  62  91 126 165 209 261 311 380
#     4  10  22  41  62  91 129 162 210 261 315 381
#     4  11  22  42  65  92 124 167 214 257 318 381
#     4  10  21  39  65  92 122 164 210 257 325 380
#     4  10  20  42  62  88 130 168 202 260 322 372
#     4   9  21  42  61  92 130 161 212 267 316 383
#     4  10  22  40  61  92 124 162 211 258 314 378
#
# _framework density 24.683613000000001
#
# number of rings (size 3 to 8) (size 9 to 14) (size 15 to 20)
#    0.000    2.133    1.333    0.400    3.733    2.667 
#   14.400    0.000    0.000    0.000    0.000    0.000 
#    0.000    0.000    0.000    0.000    0.000    0.000 
#
# Total GULP energy -83675.566075 kJ/mol
# GULP energy per Si atom -5578.371072 kJ/mol
# Density = 2.462743 g / cm^3
# Si number density = 24.683613 Si / 1000 Ang^3
#
#
#
# Elastic Constant Matrix: (Units=GPa)
#
#
# Indices 1 2 3 4 5 6 
#
# 1 118.9759 31.2074 84.2905 2.7577 -30.9708 16.7017
# 2 31.2074 110.3618 41.0612 -4.7352 -8.9498 7.8112
# 3 84.2905 41.0612 193.8722 14.9354 -30.3208 24.9696
# 4 2.7577 -4.7352 14.9354 31.6180 5.5057 -7.4037
# 5 -30.9708 -8.9498 -30.3208 5.5057 41.6174 0.9657
# 6 16.7017 7.8112 24.9696 -7.4037 0.9657 42.5500
#
#
#
# Elastic Compliance Matrix: (Units=1/GPa)
#
#
# Indices 1 2 3 4 5 6 
#
# 1 0.014215 -0.001727 -0.004080 -0.001662 0.007532 -0.003329
# 2 -0.001727 0.010249 -0.001795 0.002746 -0.000760 0.000345
# 3 -0.004080 -0.001795 0.008960 -0.005880 0.003987 -0.004441
# 4 -0.001662 0.002746 -0.005880 0.039265 -0.010372 0.010666
# 5 0.007532 -0.000760 0.003987 -0.010372 0.033926 -0.007731
# 6 -0.003329 0.000345 -0.004441 0.010666 -0.007731 0.029382
#
#
# Mechanical properties :
#
#
# Convention : Reuss Voigt Hill
#
# Bulk Modulus (GPa) = 54.87933 81.81422 68.34677
# Shear Modulus (GPa) = 31.79165 40.93382 36.36273
#
# Velocity S-wave (km/s) = 3.59272 4.07669 3.84233
# Velocity P-wave (km/s) = 6.28423 7.44153 6.88723
#
# Compressibility (1/GPa) = 0.01822180
#
# Stress axis : x y z
#
# Youngs Moduli (GPa) = 70.34944 97.57116 111.60154
#
# Poissons Ratio (x) = 0.16846 0.45532
# Poissons Ratio (y) = 0.12146 0.20030
# Poissons Ratio (z) = 0.28701 0.17512
#
# Static dielectric constant tensor:
#      x y z
#    x 2.235070 -0.111540 0.064520 
#    y -0.111540 2.078130 0.036070 
#    z 0.064520 0.036070 1.950790 
# 
# From -- ./inp_files/348515.got.cif
#   From: 2010.05.17/outbox.cif.g08.bks.cpg/sg2_175_cif.got.tgz:348515.got - 2010.06.03 11:33:40.
