data_PCOD9111217
_publ_section_title
;
Structure prediction by ZEFSAII (Michael W. Deem and Ramdas Pophale) SiO2 
 PCOD9111217
Probable space group: P -1
;
_chemical_formula_sum "Si O2"
_cell_formula_units_Z 15
_cell_length_a 11.474180
_cell_length_b 9.690923
_cell_length_c 10.353930
_cell_angle_alpha 67.310832
_cell_angle_beta 144.600331
_cell_angle_gamma 99.824077
_cell_volume 592.622983
_symmetry_space_group_name_H-M "P -1"
_symmetry_group_IT_number 2
_symmetry_cell_setting 'triclinic'
loop_
_space_group_symop_operation_xyz
x,y,z
-x,-y,-z
loop_
_atom_site_type_symbol
_atom_site_label
_atom_site_fract_x
_atom_site_fract_y
_atom_site_fract_z
Si Si1 0.443019 0.793678 0.311270
Si Si2 0.602389 0.283765 0.998192
Si Si3 0.727479 0.928316 0.675083
Si Si4 0.966222 0.382721 0.212062
Si Si5 0.000000 0.000000 0.500000
Si Si6 0.849935 0.664922 0.343435
Si Si7 0.115003 0.661585 0.150361
Si Si8 0.045604 0.061887 0.805741
O O1 0.457574 0.747852 0.191542
O O2 0.658246 0.823388 0.539206
O O3 0.350913 0.677612 0.357945
O O4 0.251204 0.949123 0.094791
O O5 0.390360 0.333016 0.869083
O O6 0.735863 0.409870 0.057460
O O7 0.759661 0.127954 0.254298
O O8 0.922987 0.808214 0.964924
O O9 0.500000 0.000000 0.500000
O O10 0.829078 0.064343 0.676196
O O11 0.924473 0.350479 0.035850
O O12 0.095208 0.275680 0.484637
O O13 0.079109 0.519358 0.249857
O O14 0.975917 0.026546 0.314957
O O15 0.000000 0.500000 0.500000
O O16 0.901841 0.784092 0.247338
#
# Coordination Sequence:
#
# PCOD9111217 Si02
#       8
#     2   2   2   2   1   2   2   2
#     4   9  21  39  66  95 120 163 229 282 325 379
#     4  10  22  40  67  98 125 174 218 277 329 380
#     4  11  24  40  63  93 129 171 215 275 337 389
#     4  10  21  43  64  90 133 171 225 271 321 401
#     4  10  20  42  70  94 128 158 224 284 314 380
#     4  12  27  41  61  99 142 180 212 262 342 420
#     4   9  21  41  65  91 123 172 224 276 320 385
#     4  10  24  40  63  99 127 169 219 275 332 385
#
# _framework density 25.311202999999999
#
# number of rings (size 3 to 8) (size 9 to 14) (size 15 to 20)
#    0.000    1.867    1.333    1.600    3.733    8.000 
#    0.000    4.000    0.000    0.000    0.000    0.000 
#    0.000    0.000    0.000    0.000    0.000    0.000 
#
# Total GULP energy -83543.793050 kJ/mol
# GULP energy per Si atom -5569.586203 kJ/mol
# Density = 2.525359 g / cm^3
# Si number density = 25.311203 Si / 1000 Ang^3
#
#
#
# Elastic Constant Matrix: (Units=GPa)
#
#
# Indices 1 2 3 4 5 6 
#
# 1 131.1156 45.7730 60.9391 2.1406 34.7889 36.3328
# 2 45.7730 75.1596 32.3240 13.7724 22.9369 41.5664
# 3 60.9391 32.3240 123.2719 23.9826 32.2026 25.8532
# 4 2.1406 13.7724 23.9826 40.0382 -4.6908 8.3510
# 5 34.7889 22.9369 32.2026 -4.6908 58.5325 11.9096
# 6 36.3328 41.5664 25.8532 8.3510 11.9096 58.7991
#
#
#
# Elastic Compliance Matrix: (Units=1/GPa)
#
#
# Indices 1 2 3 4 5 6 
#
# 1 0.012592 -0.003974 -0.004663 0.003818 -0.002452 -0.002967
# 2 -0.003974 0.026491 0.001103 -0.007281 -0.006269 -0.014453
# 3 -0.004663 0.001103 0.013551 -0.008572 -0.005492 -0.001527
# 4 0.003818 -0.007281 -0.008572 0.033292 0.007922 0.000223
# 5 -0.002452 -0.006269 -0.005492 0.007922 0.024179 0.002339
# 6 -0.002967 -0.014453 -0.001527 0.000223 0.002339 0.029223
#
#
# Mechanical properties :
#
#
# Convention : Reuss Voigt Hill
#
# Bulk Modulus (GPa) = 26.61950 67.51326 47.06638
# Shear Modulus (GPa) = 29.95516 44.17469 37.06492
#
# Velocity S-wave (km/s) = 3.44390 4.18217 3.83086
# Velocity P-wave (km/s) = 5.13358 7.07473 6.18084
#
# Compressibility (1/GPa) = 0.03756645
#
# Stress axis : x y z
#
# Youngs Moduli (GPa) = 79.41837 37.74892 73.79787
#
# Poissons Ratio (x) = 0.15000 0.34410
# Poissons Ratio (y) = 0.31558 -0.08141
# Poissons Ratio (z) = 0.37031 -0.04164
#
# Static dielectric constant tensor:
#      x y z
#    x 2.005880 0.191510 0.058560 
#    y 0.191510 -1.111260 -0.948700 
#    z 0.058560 -0.948700 1.623800 
# 
# From -- ./inp_files/69785.got.cif
#   From: 2010.05.17/outbox.cif.g08.bks.cpg/sg2_35_cif.got.tgz:69785.got - 2010.06.03 11:33:40.
