data_PCOD9111730
_publ_section_title
;
Structure prediction by ZEFSAII (Michael W. Deem and Ramdas Pophale) SiO2 
 PCOD9111730
Probable space group: P -1
;
_chemical_formula_sum "Si O2"
_cell_formula_units_Z 15
_cell_length_a 9.348911
_cell_length_b 16.805696
_cell_length_c 9.499547
_cell_angle_alpha 128.138154
_cell_angle_beta 133.444209
_cell_angle_gamma 42.245917
_cell_volume 710.312442
_symmetry_space_group_name_H-M "P -1"
_symmetry_group_IT_number 2
_symmetry_cell_setting 'triclinic'
loop_
_space_group_symop_operation_xyz
x,y,z
-x,-y,-z
loop_
_atom_site_type_symbol
_atom_site_label
_atom_site_fract_x
_atom_site_fract_y
_atom_site_fract_z
Si Si1 0.157349 0.508964 0.999294
Si Si2 0.732290 0.114297 0.948747
Si Si3 0.588539 0.178544 0.601126
Si Si4 0.711588 0.984818 0.038479
Si Si5 0.882790 0.286467 0.970105
Si Si6 0.310059 0.637865 0.776277
Si Si7 0.905821 0.607749 0.441001
Si Si8 0.000000 0.000000 0.500000
O O1 0.186924 0.424585 0.794702
O O2 0.048030 0.642692 0.008232
O O3 0.418306 0.462152 0.180287
O O4 0.000000 0.500000 0.000000
O O5 0.631583 0.138850 0.750217
O O6 0.724314 0.232407 0.124038
O O7 0.614320 0.073332 0.935964
O O8 0.000000 0.000000 0.000000
O O9 0.707969 0.255897 0.743670
O O10 0.308491 0.270509 0.498799
O O11 0.737200 0.067416 0.475523
O O12 0.894245 0.842681 0.969851
O O13 0.872709 0.011981 0.274572
O O14 0.500000 0.000000 0.000000
O O15 0.744186 0.366420 0.099409
O O16 0.116886 0.622777 0.554987
O O17 0.000000 0.500000 0.500000
#
# Coordination Sequence:
#
# PCOD9111730 Si02
#       8
#     2   2   2   2   2   2   2   1
#     4  12  26  45  68 100 137 173 228 295 343 399
#     4  11  20  45  68  95 139 182 221 276 345 406
#     4  10  22  42  70 101 138 180 232 280 345 410
#     4  11  25  41  68  99 136 179 221 278 344 405
#     4  10  20  43  69  92 131 181 219 272 339 407
#     4  11  23  43  70  96 133 178 230 276 336 413
#     4  12  24  43  73 101 131 187 235 273 349 415
#     4  10  22  42  62 104 138 166 228 286 330 398
#
# _framework density 21.117466
#
# number of rings (size 3 to 8) (size 9 to 14) (size 15 to 20)
#    0.000    1.067    8.000    1.200    3.733    0.533 
#    7.200    1.333    0.000    0.000    0.000    0.000 
#    0.000    0.000    0.000    0.000    0.000    0.000 
#
# Total GULP energy -83535.681868 kJ/mol
# GULP energy per Si atom -5569.045458 kJ/mol
# Density = 2.106940 g / cm^3
# Si number density = 21.117466 Si / 1000 Ang^3
#
#
#
# Elastic Constant Matrix: (Units=GPa)
#
#
# Indices 1 2 3 4 5 6 
#
# 1 149.0595 53.6425 15.9946 -7.5497 3.6971 14.5576
# 2 53.6425 107.3326 16.1530 -15.6172 0.7184 14.4661
# 3 15.9946 16.1530 55.1759 -3.4219 6.4842 -0.5222
# 4 -7.5497 -15.6172 -3.4219 17.4950 -2.4770 9.6056
# 5 3.6971 0.7184 6.4842 -2.4770 30.0820 -6.6017
# 6 14.5576 14.4661 -0.5222 9.6056 -6.6017 43.7630
#
#
#
# Elastic Compliance Matrix: (Units=1/GPa)
#
#
# Indices 1 2 3 4 5 6 
#
# 1 0.008408 -0.003562 -0.001218 0.001190 -0.001038 -0.002052
# 2 -0.003562 0.014526 -0.002408 0.014758 0.000325 -0.006836
# 3 -0.001218 -0.002408 0.019651 0.000177 -0.003835 0.000818
# 4 0.001190 0.014758 0.000177 0.083965 0.001216 -0.023518
# 5 -0.001038 0.000325 -0.003835 0.001216 0.035446 0.005272
# 6 -0.002052 -0.006836 0.000818 -0.023518 0.005272 0.031759
#
#
# Mechanical properties :
#
#
# Convention : Reuss Voigt Hill
#
# Bulk Modulus (GPa) = 35.44950 53.68313 44.56632
# Shear Modulus (GPa) = 22.98490 33.31985 28.15237
#
# Velocity S-wave (km/s) = 3.30272 3.97650 3.65517
# Velocity P-wave (km/s) = 5.60064 6.82348 6.24208
#
# Compressibility (1/GPa) = 0.02820914
#
# Stress axis : x y z
#
# Youngs Moduli (GPa) = 118.93853 68.84294 50.88768
#
# Poissons Ratio (x) = 0.24523 0.06199
# Poissons Ratio (y) = 0.42368 0.12251
# Poissons Ratio (z) = 0.14488 0.16574
#
# Static dielectric constant tensor:
#      x y z
#    x 1.764460 -0.010140 0.013360 
#    y -0.010140 1.789680 0.019560 
#    z 0.013360 0.019560 1.799400 
# 
# From -- ./inp_files/203869.got.cif
#   From: 2010.05.17/outbox.cif.g08.bks.cpg/sg2_102_cif.got.tgz:203869.got - 2010.06.03 11:33:40.
