data_PCOD9111785
_publ_section_title
;
Structure prediction by ZEFSAII (Michael W. Deem and Ramdas Pophale) SiO2 
 PCOD9111785
Probable space group: P -1
;
_chemical_formula_sum "Si O2"
_cell_formula_units_Z 14
_cell_length_a 12.208953
_cell_length_b 11.152403
_cell_length_c 6.981212
_cell_angle_alpha 86.157946
_cell_angle_beta 115.161900
_cell_angle_gamma 123.995817
_cell_volume 694.598320
_symmetry_space_group_name_H-M "P -1"
_symmetry_group_IT_number 2
_symmetry_cell_setting 'triclinic'
loop_
_space_group_symop_operation_xyz
x,y,z
-x,-y,-z
loop_
_atom_site_type_symbol
_atom_site_label
_atom_site_fract_x
_atom_site_fract_y
_atom_site_fract_z
Si Si1 0.722744 0.087193 0.533358
Si Si2 0.231672 0.107392 0.648400
Si Si3 0.473423 0.627314 0.967509
Si Si4 0.940667 0.286726 0.005658
Si Si5 0.243402 0.596816 0.085239
Si Si6 0.462024 0.788339 0.577556
Si Si7 0.992638 0.935393 0.795629
O O1 0.629347 0.151988 0.408009
O O2 0.768825 0.032735 0.395341
O O3 0.615036 0.937590 0.597599
O O4 0.862270 0.208172 0.753581
O O5 0.393780 0.239402 0.821458
O O6 0.167830 0.139003 0.412931
O O7 0.115916 0.067082 0.736274
O O8 0.320932 0.576972 0.966439
O O9 0.500000 0.500000 0.000000
O O10 0.481467 0.695515 0.758338
O O11 0.966254 0.179036 0.145957
O O12 0.101206 0.440327 0.073484
O O13 0.827410 0.313487 0.020093
O O14 0.364811 0.686109 0.335185
O O15 0.000000 0.000000 0.000000
#
# Coordination Sequence:
#
# PCOD9111785 Si02
#       7
#     2   2   2   2   2   2   2
#     4  10  20  43  70  96 126 164 224 269 320 385
#     4  11  25  41  63 100 125 170 221 264 327 383
#     4  12  28  41  65  97 134 174 220 266 327 399
#     4  10  22  43  69  92 132 173 212 272 318 388
#     4  10  24  45  64  97 130 172 220 258 335 386
#     4  10  23  43  66  97 130 168 212 274 323 381
#     4  11  24  41  66  93 132 168 212 272 325 378
#
# _framework density 20.155533999999999
#
# number of rings (size 3 to 8) (size 9 to 14) (size 15 to 20)
#    0.000    1.429    2.857    0.857    6.000    1.143 
#    0.000    2.143    0.000    0.000    0.000    0.000 
#    0.000    0.000    0.000    0.000    0.000    0.000 
#
# Total GULP energy -78220.048538 kJ/mol
# GULP energy per Si atom -5587.146324 kJ/mol
# Density = 2.010966 g / cm^3
# Si number density = 20.155534 Si / 1000 Ang^3
#
#
#
# Elastic Constant Matrix: (Units=GPa)
#
#
# Indices 1 2 3 4 5 6 
#
# 1 105.8900 33.4256 34.3040 -8.7734 -5.8532 -14.3012
# 2 33.4256 60.0125 32.9615 -4.8164 8.6130 -21.2122
# 3 34.3040 32.9615 66.9647 -13.0724 7.1115 -8.7348
# 4 -8.7734 -4.8164 -13.0724 34.3949 -5.9635 9.3163
# 5 -5.8532 8.6130 7.1115 -5.9635 34.9417 -1.0760
# 6 -14.3012 -21.2122 -8.7348 9.3163 -1.0760 33.1932
#
#
#
# Elastic Compliance Matrix: (Units=1/GPa)
#
#
# Indices 1 2 3 4 5 6 
#
# 1 0.012909 -0.005111 -0.004161 0.001538 0.004560 0.000916
# 2 -0.005111 0.032536 -0.011778 -0.007143 -0.007166 0.017263
# 3 -0.004161 -0.011778 0.023806 0.007483 -0.001522 -0.005205
# 4 0.001538 -0.007143 0.007483 0.035558 0.006203 -0.011712
# 5 0.004560 -0.007166 -0.001522 0.006203 0.032404 -0.003706
# 6 0.000916 0.017263 -0.005205 -0.011712 -0.003706 0.043351
#
#
# Mechanical properties :
#
#
# Convention : Reuss Voigt Hill
#
# Bulk Modulus (GPa) = 36.83348 48.24994 42.54171
# Shear Modulus (GPa) = 21.57822 29.31769 25.44795
#
# Velocity S-wave (km/s) = 3.27553 3.81802 3.55713
# Velocity P-wave (km/s) = 5.71137 6.58993 6.16632
#
# Compressibility (1/GPa) = 0.02714921
#
# Stress axis : x y z
#
# Youngs Moduli (GPa) = 77.46823 30.73478 42.00616
#
# Poissons Ratio (x) = 0.15709 0.17480
# Poissons Ratio (y) = 0.39596 0.49476
# Poissons Ratio (z) = 0.32237 0.36200
#
# Static dielectric constant tensor:
#      x y z
#    x 1.744640 0.002670 0.001390 
#    y 0.002670 1.691540 -0.005610 
#    z 0.001390 -0.005610 1.693090 
# 
# From -- ./inp_files/68759.got.cif
#   From: 2010.05.17/outbox.cif.g08.bks.cpg/sg2_35_cif.got.tgz:68759.got - 2010.06.03 11:33:40.
