data_PCOD9111601
_publ_section_title
;
Structure prediction by ZEFSAII (Michael W. Deem and Ramdas Pophale) SiO2 
 PCOD9111601
Probable space group: P -1
;
_chemical_formula_sum "Si O2"
_cell_formula_units_Z 16
_cell_length_a 11.233069
_cell_length_b 10.515718
_cell_length_c 8.001554
_cell_angle_alpha 66.300248
_cell_angle_beta 119.340779
_cell_angle_gamma 89.189950
_cell_volume 727.580971
_symmetry_space_group_name_H-M "P -1"
_symmetry_group_IT_number 2
_symmetry_cell_setting 'triclinic'
loop_
_space_group_symop_operation_xyz
x,y,z
-x,-y,-z
loop_
_atom_site_type_symbol
_atom_site_label
_atom_site_fract_x
_atom_site_fract_y
_atom_site_fract_z
Si Si1 0.484160 0.226314 0.327940
Si Si2 0.167445 0.213188 0.569055
Si Si3 0.860271 0.487220 0.508289
Si Si4 0.774699 0.011293 0.033744
Si Si5 0.659208 0.495140 0.060978
Si Si6 0.457438 0.032776 0.712374
Si Si7 0.137176 0.812717 0.696580
Si Si8 0.197048 0.809698 0.356017
O O1 0.362759 0.371252 0.148068
O O2 0.437995 0.122154 0.480286
O O3 0.631938 0.250465 0.479997
O O4 0.518811 0.135009 0.228045
O O5 0.172331 0.377072 0.463407
O O6 0.313327 0.105701 0.667350
O O7 0.023769 0.197384 0.394714
O O8 0.165200 0.157713 0.790083
O O9 0.864325 0.326688 0.657222
O O10 0.000000 0.500000 0.500000
O O11 0.738157 0.520214 0.268440
O O12 0.825611 0.092411 0.180480
O O13 0.603483 0.048240 0.884412
O O14 0.826510 0.067904 0.866671
O O15 0.500000 0.500000 0.000000
O O16 0.751425 0.344007 0.134418
O O17 0.150494 0.861425 0.486237
#
# Coordination Sequence:
#
# PCOD9111601 Si02
#       8
#     2   2   2   2   2   2   2   2
#     4  10  20  43  67 102 131 177 232 278 337 397
#     4  12  24  42  67  99 140 178 218 288 344 398
#     4  11  22  43  62  98 138 179 223 275 344 403
#     4  11  25  43  70 102 129 184 231 272 337 407
#     4  11  21  38  71  94 127 188 223 274 336 402
#     4  10  24  41  69 100 137 171 229 287 330 406
#     4  11  24  44  65 101 140 173 226 279 342 397
#     4  10  22  44  70  95 138 175 228 280 327 408
#
# _framework density 21.990679
#
# number of rings (size 3 to 8) (size 9 to 14) (size 15 to 20)
#    0.000    1.250    5.000    2.250    1.750    1.500 
#    2.250    5.000    0.000    0.000    0.000    0.000 
#    0.000    0.000    0.000    0.000    0.000    0.000 
#
# Total GULP energy -89342.625868 kJ/mol
# GULP energy per Si atom -5583.914117 kJ/mol
# Density = 2.194063 g / cm^3
# Si number density = 21.990679 Si / 1000 Ang^3
#
#
#
# Elastic Constant Matrix: (Units=GPa)
#
#
# Indices 1 2 3 4 5 6 
#
# 1 82.3513 32.8562 36.5575 -5.5363 15.3292 8.3079
# 2 32.8562 99.4240 27.7873 -2.8615 2.0429 5.5310
# 3 36.5575 27.7873 70.4038 -6.4053 9.7597 1.3934
# 4 -5.5363 -2.8615 -6.4053 36.1938 3.9671 5.9577
# 5 15.3292 2.0429 9.7597 3.9671 41.0643 0.2304
# 6 8.3079 5.5310 1.3934 5.9577 0.2304 33.6633
#
#
#
# Elastic Compliance Matrix: (Units=1/GPa)
#
#
# Indices 1 2 3 4 5 6 
#
# 1 0.018256 -0.003674 -0.007005 0.002492 -0.005186 -0.004018
# 2 -0.003674 0.012154 -0.003097 -0.000161 0.001523 -0.000944
# 3 -0.007005 -0.003097 0.019532 0.002196 -0.002091 0.001055
# 4 0.002492 -0.000161 0.002196 0.029833 -0.004293 -0.005930
# 5 -0.005186 0.001523 -0.002091 -0.004293 0.027114 0.001690
# 6 -0.004018 -0.000944 0.001055 -0.005930 0.001690 0.031847
#
#
# Mechanical properties :
#
#
# Convention : Reuss Voigt Hill
#
# Bulk Modulus (GPa) = 44.65754 49.62012 47.13883
# Shear Modulus (GPa) = 28.77688 32.51615 30.64652
#
# Velocity S-wave (km/s) = 3.62137 3.84947 3.73716
# Velocity P-wave (km/s) = 6.15121 6.50931 6.33279
#
# Compressibility (1/GPa) = 0.02239264
#
# Stress axis : x y z
#
# Youngs Moduli (GPa) = 54.77504 82.27758 51.19812
#
# Poissons Ratio (x) = 0.30226 0.35863
# Poissons Ratio (y) = 0.20122 0.15854
# Poissons Ratio (z) = 0.38368 0.25478
#
# Static dielectric constant tensor:
#      x y z
#    x 1.883840 0.007050 -0.046880 
#    y 0.007050 1.870550 -0.026810 
#    z -0.046880 -0.026810 1.812270 
# 
# From -- ./inp_files/257176.got.cif
#   From: 2010.05.17/outbox.cif.g08.bks.cpg/sg2_129_cif.got.tgz:257176.got - 2010.06.03 11:33:40.
