data_PCOD9111289
_publ_section_title
;
Structure prediction by ZEFSAII (Michael W. Deem and Ramdas Pophale) SiO2 
 PCOD9111289
Probable space group: P -1
;
_chemical_formula_sum "Si O2"
_cell_formula_units_Z 16
_cell_length_a 16.769977
_cell_length_b 11.801076
_cell_length_c 8.269411
_cell_angle_alpha 143.649905
_cell_angle_beta 42.747297
_cell_angle_gamma 137.508676
_cell_volume 613.574795
_symmetry_space_group_name_H-M "P -1"
_symmetry_group_IT_number 2
_symmetry_cell_setting 'triclinic'
loop_
_space_group_symop_operation_xyz
x,y,z
-x,-y,-z
loop_
_atom_site_type_symbol
_atom_site_label
_atom_site_fract_x
_atom_site_fract_y
_atom_site_fract_z
Si Si1 0.644633 0.879332 0.590542
Si Si2 0.618837 0.319056 0.084558
Si Si3 0.053732 0.293224 0.314767
Si Si4 0.193018 0.027612 0.820801
Si Si5 0.932734 0.343523 0.058592
Si Si6 0.680689 0.091070 0.225550
Si Si7 0.478059 0.671846 0.116651
Si Si8 0.156576 0.283601 0.788652
O O1 0.760769 0.859738 0.496188
O O2 0.636308 0.102220 0.835375
O O3 0.683551 0.837327 0.304826
O O4 0.512873 0.722645 0.673454
O O5 0.603518 0.375846 0.984116
O O6 0.741494 0.500452 0.173699
O O7 0.062845 0.502452 0.621968
O O8 0.912433 0.130261 0.318054
O O9 0.115356 0.313549 0.068477
O O10 0.130806 0.176988 0.164490
O O11 0.233793 0.890688 0.724083
O O12 0.789171 0.207563 0.072916
O O13 0.000000 0.500000 0.000000
O O14 0.025201 0.221491 0.819626
O O15 0.585778 0.207816 0.531690
O O16 0.603426 0.848582 0.059131
O O17 0.500000 0.500000 0.000000
#
# Coordination Sequence:
#
# PCOD9111289 Si02
#       8
#     2   2   2   2   2   2   2   2
#     4  10  23  39  67 100 133 172 237 299 344 411
#     4  11  23  43  69  99 136 184 236 296 358 413
#     4  10  22  40  75 102 135 183 239 292 350 430
#     4  10  20  42  72 102 133 182 247 290 344 429
#     4  12  27  45  70 110 152 188 233 306 375 437
#     4  11  25  46  65 101 144 188 241 293 358 435
#     4  11  27  44  70 101 142 194 240 297 364 433
#     4  11  23  43  71 100 135 185 238 289 352 425
#
# _framework density 26.076689999999999
#
# number of rings (size 3 to 8) (size 9 to 14) (size 15 to 20)
#    0.000    1.250    2.500    2.250    5.250    4.000 
#    0.000    0.625    0.000    0.000    0.000    0.000 
#    0.000    0.000    0.000    0.000    0.000    0.000 
#
# Total GULP energy -89503.323470 kJ/mol
# GULP energy per Si atom -5593.957717 kJ/mol
# Density = 2.601734 g / cm^3
# Si number density = 26.076690 Si / 1000 Ang^3
#
#
#
# Elastic Constant Matrix: (Units=GPa)
#
#
# Indices 1 2 3 4 5 6 
#
# 1 80.0566 40.8005 44.0498 7.2520 -33.7411 -7.0136
# 2 40.8005 178.8495 50.3472 -8.5716 -18.9932 0.2493
# 3 44.0498 50.3472 89.9600 4.3414 -24.7575 5.0691
# 4 7.2520 -8.5716 4.3414 46.6449 -5.4458 -11.2769
# 5 -33.7411 -18.9932 -24.7575 -5.4458 43.0205 4.7591
# 6 -7.0136 0.2493 5.0691 -11.2769 4.7591 46.0211
#
#
#
# Elastic Compliance Matrix: (Units=1/GPa)
#
#
# Indices 1 2 3 4 5 6 
#
# 1 0.022934 -0.002063 -0.006638 -0.001198 0.012815 0.002619
# 2 -0.002063 0.007010 -0.003060 0.002001 -0.000085 0.000484
# 3 -0.006638 -0.003060 0.017366 -0.001611 0.003639 -0.003679
# 4 -0.001198 0.002001 -0.001611 0.023668 0.001389 0.005640
# 5 0.012815 -0.000085 0.003639 0.001389 0.035728 -0.001802
# 6 0.002619 0.000484 -0.003679 0.005640 -0.001802 0.024099
#
#
# Mechanical properties :
#
#
# Convention : Reuss Voigt Hill
#
# Bulk Modulus (GPa) = 42.04020 68.80679 55.42349
# Shear Modulus (GPa) = 30.81547 41.38186 36.09866
#
# Velocity S-wave (km/s) = 3.44135 3.98795 3.72469
# Velocity P-wave (km/s) = 5.65219 6.90280 6.30856
#
# Compressibility (1/GPa) = 0.02378676
#
# Stress axis : x y z
#
# Youngs Moduli (GPa) = 43.60273 142.66221 57.58515
#
# Poissons Ratio (x) = 0.29437 0.38226
# Poissons Ratio (y) = 0.08997 0.17620
# Poissons Ratio (z) = 0.28944 0.43651
#
# Static dielectric constant tensor:
#      x y z
#    x 2.124850 0.004440 0.028920 
#    y 0.004440 2.136140 -0.018520 
#    z 0.028920 -0.018520 2.076730 
# 
# From -- ./inp_files/333881.got.cif
#   From: 2010.05.17/outbox.cif.g08.bks.cpg/sg2_167_cif.got.tgz:333881.got - 2010.06.03 11:33:40.
