data_PCOD9111689
_publ_section_title
;
Structure prediction by ZEFSAII (Michael W. Deem and Ramdas Pophale) SiO2 
 PCOD9111689
Probable space group: P -1
;
_chemical_formula_sum "Si O2"
_cell_formula_units_Z 16
_cell_length_a 14.721534
_cell_length_b 12.094006
_cell_length_c 14.995873
_cell_angle_alpha 132.397321
_cell_angle_beta 27.445398
_cell_angle_gamma 114.129219
_cell_volume 754.739094
_symmetry_space_group_name_H-M "P -1"
_symmetry_group_IT_number 2
_symmetry_cell_setting 'triclinic'
loop_
_space_group_symop_operation_xyz
x,y,z
-x,-y,-z
loop_
_atom_site_type_symbol
_atom_site_label
_atom_site_fract_x
_atom_site_fract_y
_atom_site_fract_z
Si Si1 0.965089 0.176458 0.348818
Si Si2 0.917949 0.191744 0.212518
Si Si3 0.538777 0.541285 0.349163
Si Si4 0.195921 0.318821 0.132736
Si Si5 0.780074 0.430486 0.895350
Si Si6 0.701662 0.899825 0.694026
Si Si7 0.635635 0.220557 0.815894
Si Si8 0.436541 0.774298 0.737849
O O1 0.812032 0.200772 0.407939
O O2 0.832851 0.196623 0.564085
O O3 0.016580 0.331334 0.372914
O O4 0.203774 0.974603 0.031479
O O5 0.728968 0.349217 0.398343
O O6 0.141876 0.201847 0.048653
O O7 0.000000 0.000000 0.000000
O O8 0.533282 0.663788 0.500948
O O9 0.609551 0.350628 0.226146
O O10 0.702481 0.514326 0.107592
O O11 0.190328 0.458720 0.146437
O O12 0.430211 0.243307 0.944899
O O13 0.589212 0.384295 0.006972
O O14 0.039781 0.247962 0.576446
O O15 0.617995 0.806476 0.647811
O O16 0.716956 0.051132 0.713896
O O17 0.500000 0.000000 0.000000
#
# Coordination Sequence:
#
# PCOD9111689 Si02
#       8
#     2   2   2   2   2   2   2   2
#     4  10  22  44  68 101 133 180 222 277 336 400
#     4  10  20  43  68  96 137 181 219 269 342 399
#     4  11  23  42  67 101 136 178 224 280 339 396
#     4  10  24  43  67 103 135 181 221 278 345 389
#     4  12  26  43  67 104 138 174 231 282 331 411
#     4  12  25  46  69  99 133 182 227 278 344 398
#     4  12  24  45  70 101 136 178 231 276 338 403
#     4  11  22  43  70  94 139 179 222 281 341 396
#
# _framework density 21.199379
#
# number of rings (size 3 to 8) (size 9 to 14) (size 15 to 20)
#    0.750    0.250    2.500    4.500    0.000    1.000 
#    2.250    1.875    0.000    0.000    0.000    0.000 
#    0.000    0.000    0.000    0.000    0.000    0.000 
#
# Total GULP energy -89257.948324 kJ/mol
# GULP energy per Si atom -5578.621770 kJ/mol
# Density = 2.115113 g / cm^3
# Si number density = 21.199379 Si / 1000 Ang^3
#
#
#
# Elastic Constant Matrix: (Units=GPa)
#
#
# Indices 1 2 3 4 5 6 
#
# 1 195.2575 129.9179 83.6224 4.6428 10.7595 -13.6215
# 2 129.9179 244.7759 86.2407 0.2679 20.4094 -44.7104
# 3 83.6224 86.2407 101.3315 -1.1889 10.7021 -22.3740
# 4 4.6428 0.2679 -1.1889 31.6356 -10.8571 -1.0827
# 5 10.7595 20.4094 10.7021 -10.8571 37.9073 -3.0487
# 6 -13.6215 -44.7104 -22.3740 -1.0827 -3.0487 56.2678
#
#
#
# Elastic Compliance Matrix: (Units=1/GPa)
#
#
# Indices 1 2 3 4 5 6 
#
# 1 0.009879 -0.003813 -0.005575 -0.001689 0.000107 -0.002881
# 2 -0.003813 0.007933 -0.002426 -0.000214 -0.002220 0.004292
# 3 -0.005575 -0.002426 0.017499 0.001127 -0.001438 0.003625
# 4 -0.001689 -0.000214 0.001127 0.035562 0.010552 0.001125
# 5 0.000107 -0.002220 -0.001438 0.010552 0.030939 -0.000431
# 6 -0.002881 0.004292 0.003625 0.001125 -0.000431 0.021924
#
#
# Mechanical properties :
#
#
# Convention : Reuss Voigt Hill
#
# Bulk Modulus (GPa) = 85.58346 126.76965 106.17656
# Shear Modulus (GPa) = 33.05617 41.26771 37.16194
#
# Velocity S-wave (km/s) = 3.95308 4.41687 4.19139
# Velocity P-wave (km/s) = 7.82906 9.27039 8.58005
#
# Compressibility (1/GPa) = 0.01168450
#
# Stress axis : x y z
#
# Youngs Moduli (GPa) = 101.22346 126.05919 57.14547
#
# Poissons Ratio (x) = 0.48062 0.31859
# Poissons Ratio (y) = 0.38593 0.13861
# Poissons Ratio (z) = 0.56434 0.30576
#
# Static dielectric constant tensor:
#      x y z
#    x 1.834480 0.025950 0.028430 
#    y 0.025950 1.772760 -0.016680 
#    z 0.028430 -0.016680 1.825090 
# 
# From -- ./inp_files/532655.got.cif
#   From: 2010.05.17/outbox.cif.g08.bks.cpg/sg2_267_cif.got.tgz:532655.got - 2010.06.03 11:33:40.
