data_PCOD9111425
_publ_section_title
;
Structure prediction by ZEFSAII (Michael W. Deem and Ramdas Pophale) SiO2 
 PCOD9111425
Probable space group: P -1
;
_chemical_formula_sum "Si O2"
_cell_formula_units_Z 14
_cell_length_a 18.554434
_cell_length_b 20.562355
_cell_length_c 7.070705
_cell_angle_alpha 139.078237
_cell_angle_beta 130.048803
_cell_angle_gamma 20.767555
_cell_volume 603.004229
_symmetry_space_group_name_H-M "P -1"
_symmetry_group_IT_number 2
_symmetry_cell_setting 'triclinic'
loop_
_space_group_symop_operation_xyz
x,y,z
-x,-y,-z
loop_
_atom_site_type_symbol
_atom_site_label
_atom_site_fract_x
_atom_site_fract_y
_atom_site_fract_z
Si Si1 0.662920 0.648354 0.111344
Si Si2 0.086285 0.352456 0.145622
Si Si3 0.761382 0.597529 0.584403
Si Si4 0.385783 0.915849 0.893335
Si Si5 0.328761 0.578075 0.206690
Si Si6 0.207803 0.845433 0.912417
Si Si7 0.050464 0.145623 0.045891
O O1 0.653155 0.700073 0.420250
O O2 0.884831 0.476795 0.021025
O O3 0.471665 0.863613 0.131010
O O4 0.666590 0.526017 0.882268
O O5 0.180154 0.344589 0.142370
O O6 0.000000 0.500000 0.500000
O O7 0.267146 0.111388 0.003661
O O8 0.600670 0.691721 0.654249
O O9 0.970325 0.333901 0.340343
O O10 0.219894 0.985615 0.809919
O O11 0.256639 0.736028 0.564866
O O12 0.566771 0.368184 0.071895
O O13 0.154263 0.723308 0.072527
O O14 0.152180 0.007914 0.103757
O O15 0.000000 0.000000 0.000000
#
# Coordination Sequence:
#
# PCOD9111425 Si02
#       7
#     2   2   2   2   2   2   2
#     4  10  22  42  65  94 130 169 215 263 311 379
#     4  10  20  43  62  96 135 164 216 268 300 376
#     4  10  24  41  64  97 132 168 220 256 313 381
#     4  12  22  41  68  89 133 176 205 263 319 366
#     4  10  22  43  61  92 128 157 210 265 310 380
#     4  11  25  40  68  94 120 162 212 259 323 386
#     4  11  23  44  62  93 129 166 207 265 315 375
#
# _framework density 23.217085000000001
#
# number of rings (size 3 to 8) (size 9 to 14) (size 15 to 20)
#    0.000    1.429    5.714    0.857    2.000    5.714 
#    2.571    0.000    0.000    0.000    0.000    0.000 
#    0.000    0.000    0.000    0.000    0.000    0.000 
#
# Total GULP energy -78204.502060 kJ/mol
# GULP energy per Si atom -5586.035861 kJ/mol
# Density = 2.316424 g / cm^3
# Si number density = 23.217085 Si / 1000 Ang^3
#
#
#
# Elastic Constant Matrix: (Units=GPa)
#
#
# Indices 1 2 3 4 5 6 
#
# 1 88.7019 22.9228 3.9834 11.7426 -10.8236 -31.1028
# 2 22.9228 129.6019 17.0158 19.0027 -7.3750 -11.5704
# 3 3.9834 17.0158 16.3301 4.2693 1.1416 -8.2963
# 4 11.7426 19.0027 4.2693 19.2154 -10.3711 -6.1376
# 5 -10.8236 -7.3750 1.1416 -10.3711 27.3249 6.3758
# 6 -31.1028 -11.5704 -8.2963 -6.1376 6.3758 35.9323
#
#
#
# Elastic Compliance Matrix: (Units=1/GPa)
#
#
# Indices 1 2 3 4 5 6 
#
# 1 0.017505 -0.001817 0.006592 -0.005179 0.000683 0.015084
# 2 -0.001817 0.010172 -0.009030 -0.007503 -0.000059 -0.001653
# 3 0.006592 -0.009030 0.085251 -0.014477 -0.014137 0.022518
# 4 -0.005179 -0.007503 -0.014477 0.080110 0.027259 -0.001394
# 5 0.000683 -0.000059 -0.014137 0.027259 0.049374 -0.006796
# 6 0.015084 -0.001653 0.022518 -0.001394 -0.006796 0.046521
#
#
# Mechanical properties :
#
#
# Convention : Reuss Voigt Hill
#
# Bulk Modulus (GPa) = 9.57684 35.83086 22.70385
# Shear Modulus (GPa) = 15.04898 29.20864 22.12881
#
# Velocity S-wave (km/s) = 2.54871 3.55077 3.09062
# Velocity P-wave (km/s) = 3.57702 5.68130 4.74722
#
# Compressibility (1/GPa) = 0.10441862
#
# Stress axis : x y z
#
# Youngs Moduli (GPa) = 57.12630 98.30895 11.73004
#
# Poissons Ratio (x) = 0.17861 -0.07733
# Poissons Ratio (y) = 0.10379 0.10593
# Poissons Ratio (z) = -0.37660 0.88777
#
# Static dielectric constant tensor:
#      x y z
#    x 1.925380 -0.055880 0.001920 
#    y -0.055880 1.876550 -0.020080 
#    z 0.001920 -0.020080 1.843470 
# 
# From -- ./inp_files/313492.got.cif
#   From: 2010.05.17/outbox.cif.g08.bks.cpg/sg2_157_cif.got.tgz:313492.got - 2010.06.03 11:33:40.
