data_PCOD9111232
_publ_section_title
;
Structure prediction by ZEFSAII (Michael W. Deem and Ramdas Pophale) SiO2 
 PCOD9111232
Probable space group: P -1
;
_chemical_formula_sum "Si O2"
_cell_formula_units_Z 15
_cell_length_a 11.957861
_cell_length_b 8.494261
_cell_length_c 7.485060
_cell_angle_alpha 123.145243
_cell_angle_beta 99.964018
_cell_angle_gamma 84.145719
_cell_volume 626.947057
_symmetry_space_group_name_H-M "P -1"
_symmetry_group_IT_number 2
_symmetry_cell_setting 'triclinic'
loop_
_space_group_symop_operation_xyz
x,y,z
-x,-y,-z
loop_
_atom_site_type_symbol
_atom_site_label
_atom_site_fract_x
_atom_site_fract_y
_atom_site_fract_z
Si Si1 0.925040 0.123962 0.741681
Si Si2 0.112828 0.258118 0.651193
Si Si3 0.639802 0.636240 0.173357
Si Si4 0.504925 0.052021 0.830525
Si Si5 0.452767 0.643392 0.428890
Si Si6 0.262264 0.769239 0.975304
Si Si7 0.210864 0.683309 0.496266
Si Si8 0.000000 0.500000 0.500000
O O1 0.855928 0.174683 0.930038
O O2 0.849204 0.179923 0.580549
O O3 0.046275 0.219686 0.794013
O O4 0.937272 0.898894 0.595681
O O5 0.247671 0.243183 0.680036
O O6 0.075152 0.450674 0.669668
O O7 0.573617 0.762550 0.090533
O O8 0.538578 0.614196 0.273092
O O9 0.694247 0.429160 0.054850
O O10 0.636446 0.093073 0.850642
O O11 0.461032 0.868790 0.602275
O O12 0.500000 0.000000 0.000000
O O13 0.500000 0.500000 0.500000
O O14 0.319393 0.602181 0.371785
O O15 0.251732 0.765711 0.752673
O O16 0.117523 0.534624 0.438390
#
# Coordination Sequence:
#
# PCOD9111232 Si02
#       8
#     2   2   2   2   2   2   2   1
#     4  10  24  42  71  96 133 182 230 281 344 405
#     4  10  21  44  68  97 131 179 228 281 343 409
#     4  12  24  43  69  97 141 182 226 280 347 409
#     4  12  25  41  65 103 137 177 230 282 335 413
#     4  12  22  42  70  98 136 183 224 279 349 403
#     4  12  24  45  69 101 142 176 233 286 339 411
#     4  11  22  43  68  97 138 175 227 280 338 411
#     4  10  20  42  70  96 132 170 228 280 332 408
#
# _framework density 23.925464999999999
#
# number of rings (size 3 to 8) (size 9 to 14) (size 15 to 20)
#    0.000    0.800    4.000    3.200    0.000    1.600 
#    0.000    7.333    2.933    0.000    0.000    0.000 
#    0.000    0.000    0.000    0.000    0.000    0.000 
#
# Total GULP energy -83516.132645 kJ/mol
# GULP energy per Si atom -5567.742176 kJ/mol
# Density = 2.387101 g / cm^3
# Si number density = 23.925465 Si / 1000 Ang^3
#
#
#
# Elastic Constant Matrix: (Units=GPa)
#
#
# Indices 1 2 3 4 5 6 
#
# 1 188.3605 22.3691 28.5987 -6.5352 -10.3440 13.0142
# 2 22.3691 48.5039 15.5845 -11.7406 11.1866 16.9479
# 3 28.5987 15.5845 37.6429 -4.7976 -13.3837 4.8057
# 4 -6.5352 -11.7406 -4.7976 32.9850 -1.2304 2.9129
# 5 -10.3440 11.1866 -13.3837 -1.2304 36.0474 -2.8061
# 6 13.0142 16.9479 4.8057 2.9129 -2.8061 40.0587
#
#
#
# Elastic Compliance Matrix: (Units=1/GPa)
#
#
# Indices 1 2 3 4 5 6 
#
# 1 0.006151 -0.001484 -0.003617 0.000275 0.000822 -0.000899
# 2 -0.001484 0.041820 -0.020167 0.012365 -0.021810 -0.017219
# 3 -0.003617 -0.020167 0.044663 -0.001098 0.022231 0.005986
# 4 0.000275 0.012365 -0.001098 0.035185 -0.003588 -0.007999
# 5 0.000822 -0.021810 0.022231 -0.003588 0.043625 0.009610
# 6 -0.000899 -0.017219 0.005986 -0.007999 0.009610 0.033077
#
#
# Mechanical properties :
#
#
# Convention : Reuss Voigt Hill
#
# Bulk Modulus (GPa) = 23.75346 45.29020 34.52183
# Shear Modulus (GPa) = 18.58119 35.68188 27.13154
#
# Velocity S-wave (km/s) = 2.78983 3.86602 3.37115
# Velocity P-wave (km/s) = 4.50857 6.23691 5.44179
#
# Compressibility (1/GPa) = 0.04209913
#
# Stress axis : x y z
#
# Youngs Moduli (GPa) = 162.57235 23.91184 22.39008
#
# Poissons Ratio (x) = 0.03547 0.08098
# Poissons Ratio (y) = 0.24118 0.45154
# Poissons Ratio (z) = 0.58802 0.48223
#
# Static dielectric constant tensor:
#      x y z
#    x 1.876340 0.022370 0.048490 
#    y 0.022370 1.876660 0.012600 
#    z 0.048490 0.012600 2.008450 
# 
# From -- ./inp_files/195402.got.cif
#   From: 2010.05.17/outbox.cif.g08.bks.cpg/sg2_98_cif.got.tgz:195402.got - 2010.06.03 11:33:40.
