data_PCOD9111728
_publ_section_title
;
Structure prediction by ZEFSAII (Michael W. Deem and Ramdas Pophale) SiO2 
 PCOD9111728
Probable space group: P -1
;
_chemical_formula_sum "Si O2"
_cell_formula_units_Z 14
_cell_length_a 14.151755
_cell_length_b 9.348855
_cell_length_c 11.784630
_cell_angle_alpha 112.393640
_cell_angle_beta 149.639407
_cell_angle_gamma 63.073203
_cell_volume 702.450128
_symmetry_space_group_name_H-M "P -1"
_symmetry_group_IT_number 2
_symmetry_cell_setting 'triclinic'
loop_
_space_group_symop_operation_xyz
x,y,z
-x,-y,-z
loop_
_atom_site_type_symbol
_atom_site_label
_atom_site_fract_x
_atom_site_fract_y
_atom_site_fract_z
Si Si1 0.395026 0.708075 0.048742
Si Si2 0.764606 0.617136 0.532250
Si Si3 0.438191 0.731772 0.610061
Si Si4 0.502171 0.812327 0.950882
Si Si5 0.871252 0.525667 0.261743
Si Si6 0.224103 0.496318 0.242787
Si Si7 0.545125 0.950457 0.403512
O O1 0.392288 0.406271 0.729968
O O2 0.397276 0.768492 0.940881
O O3 0.245693 0.609034 0.895003
O O4 0.387800 0.862670 0.166109
O O5 0.702421 0.589569 0.586613
O O6 0.743055 0.807158 0.555781
O O7 0.976219 0.509259 0.693242
O O8 0.418367 0.757488 0.731841
O O9 0.268644 0.667800 0.357487
O O10 0.638194 0.600635 0.742619
O O11 0.447840 0.899089 0.617828
O O12 0.721751 0.699635 0.153593
O O13 0.500000 0.000000 0.000000
O O14 0.000000 0.500000 0.500000
O O15 0.000000 0.500000 0.000000
O O16 0.500000 0.000000 0.500000
#
# Coordination Sequence:
#
# PCOD9111728 Si02
#       7
#     2   2   2   2   2   2   2
#     4  10  23  43  66  95 134 176 217 265 336 387
#     4  10  22  42  66  95 127 171 222 260 324 394
#     4  11  23  43  66  94 131 169 216 271 330 393
#     4  12  23  43  71  97 135 177 215 274 339 382
#     4  12  24  41  67  96 131 176 225 260 322 405
#     4  11  24  42  65  96 129 171 217 270 332 384
#     4  10  20  43  69  89 128 173 215 269 324 384
#
# _framework density 19.930239
#
# number of rings (size 3 to 8) (size 9 to 14) (size 15 to 20)
#    0.857    0.286    4.286    2.143    2.000    2.286 
#    2.571    2.143    0.000    0.000    0.000    0.000 
#    0.000    0.000    0.000    0.000    0.000    0.000 
#
# Total GULP energy -78127.238431 kJ/mol
# GULP energy per Si atom -5580.517031 kJ/mol
# Density = 1.988488 g / cm^3
# Si number density = 19.930239 Si / 1000 Ang^3
#
#
#
# Elastic Constant Matrix: (Units=GPa)
#
#
# Indices 1 2 3 4 5 6 
#
# 1 82.6640 3.1809 30.2857 16.0766 -17.8337 -0.5047
# 2 3.1809 103.5392 38.1230 23.6352 0.5480 8.0731
# 3 30.2857 38.1230 85.4066 23.3525 8.0169 5.6949
# 4 16.0766 23.6352 23.3525 29.2179 1.9761 -3.6715
# 5 -17.8337 0.5480 8.0169 1.9761 39.5381 -0.0043
# 6 -0.5047 8.0731 5.6949 -3.6715 -0.0043 32.0824
#
#
#
# Elastic Compliance Matrix: (Units=1/GPa)
#
#
# Indices 1 2 3 4 5 6 
#
# 1 0.018220 0.003845 -0.006771 -0.008453 0.009960 -0.000445
# 2 0.003845 0.013920 -0.004823 -0.010198 0.003029 -0.003753
# 3 -0.006771 -0.004823 0.019179 -0.007661 -0.006493 -0.003175
# 4 -0.008453 -0.010198 -0.007661 0.054844 -0.004858 0.010069
# 5 0.009960 0.003029 -0.006493 -0.004858 0.031302 -0.000004
# 6 -0.000445 -0.003753 -0.003175 0.010069 -0.000004 0.033823
#
#
# Mechanical properties :
#
#
# Convention : Reuss Voigt Hill
#
# Bulk Modulus (GPa) = 27.91638 46.08768 37.00203
# Shear Modulus (GPa) = 25.16032 33.50236 29.33134
#
# Velocity S-wave (km/s) = 3.55691 4.10442 3.84044
# Velocity P-wave (km/s) = 5.55934 6.75547 6.18638
#
# Compressibility (1/GPa) = 0.03582127
#
# Stress axis : x y z
#
# Youngs Moduli (GPa) = 54.88466 71.83761 52.14155
#
# Poissons Ratio (x) = -0.27622 0.35306
# Poissons Ratio (y) = -0.21103 0.25146
# Poissons Ratio (z) = 0.37163 0.34645
#
# Static dielectric constant tensor:
#      x y z
#    x 1.719230 -0.020630 -0.017030 
#    y -0.020630 1.716650 0.002710 
#    z -0.017030 0.002710 1.719420 
# 
# From -- ./inp_files/446371.got.cif
#   From: 2010.05.17/outbox.cif.g08.bks.cpg/sg2_224_cif.got.tgz:446371.got - 2010.06.03 11:33:40.
