data_PCOD9111457
_publ_section_title
;
Structure prediction by ZEFSAII (Michael W. Deem and Ramdas Pophale) SiO2 
 PCOD9111457
Probable space group: P -1
;
_chemical_formula_sum "Si O2"
_cell_formula_units_Z 16
_cell_length_a 5.685019
_cell_length_b 9.086060
_cell_length_c 17.026829
_cell_angle_alpha 123.646210
_cell_angle_beta 118.320055
_cell_angle_gamma 70.070826
_cell_volume 640.875692
_symmetry_space_group_name_H-M "P -1"
_symmetry_group_IT_number 2
_symmetry_cell_setting 'triclinic'
loop_
_space_group_symop_operation_xyz
x,y,z
-x,-y,-z
loop_
_atom_site_type_symbol
_atom_site_label
_atom_site_fract_x
_atom_site_fract_y
_atom_site_fract_z
Si Si1 0.985137 0.647699 0.974779
Si Si2 0.511403 0.224830 0.156075
Si Si3 0.331901 0.234187 0.296548
Si Si4 0.148949 0.458121 0.669285
Si Si5 0.001681 0.938647 0.171350
Si Si6 0.951381 0.669263 0.219272
Si Si7 0.878354 0.216351 0.459890
Si Si8 0.269383 0.874494 0.419746
O O1 0.683412 0.733631 0.935347
O O2 0.070279 0.527866 0.876778
O O3 0.000000 0.500000 0.000000
O O4 0.125953 0.806750 0.083266
O O5 0.335324 0.180685 0.189985
O O6 0.632273 0.405312 0.252357
O O7 0.757998 0.075017 0.140950
O O8 0.634594 0.263188 0.376606
O O9 0.129192 0.409449 0.329156
O O10 0.218596 0.067835 0.274052
O O11 0.182912 0.335817 0.717302
O O12 0.110760 0.344926 0.550788
O O13 0.884124 0.813817 0.182489
O O14 0.248290 0.723615 0.306763
O O15 0.748379 0.212737 0.524248
O O16 0.009951 0.017656 0.406212
O O17 0.500000 0.000000 0.500000
#
# Coordination Sequence:
#
# PCOD9111457 Si02
#       8
#     2   2   2   2   2   2   2   2
#     4  10  22  43  66  92 122 165 215 264 318 374
#     4  11  23  42  65  93 129 168 207 261 324 373
#     4  11  22  41  64  93 134 166 205 264 312 379
#     4  10  23  40  65  94 131 165 212 258 311 379
#     4  10  23  42  65  94 125 166 214 263 315 376
#     4  10  20  43  64  89 127 163 210 260 314 362
#     4  10  22  37  59  96 125 169 211 248 315 372
#     4  10  21  36  61  90 128 165 209 260 307 370
#
# _framework density 24.96584
#
# number of rings (size 3 to 8) (size 9 to 14) (size 15 to 20)
#    0.000    1.750    1.250    2.250    1.750    2.000 
#   13.500    1.250    0.000    0.000    0.000    0.000 
#    0.000    0.000    0.000    0.000    0.000    0.000 
#
# Total GULP energy -89349.892534 kJ/mol
# GULP energy per Si atom -5584.368283 kJ/mol
# Density = 2.490902 g / cm^3
# Si number density = 24.965840 Si / 1000 Ang^3
#
#
#
# Elastic Constant Matrix: (Units=GPa)
#
#
# Indices 1 2 3 4 5 6 
#
# 1 28.5739 25.6668 -0.8408 2.9635 -1.4021 9.3399
# 2 25.6668 108.8135 47.0137 14.5772 1.3771 13.0402
# 3 -0.8408 47.0137 107.9091 8.2468 -8.6489 -1.1638
# 4 2.9635 14.5772 8.2468 53.9187 -3.8086 0.4737
# 5 -1.4021 1.3771 -8.6489 -3.8086 22.8100 9.1659
# 6 9.3399 13.0402 -1.1638 0.4737 9.1659 28.2517
#
#
#
# Elastic Compliance Matrix: (Units=1/GPa)
#
#
# Indices 1 2 3 4 5 6 
#
# 1 0.053610 -0.014362 0.007506 0.000854 0.013213 -0.015086
# 2 -0.014362 0.016416 -0.007428 -0.002817 -0.004507 -0.001626
# 3 0.007506 -0.007428 0.013039 0.000033 0.006052 -0.000480
# 4 0.000854 -0.002817 0.000033 0.019522 0.003699 -0.000508
# 5 0.013213 -0.004507 0.006052 0.003699 0.055979 -0.020262
# 6 -0.015086 -0.001626 -0.000480 -0.000508 -0.020262 0.047696
#
#
# Mechanical properties :
#
#
# Convention : Reuss Voigt Hill
#
# Bulk Modulus (GPa) = 18.34950 43.21954 30.78452
# Shear Modulus (GPa) = 19.76321 32.55987 26.16154
#
# Velocity S-wave (km/s) = 2.81661 3.61526 3.24063
# Velocity P-wave (km/s) = 4.23598 5.89710 5.13417
#
# Compressibility (1/GPa) = 0.05449740
#
# Stress axis : x y z
#
# Youngs Moduli (GPa) = 18.65335 60.91571 76.69307
#
# Poissons Ratio (x) = 0.87488 -0.57566
# Poissons Ratio (y) = 0.26790 0.56965
# Poissons Ratio (z) = -0.14001 0.45246
#
# Static dielectric constant tensor:
#      x y z
#    x 2.002680 -0.000650 0.001950 
#    y -0.000650 1.962980 0.016260 
#    z 0.001950 0.016260 2.053210 
# 
# From -- ./inp_files/90834.got.cif
#   From: 2010.05.17/outbox.cif.g08.bks.cpg/sg2_46_cif.got.tgz:90834.got - 2010.06.03 11:33:40.
