data_PCOD9111476
_publ_section_title
;
Structure prediction by ZEFSAII (Michael W. Deem and Ramdas Pophale) SiO2 
 PCOD9111476
Probable space group: P -1
;
_chemical_formula_sum "Si O2"
_cell_formula_units_Z 16
_cell_length_a 9.442675
_cell_length_b 5.306916
_cell_length_c 16.953012
_cell_angle_alpha 53.952532
_cell_angle_beta 72.553303
_cell_angle_gamma 78.243156
_cell_volume 654.868426
_symmetry_space_group_name_H-M "P -1"
_symmetry_group_IT_number 2
_symmetry_cell_setting 'triclinic'
loop_
_space_group_symop_operation_xyz
x,y,z
-x,-y,-z
loop_
_atom_site_type_symbol
_atom_site_label
_atom_site_fract_x
_atom_site_fract_y
_atom_site_fract_z
Si Si1 0.272565 0.945785 0.269947
Si Si2 0.327845 0.355486 0.616619
Si Si3 0.995818 0.260373 0.729693
Si Si4 0.850901 0.898247 0.584384
Si Si5 0.637242 0.890227 0.051460
Si Si6 0.958136 0.866537 0.948459
Si Si7 0.589533 0.636170 0.584088
Si Si8 0.572395 0.183870 0.180334
O O1 0.204343 0.873460 0.380377
O O2 0.391494 0.210765 0.198167
O O3 0.379983 0.638041 0.304469
O O4 0.123236 0.981769 0.239080
O O5 0.150113 0.342411 0.648928
O O6 0.410211 0.621838 0.605527
O O7 0.372045 0.373045 0.514307
O O8 0.389683 0.046216 0.709857
O O9 0.896745 0.578331 0.681665
O O10 0.039667 0.091921 0.833471
O O11 0.710306 0.865410 0.557329
O O12 0.000000 0.000000 0.500000
O O13 0.632945 0.517635 0.129974
O O14 0.630537 0.058982 0.107560
O O15 0.781907 0.937880 0.964909
O O16 0.500000 0.000000 0.000000
O O17 0.000000 0.500000 0.000000
O O18 0.000000 0.000000 0.000000
#
# Coordination Sequence:
#
# PCOD9111476 Si02
#       8
#     2   2   2   2   2   2   2   2
#     4  10  23  41  68  98 138 180 244 289 354 422
#     4  10  20  43  64  97 139 184 228 284 363 426
#     4  11  24  42  69  96 141 183 236 292 363 429
#     4  11  23  41  67 103 137 184 239 297 354 433
#     4  12  26  48  75 104 140 188 247 302 363 430
#     4  12  28  49  74 109 152 192 242 306 379 441
#     4   9  21  41  64  95 137 183 228 291 344 429
#     4  11  26  45  73 105 140 185 239 301 357 433
#
# _framework density 24.432390999999999
#
# number of rings (size 3 to 8) (size 9 to 14) (size 15 to 20)
#    0.000    1.250    0.000    4.875    8.750    2.000 
#    9.000    3.750    0.000    0.000    0.000    0.000 
#    0.000    0.000    0.000    0.000    0.000    0.000 
#
# Total GULP energy -89188.229775 kJ/mol
# GULP energy per Si atom -5574.264361 kJ/mol
# Density = 2.437678 g / cm^3
# Si number density = 24.432391 Si / 1000 Ang^3
#
#
#
# Elastic Constant Matrix: (Units=GPa)
#
#
# Indices 1 2 3 4 5 6 
#
# 1 89.8037 -9.1773 -19.3467 -2.9831 -8.3421 0.9876
# 2 -9.1773 64.5896 9.5352 7.8493 11.7646 2.7525
# 3 -19.3467 9.5352 78.9857 2.9790 5.1504 -9.5902
# 4 -2.9831 7.8493 2.9790 35.7738 -3.8870 7.8190
# 5 -8.3421 11.7646 5.1504 -3.8870 57.2994 5.6602
# 6 0.9876 2.7525 -9.5902 7.8190 5.6602 28.0864
#
#
#
# Elastic Compliance Matrix: (Units=1/GPa)
#
#
# Indices 1 2 3 4 5 6 
#
# 1 0.011965 0.000971 0.002689 0.000724 0.001357 -0.000073
# 2 0.000971 0.016943 -0.001499 -0.003781 -0.003413 -0.000466
# 3 0.002689 -0.001499 0.014365 -0.002050 -0.001303 0.005791
# 4 0.000724 -0.003781 -0.002050 0.031660 0.004203 -0.010016
# 5 0.001357 -0.003413 -0.001303 0.004203 0.019268 -0.005211
# 6 -0.000073 -0.000466 0.005791 -0.010016 -0.005211 0.041469
#
#
# Mechanical properties :
#
#
# Convention : Reuss Voigt Hill
#
# Bulk Modulus (GPa) = 21.01082 21.71126 21.36104
# Shear Modulus (GPa) = 33.96463 41.05645 37.51054
#
# Velocity S-wave (km/s) = 3.73251 4.10373 3.92251
# Velocity P-wave (km/s) = 5.21477 5.59997 5.41080
#
# Compressibility (1/GPa) = 0.04759453
#
# Stress axis : x y z
#
# Youngs Moduli (GPa) = 83.57839 59.02295 69.61125
#
# Poissons Ratio (x) = -0.05731 -0.18717
# Poissons Ratio (y) = -0.08115 0.10434
# Poissons Ratio (z) = -0.22472 0.08847
#
# Static dielectric constant tensor:
#      x y z
#    x 2.237510 -0.168330 0.134730 
#    y -0.168330 2.148880 -0.111110 
#    z 0.134730 -0.111110 1.991440 
# 
# From -- ./inp_files/139613.got.cif
#   From: 2010.05.17/outbox.cif.g08.bks.cpg/sg2_70_cif.got.tgz:139613.got - 2010.06.03 11:33:40.
