data_PCOD9111504
_publ_section_title
;
Structure prediction by ZEFSAII (Michael W. Deem and Ramdas Pophale) SiO2 
 PCOD9111504
Probable space group: P -1
;
_chemical_formula_sum "Si O2"
_cell_formula_units_Z 16
_cell_length_a 14.317414
_cell_length_b 8.361860
_cell_length_c 11.321397
_cell_angle_alpha 101.342758
_cell_angle_beta 76.178373
_cell_angle_gamma 149.343031
_cell_volume 670.995838
_symmetry_space_group_name_H-M "P -1"
_symmetry_group_IT_number 2
_symmetry_cell_setting 'triclinic'
loop_
_space_group_symop_operation_xyz
x,y,z
-x,-y,-z
loop_
_atom_site_type_symbol
_atom_site_label
_atom_site_fract_x
_atom_site_fract_y
_atom_site_fract_z
Si Si1 0.532057 0.171589 0.410240
Si Si2 0.492271 0.547597 0.184497
Si Si3 0.706326 0.881491 0.500828
Si Si4 0.832692 0.457126 0.943255
Si Si5 0.757016 0.674563 0.594591
Si Si6 0.022179 0.879997 0.723008
Si Si7 0.332157 0.547811 0.830828
Si Si8 0.781402 0.024452 0.969848
O O1 0.345615 0.009621 0.441545
O O2 0.708605 0.525593 0.461940
O O3 0.585817 0.221447 0.265615
O O4 0.500000 0.000000 0.500000
O O5 0.432368 0.580555 0.311045
O O6 0.550669 0.449800 0.191983
O O7 0.310104 0.253471 0.117453
O O8 0.654829 0.852929 0.099940
O O9 0.500000 0.500000 0.500000
O O10 0.807081 0.933468 0.585296
O O11 0.827115 0.021574 0.369125
O O12 0.769822 0.178545 0.926896
O O13 0.897487 0.607918 0.817231
O O14 0.692706 0.383031 0.033850
O O15 0.013303 0.716780 0.011853
O O16 0.898417 0.777826 0.642538
O O17 0.134883 0.186160 0.799249
#
# Coordination Sequence:
#
# PCOD9111504 Si02
#       8
#     2   2   2   2   2   2   2   2
#     4  11  25  42  66 100 132 172 219 276 332 390
#     4  11  23  43  71  93 133 180 229 266 331 407
#     4  10  20  43  65  92 125 172 220 266 322 398
#     4  11  26  42  66 100 140 170 220 284 340 388
#     4  11  23  41  69  97 126 175 226 273 326 401
#     4  12  23  41  70  98 133 176 226 276 336 394
#     4  12  23  42  67  96 135 175 222 271 332 403
#     4  10  25  44  63 100 132 181 219 274 337 397
#
# _framework density 23.845154999999998
#
# number of rings (size 3 to 8) (size 9 to 14) (size 15 to 20)
#    0.000    1.000    5.000    2.250    5.250    2.500 
#    0.000    0.625    0.000    0.000    0.000    0.000 
#    0.000    0.000    0.000    0.000    0.000    0.000 
#
# Total GULP energy -89474.026083 kJ/mol
# GULP energy per Si atom -5592.126630 kJ/mol
# Density = 2.379088 g / cm^3
# Si number density = 23.845155 Si / 1000 Ang^3
#
#
#
# Elastic Constant Matrix: (Units=GPa)
#
#
# Indices 1 2 3 4 5 6 
#
# 1 100.9411 16.6036 34.1457 -20.3940 14.2841 9.9957
# 2 16.6036 41.9666 11.4538 -10.2060 -0.9832 5.1774
# 3 34.1457 11.4538 145.0525 -39.4557 -6.2015 -6.2268
# 4 -20.3940 -10.2060 -39.4557 35.6071 -2.7046 15.2935
# 5 14.2841 -0.9832 -6.2015 -2.7046 43.9278 -7.6439
# 6 9.9957 5.1774 -6.2268 15.2935 -7.6439 28.4445
#
#
#
# Elastic Compliance Matrix: (Units=1/GPa)
#
#
# Indices 1 2 3 4 5 6 
#
# 1 0.015442 -0.001035 -0.000857 0.013261 -0.006854 -0.014398
# 2 -0.001035 0.028944 0.001387 0.014590 -0.000091 -0.012470
# 3 -0.000857 0.001387 0.010612 0.013748 0.001868 -0.004518
# 4 0.013261 0.014590 0.013748 0.074322 -0.005425 -0.045724
# 5 -0.006854 -0.000091 0.001868 -0.005425 0.027194 0.013059
# 6 -0.014398 -0.012470 -0.004518 -0.045724 0.013059 0.069590
#
#
# Mechanical properties :
#
#
# Convention : Reuss Voigt Hill
#
# Bulk Modulus (GPa) = 18.52266 45.81849 32.17058
# Shear Modulus (GPa) = 20.39920 36.64634 28.52277
#
# Velocity S-wave (km/s) = 2.92804 3.92452 3.46232
# Velocity P-wave (km/s) = 4.38361 6.30813 5.43178
#
# Compressibility (1/GPa) = 0.05398792
#
# Stress axis : x y z
#
# Youngs Moduli (GPa) = 64.75881 34.55003 94.23493
#
# Poissons Ratio (x) = 0.03575 0.08079
# Poissons Ratio (y) = 0.06701 -0.13075
# Poissons Ratio (z) = 0.05552 -0.04794
#
# Static dielectric constant tensor:
#      x y z
#    x 1.963310 -0.031010 0.010890 
#    y -0.031010 1.986400 -0.000570 
#    z 0.010890 -0.000570 1.923250 
# 
# From -- ./inp_files/329326.got.cif
#   From: 2010.05.17/outbox.cif.g08.bks.cpg/sg2_165_cif.got.tgz:329326.got - 2010.06.03 11:33:40.
