data_PCOD9111738
_publ_section_title
;
Structure prediction by ZEFSAII (Michael W. Deem and Ramdas Pophale) SiO2 
 PCOD9111738
Probable space group: P -1
;
_chemical_formula_sum "Si O2"
_cell_formula_units_Z 14
_cell_length_a 9.219796
_cell_length_b 14.290055
_cell_length_c 15.591627
_cell_angle_alpha 26.780664
_cell_angle_beta 131.898625
_cell_angle_gamma 114.702802
_cell_volume 583.544135
_symmetry_space_group_name_H-M "P -1"
_symmetry_group_IT_number 2
_symmetry_cell_setting 'triclinic'
loop_
_space_group_symop_operation_xyz
x,y,z
-x,-y,-z
loop_
_atom_site_type_symbol
_atom_site_label
_atom_site_fract_x
_atom_site_fract_y
_atom_site_fract_z
Si Si1 0.900073 0.483232 0.064343
Si Si2 0.149952 0.056887 0.616574
Si Si3 0.080605 0.563380 0.626740
Si Si4 0.377851 0.004563 0.193741
Si Si5 0.706897 0.998523 0.032202
Si Si6 0.079695 0.781785 0.946048
Si Si7 0.599331 0.250970 0.413458
O O1 0.628136 0.662729 0.801322
O O2 0.047750 0.555889 0.123653
O O3 0.000000 0.500000 0.000000
O O4 0.956629 0.224611 0.333840
O O5 0.066457 0.243448 0.513381
O O6 0.389121 0.995125 0.722525
O O7 0.172789 0.816294 0.863948
O O8 0.315387 0.561619 0.711867
O O9 0.161638 0.281322 0.900362
O O10 0.922162 0.718202 0.356923
O O11 0.412875 0.821320 0.434046
O O12 0.343192 0.934923 0.141595
O O13 0.778295 0.174411 0.962060
O O14 0.500000 0.000000 0.000000
O O15 0.815581 0.006082 0.660365
#
# Coordination Sequence:
#
# PCOD9111738 Si02
#       7
#     2   2   2   2   2   2   2
#     4  12  24  40  65  96 130 167 220 267 316 379
#     4  10  23  42  64  95 133 166 217 259 323 383
#     4  10  24  41  67  98 129 170 214 259 328 384
#     4  12  21  41  71  93 133 171 211 264 322 380
#     4  10  20  43  69  94 131 167 215 264 318 390
#     4  10  24  43  65  93 129 171 211 270 323 378
#     4  10  24  42  63  99 130 164 223 266 310 390
#
# _framework density 23.991330000000001
#
# number of rings (size 3 to 8) (size 9 to 14) (size 15 to 20)
#    0.000    1.714    4.286    1.714    2.000    6.286 
#    0.000    3.571    0.000    0.000    0.000    0.000 
#    0.000    0.000    0.000    0.000    0.000    0.000 
#
# Total GULP energy -78202.853255 kJ/mol
# GULP energy per Si atom -5585.918090 kJ/mol
# Density = 2.393672 g / cm^3
# Si number density = 23.991330 Si / 1000 Ang^3
#
#
#
# Elastic Constant Matrix: (Units=GPa)
#
#
# Indices 1 2 3 4 5 6 
#
# 1 48.1887 3.0883 -2.1375 -0.4782 11.4853 11.8925
# 2 3.0883 75.3990 21.5971 -2.8233 -4.5219 22.8329
# 3 -2.1375 21.5971 67.5435 3.1681 -6.7510 13.5986
# 4 -0.4782 -2.8233 3.1681 28.9781 3.0724 3.5563
# 5 11.4853 -4.5219 -6.7510 3.0724 50.4664 4.7896
# 6 11.8925 22.8329 13.5986 3.5563 4.7896 33.6463
#
#
#
# Elastic Compliance Matrix: (Units=1/GPa)
#
#
# Indices 1 2 3 4 5 6 
#
# 1 0.024208 0.001251 0.001795 0.001980 -0.004355 -0.009720
# 2 0.001251 0.018011 -0.003291 0.003410 0.001816 -0.011953
# 3 0.001795 -0.003291 0.017337 -0.001744 0.002248 -0.005544
# 4 0.001980 0.003410 -0.001744 0.035993 -0.002017 -0.005826
# 5 -0.004355 0.001816 0.002248 -0.002017 0.021723 -0.003481
# 6 -0.009720 -0.011953 -0.005544 -0.005826 -0.003481 0.044620
#
#
# Mechanical properties :
#
#
# Convention : Reuss Voigt Hill
#
# Bulk Modulus (GPa) = 16.93081 26.24746 21.58914
# Shear Modulus (GPa) = 27.46192 33.85703 30.65947
#
# Velocity S-wave (km/s) = 3.38695 3.76070 3.57871
# Velocity P-wave (km/s) = 4.72944 5.46088 5.10827
#
# Compressibility (1/GPa) = 0.05906391
#
# Stress axis : x y z
#
# Youngs Moduli (GPa) = 41.30936 55.52301 57.67979
#
# Poissons Ratio (x) = -0.06944 -0.10353
# Poissons Ratio (y) = -0.05167 0.18984
# Poissons Ratio (z) = -0.07415 0.18274
#
# Static dielectric constant tensor:
#      x y z
#    x 1.907600 -0.028090 -0.015480 
#    y -0.028090 2.046250 0.000020 
#    z -0.015480 0.000020 1.926150 
# 
# From -- ./inp_files/505149.got.cif
#   From: 2010.05.17/outbox.cif.g08.bks.cpg/sg2_253_cif.got.tgz:505149.got - 2010.06.03 11:33:40.
