data_PCOD9111729
_publ_section_title
;
Structure prediction by ZEFSAII (Michael W. Deem and Ramdas Pophale) SiO2 
 PCOD9111729
Probable space group: P -1
;
_chemical_formula_sum "Si O2"
_cell_formula_units_Z 15
_cell_length_a 9.089248
_cell_length_b 6.423380
_cell_length_c 12.016966
_cell_angle_alpha 76.195364
_cell_angle_beta 98.040090
_cell_angle_gamma 95.836612
_cell_volume 672.927216
_symmetry_space_group_name_H-M "P -1"
_symmetry_group_IT_number 2
_symmetry_cell_setting 'triclinic'
loop_
_space_group_symop_operation_xyz
x,y,z
-x,-y,-z
loop_
_atom_site_type_symbol
_atom_site_label
_atom_site_fract_x
_atom_site_fract_y
_atom_site_fract_z
Si Si1 0.223077 0.830146 0.678600
Si Si2 0.920827 0.015463 0.156791
Si Si3 0.798880 0.168004 0.790682
Si Si4 0.171712 0.586324 0.025401
Si Si5 0.157739 0.629867 0.469104
Si Si6 0.708481 0.611203 0.140034
Si Si7 0.520285 0.826208 0.257964
Si Si8 0.500000 0.500000 0.500000
O O1 0.085251 0.897937 0.729192
O O2 0.189897 0.802164 0.549586
O O3 0.272040 0.604070 0.759915
O O4 0.352669 0.010279 0.698935
O O5 0.847466 0.776811 0.164613
O O6 0.823779 0.175982 0.058581
O O7 0.087962 0.003055 0.135561
O O8 0.798185 0.370617 0.848201
O O9 0.853114 0.254357 0.665474
O O10 0.632899 0.062823 0.782648
O O11 0.278775 0.450072 0.979889
O O12 0.000000 0.500000 0.000000
O O13 0.310381 0.504230 0.496694
O O14 0.000000 0.500000 0.500000
O O15 0.570139 0.728897 0.158777
O O16 0.489616 0.636661 0.367708
#
# Coordination Sequence:
#
# PCOD9111729 Si02
#       8
#     2   2   2   2   2   2   2   1
#     4  10  22  43  69  94 129 184 213 261 357 394
#     4  10  22  42  69  93 131 170 219 284 327 395
#     4  11  24  41  62 106 129 167 233 272 325 404
#     4  11  23  40  69  96 127 178 220 276 342 387
#     4  11  24  43  69 102 138 175 226 277 331 416
#     4  10  20  43  69  90 128 179 214 264 341 391
#     4  10  23  44  65  95 139 173 216 278 331 406
#     4  10  22  42  68  94 144 176 208 288 334 380
#
# _framework density 22.290669999999999
#
# number of rings (size 3 to 8) (size 9 to 14) (size 15 to 20)
#    0.000    1.600    2.667    1.200    3.733    3.200 
#    4.800    6.000    0.000    0.000    0.000    0.000 
#    0.000    0.000    0.000    0.000    0.000    0.000 
#
# Total GULP energy -83513.781657 kJ/mol
# GULP energy per Si atom -5567.585444 kJ/mol
# Density = 2.223994 g / cm^3
# Si number density = 22.290670 Si / 1000 Ang^3
#
#
#
# Elastic Constant Matrix: (Units=GPa)
#
#
# Indices 1 2 3 4 5 6 
#
# 1 140.0162 30.1875 9.1439 5.7210 -16.6619 -8.9241
# 2 30.1875 69.6864 37.7099 23.2522 -22.2858 -5.2253
# 3 9.1439 37.7099 97.3971 28.5311 -30.4579 -2.0308
# 4 5.7210 23.2522 28.5311 30.8548 -7.6421 2.5416
# 5 -16.6619 -22.2858 -30.4579 -7.6421 32.1704 -1.4146
# 6 -8.9241 -5.2253 -2.0308 2.5416 -1.4146 20.3885
#
#
#
# Elastic Compliance Matrix: (Units=1/GPa)
#
#
# Indices 1 2 3 4 5 6 
#
# 1 0.008372 -0.002952 0.001765 -0.000235 0.004055 0.003394
# 2 -0.002952 0.025884 -0.001376 -0.015422 0.011785 0.007945
# 3 0.001765 -0.001376 0.019734 -0.014125 0.015518 0.005223
# 4 -0.000235 -0.015422 -0.014125 0.055346 -0.011609 -0.013167
# 5 0.004055 0.011785 0.015518 -0.011609 0.053790 0.011520
# 6 0.003394 0.007945 0.005223 -0.013167 0.011520 0.055530
#
#
# Mechanical properties :
#
#
# Convention : Reuss Voigt Hill
#
# Bulk Modulus (GPa) = 20.46519 51.24248 35.85384
# Shear Modulus (GPa) = 20.82742 32.01994 26.42368
#
# Velocity S-wave (km/s) = 3.06004 3.79419 3.44672
# Velocity P-wave (km/s) = 4.65684 6.49867 5.65327
#
# Compressibility (1/GPa) = 0.04886345
#
# Stress axis : x y z
#
# Youngs Moduli (GPa) = 119.45034 38.63451 50.67491
#
# Poissons Ratio (x) = 0.11404 -0.08942
# Poissons Ratio (y) = 0.35258 0.06971
# Poissons Ratio (z) = -0.21078 0.05314
#
# Static dielectric constant tensor:
#      x y z
#    x 1.890520 -0.021460 -0.001490 
#    y -0.021460 1.826520 -0.006730 
#    z -0.001490 -0.006730 1.842730 
# 
# From -- ./inp_files/89166.got.cif
#   From: 2010.05.17/outbox.cif.g08.bks.cpg/sg2_45_cif.got.tgz:89166.got - 2010.06.03 11:33:40.
