data_PCOD9111824
_publ_section_title
;
Structure prediction by ZEFSAII (Michael W. Deem and Ramdas Pophale) SiO2 
 PCOD9111824
Probable space group: P -1
;
_chemical_formula_sum "Si O2"
_cell_formula_units_Z 16
_cell_length_a 13.587620
_cell_length_b 9.322712
_cell_length_c 14.172494
_cell_angle_alpha 122.655337
_cell_angle_beta 32.154106
_cell_angle_gamma 108.895719
_cell_volume 768.178571
_symmetry_space_group_name_H-M "P -1"
_symmetry_group_IT_number 2
_symmetry_cell_setting 'triclinic'
loop_
_space_group_symop_operation_xyz
x,y,z
-x,-y,-z
loop_
_atom_site_type_symbol
_atom_site_label
_atom_site_fract_x
_atom_site_fract_y
_atom_site_fract_z
Si Si1 0.398617 0.548765 0.336397
Si Si2 0.418226 0.355453 0.065800
Si Si3 0.005523 0.976123 0.373740
Si Si4 0.394412 0.947432 0.479685
Si Si5 0.589467 0.967924 0.703565
Si Si6 0.042556 0.962317 0.063054
Si Si7 0.969384 0.725599 0.690375
Si Si8 0.327325 0.741085 0.891036
O O1 0.453220 0.395174 0.159046
O O2 0.436810 0.736578 0.351387
O O3 0.541433 0.461963 0.274819
O O4 0.164353 0.604067 0.538941
O O5 0.191729 0.371252 0.237493
O O6 0.500000 0.500000 0.000000
O O7 0.530888 0.159768 0.869240
O O8 0.819060 0.909257 0.487915
O O9 0.988699 0.163024 0.396146
O O10 0.000000 0.000000 0.500000
O O11 0.181747 0.831487 0.126971
O O12 0.469672 0.022201 0.353552
O O13 0.500000 0.000000 0.500000
O O14 0.165229 0.019219 0.713218
O O15 0.488473 0.844452 0.795065
O O16 0.112243 0.119706 0.110948
O O17 0.197768 0.785926 0.916351
O O18 0.000000 0.000000 0.000000
#
# Coordination Sequence:
#
# PCOD9111824 Si02
#       8
#     2   2   2   2   2   2   2   2
#     4  11  24  42  64 102 139 175 219 285 339 397
#     4  12  22  38  68  98 141 180 229 273 332 411
#     4  11  22  40  67  95 137 186 227 264 334 409
#     4  11  23  44  72  97 128 176 233 281 337 406
#     4  12  22  43  66 100 134 184 224 272 340 403
#     4  10  20  43  71  93 128 183 224 277 334 401
#     4  10  22  44  63 100 141 176 231 274 336 408
#     4  11  24  43  66 101 141 170 231 278 337 405
#
# _framework density 20.828489999999999
#
# number of rings (size 3 to 8) (size 9 to 14) (size 15 to 20)
#    0.000    1.000    7.500    1.875    1.750    1.000 
#    2.250    6.250    0.000    0.000    0.000    0.000 
#    0.000    0.000    0.000    0.000    0.000    0.000 
#
# Total GULP energy -89170.127824 kJ/mol
# GULP energy per Si atom -5573.132989 kJ/mol
# Density = 2.078108 g / cm^3
# Si number density = 20.828490 Si / 1000 Ang^3
#
#
#
# Elastic Constant Matrix: (Units=GPa)
#
#
# Indices 1 2 3 4 5 6 
#
# 1 126.1653 18.2167 28.1007 -6.9258 0.0137 -12.8480
# 2 18.2167 47.8910 30.0851 -19.6408 -16.8249 -7.7736
# 3 28.1007 30.0851 98.4340 -23.5965 -18.4426 -18.6693
# 4 -6.9258 -19.6408 -23.5965 29.9869 -0.8471 -9.6089
# 5 0.0137 -16.8249 -18.4426 -0.8471 47.6519 2.9606
# 6 -12.8480 -7.7736 -18.6693 -9.6089 2.9606 40.6330
#
#
#
# Elastic Compliance Matrix: (Units=1/GPa)
#
#
# Indices 1 2 3 4 5 6 
#
# 1 0.008879 -0.003172 -0.002065 -0.001364 -0.002013 0.001076
# 2 -0.003172 0.042657 0.001596 0.033614 0.015363 0.014721
# 3 -0.002065 0.001596 0.018586 0.019319 0.007341 0.012225
# 4 -0.001364 0.033614 0.019319 0.081268 0.018757 0.032727
# 5 -0.002013 0.015363 0.007341 0.018757 0.029089 0.007992
# 6 0.001076 0.014721 0.012225 0.032727 0.007992 0.040541
#
#
# Mechanical properties :
#
#
# Convention : Reuss Voigt Hill
#
# Bulk Modulus (GPa) = 15.91350 47.25505 31.58428
# Shear Modulus (GPa) = 20.06029 36.72686 28.39357
#
# Velocity S-wave (km/s) = 3.10678 4.20372 3.69617
# Velocity P-wave (km/s) = 4.53060 6.80431 5.78035
#
# Compressibility (1/GPa) = 0.06283971
#
# Stress axis : x y z
#
# Youngs Moduli (GPa) = 112.62512 23.44290 53.80364
#
# Poissons Ratio (x) = 0.07436 0.11113
# Poissons Ratio (y) = 0.35725 -0.08589
# Poissons Ratio (z) = 0.23263 -0.03742
#
# Static dielectric constant tensor:
#      x y z
#    x 1.878680 -0.038510 -0.035730 
#    y -0.038510 1.791330 -0.002670 
#    z -0.035730 -0.002670 1.804510 
# 
# From -- ./inp_files/528897.got.cif
#   From: 2010.05.17/outbox.cif.g08.bks.cpg/sg2_265_cif.got.tgz:528897.got - 2010.06.03 11:33:40.
