data_PCOD9111346
_publ_section_title
;
Structure prediction by ZEFSAII (Michael W. Deem and Ramdas Pophale) SiO2 
 PCOD9111346
Probable space group: P -1
;
_chemical_formula_sum "Si O2"
_cell_formula_units_Z 16
_cell_length_a 8.987453
_cell_length_b 12.523107
_cell_length_c 9.285886
_cell_angle_alpha 52.305050
_cell_angle_beta 61.735925
_cell_angle_gamma 87.523308
_cell_volume 681.376700
_symmetry_space_group_name_H-M "P -1"
_symmetry_group_IT_number 2
_symmetry_cell_setting 'triclinic'
loop_
_space_group_symop_operation_xyz
x,y,z
-x,-y,-z
loop_
_atom_site_type_symbol
_atom_site_label
_atom_site_fract_x
_atom_site_fract_y
_atom_site_fract_z
Si Si1 0.269879 0.282752 0.791777
Si Si2 0.156154 0.507783 0.038256
Si Si3 0.145634 0.748670 0.528007
Si Si4 0.127623 0.766511 0.027686
Si Si5 0.208325 0.604505 0.350481
Si Si6 0.684298 0.051786 0.456509
Si Si7 0.491437 0.541041 0.674450
Si Si8 0.180610 0.047943 0.276730
O O1 0.352551 0.432149 0.716700
O O2 0.409350 0.305914 0.576826
O O3 0.080535 0.264425 0.821246
O O4 0.233247 0.168715 0.032358
O O5 0.065468 0.345754 0.274867
O O6 0.149219 0.630959 0.046133
O O7 0.358621 0.542388 0.863031
O O8 0.000000 0.500000 0.000000
O O9 0.219523 0.652227 0.472774
O O10 0.249981 0.807554 0.582769
O O11 0.165106 0.900790 0.324200
O O12 0.180452 0.898545 0.781985
O O13 0.235553 0.754506 0.129923
O O14 0.354004 0.529558 0.308593
O O15 0.000000 0.500000 0.500000
O O16 0.678674 0.928361 0.675635
O O17 0.500000 0.000000 0.500000
O O18 0.000000 0.000000 0.500000
#
# Coordination Sequence:
#
# PCOD9111346 Si02
#       8
#     2   2   2   2   2   2   2   2
#     4  11  21  41  66 106 141 193 234 303 370 428
#     4  12  20  42  73 105 134 188 246 303 362 425
#     4  10  23  44  75  98 148 191 238 294 373 426
#     4  12  23  43  74  98 150 186 242 305 365 423
#     4  12  25  45  68 109 150 186 231 310 362 431
#     4  10  23  42  69 104 136 189 244 289 353 432
#     4  11  25  38  70 106 146 190 247 298 367 426
#     4  10  20  42  73  98 141 192 243 291 358 434
#
# _framework density 23.481871999999999
#
# number of rings (size 3 to 8) (size 9 to 14) (size 15 to 20)
#    0.750    0.250    6.250    0.750    3.500    0.500 
#    0.000    4.375    2.750    0.000    0.000    0.000 
#    0.000    0.000    0.000    0.000    0.000    0.000 
#
# Total GULP energy -89099.401544 kJ/mol
# GULP energy per Si atom -5568.712597 kJ/mol
# Density = 2.342843 g / cm^3
# Si number density = 23.481872 Si / 1000 Ang^3
#
#
#
# Elastic Constant Matrix: (Units=GPa)
#
#
# Indices 1 2 3 4 5 6 
#
# 1 114.8908 16.8740 64.3798 6.8080 -3.9928 -14.8084
# 2 16.8740 46.7790 25.8727 9.0592 -11.4110 -7.7647
# 3 64.3798 25.8727 187.3055 -12.2820 5.4758 -22.2822
# 4 6.8080 9.0592 -12.2820 32.1499 -7.6677 2.0677
# 5 -3.9928 -11.4110 5.4758 -7.6677 46.5430 -0.8637
# 6 -14.8084 -7.7647 -22.2822 2.0677 -0.8637 27.0414
#
#
#
# Elastic Compliance Matrix: (Units=1/GPa)
#
#
# Indices 1 2 3 4 5 6 
#
# 1 0.011587 -0.000635 -0.003761 -0.003756 0.000725 0.003374
# 2 -0.000635 0.027479 -0.003634 -0.007933 0.005902 0.005343
# 3 -0.003761 -0.003634 0.007807 0.004286 -0.001371 0.002958
# 4 -0.003756 -0.007933 0.004286 0.036766 0.003221 -0.003512
# 5 0.000725 0.005902 -0.001371 0.003221 0.023714 0.001473
# 6 0.003374 0.005343 0.002958 -0.003512 0.001473 0.043115
#
#
# Mechanical properties :
#
#
# Convention : Reuss Voigt Hill
#
# Bulk Modulus (GPa) = 32.45547 62.58092 47.51820
# Shear Modulus (GPa) = 28.28038 37.27013 32.77525
#
# Velocity S-wave (km/s) = 3.47414 3.98827 3.74005
# Velocity P-wave (km/s) = 5.47214 6.92221 6.23945
#
# Compressibility (1/GPa) = 0.03081145
#
# Stress axis : x y z
#
# Youngs Moduli (GPa) = 86.30056 36.39092 128.09629
#
# Poissons Ratio (x) = 0.02312 0.48178
# Poissons Ratio (y) = 0.05484 0.46557
# Poissons Ratio (z) = 0.32458 0.13226
#
# Static dielectric constant tensor:
#      x y z
#    x 1.983740 -0.047320 0.045280 
#    y -0.047320 1.888640 0.003390 
#    z 0.045280 0.003390 2.146830 
# 
# From -- ./inp_files/199440.got.cif
#   From: 2010.05.17/outbox.cif.g08.bks.cpg/sg2_100_cif.got.tgz:199440.got - 2010.06.03 11:33:40.
