data_PCOD9111450
_publ_section_title
;
Structure prediction by ZEFSAII (Michael W. Deem and Ramdas Pophale) SiO2 
 PCOD9111450
Probable space group: P -1
;
_chemical_formula_sum "Si O2"
_cell_formula_units_Z 16
_cell_length_a 11.440808
_cell_length_b 14.666958
_cell_length_c 15.288346
_cell_angle_alpha 151.581486
_cell_angle_beta 138.942473
_cell_angle_gamma 41.111518
_cell_volume 767.759121
_symmetry_space_group_name_H-M "P -1"
_symmetry_group_IT_number 2
_symmetry_cell_setting 'triclinic'
loop_
_space_group_symop_operation_xyz
x,y,z
-x,-y,-z
loop_
_atom_site_type_symbol
_atom_site_label
_atom_site_fract_x
_atom_site_fract_y
_atom_site_fract_z
Si Si1 0.236511 0.114813 0.135518
Si Si2 0.980918 0.509779 0.392397
Si Si3 0.807276 0.136989 0.542698
Si Si4 0.613529 0.487446 0.836324
Si Si5 0.441392 0.109239 0.742728
Si Si6 0.446730 0.333366 0.770070
Si Si7 0.463899 0.735940 0.667546
Si Si8 0.723485 0.263608 0.263623
O O1 0.059531 0.286113 0.211465
O O2 0.353131 0.203953 0.205855
O O3 0.379208 0.030975 0.224796
O O4 0.190854 0.923809 0.908489
O O5 0.120089 0.630036 0.536652
O O6 0.000000 0.500000 0.500000
O O7 0.770888 0.603943 0.323217
O O8 0.785491 0.344165 0.758211
O O9 0.675879 0.194139 0.432244
O O10 0.720598 0.994897 0.432001
O O11 0.000000 0.000000 0.500000
O O12 0.552491 0.342260 0.747517
O O13 0.444286 0.579385 0.750696
O O14 0.626679 0.681391 0.062883
O O15 0.490744 0.147885 0.704224
O O16 0.500000 0.500000 0.000000
O O17 0.500000 0.500000 0.500000
O O18 0.365681 0.815896 0.770809
#
# Coordination Sequence:
#
# PCOD9111450 Si02
#       8
#     2   2   2   2   2   2   2   2
#     4  10  23  42  66  97 129 166 219 264 318 385
#     4  12  24  41  67  99 130 166 220 272 312 378
#     4  11  24  39  59  93 124 159 213 260 312 382
#     4  10  20  43  64  85 126 167 204 261 322 369
#     4   9  22  42  64  88 125 170 204 254 322 381
#     4  10  23  45  66  91 130 173 209 259 332 380
#     4  11  20  40  68  88 128 170 208 264 327 378
#     4  11  21  41  67  96 125 169 214 268 319 373
#
# _framework density 20.839870000000001
#
# number of rings (size 3 to 8) (size 9 to 14) (size 15 to 20)
#    0.000    1.500    3.750    1.125    1.750    1.500 
#    4.500    0.000    0.000    0.000    0.000    0.000 
#    0.000    0.000    0.000    0.000    0.000    0.000 
#
# Total GULP energy -89355.009322 kJ/mol
# GULP energy per Si atom -5584.688083 kJ/mol
# Density = 2.079244 g / cm^3
# Si number density = 20.839870 Si / 1000 Ang^3
#
#
#
# Elastic Constant Matrix: (Units=GPa)
#
#
# Indices 1 2 3 4 5 6 
#
# 1 74.6790 23.8106 7.8399 1.7097 -17.2351 20.1432
# 2 23.8106 46.8756 20.6798 9.2864 -1.0802 8.6638
# 3 7.8399 20.6798 62.9312 6.9521 -8.9769 -10.5851
# 4 1.7097 9.2864 6.9521 23.1465 0.8722 -5.1302
# 5 -17.2351 -1.0802 -8.9769 0.8722 30.3416 8.4989
# 6 20.1432 8.6638 -10.5851 -5.1302 8.4989 42.3481
#
#
#
# Elastic Compliance Matrix: (Units=1/GPa)
#
#
# Indices 1 2 3 4 5 6 
#
# 1 0.023664 -0.009126 0.000490 -0.001724 0.016917 -0.012871
# 2 -0.009126 0.033506 -0.010344 -0.010647 -0.005251 -0.005335
# 3 0.000490 -0.010344 0.021002 -0.001005 0.004438 0.006120
# 4 -0.001724 -0.010647 -0.001005 0.050350 -0.005913 0.010033
# 5 0.016917 -0.005251 0.004438 -0.005913 0.048429 -0.016299
# 6 -0.012871 -0.005335 0.006120 0.010033 -0.016299 0.036844
#
#
# Mechanical properties :
#
#
# Convention : Reuss Voigt Hill
#
# Bulk Modulus (GPa) = 24.86844 32.12738 28.49791
# Shear Modulus (GPa) = 18.85650 27.97762 23.41706
#
# Velocity S-wave (km/s) = 3.01130 3.66800 3.35575
# Velocity P-wave (km/s) = 4.90404 5.77830 5.35902
#
# Compressibility (1/GPa) = 0.04021161
#
# Stress axis : x y z
#
# Youngs Moduli (GPa) = 42.25769 29.84502 47.61447
#
# Poissons Ratio (x) = 0.27238 -0.02331
# Poissons Ratio (y) = 0.38566 0.49252
# Poissons Ratio (z) = -0.02069 0.30871
#
# Static dielectric constant tensor:
#      x y z
#    x 1.792690 0.014580 -0.035130 
#    y 0.014580 1.700830 0.027810 
#    z -0.035130 0.027810 1.776270 
# 
# From -- ./inp_files/521410.got.cif
#   From: 2010.05.17/outbox.cif.g08.bks.cpg/sg2_261_cif.got.tgz:521410.got - 2010.06.03 11:33:40.
