data_PCOD9111815
_publ_section_title
;
Structure prediction by ZEFSAII (Michael W. Deem and Ramdas Pophale) SiO2 
 PCOD9111815
Probable space group: P -1
;
_chemical_formula_sum "Si O2"
_cell_formula_units_Z 14
_cell_length_a 26.440731
_cell_length_b 5.134412
_cell_length_c 5.144015
_cell_angle_alpha 88.976967
_cell_angle_beta 79.421783
_cell_angle_gamma 128.793430
_cell_volume 526.935251
_symmetry_space_group_name_H-M "P -1"
_symmetry_group_IT_number 2
_symmetry_cell_setting 'triclinic'
loop_
_space_group_symop_operation_xyz
x,y,z
-x,-y,-z
loop_
_atom_site_type_symbol
_atom_site_label
_atom_site_fract_x
_atom_site_fract_y
_atom_site_fract_z
Si Si1 0.192449 0.616501 0.586359
Si Si2 0.298890 0.783441 0.112626
Si Si3 0.919962 0.557196 0.691898
Si Si4 0.429587 0.403794 0.117548
Si Si5 0.366534 0.390895 0.683614
Si Si6 0.037743 0.801481 0.174051
Si Si7 0.233906 0.234068 0.827331
O O1 0.131186 0.476265 0.455810
O O2 0.196892 0.345310 0.709527
O O3 0.196147 0.847280 0.800676
O O4 0.257694 0.841758 0.334586
O O5 0.250631 0.388348 0.098948
O O6 0.317861 0.991769 0.821889
O O7 0.372065 0.993333 0.159190
O O8 0.903550 0.208602 0.799150
O O9 0.986531 0.705244 0.456865
O O10 0.934129 0.815054 0.902997
O O11 0.417004 0.492327 0.404604
O O12 0.500000 0.500000 0.000000
O O13 0.409527 0.543456 0.906295
O O14 0.312080 0.432879 0.666610
O O15 0.000000 0.500000 0.000000
#
# Coordination Sequence:
#
# PCOD9111815 Si02
#       7
#     2   2   2   2   2   2   2
#     4  12  25  41  70  95 145 170 239 277 350 412
#     4  10  24  40  68  94 139 177 229 283 349 416
#     4  10  23  40  63 101 124 181 220 279 328 415
#     4  10  20  43  71 102 136 183 234 292 349 421
#     4  10  22  43  67  99 138 180 231 285 354 413
#     4  10  21  42  66  90 139 169 225 274 344 386
#     4  12  23  44  63 100 133 185 214 290 344 410
#
# _framework density 26.568729000000001
#
# number of rings (size 3 to 8) (size 9 to 14) (size 15 to 20)
#    0.857    0.571    2.857    1.714    4.000    2.286 
#    0.000    1.429    0.000    0.000    0.000    0.000 
#    0.000    0.000    0.000    0.000    0.000    0.000 
#
# Total GULP energy -78213.282997 kJ/mol
# GULP energy per Si atom -5586.663071 kJ/mol
# Density = 2.650826 g / cm^3
# Si number density = 26.568729 Si / 1000 Ang^3
#
#
#
# Elastic Constant Matrix: (Units=GPa)
#
#
# Indices 1 2 3 4 5 6 
#
# 1 168.0446 66.0461 29.8607 -2.6013 -19.9946 -12.0523
# 2 66.0461 94.0736 31.4570 11.2291 -10.1777 -22.8611
# 3 29.8607 31.4570 135.4893 8.7848 -19.3373 -10.8111
# 4 -2.6013 11.2291 8.7848 39.5239 -3.6607 -7.3587
# 5 -19.9946 -10.1777 -19.3373 -3.6607 41.0765 2.6109
# 6 -12.0523 -22.8611 -10.8111 -7.3587 2.6109 48.6611
#
#
#
# Elastic Compliance Matrix: (Units=1/GPa)
#
#
# Indices 1 2 3 4 5 6 
#
# 1 0.008780 -0.006199 -0.000299 0.002564 0.002862 -0.000570
# 2 -0.006199 0.017461 -0.002035 -0.003898 -0.000355 0.005645
# 3 -0.000299 -0.002035 0.008483 -0.000927 0.003227 0.000541
# 4 0.002564 -0.003898 -0.000927 0.027472 0.002126 0.002638
# 5 0.002862 -0.000355 0.003227 0.002126 0.027351 0.000113
# 6 -0.000570 0.005645 0.000541 0.002638 0.000113 0.023574
#
#
# Mechanical properties :
#
#
# Convention : Reuss Voigt Hill
#
# Bulk Modulus (GPa) = 56.63384 72.48168 64.55776
# Shear Modulus (GPa) = 36.74489 43.86854 40.30672
#
# Velocity S-wave (km/s) = 3.72292 4.06782 3.89919
# Velocity P-wave (km/s) = 6.31209 7.02872 6.68002
#
# Compressibility (1/GPa) = 0.01765729
#
# Stress axis : x y z
#
# Youngs Moduli (GPa) = 113.90080 57.26922 117.88398
#
# Poissons Ratio (x) = 0.35500 0.03525
# Poissons Ratio (y) = 0.70605 0.23994
# Poissons Ratio (z) = 0.03406 0.11657
#
# Static dielectric constant tensor:
#      x y z
#    x 2.048910 -0.003030 0.047010 
#    y -0.003030 2.233350 -0.039380 
#    z 0.047010 -0.039380 2.102550 
# 
# From -- ./inp_files/121244.got.cif
#   From: 2010.05.17/outbox.cif.g08.bks.cpg/sg2_61_cif.got.tgz:121244.got - 2010.06.03 11:33:40.
