data_PCOD9111439
_publ_section_title
;
Structure prediction by ZEFSAII (Michael W. Deem and Ramdas Pophale) SiO2 
 PCOD9111439
Probable space group: P -1
;
_chemical_formula_sum "Si O2"
_cell_formula_units_Z 16
_cell_length_a 20.658507
_cell_length_b 22.090462
_cell_length_c 9.373076
_cell_angle_alpha 140.739044
_cell_angle_beta 35.416686
_cell_angle_gamma 161.639991
_cell_volume 780.802564
_symmetry_space_group_name_H-M "P -1"
_symmetry_group_IT_number 2
_symmetry_cell_setting 'triclinic'
loop_
_space_group_symop_operation_xyz
x,y,z
-x,-y,-z
loop_
_atom_site_type_symbol
_atom_site_label
_atom_site_fract_x
_atom_site_fract_y
_atom_site_fract_z
Si Si1 0.737152 0.359772 0.565784
Si Si2 0.250483 0.710395 0.272124
Si Si3 0.666990 0.803612 0.021378
Si Si4 0.453928 0.693171 0.721890
Si Si5 0.882934 0.016270 0.747106
Si Si6 0.805691 0.694618 0.517750
Si Si7 0.786583 0.992292 0.422696
Si Si8 0.459975 0.018211 0.257554
O O1 0.684403 0.270348 0.649276
O O2 0.583049 0.339084 0.791334
O O3 0.002396 0.570039 0.467187
O O4 0.662482 0.233557 0.343351
O O5 0.411473 0.903563 0.255316
O O6 0.265206 0.624915 0.994917
O O7 0.679628 0.703106 0.766393
O O8 0.774457 0.899906 0.158908
O O9 0.811972 0.975217 0.962758
O O10 0.653492 0.842364 0.752126
O O11 0.355708 0.514734 0.554784
O O12 0.573524 0.819080 0.593916
O O13 0.000000 0.000000 0.500000
O O14 0.057045 0.212986 0.709675
O O15 0.994189 0.840474 0.568598
O O16 0.745833 0.061187 0.538934
O O17 0.500000 0.000000 0.000000
#
# Coordination Sequence:
#
# PCOD9111439 Si02
#       8
#     2   2   2   2   2   2   2   2
#     4  10  24  42  63  93 124 163 204 259 308 359
#     4  11  23  43  63  91 128 161 208 256 305 369
#     4  10  20  43  63  91 130 156 208 260 298 375
#     4  11  22  40  63  91 128 161 205 254 302 375
#     4   9  20  40  62  88 121 159 207 251 302 359
#     4  10  23  40  67  91 123 169 202 248 320 361
#     4  10  23  41  61  93 122 164 207 253 312 361
#     4  11  23  41  66  88 124 166 205 254 308 363
#
# _framework density 20.491734999999998
#
# number of rings (size 3 to 8) (size 9 to 14) (size 15 to 20)
#    0.000    1.750    2.500    0.750    1.750    5.000 
#    9.000    6.250    0.000    0.000    0.000    0.000 
#    0.000    0.000    0.000    0.000    0.000    0.000 
#
# Total GULP energy -89329.133023 kJ/mol
# GULP energy per Si atom -5583.070814 kJ/mol
# Density = 2.044509 g / cm^3
# Si number density = 20.491735 Si / 1000 Ang^3
#
#
#
# Elastic Constant Matrix: (Units=GPa)
#
#
# Indices 1 2 3 4 5 6 
#
# 1 57.9089 13.0709 12.8433 -2.5649 3.0275 2.1408
# 2 13.0709 50.0963 18.9328 5.9938 -5.5310 -9.9613
# 3 12.8433 18.9328 90.6404 6.0858 5.3618 6.4340
# 4 -2.5649 5.9938 6.0858 19.8316 -0.6394 -7.0993
# 5 3.0275 -5.5310 5.3618 -0.6394 43.3670 -0.0027
# 6 2.1408 -9.9613 6.4340 -7.0993 -0.0027 19.0594
#
#
#
# Elastic Compliance Matrix: (Units=1/GPa)
#
#
# Indices 1 2 3 4 5 6 
#
# 1 0.019260 -0.005800 -0.001387 0.003366 -0.001863 -0.003473
# 2 -0.005800 0.027945 -0.006445 -0.000951 0.004753 0.017079
# 3 -0.001387 -0.006445 0.013868 -0.006225 -0.002532 -0.010213
# 4 0.003366 -0.000951 -0.006225 0.061777 0.001326 0.024237
# 5 -0.001863 0.004753 -0.002532 0.001326 0.024128 0.004045
# 6 -0.003473 0.017079 -0.010213 0.024237 0.004045 0.074260
#
#
# Mechanical properties :
#
#
# Convention : Reuss Voigt Hill
#
# Bulk Modulus (GPa) = 29.57741 32.03772 30.80757
# Shear Modulus (GPa) = 19.24762 26.70484 22.97623
#
# Velocity S-wave (km/s) = 3.06810 3.61390 3.35213
# Velocity P-wave (km/s) = 5.19771 5.75171 5.48171
#
# Compressibility (1/GPa) = 0.03380959
#
# Stress axis : x y z
#
# Youngs Moduli (GPa) = 51.92052 35.78416 72.10826
#
# Poissons Ratio (x) = 0.20756 0.10000
# Poissons Ratio (y) = 0.30116 0.46473
# Poissons Ratio (z) = 0.07200 0.23063
#
# Static dielectric constant tensor:
#      x y z
#    x 1.749540 -0.013310 0.004640 
#    y -0.013310 1.699060 -0.004240 
#    z 0.004640 -0.004240 1.750350 
# 
# From -- ./inp_files/349535.got.cif
#   From: 2010.05.17/outbox.cif.g08.bks.cpg/sg2_175_cif.got.tgz:349535.got - 2010.06.03 11:33:40.
