data_PCOD9111016
_publ_section_title
;
Structure prediction by ZEFSAII (Michael W. Deem and Ramdas Pophale) SiO2 
 PCOD9111016
Probable space group: P -1
;
_chemical_formula_sum "Si O2"
_cell_formula_units_Z 14
_cell_length_a 14.854497
_cell_length_b 17.069420
_cell_length_c 11.409090
_cell_angle_alpha 21.103767
_cell_angle_beta 45.296257
_cell_angle_gamma 41.275878
_cell_volume 687.094905
_symmetry_space_group_name_H-M "P -1"
_symmetry_group_IT_number 2
_symmetry_cell_setting 'triclinic'
loop_
_space_group_symop_operation_xyz
x,y,z
-x,-y,-z
loop_
_atom_site_type_symbol
_atom_site_label
_atom_site_fract_x
_atom_site_fract_y
_atom_site_fract_z
Si Si1 0.405963 0.759657 0.440256
Si Si2 0.359578 0.276254 0.859196
Si Si3 0.852110 0.571035 0.593458
Si Si4 0.137675 0.051944 0.777351
Si Si5 0.865704 0.719287 0.781362
Si Si6 0.868910 0.149164 0.337194
Si Si7 0.680999 0.469855 0.688311
O O1 0.488096 0.719195 0.298422
O O2 0.259069 0.750156 0.597962
O O3 0.517106 0.580165 0.676069
O O4 0.382157 0.018577 0.148830
O O5 0.277661 0.451427 0.585474
O O6 0.270587 0.320976 0.994776
O O7 0.821204 0.824273 0.324335
O O8 0.742477 0.569114 0.599460
O O9 0.000000 0.500000 0.500000
O O10 0.869249 0.368972 0.955343
O O11 0.120645 0.227703 0.440041
O O12 0.254994 0.807628 0.977583
O O13 0.000000 0.000000 0.000000
O O14 0.855410 0.956140 0.528767
O O15 0.000000 0.500000 0.000000
O O16 0.000000 0.000000 0.500000
#
# Coordination Sequence:
#
# PCOD9111016 Si02
#       7
#     2   2   2   2   2   2   2
#     4   8  19  39  68  93 125 177 218 260 339 383
#     4   8  18  38  68  90 122 179 212 257 331 386
#     4  12  25  39  65  99 129 172 220 268 328 384
#     4  12  23  41  62  98 135 171 219 269 330 379
#     4  11  21  37  64  95 131 171 217 268 323 383
#     4  11  23  40  66  96 131 171 224 270 323 401
#     4  10  20  42  68  91 133 169 214 271 323 389
#
# _framework density 20.375641999999999
#
# number of rings (size 3 to 8) (size 9 to 14) (size 15 to 20)
#    0.857    0.857    2.857    1.714    4.000    0.571 
#    0.000    0.714    6.286    5.143    0.000    0.000 
#    0.000    0.000    0.000    0.000    0.000    0.000 
#
# Total GULP energy -78033.232233 kJ/mol
# GULP energy per Si atom -5573.802302 kJ/mol
# Density = 2.032927 g / cm^3
# Si number density = 20.375642 Si / 1000 Ang^3
#
#
#
# Elastic Constant Matrix: (Units=GPa)
#
#
# Indices 1 2 3 4 5 6 
#
# 1 59.0056 21.2297 20.5213 5.2121 -3.0985 -5.5386
# 2 21.2297 90.1578 44.3324 30.5990 -10.4472 -13.7643
# 3 20.5213 44.3324 94.6390 10.4299 8.9333 -9.7875
# 4 5.2121 30.5990 10.4299 52.2155 5.0491 -10.5148
# 5 -3.0985 -10.4472 8.9333 5.0491 31.5699 -10.0576
# 6 -5.5386 -13.7643 -9.7875 -10.5148 -10.0576 39.0194
#
#
#
# Elastic Compliance Matrix: (Units=1/GPa)
#
#
# Indices 1 2 3 4 5 6 
#
# 1 0.019196 -0.002604 -0.003023 0.000336 0.002382 0.001752
# 2 -0.002604 0.022628 -0.009482 -0.011270 0.013529 0.005684
# 3 -0.003023 -0.009482 0.016019 0.003283 -0.008861 -0.001155
# 4 0.000336 -0.011270 0.003283 0.026234 -0.008234 0.001843
# 5 0.002382 0.013529 -0.008861 -0.008234 0.044040 0.012021
# 6 0.001752 0.005684 -0.001155 0.001843 0.012021 0.031188
#
#
# Mechanical properties :
#
#
# Convention : Reuss Voigt Hill
#
# Bulk Modulus (GPa) = 36.20101 46.21880 41.20990
# Shear Modulus (GPa) = 25.15961 35.07555 30.11758
#
# Velocity S-wave (km/s) = 3.51777 4.15353 3.84880
# Velocity P-wave (km/s) = 5.85704 6.76277 6.32614
#
# Compressibility (1/GPa) = 0.02762354
#
# Stress axis : x y z
#
# Youngs Moduli (GPa) = 52.09482 44.19326 62.42594
#
# Poissons Ratio (x) = 0.11508 0.18873
# Poissons Ratio (y) = 0.13566 0.59194
# Poissons Ratio (z) = 0.15749 0.41905
#
# Static dielectric constant tensor:
#      x y z
#    x 1.336240 -0.151450 -0.159810 
#    y -0.151450 1.673080 -0.027110 
#    z -0.159810 -0.027110 1.696000 
# 
# From -- ./inp_files/456586.got.cif
#   From: 2010.05.17/outbox.cif.g08.bks.cpg/sg2_229_cif.got.tgz:456586.got - 2010.06.03 11:33:40.
