data_PCOD9111665
_publ_section_title
;
Structure prediction by ZEFSAII (Michael W. Deem and Ramdas Pophale) SiO2 
 PCOD9111665
Probable space group: P -1
;
_chemical_formula_sum "Si O2"
_cell_formula_units_Z 16
_cell_length_a 7.059424
_cell_length_b 11.982931
_cell_length_c 11.537033
_cell_angle_alpha 94.178157
_cell_angle_beta 48.543174
_cell_angle_gamma 114.792876
_cell_volume 633.226282
_symmetry_space_group_name_H-M "P -1"
_symmetry_group_IT_number 2
_symmetry_cell_setting 'triclinic'
loop_
_space_group_symop_operation_xyz
x,y,z
-x,-y,-z
loop_
_atom_site_type_symbol
_atom_site_label
_atom_site_fract_x
_atom_site_fract_y
_atom_site_fract_z
Si Si1 0.805848 0.586827 0.036857
Si Si2 0.317306 0.047524 0.498467
Si Si3 0.587278 0.355385 0.975687
Si Si4 0.409548 0.482618 0.403359
Si Si5 0.620533 0.868917 0.093642
Si Si6 0.561300 0.251654 0.584326
Si Si7 0.888759 0.761022 0.639112
Si Si8 0.217988 0.871639 0.879587
O O1 0.570371 0.608434 0.060376
O O2 0.076500 0.724908 0.963869
O O3 0.843205 0.488264 0.931535
O O4 0.659574 0.522821 0.210521
O O5 0.313200 0.160237 0.584951
O O6 0.524535 0.104135 0.308649
O O7 0.500000 0.000000 0.500000
O O8 0.024544 0.913951 0.577456
O O9 0.364506 0.292890 0.168017
O O10 0.621277 0.242395 0.896195
O O11 0.500000 0.500000 0.500000
O O12 0.342543 0.599951 0.422785
O O13 0.197994 0.333393 0.444036
O O14 0.537997 0.823220 0.257768
O O15 0.656010 0.008629 0.075374
O O16 0.937452 0.879889 0.941330
O O17 0.849142 0.256289 0.417856
#
# Coordination Sequence:
#
# PCOD9111665 Si02
#       8
#     2   2   2   2   2   2   2   2
#     4   9  17  31  50  74 101 140 179 216 268 308
#     4  10  18  31  50  83 118 139 164 223 296 321
#     4   9  17  29  49  78 111 134 172 225 272 319
#     4  11  23  39  55  77 111 154 190 221 261 328
#     4  10  17  26  48  84 112 133 172 218 279 324
#     4  11  19  34  54  88 112 136 184 229 277 319
#     4  10  21  35  56  86 115 138 174 233 287 317
#     4  10  17  28  47  76 114 138 164 216 275 333
#
# _framework density 25.267429
#
# number of rings (size 3 to 8) (size 9 to 14) (size 15 to 20)
#    0.000    2.000    5.000    3.375    1.750    0.000 
#    2.250    0.625    0.000    3.750    0.000    0.000 
#    0.000    0.000    0.000    0.000    0.000    0.000 
#
# Total GULP energy -89350.881770 kJ/mol
# GULP energy per Si atom -5584.430111 kJ/mol
# Density = 2.520992 g / cm^3
# Si number density = 25.267429 Si / 1000 Ang^3
#
#
#
# Elastic Constant Matrix: (Units=GPa)
#
#
# Indices 1 2 3 4 5 6 
#
# 1 39.6532 30.3890 25.1764 1.0204 1.2978 2.6142
# 2 30.3890 273.1968 40.1133 10.1999 19.5653 35.5114
# 3 25.1764 40.1133 81.3291 -6.4389 12.7265 11.2729
# 4 1.0204 10.1999 -6.4389 38.1770 -2.7593 7.3085
# 5 1.2978 19.5653 12.7265 -2.7593 15.2685 8.3333
# 6 2.6142 35.5114 11.2729 7.3085 8.3333 19.5644
#
#
#
# Elastic Compliance Matrix: (Units=1/GPa)
#
#
# Indices 1 2 3 4 5 6 
#
# 1 0.034252 -0.003353 -0.011045 -0.002500 0.006948 0.005847
# 2 -0.003353 0.005253 -0.000110 0.000127 -0.001799 -0.008305
# 3 -0.011045 -0.000110 0.018534 0.003852 -0.010388 -0.006017
# 4 -0.002500 0.000127 0.003852 0.031570 0.013206 -0.019535
# 5 0.006948 -0.001799 -0.010388 0.013206 0.099546 -0.039012
# 6 0.005847 -0.008305 -0.006017 -0.019535 -0.039012 0.092786
#
#
# Mechanical properties :
#
#
# Convention : Reuss Voigt Hill
#
# Bulk Modulus (GPa) = 34.45589 65.05960 49.75774
# Shear Modulus (GPa) = 15.59420 34.50200 25.04810
#
# Velocity S-wave (km/s) = 2.48698 3.69924 3.15194
# Velocity P-wave (km/s) = 4.68111 6.63703 5.74295
#
# Compressibility (1/GPa) = 0.02902262
#
# Stress axis : x y z
#
# Youngs Moduli (GPa) = 29.19532 190.36605 53.95539
#
# Poissons Ratio (x) = 0.63821 0.59595
# Poissons Ratio (y) = 0.09788 0.00596
# Poissons Ratio (z) = 0.32247 0.02103
#
# Static dielectric constant tensor:
#      x y z
#    x 2.184450 0.046220 0.065580 
#    y 0.046220 2.173520 0.004790 
#    z 0.065580 0.004790 1.966210 
# 
# From -- ./inp_files/399175.got.cif
#   From: 2010.05.17/outbox.cif.g08.bks.cpg/sg2_200_cif.got.tgz:399175.got - 2010.06.03 11:33:40.
