data_PCOD9111044
_publ_section_title
;
Structure prediction by ZEFSAII (Michael W. Deem and Ramdas Pophale) SiO2 
 PCOD9111044
Probable space group: P -1
;
_chemical_formula_sum "Si O2"
_cell_formula_units_Z 16
_cell_length_a 7.803311
_cell_length_b 22.904069
_cell_length_c 20.188530
_cell_angle_alpha 156.249434
_cell_angle_beta 28.841041
_cell_angle_gamma 136.319354
_cell_volume 641.127941
_symmetry_space_group_name_H-M "P -1"
_symmetry_group_IT_number 2
_symmetry_cell_setting 'triclinic'
loop_
_space_group_symop_operation_xyz
x,y,z
-x,-y,-z
loop_
_atom_site_type_symbol
_atom_site_label
_atom_site_fract_x
_atom_site_fract_y
_atom_site_fract_z
Si Si1 0.448798 0.981542 0.311902
Si Si2 0.997540 0.327149 0.824600
Si Si3 0.915350 0.772923 0.811501
Si Si4 0.626965 0.586374 0.988165
Si Si5 0.475672 0.084254 0.026245
Si Si6 0.555579 0.553517 0.749480
Si Si7 0.179154 0.120408 0.779737
Si Si8 0.173235 0.435748 0.536388
O O1 0.687456 0.896858 0.207283
O O2 0.710920 0.878592 0.055005
O O3 0.000000 0.000000 0.500000
O O4 0.380926 0.166276 0.522392
O O5 0.728765 0.325874 0.851595
O O6 0.829909 0.340360 0.969674
O O7 0.000000 0.500000 0.000000
O O8 0.655095 0.667725 0.785480
O O9 0.339907 0.620566 0.500389
O O10 0.851908 0.888609 0.890347
O O11 0.836394 0.706582 0.056529
O O12 0.500000 0.500000 0.000000
O O13 0.939434 0.449854 0.697023
O O14 0.857631 0.045288 0.812612
O O15 0.392717 0.257469 0.258746
O O16 0.500000 0.000000 0.000000
O O17 0.858636 0.519894 0.673625
O O18 0.500000 0.000000 0.500000
O O19 0.500000 0.500000 0.500000
#
# Coordination Sequence:
#
# PCOD9111044 Si02
#       8
#     2   2   2   2   2   2   2   2
#     4  12  22  43  72  97 137 182 238 282 338 417
#     4  11  25  43  66  98 140 181 224 288 345 400
#     4  10  21  41  71  96 132 177 225 282 336 403
#     4  11  25  43  68 104 137 175 232 284 338 417
#     4  11  26  43  68 101 142 179 224 284 346 410
#     4   9  20  40  69  95 131 175 229 276 337 410
#     4  12  27  44  72 102 139 185 228 283 354 408
#     4  10  20  42  68  94 134 181 224 276 343 403
#
# _framework density 24.956016999999999
#
# number of rings (size 3 to 8) (size 9 to 14) (size 15 to 20)
#    0.000    1.250    3.750    1.500    3.500    2.000 
#    2.250    2.500    0.000    0.000    0.000    0.000 
#    0.000    0.000    0.000    0.000    0.000    0.000 
#
# Total GULP energy -89203.052027 kJ/mol
# GULP energy per Si atom -5575.190752 kJ/mol
# Density = 2.489922 g / cm^3
# Si number density = 24.956017 Si / 1000 Ang^3
#
#
#
# Elastic Constant Matrix: (Units=GPa)
#
#
# Indices 1 2 3 4 5 6 
#
# 1 93.8197 30.4865 20.8756 4.1041 8.8094 -29.3114
# 2 30.4865 106.9483 29.8872 -4.7591 7.4057 -34.9524
# 3 20.8756 29.8872 164.6490 -18.2772 34.1860 -27.8674
# 4 4.1041 -4.7591 -18.2772 49.5042 -10.1893 9.8424
# 5 8.8094 7.4057 34.1860 -10.1893 33.9164 -2.9545
# 6 -29.3114 -34.9524 -27.8674 9.8424 -2.9545 46.7428
#
#
#
# Elastic Compliance Matrix: (Units=1/GPa)
#
#
# Indices 1 2 3 4 5 6 
#
# 1 0.014271 -0.001162 0.000338 -0.003779 -0.004161 0.008814
# 2 -0.001162 0.012677 -0.000496 -0.000872 -0.001484 0.008545
# 3 0.000338 -0.000496 0.008599 0.000570 -0.008098 0.004335
# 4 -0.003779 -0.000872 0.000570 0.023518 0.007036 -0.007189
# 5 -0.004161 -0.001484 -0.008098 0.007036 0.040515 -0.007467
# 6 0.008814 0.008545 0.004335 -0.007189 -0.007467 0.036937
#
#
# Mechanical properties :
#
#
# Convention : Reuss Voigt Hill
#
# Bulk Modulus (GPa) = 30.38947 58.65730 44.52338
# Shear Modulus (GPa) = 33.30542 44.97719 39.14130
#
# Velocity S-wave (km/s) = 3.65713 4.24991 3.96461
# Velocity P-wave (km/s) = 5.48055 6.90200 6.23194
#
# Compressibility (1/GPa) = 0.03290614
#
# Stress axis : x y z
#
# Youngs Moduli (GPa) = 70.07242 78.88548 116.28870
#
# Poissons Ratio (x) = 0.09165 -0.03928
# Poissons Ratio (y) = 0.08141 0.05772
# Poissons Ratio (z) = -0.02367 0.03916
#
# Static dielectric constant tensor:
#      x y z
#    x 2.250320 -0.262800 0.179710 
#    y -0.262800 1.387510 0.454920 
#    z 0.179710 0.454920 1.733380 
# 
# From -- ./inp_files/591973.got.cif
#   From: 2010.05.17/outbox.cif.g08.bks.cpg/sg2_296_cif.got.tgz:591973.got - 2010.06.03 11:33:40.
