data_PCOD9111225
_publ_section_title
;
Structure prediction by ZEFSAII (Michael W. Deem and Ramdas Pophale) SiO2 
 PCOD9111225
Probable space group: P -1
;
_chemical_formula_sum "Si O2"
_cell_formula_units_Z 10
_cell_length_a 11.609199
_cell_length_b 9.632133
_cell_length_c 15.852155
_cell_angle_alpha 28.384718
_cell_angle_beta 25.987653
_cell_angle_gamma 40.715777
_cell_volume 364.618656
_symmetry_space_group_name_H-M "P -1"
_symmetry_group_IT_number 2
_symmetry_cell_setting 'triclinic'
loop_
_space_group_symop_operation_xyz
x,y,z
-x,-y,-z
loop_
_atom_site_type_symbol
_atom_site_label
_atom_site_fract_x
_atom_site_fract_y
_atom_site_fract_z
Si Si1 0.018803 0.863562 0.872655
Si Si2 0.287491 0.693901 0.234643
Si Si3 0.800834 0.658515 0.358031
Si Si4 0.273306 0.787776 0.576174
Si Si5 0.280480 0.342725 0.163709
O O1 0.105028 0.060108 0.793253
O O2 0.000000 0.500000 0.500000
O O3 0.773995 0.989591 0.922147
O O4 0.241154 0.908396 0.628251
O O5 0.313698 0.601626 0.362388
O O6 0.553260 0.646618 0.037006
O O7 0.577369 0.732858 0.401653
O O8 0.924598 0.519062 0.133407
O O9 0.044842 0.531784 0.224021
O O10 0.206308 0.015889 0.427929
O O11 0.500000 0.500000 0.000000
#
# Coordination Sequence:
#
# PCOD9111225 Si02
#       5
#     2   2   2   2   2
#     4  10  21  45  68 100 142 174 222 290 334 396
#     4  10  20  42  70  95 136 181 216 282 342 391
#     4  11  23  47  73  96 135 188 223 274 348 404
#     4  11  25  42  72 104 132 182 230 276 340 409
#     4  12  22  44  71  98 139 178 228 282 337 405
#
# _framework density 27.425915
#
# number of rings (size 3 to 8) (size 9 to 14) (size 15 to 20)
#    0.000    1.200    6.000    1.800    0.000    2.400 
#    3.600    1.000    0.000    0.000    0.000    0.000 
#    0.000    0.000    0.000    0.000    0.000    0.000 
#
# Total GULP energy -56146.345002 kJ/mol
# GULP energy per Si atom -5614.634500 kJ/mol
# Density = 2.736349 g / cm^3
# Si number density = 27.425915 Si / 1000 Ang^3
#
#
#
# Elastic Constant Matrix: (Units=GPa)
#
#
# Indices 1 2 3 4 5 6 
#
# 1 108.9756 74.1277 58.2681 -8.8730 -0.1318 -25.6661
# 2 74.1277 156.5348 85.2242 32.5508 -1.9757 -25.0838
# 3 58.2681 85.2242 163.1213 23.0828 15.4392 -7.3431
# 4 -8.8730 32.5508 23.0828 76.1823 -3.6634 -8.4788
# 5 -0.1318 -1.9757 15.4392 -3.6634 46.4971 -2.3192
# 6 -25.6661 -25.0838 -7.3431 -8.4788 -2.3192 39.7622
#
#
#
# Elastic Compliance Matrix: (Units=1/GPa)
#
#
# Indices 1 2 3 4 5 6 
#
# 1 0.018468 -0.006708 -0.003928 0.007268 0.002075 0.008634
# 2 -0.006708 0.012993 -0.003744 -0.004879 0.001503 0.002222
# 3 -0.003928 -0.003744 0.010042 -0.002511 -0.003892 -0.003805
# 4 0.007268 -0.004879 -0.002511 0.017486 0.002275 0.005011
# 5 0.002075 0.001503 -0.003892 0.002275 0.023218 0.003408
# 6 0.008634 0.002222 -0.003805 0.005011 0.003408 0.032689
#
#
# Mechanical properties :
#
#
# Convention : Reuss Voigt Hill
#
# Bulk Modulus (GPa) = 78.48033 95.98574 87.23303
# Shear Modulus (GPa) = 33.80565 46.55575 40.18070
#
# Velocity S-wave (km/s) = 3.51467 4.12455 3.83177
# Velocity P-wave (km/s) = 6.71923 7.59979 7.17303
#
# Compressibility (1/GPa) = 0.01274205
#
# Stress axis : x y z
#
# Youngs Moduli (GPa) = 54.14822 76.96376 99.58161
#
# Poissons Ratio (x) = 0.51631 0.39117
# Poissons Ratio (y) = 0.36325 0.37282
# Poissons Ratio (z) = 0.21270 0.28814
#
# Static dielectric constant tensor:
#      x y z
#    x 2.151230 0.034200 -0.053730 
#    y 0.034200 2.168650 -0.004000 
#    z -0.053730 -0.004000 2.310550 
# 
# From -- ./inp_files/314549.got.cif
#   From: 2010.05.17/outbox.cif.g08.bks.cpg/sg2_158_cif.got.tgz:314549.got - 2010.06.03 11:33:40.
