data_PCOD9112455
_publ_section_title
;
Structure prediction by ZEFSAII (Michael W. Deem and Ramdas Pophale) SiO2 
 PCOD9112455
Probable space group: P 2
;
_chemical_formula_sum "Si O2"
_cell_formula_units_Z 16
_cell_length_a 22.866885
_cell_length_b 8.110736
_cell_length_c 10.224109
_cell_angle_alpha 90.000000
_cell_angle_beta 155.575435
_cell_angle_gamma 90.000000
_cell_volume 784.084443
_symmetry_space_group_name_H-M "P 2"
_symmetry_group_IT_number 3
_symmetry_cell_setting 'monoclinic'
loop_
_space_group_symop_operation_xyz
x,y,z
-x,y,-z
loop_
_atom_site_type_symbol
_atom_site_label
_atom_site_fract_x
_atom_site_fract_y
_atom_site_fract_z
Si Si1 0.836733 0.797390 0.653294
Si Si2 0.753008 0.800234 0.764860
Si Si3 0.484077 0.573368 0.818536
Si Si4 0.974921 0.588656 0.593774
Si Si5 0.128049 0.415512 0.350031
Si Si6 0.425281 0.220795 0.968390
Si Si7 0.293422 0.765393 0.877724
Si Si8 0.519506 0.016245 0.405600
O O1 0.769652 0.862117 0.649426
O O2 0.833468 0.594819 0.638279
O O3 0.769340 0.855667 0.379808
O O4 0.000000 0.840767 0.000000
O O5 0.641873 0.653063 0.517162
O O6 0.673418 0.941279 0.685496
O O7 0.896785 0.712175 0.105112
O O8 0.500000 0.642156 0.000000
O O9 0.472937 0.380349 0.810528
O O10 0.622217 0.614331 0.015688
O O11 0.935961 0.466524 0.636474
O O12 0.835798 0.702628 0.301102
O O13 0.000000 0.515066 0.500000
O O14 0.265566 0.295411 0.631279
O O15 0.000000 0.347237 0.000000
O O16 0.500000 0.127428 0.000000
O O17 0.454126 0.116818 0.154421
O O18 0.408315 0.865850 0.190445
O O19 0.500000 0.113371 0.500000
#
# Coordination Sequence:
#
# PCOD9112455 Si02
#       8
#     2   2   2   2   2   2   2   2
#     4  10  15  30  62 101 115 138 194 262 319 344
#     4  11  20  35  66  91 121 156 203 261 303 364
#     4  10  18  32  61  96 120 149 198 261 312 351
#     4  11  21  36  62  98 124 155 200 256 316 370
#     4  10  19  39  64  96 125 152 198 270 316 351
#     4  11  23  41  63  89 123 168 206 250 303 371
#     4  10  19  36  64  89 123 156 200 259 307 357
#     4  11  27  44  55  85 130 173 206 246 301 369
#
# _framework density 20.405964000000001
#
# number of rings (size 3 to 8) (size 9 to 14) (size 15 to 20)
#    0.000    1.500    7.500    1.500    1.750    0.000 
#    2.250    2.500    0.000    0.750    0.000    0.000 
#    0.000    0.000    0.000    0.000    0.000    0.000 
#
# Total GULP energy -89121.793456 kJ/mol
# GULP energy per Si atom -5570.112091 kJ/mol
# Density = 2.035952 g / cm^3
# Si number density = 20.405964 Si / 1000 Ang^3
#
#
#
# Elastic Constant Matrix: (Units=GPa)
#
#
# Indices 1 2 3 4 5 6 
#
# 1 159.0743 20.1159 45.6146 0.0000 -6.3047 0.0000
# 2 20.1159 20.6263 13.7866 0.0000 1.6256 0.0000
# 3 45.6146 13.7866 76.9014 0.0000 17.8089 0.0000
# 4 0.0000 0.0000 0.0000 11.1953 0.0000 -1.3116
# 5 -6.3047 1.6256 17.8089 0.0000 37.1235 0.0000
# 6 0.0000 0.0000 0.0000 -1.3116 0.0000 11.5863
#
#
#
# Elastic Compliance Matrix: (Units=1/GPa)
#
#
# Indices 1 2 3 4 5 6 
#
# 1 0.008581 -0.005286 -0.005100 0.000000 0.004135 0.000000
# 2 -0.005286 0.058565 -0.007382 0.000000 0.000079 0.000000
# 3 -0.005100 -0.007382 0.019662 0.000000 -0.009975 0.000000
# 4 0.000000 0.000000 0.000000 0.090524 0.000000 0.010247
# 5 0.004135 0.000079 -0.009975 0.000000 0.032421 0.000000
# 6 0.000000 0.000000 0.000000 0.010247 0.000000 0.087468
#
#
# Mechanical properties :
#
#
# Convention : Reuss Voigt Hill
#
# Bulk Modulus (GPa) = 19.50383 46.18181 32.84282
# Shear Modulus (GPa) = 14.29188 23.78669 19.03928
#
# Velocity S-wave (km/s) = 2.64934 3.41790 3.05786
# Velocity P-wave (km/s) = 4.35170 6.18520 5.34762
#
# Compressibility (1/GPa) = 0.05127199
#
# Stress axis : x y z
#
# Youngs Moduli (GPa) = 116.53482 17.07508 50.85869
#
# Poissons Ratio (x) = 0.09026 0.25938
# Poissons Ratio (y) = 0.61599 0.37545
# Poissons Ratio (z) = 0.59433 0.12605
#
# Static dielectric constant tensor:
#      x y z
#    x 1.849850 0.000000 -0.012820 
#    y 0.000000 1.725450 0.000000 
#    z -0.012820 0.000000 1.773360 
# 
# From -- ./inp_files/9489.got.cif
#   From: 2010.05.17/outbox.cif.g08.bks.cpg/sg3_5_cif.got.tgz:9489.got - 2010.06.03 18:33:08.
