data_PCOD9112286
_publ_section_title
;
Structure prediction by ZEFSAII (Michael W. Deem and Ramdas Pophale) SiO2 
 PCOD9112286
Probable space group: P -1
;
_chemical_formula_sum "Si O2"
_cell_formula_units_Z 16
_cell_length_a 5.604040
_cell_length_b 9.036758
_cell_length_c 18.244097
_cell_angle_alpha 42.635501
_cell_angle_beta 73.657226
_cell_angle_gamma 79.446811
_cell_volume 600.113228
_symmetry_space_group_name_H-M "P -1"
_symmetry_group_IT_number 2
_symmetry_cell_setting 'triclinic'
loop_
_space_group_symop_operation_xyz
x,y,z
-x,-y,-z
loop_
_atom_site_type_symbol
_atom_site_label
_atom_site_fract_x
_atom_site_fract_y
_atom_site_fract_z
Si Si1 0.922563 0.458701 0.738600
Si Si2 0.276487 0.622860 0.936254
Si Si3 0.124271 0.600321 0.807351
Si Si4 0.590285 0.829701 0.410449
Si Si5 0.125036 0.996214 0.326939
Si Si6 0.274932 0.111519 0.793531
Si Si7 0.554266 0.765687 0.112551
Si Si8 0.785504 0.436134 0.600004
O O1 0.668794 0.407918 0.822787
O O2 0.865152 0.534499 0.635037
O O3 0.109914 0.607020 0.717091
O O4 0.023276 0.219371 0.800906
O O5 0.310730 0.682677 0.825247
O O6 0.264207 0.852903 0.894098
O O7 0.500000 0.500000 0.000000
O O8 0.000000 0.500000 0.000000
O O9 0.190956 0.340566 0.898419
O O10 0.888479 0.752372 0.788763
O O11 0.326872 0.946477 0.389777
O O12 0.676076 0.827494 0.317824
O O13 0.563911 0.587291 0.535907
O O14 0.831915 0.943450 0.387123
O O15 0.209150 0.827168 0.317696
O O16 0.447427 0.214796 0.805720
O O17 0.500000 0.000000 0.000000
O O18 0.000000 0.500000 0.500000
#
# Coordination Sequence:
#
# PCOD9112286 Si02
#       8
#     2   2   2   2   2   2   2   2
#     4  11  24  45  73 102 148 193 242 301 370 435
#     4  12  29  45  75 105 141 188 249 306 367 433
#     4  11  27  45  68 106 147 191 236 309 368 438
#     4  11  23  42  76 106 142 182 248 301 359 431
#     4  11  23  42  73 102 142 188 237 300 363 426
#     4  11  24  43  72 104 137 192 244 301 361 437
#     4  11  27  45  70 100 150 194 248 296 370 443
#     4  10  20  45  75 107 140 190 252 300 359 443
#
# _framework density 26.661635
#
# number of rings (size 3 to 8) (size 9 to 14) (size 15 to 20)
#    0.000    1.000    3.750    1.875   10.500    1.000 
#    2.250    3.125    0.000    0.000    0.000    0.000 
#    0.000    0.000    0.000    0.000    0.000    0.000 
#
# Total GULP energy -89091.691874 kJ/mol
# GULP energy per Si atom -5568.230742 kJ/mol
# Density = 2.660095 g / cm^3
# Si number density = 26.661635 Si / 1000 Ang^3
#
#
#
# Elastic Constant Matrix: (Units=GPa)
#
#
# Indices 1 2 3 4 5 6 
#
# 1 178.9502 57.6338 53.9373 -20.7754 45.6536 -1.2593
# 2 57.6338 154.4898 55.3829 -20.7869 24.7883 -4.9278
# 3 53.9373 55.3829 87.8064 -13.8473 41.0683 -12.1789
# 4 -20.7754 -20.7869 -13.8473 39.8868 -4.5924 16.3502
# 5 45.6536 24.7883 41.0683 -4.5924 59.4729 -10.0303
# 6 -1.2593 -4.9278 -12.1789 16.3502 -10.0303 52.1135
#
#
#
# Elastic Compliance Matrix: (Units=1/GPa)
#
#
# Indices 1 2 3 4 5 6 
#
# 1 0.008071 -0.001249 -0.001842 0.003321 -0.004528 -0.002267
# 2 -0.001249 0.008927 -0.004863 0.002833 0.000631 -0.001090
# 3 -0.001842 -0.004863 0.021142 0.001881 -0.010712 0.001785
# 4 0.003321 0.002833 0.001881 0.032653 -0.004240 -0.010273
# 5 -0.004528 0.000631 -0.010712 -0.004240 0.027793 0.004126
# 6 -0.002267 -0.001090 0.001785 -0.010273 0.004126 0.023465
#
#
# Mechanical properties :
#
#
# Convention : Reuss Voigt Hill
#
# Bulk Modulus (GPa) = 44.98294 83.90605 64.44449
# Shear Modulus (GPa) = 34.39466 47.24746 40.82106
#
# Velocity S-wave (km/s) = 3.59561 4.21422 3.91715
# Velocity P-wave (km/s) = 5.84349 7.43092 6.68449
#
# Compressibility (1/GPa) = 0.02223065
#
# Stress axis : x y z
#
# Youngs Moduli (GPa) = 123.90544 112.01366 47.29904
#
# Poissons Ratio (x) = 0.13993 0.08715
# Poissons Ratio (y) = 0.15479 0.23002
# Poissons Ratio (z) = 0.22829 0.54473
#
# Static dielectric constant tensor:
#      x y z
#    x 2.261280 0.046530 -0.099420 
#    y 0.046530 2.075020 -0.035390 
#    z -0.099420 -0.035390 2.393330 
# 
# From -- ./inp_files/547746.got.cif
#   From: 2010.05.17/outbox.cif.g08.bks.cpg/sg2_274_cif.got.tgz:547746.got - 2010.06.03 11:33:40.
