data_PCOD9112295
_publ_section_title
;
Structure prediction by ZEFSAII (Michael W. Deem and Ramdas Pophale) SiO2 
 PCOD9112295
Probable space group: P -1
;
_chemical_formula_sum "Si O2"
_cell_formula_units_Z 14
_cell_length_a 22.103343
_cell_length_b 4.959864
_cell_length_c 5.296875
_cell_angle_alpha 92.859037
_cell_angle_beta 73.995703
_cell_angle_gamma 93.083863
_cell_volume 557.007051
_symmetry_space_group_name_H-M "P -1"
_symmetry_group_IT_number 2
_symmetry_cell_setting 'triclinic'
loop_
_space_group_symop_operation_xyz
x,y,z
-x,-y,-z
loop_
_atom_site_type_symbol
_atom_site_label
_atom_site_fract_x
_atom_site_fract_y
_atom_site_fract_z
Si Si1 0.290415 0.185064 0.647402
Si Si2 0.449080 0.584350 0.858794
Si Si3 0.087461 0.541668 0.805604
Si Si4 0.344590 0.718155 0.332701
Si Si5 0.417990 0.063493 0.627013
Si Si6 0.152427 0.044058 0.923360
Si Si7 0.055062 0.809139 0.352466
O O1 0.314992 0.473399 0.523923
O O2 0.221831 0.173721 0.843701
O O3 0.295025 0.956114 0.409851
O O4 0.343231 0.083257 0.776647
O O5 0.377832 0.581731 0.053857
O O6 0.500000 0.500000 0.000000
O O7 0.457279 0.886399 0.760753
O O8 0.443990 0.366797 0.627997
O O9 0.106606 0.243530 0.838755
O O10 0.148410 0.749889 0.783495
O O11 0.064884 0.597287 0.553352
O O12 0.044928 0.663250 0.085896
O O13 0.406214 0.889011 0.381834
O O14 0.119467 0.986852 0.228992
O O15 0.000000 0.000000 0.500000
#
# Coordination Sequence:
#
# PCOD9112295 Si02
#       7
#     2   2   2   2   2   2   2
#     4  10  20  46  62  88 131 169 217 272 342 405
#     4  12  24  40  63  96 126 169 220 269 332 410
#     4  10  24  41  67 102 136 178 240 277 359 406
#     4  10  22  41  64  87 127 163 218 260 341 386
#     4  10  22  42  60  90 127 166 215 264 338 386
#     4  10  24  42  67  98 137 173 238 282 355 406
#     4  10  24  45  69 100 143 185 233 290 349 414
#
# _framework density 25.134326999999999
#
# number of rings (size 3 to 8) (size 9 to 14) (size 15 to 20)
#    1.714    0.000    1.429    2.571    2.000    2.286 
#    7.714    0.000    0.000    0.000    0.000    0.000 
#    0.000    0.000    0.000    0.000    0.000    0.000 
#
# Total GULP energy -78123.307666 kJ/mol
# GULP energy per Si atom -5580.236262 kJ/mol
# Density = 2.507712 g / cm^3
# Si number density = 25.134327 Si / 1000 Ang^3
#
#
#
# Elastic Constant Matrix: (Units=GPa)
#
#
# Indices 1 2 3 4 5 6 
#
# 1 85.9712 23.1394 39.7209 2.9970 -31.9035 2.6935
# 2 23.1394 134.5106 40.3961 -7.0713 -8.9491 6.8844
# 3 39.7209 40.3961 108.7640 -1.8232 -16.1738 2.3380
# 4 2.9970 -7.0713 -1.8232 37.0633 3.0551 0.6434
# 5 -31.9035 -8.9491 -16.1738 3.0551 40.8708 -5.1769
# 6 2.6935 6.8844 2.3380 0.6434 -5.1769 43.0343
#
#
#
# Elastic Compliance Matrix: (Units=1/GPa)
#
#
# Indices 1 2 3 4 5 6 
#
# 1 0.019041 -0.001223 -0.004621 -0.003096 0.013110 0.000878
# 2 -0.001223 0.008593 -0.002757 0.001661 -0.000444 -0.001227
# 3 -0.004621 -0.002757 0.011987 0.000392 0.000521 0.000136
# 4 -0.003096 0.001661 0.000392 0.027924 -0.004113 -0.001005
# 5 0.013110 -0.000444 0.000521 -0.004113 0.035568 0.003562
# 6 0.000878 -0.001227 0.000136 -0.001005 0.003562 0.023815
#
#
# Mechanical properties :
#
#
# Convention : Reuss Voigt Hill
#
# Bulk Modulus (GPa) = 44.60384 59.52876 52.06630
# Shear Modulus (GPa) = 32.98077 39.25964 36.12020
#
# Velocity S-wave (km/s) = 3.62633 3.95649 3.79501
# Velocity P-wave (km/s) = 5.94293 6.67888 6.32162
#
# Compressibility (1/GPa) = 0.02241959
#
# Stress axis : x y z
#
# Youngs Moduli (GPa) = 52.51689 116.37054 83.42579
#
# Poissons Ratio (x) = 0.14237 0.38550
# Poissons Ratio (y) = 0.06425 0.22997
# Poissons Ratio (z) = 0.24267 0.32079
#
# Static dielectric constant tensor:
#      x y z
#    x 2.049760 0.052950 -0.019860 
#    y 0.052950 1.936980 0.013530 
#    z -0.019860 0.013530 2.020450 
# 
# From -- ./inp_files/114087.got.cif
#   From: 2010.05.17/outbox.cif.g08.bks.cpg/sg2_58_cif.got.tgz:114087.got - 2010.06.03 11:33:40.
