data_PCOD9112831
_publ_section_title
;
Structure prediction by ZEFSAII (Michael W. Deem and Ramdas Pophale) SiO2 
 PCOD9112831
Probable space group: P 2
;
_chemical_formula_sum "Si O2"
_cell_formula_units_Z 12
_cell_length_a 11.618527
_cell_length_b 5.152050
_cell_length_c 7.553049
_cell_angle_alpha 90.000000
_cell_angle_beta 110.167321
_cell_angle_gamma 90.000000
_cell_volume 424.400169
_symmetry_space_group_name_H-M "P 2"
_symmetry_group_IT_number 3
_symmetry_cell_setting 'monoclinic'
loop_
_space_group_symop_operation_xyz
x,y,z
-x,y,-z
loop_
_atom_site_type_symbol
_atom_site_label
_atom_site_fract_x
_atom_site_fract_y
_atom_site_fract_z
Si Si1 0.002032 0.602950 0.688826
Si Si2 0.397069 0.598457 0.047835
Si Si3 0.424277 0.906190 0.624203
Si Si4 0.874388 0.200884 0.970448
Si Si5 0.738657 0.505073 0.657844
Si Si6 0.773795 0.939560 0.237443
O O1 0.067758 0.441904 0.882146
O O2 0.087340 0.845011 0.679626
O O3 0.000000 0.446165 0.500000
O O4 0.862582 0.658949 0.669871
O O5 0.478712 0.833780 0.173711
O O6 0.320611 0.528016 0.179012
O O7 0.500000 0.430126 0.000000
O O8 0.300641 0.679440 0.848826
O O9 0.500000 0.030595 0.500000
O O10 0.365721 0.637037 0.516491
O O11 0.308855 0.058297 0.650028
O O12 0.776158 0.090742 0.054807
O O13 0.809411 0.237641 0.745902
O O14 0.000000 0.040902 0.000000
#
# Coordination Sequence:
#
# PCOD9112831 Si02
#       6
#     2   2   2   2   2   2
#     4  11  22  39  63  94 128 170 209 271 331 382
#     4   9  19  35  64  88 119 173 219 255 312 387
#     4   9  19  38  67  91 123 172 218 258 317 382
#     4  10  24  38  62 101 131 164 213 269 327 392
#     4  10  19  39  62  92 127 163 216 263 321 383
#     4  11  21  39  66  93 128 171 215 264 329 380
#
# _framework density 28.275200999999999
#
# number of rings (size 3 to 8) (size 9 to 14) (size 15 to 20)
#    0.000    2.000    3.333    0.000    2.333    0.667 
#    0.000    4.167    0.000    2.000    0.000    0.000 
#    0.000    0.000    0.000    0.000    0.000    0.000 
#
# Total GULP energy -66839.817286 kJ/mol
# GULP energy per Si atom -5569.984774 kJ/mol
# Density = 2.821085 g / cm^3
# Si number density = 28.275201 Si / 1000 Ang^3
#
#
#
# Elastic Constant Matrix: (Units=GPa)
#
#
# Indices 1 2 3 4 5 6 
#
# 1 240.0626 20.7400 44.1854 0.0000 -44.6596 0.0000
# 2 20.7400 50.9402 23.3029 0.0000 -5.2661 0.0000
# 3 44.1854 23.3029 144.8797 0.0000 -8.5105 0.0000
# 4 0.0000 0.0000 0.0000 18.9313 0.0000 -5.2924
# 5 -44.6596 -5.2661 -8.5105 0.0000 70.0250 0.0000
# 6 0.0000 0.0000 0.0000 -5.2924 0.0000 21.4085
#
#
#
# Elastic Compliance Matrix: (Units=1/GPa)
#
#
# Indices 1 2 3 4 5 6 
#
# 1 0.005040 -0.001210 -0.001167 0.000000 0.002981 0.000000
# 2 -0.001210 0.021579 -0.003074 0.000000 0.000478 0.000000
# 3 -0.001167 -0.003074 0.007751 0.000000 -0.000034 0.000000
# 4 0.000000 0.000000 0.000000 0.056744 0.000000 0.014028
# 5 0.002981 0.000478 -0.000034 0.000000 0.016214 0.000000
# 6 0.000000 0.000000 0.000000 0.014028 0.000000 0.050178
#
#
# Mechanical properties :
#
#
# Convention : Reuss Voigt Hill
#
# Bulk Modulus (GPa) = 42.61189 68.03767 55.32478
# Shear Modulus (GPa) = 28.37213 45.24992 36.81102
#
# Velocity S-wave (km/s) = 3.17113 4.00476 3.61208
# Velocity P-wave (km/s) = 5.33959 6.74530 6.08319
#
# Compressibility (1/GPa) = 0.02346763
#
# Stress axis : x y z
#
# Youngs Moduli (GPa) = 198.43097 46.34156 129.02052
#
# Poissons Ratio (x) = 0.05606 0.15060
# Poissons Ratio (y) = 0.24003 0.39659
# Poissons Ratio (z) = 0.23162 0.14245
#
# Static dielectric constant tensor:
#      x y z
#    x 2.304570 0.000000 -0.018950 
#    y 0.000000 2.355140 0.000000 
#    z -0.018950 0.000000 2.287870 
# 
# From -- ./inp_files/6691.got.cif
#   From: 2010.05.17/outbox.cif.g08.bks.cpg/sg3_4_cif.got.tgz:6691.got - 2010.06.03 18:33:08.
