data_PCOD9112945
_publ_section_title
;
Structure prediction by ZEFSAII (Michael W. Deem and Ramdas Pophale) SiO2 
 PCOD9112945
Probable space group: P 2
;
_chemical_formula_sum "Si O2"
_cell_formula_units_Z 14
_cell_length_a 8.103578
_cell_length_b 16.879958
_cell_length_c 9.471275
_cell_angle_alpha 90.000000
_cell_angle_beta 32.082607
_cell_angle_gamma 90.000000
_cell_volume 688.124115
_symmetry_space_group_name_H-M "P 2"
_symmetry_group_IT_number 3
_symmetry_cell_setting 'monoclinic'
loop_
_space_group_symop_operation_xyz
x,y,z
-x,y,-z
loop_
_atom_site_type_symbol
_atom_site_label
_atom_site_fract_x
_atom_site_fract_y
_atom_site_fract_z
Si Si1 0.425528 0.309140 0.389808
Si Si2 0.868812 0.564181 0.750794
Si Si3 0.365916 0.154257 0.254858
Si Si4 0.870399 0.740258 0.750028
Si Si5 0.206417 0.396684 0.104923
Si Si6 0.062791 0.894130 0.120100
Si Si7 0.302419 0.978799 0.380866
O O1 0.500000 0.300742 0.500000
O O2 0.473523 0.227107 0.271918
O O3 0.070464 0.340438 0.640138
O O4 0.654501 0.369998 0.145072
O O5 0.976445 0.651654 0.718415
O O6 0.924215 0.486307 0.802813
O O7 0.000000 0.547977 0.500000
O O8 0.500000 0.570451 0.000000
O O9 0.000000 0.162612 0.500000
O O10 0.420356 0.069118 0.287465
O O11 0.500000 0.155040 0.000000
O O12 0.000000 0.755944 0.500000
O O13 0.500000 0.741295 0.000000
O O14 0.968815 0.808446 0.785385
O O15 0.500000 0.393140 0.000000
O O16 0.416288 0.925055 0.878636
O O17 0.000000 0.891889 0.000000
O O18 0.824629 0.951291 0.375418
O O19 0.000000 0.972311 0.500000
#
# Coordination Sequence:
#
# PCOD9112945 Si02
#       7
#     2   2   2   2   2   2   2
#     4  12  25  39  58  89 124 155 189 236 297 351
#     4   9  18  33  58  89 111 143 198 249 283 326
#     4  11  23  41  64  87 112 150 200 244 285 340
#     4  10  20  36  60  85 114 152 197 241 283 338
#     4  11  21  39  64  86 115 156 201 242 283 342
#     4  12  24  38  59  90 124 155 189 235 296 351
#     4  11  23  42  64  86 113 153 201 243 284 342
#
# _framework density 20.345168999999999
#
# number of rings (size 3 to 8) (size 9 to 14) (size 15 to 20)
#    0.000    1.143    0.000    9.429    0.000    1.143 
#    0.000    1.429    0.000    0.000    0.000    0.000 
#    0.000    0.000    0.000    0.000    0.000    0.000 
#
# Total GULP energy -78271.755237 kJ/mol
# GULP energy per Si atom -5590.839660 kJ/mol
# Density = 2.029886 g / cm^3
# Si number density = 20.345169 Si / 1000 Ang^3
#
#
#
# Elastic Constant Matrix: (Units=GPa)
#
#
# Indices 1 2 3 4 5 6 
#
# 1 58.3302 60.4214 35.4405 0.0000 24.4562 0.0000
# 2 60.4214 185.0621 73.6511 0.0000 36.3452 0.0000
# 3 35.4405 73.6511 181.6171 0.0000 27.6819 0.0000
# 4 0.0000 0.0000 0.0000 38.0187 0.0000 6.2804
# 5 24.4562 36.3452 27.6819 0.0000 41.2933 0.0000
# 6 0.0000 0.0000 0.0000 6.2804 0.0000 -4.3829
#
#
#
# Elastic Compliance Matrix: (Units=1/GPa)
#
#
# Indices 1 2 3 4 5 6 
#
# 1 0.029697 -0.007122 -0.001316 0.000000 -0.010437 0.000000
# 2 -0.007122 0.008945 -0.001872 0.000000 -0.002400 0.000000
# 3 -0.001316 -0.001872 0.006852 0.000000 -0.002167 0.000000
# 4 0.000000 0.000000 0.000000 0.021268 0.000000 0.030476
# 5 -0.010437 -0.002400 -0.002167 0.000000 0.033964 0.000000
# 6 0.000000 0.000000 0.000000 0.030476 0.000000 -0.184490
#
#
# Mechanical properties :
#
#
# Convention : Reuss Voigt Hill
#
# Bulk Modulus (GPa) = 40.20211 84.89281 62.54746
# Shear Modulus (GPa) = -91.15433 32.01892 -29.56770
#
# Velocity S-wave (km/s) = -6.70083 3.97140 -3.81636
# Velocity P-wave (km/s) = 6.32972 7.92756 3.37497
#
# Compressibility (1/GPa) = 0.02487431
#
# Stress axis : x y z
#
# Youngs Moduli (GPa) = 33.67349 111.78955 145.93828
#
# Poissons Ratio (x) = 0.79620 0.19204
# Poissons Ratio (y) = 0.23983 0.27318
# Poissons Ratio (z) = 0.04431 0.20926
#
# Static dielectric constant tensor:
#      x y z
#    x 1.695970 0.000000 -0.014840 
#    y 0.000000 1.786960 0.000000 
#    z -0.014840 0.000000 1.684690 
# 
# From -- ./inp_files/6181.got.cif
#   From: 2010.05.17/outbox.cif.g08.bks.cpg/sg3_4_cif.got.tgz:6181.got - 2010.06.03 18:33:08.
