data_PCOD9112961
_publ_section_title
;
Structure prediction by ZEFSAII (Michael W. Deem and Ramdas Pophale) SiO2 
 PCOD9112961
Probable space group: P 2
;
_chemical_formula_sum "Si O2"
_cell_formula_units_Z 10
_cell_length_a 8.559368
_cell_length_b 8.721384
_cell_length_c 12.383680
_cell_angle_alpha 90.000000
_cell_angle_beta 148.184327
_cell_angle_gamma 90.000000
_cell_volume 487.351783
_symmetry_space_group_name_H-M "P 2"
_symmetry_group_IT_number 3
_symmetry_cell_setting 'monoclinic'
loop_
_space_group_symop_operation_xyz
x,y,z
-x,y,-z
loop_
_atom_site_type_symbol
_atom_site_label
_atom_site_fract_x
_atom_site_fract_y
_atom_site_fract_z
Si Si1 0.116629 0.523390 0.893526
Si Si2 0.000000 0.155199 0.500000
Si Si3 0.748247 0.641161 0.263422
Si Si4 0.835758 0.221141 0.168650
Si Si5 0.000000 0.752360 0.000000
Si Si6 0.437932 0.950754 0.122484
O O1 0.125783 0.584150 0.776283
O O2 0.035917 0.344979 0.839461
O O3 0.931972 0.636247 0.861253
O O4 0.461450 0.542969 0.131544
O O5 0.998262 0.230209 0.379644
O O6 0.694522 0.060534 0.316861
O O7 0.621054 0.812534 0.175838
O O8 0.000000 0.637958 0.500000
O O9 0.500000 0.272022 0.000000
O O10 0.778945 0.053934 0.080912
O O11 0.744070 0.864115 0.891825
#
# Coordination Sequence:
#
# PCOD9112961 Si02
#       6
#     2   1   2   2   1   2
#     4  10  22  39  60  92 128 168 203 257 318 370
#     4  10  22  36  70  94 118 160 224 260 308 360
#     4  10  20  36  63  89 122 163 214 257 298 370
#     4  10  21  38  64  95 123 160 217 263 306 370
#     4  10  24  40  64  90 136 168 200 258 330 366
#     4  10  22  39  64  96 122 167 210 262 308 374
#
# _framework density 20.519058999999999
#
# number of rings (size 3 to 8) (size 9 to 14) (size 15 to 20)
#    0.000    2.000    3.000    0.000   18.200    0.800 
#    0.000    9.000    0.000    4.800    0.000    0.000 
#    0.000    0.000    0.000    0.000    0.000    0.000 
#
# Total GULP energy -55709.137427 kJ/mol
# GULP energy per Si atom -5570.913743 kJ/mol
# Density = 2.047236 g / cm^3
# Si number density = 20.519059 Si / 1000 Ang^3
#
#
#
# Elastic Constant Matrix: (Units=GPa)
#
#
# Indices 1 2 3 4 5 6 
#
# 1 75.6102 37.2373 22.0710 0.0000 -15.7406 0.0000
# 2 37.2373 116.3572 29.3312 0.0000 -12.2466 0.0000
# 3 22.0710 29.3312 124.1914 0.0000 -23.2564 0.0000
# 4 0.0000 0.0000 0.0000 15.9262 0.0000 -14.8513
# 5 -15.7406 -12.2466 -23.2564 0.0000 10.6852 0.0000
# 6 0.0000 0.0000 0.0000 -14.8513 0.0000 42.3303
#
#
#
# Elastic Compliance Matrix: (Units=1/GPa)
#
#
# Indices 1 2 3 4 5 6 
#
# 1 0.021446 -0.004120 0.003703 0.000000 0.034929 0.000000
# 2 -0.004120 0.010574 -0.001067 0.000000 0.003727 0.000000
# 3 0.003703 -0.001067 0.014244 0.000000 0.035234 0.000000
# 4 0.000000 0.000000 0.000000 0.093321 0.000000 0.032741
# 5 0.034929 0.003727 0.035234 0.000000 0.225999 0.000000
# 6 0.000000 0.000000 0.000000 0.032741 0.000000 0.035111
#
#
# Mechanical properties :
#
#
# Convention : Reuss Voigt Hill
#
# Bulk Modulus (GPa) = 23.09786 54.82641 38.96214
# Shear Modulus (GPa) = 11.95901 28.95631 20.45766
#
# Velocity S-wave (km/s) = 2.41679 3.76066 3.16097
# Velocity P-wave (km/s) = 4.36682 6.75533 5.68786
#
# Compressibility (1/GPa) = 0.04329405
#
# Stress axis : x y z
#
# Youngs Moduli (GPa) = 46.62965 94.57084 70.20478
#
# Poissons Ratio (x) = 0.38966 -0.25995
# Poissons Ratio (y) = 0.19213 0.07493
# Poissons Ratio (z) = -0.17265 0.10093
#
# Static dielectric constant tensor:
#      x y z
#    x 1.736240 0.000000 -0.034110 
#    y 0.000000 1.824870 0.000000 
#    z -0.034110 0.000000 1.733570 
# 
# From -- ./inp_files/6819.got.cif
#   From: 2010.05.17/outbox.cif.g08.bks.cpg/sg3_4_cif.got.tgz:6819.got - 2010.06.03 18:33:08.
