data_PCOD9112004
_publ_section_title
;
Structure prediction by ZEFSAII (Michael W. Deem and Ramdas Pophale) SiO2 
 PCOD9112004
Probable space group: P -1
;
_chemical_formula_sum "Si O2"
_cell_formula_units_Z 14
_cell_length_a 7.844506
_cell_length_b 18.191994
_cell_length_c 4.962966
_cell_angle_alpha 75.895948
_cell_angle_beta 115.272941
_cell_angle_gamma 117.349011
_cell_volume 567.874916
_symmetry_space_group_name_H-M "P -1"
_symmetry_group_IT_number 2
_symmetry_cell_setting 'triclinic'
loop_
_space_group_symop_operation_xyz
x,y,z
-x,-y,-z
loop_
_atom_site_type_symbol
_atom_site_label
_atom_site_fract_x
_atom_site_fract_y
_atom_site_fract_z
Si Si1 0.231901 0.326214 0.937060
Si Si2 0.038780 0.738652 0.671925
Si Si3 0.233138 0.086258 0.385703
Si Si4 0.561968 0.256181 0.314064
Si Si5 0.757421 0.512079 0.056406
Si Si6 0.764988 0.410325 0.678982
Si Si7 0.978509 0.094507 0.704384
O O1 0.125467 0.327038 0.581633
O O2 0.336160 0.419887 0.033493
O O3 0.386831 0.281971 0.051654
O O4 0.058953 0.274512 0.086927
O O5 0.252610 0.730737 0.774917
O O6 0.062411 0.827041 0.486288
O O7 0.065334 0.097752 0.060513
O O8 0.450360 0.160963 0.412010
O O9 0.158388 0.092017 0.631071
O O10 0.211347 0.993699 0.393114
O O11 0.000829 0.430528 0.902397
O O12 0.649447 0.318066 0.570408
O O13 0.329050 0.556846 0.169965
O O14 0.771890 0.468100 0.379701
#
# Coordination Sequence:
#
# PCOD9112004 Si02
#       7
#     2   2   2   2   2   2   2
#     4  12  26  45  68 100 139 177 223 286 335 396
#     4  12  25  43  69 102 138 179 219 283 338 394
#     4  10  22  40  70  98 133 176 222 272 331 405
#     4  12  26  43  72 106 130 181 233 274 335 407
#     4  10  22  44  63  92 137 176 216 281 340 386
#     4  10  23  39  69  94 129 177 225 273 335 402
#     4  10  20  44  66  96 139 177 213 274 341 390
#
# _framework density 24.653314999999999
#
# number of rings (size 3 to 8) (size 9 to 14) (size 15 to 20)
#    0.000    1.143    4.286    0.857    4.000    6.286 
#    0.000    0.000    0.000    6.857    0.000    0.000 
#    0.000    0.000    0.000    0.000    0.000    0.000 
#
# Total GULP energy -78491.044318 kJ/mol
# GULP energy per Si atom -5606.503166 kJ/mol
# Density = 2.459720 g / cm^3
# Si number density = 24.653315 Si / 1000 Ang^3
#
#
#
# Elastic Constant Matrix: (Units=GPa)
#
#
# Indices 1 2 3 4 5 6 
#
# 1 109.0996 14.8805 16.1091 8.3286 -3.5455 2.9569
# 2 14.8805 144.7987 2.9555 2.1514 -2.1931 -1.4803
# 3 16.1091 2.9555 89.0861 -7.3391 -20.5479 -0.9671
# 4 8.3286 2.1514 -7.3391 22.7422 -3.6520 1.0765
# 5 -3.5455 -2.1931 -20.5479 -3.6520 23.3566 0.9724
# 6 2.9569 -1.4803 -0.9671 1.0765 0.9724 39.7192
#
#
#
# Elastic Compliance Matrix: (Units=1/GPa)
#
#
# Indices 1 2 3 4 5 6 
#
# 1 0.009982 -0.000936 -0.002493 -0.004573 -0.001453 -0.000679
# 2 -0.000936 0.007016 0.000034 -0.000246 0.000494 0.000327
# 3 -0.002493 0.000034 0.015784 0.008385 0.014823 -0.000019
# 4 -0.004573 -0.000246 0.008385 0.050784 0.014650 -0.001200
# 5 -0.001453 0.000494 0.014823 0.014650 0.058027 -0.001330
# 6 -0.000679 0.000327 -0.000019 -0.001200 -0.001330 0.025304
#
#
# Mechanical properties :
#
#
# Convention : Reuss Voigt Hill
#
# Bulk Modulus (GPa) = 38.47366 45.65273 42.06319
# Shear Modulus (GPa) = 27.41956 37.76621 32.59289
#
# Velocity S-wave (km/s) = 3.33859 3.91818 3.63994
# Velocity P-wave (km/s) = 5.52280 6.24721 5.89614
#
# Compressibility (1/GPa) = 0.02599181
#
# Stress axis : x y z
#
# Youngs Moduli (GPa) = 100.18041 142.52903 63.35440
#
# Poissons Ratio (x) = 0.13340 0.15795
# Poissons Ratio (y) = 0.09376 -0.00214
# Poissons Ratio (z) = 0.24976 -0.00481
#
# Static dielectric constant tensor:
#      x y z
#    x 1.971700 0.017410 0.001440 
#    y 0.017410 2.003860 -0.010390 
#    z 0.001440 -0.010390 1.890650 
# 
# From -- ./inp_files/79810.got.cif
#   From: 2010.05.17/outbox.cif.g08.bks.cpg/sg2_40_cif.got.tgz:79810.got - 2010.06.03 11:33:40.
