data_PCOD9112980
_publ_section_title
;
Structure prediction by ZEFSAII (Michael W. Deem and Ramdas Pophale) SiO2 
 PCOD9112980
Probable space group: P 2
;
_chemical_formula_sum "Si O2"
_cell_formula_units_Z 16
_cell_length_a 8.191342
_cell_length_b 18.545777
_cell_length_c 8.100957
_cell_angle_alpha 90.000000
_cell_angle_beta 144.833289
_cell_angle_gamma 90.000000
_cell_volume 708.805083
_symmetry_space_group_name_H-M "P 2"
_symmetry_group_IT_number 3
_symmetry_cell_setting 'monoclinic'
loop_
_space_group_symop_operation_xyz
x,y,z
-x,y,-z
loop_
_atom_site_type_symbol
_atom_site_label
_atom_site_fract_x
_atom_site_fract_y
_atom_site_fract_z
Si Si1 0.441243 0.780630 0.147791
Si Si2 0.906903 0.698336 0.735779
Si Si3 0.410979 0.942812 0.120279
Si Si4 0.226069 0.412363 0.891813
Si Si5 0.909088 0.032121 0.617029
Si Si6 0.356718 0.331126 0.560508
Si Si7 0.812359 0.560631 0.194279
Si Si8 0.810281 0.181611 0.689599
O O1 0.610151 0.724888 0.407872
O O2 0.485798 0.862715 0.240371
O O3 0.500000 0.771267 0.000000
O O4 0.107726 0.766838 0.877752
O O5 0.021292 0.630582 0.727417
O O6 0.000000 0.677733 0.000000
O O7 0.589928 0.004397 0.356435
O O8 0.500000 0.941802 0.000000
O O9 0.091591 0.970289 0.856534
O O10 0.198022 0.493687 0.942003
O O11 0.903218 0.383845 0.602678
O O12 0.500000 0.428432 0.000000
O O13 0.370408 0.346008 0.103975
O O14 0.945366 0.110931 0.721853
O O15 0.000000 0.034992 0.500000
O O16 0.500000 0.344432 0.500000
O O17 0.240601 0.250046 0.470009
O O18 0.000000 0.529123 0.500000
O O19 0.500000 0.581599 0.000000
O O20 0.500000 0.161803 0.500000
O O21 0.000000 0.206320 0.000000
#
# Coordination Sequence:
#
# PCOD9112980 Si02
#       8
#     2   2   2   2   2   2   2   2
#     4  11  22  41  66  88 120 169 213 253 314 391
#     4  12  25  40  61  94 129 160 206 266 317 371
#     4   9  19  36  60  88 117 153 204 257 307 370
#     4  11  23  41  65  94 124 157 209 270 318 371
#     4  10  20  37  61  89 117 152 203 260 309 361
#     4  11  23  41  63  89 126 169 208 253 318 393
#     4  11  23  43  66  90 123 165 209 256 317 392
#     4  11  23  41  60  86 124 165 206 251 310 387
#
# _framework density 22.573202999999999
#
# number of rings (size 3 to 8) (size 9 to 14) (size 15 to 20)
#    0.000    1.250    0.000    7.875    0.000    4.000 
#    0.000    7.500    0.000    0.000    0.000    0.000 
#    0.000    0.000    0.000    0.000    0.000    0.000 
#
# Total GULP energy -89119.348795 kJ/mol
# GULP energy per Si atom -5569.959300 kJ/mol
# Density = 2.252182 g / cm^3
# Si number density = 22.573203 Si / 1000 Ang^3
#
#
#
# Elastic Constant Matrix: (Units=GPa)
#
#
# Indices 1 2 3 4 5 6 
#
# 1 37.7205 10.7457 3.0406 0.0000 6.6435 0.0000
# 2 10.7457 141.8171 18.6543 0.0000 -4.6540 0.0000
# 3 3.0406 18.6543 111.5722 0.0000 14.1617 0.0000
# 4 0.0000 0.0000 0.0000 34.6836 0.0000 -1.3541
# 5 6.6435 -4.6540 14.1617 0.0000 27.6433 0.0000
# 6 0.0000 0.0000 0.0000 -1.3541 0.0000 19.6606
#
#
#
# Elastic Compliance Matrix: (Units=1/GPa)
#
#
# Indices 1 2 3 4 5 6 
#
# 1 0.028506 -0.002488 0.000601 0.000000 -0.007577 0.000000
# 2 -0.002488 0.007528 -0.001527 0.000000 0.002647 0.000000
# 3 0.000601 -0.001527 0.009896 0.000000 -0.005471 0.000000
# 4 0.000000 0.000000 0.000000 0.028910 0.000000 0.001991
# 5 -0.007577 0.002647 -0.005471 0.000000 0.041245 0.000000
# 6 0.000000 0.000000 0.000000 0.001991 0.000000 0.051000
#
#
# Mechanical properties :
#
#
# Convention : Reuss Voigt Hill
#
# Bulk Modulus (GPa) = 25.57408 39.55458 32.56433
# Shear Modulus (GPa) = 26.74578 33.64211 30.19395
#
# Velocity S-wave (km/s) = 3.44589 3.86470 3.66129
# Velocity P-wave (km/s) = 5.21404 6.12172 5.68602
#
# Compressibility (1/GPa) = 0.03910210
#
# Stress axis : x y z
#
# Youngs Moduli (GPa) = 35.08091 132.84563 101.04928
#
# Poissons Ratio (x) = 0.33047 -0.06071
# Poissons Ratio (y) = 0.08727 0.15428
# Poissons Ratio (z) = -0.02108 0.20283
#
# Static dielectric constant tensor:
#      x y z
#    x 1.925380 0.000000 -0.066350 
#    y 0.000000 1.829890 0.000000 
#    z -0.066350 0.000000 1.877790 
# 
# From -- ./inp_files/6284.got.cif
#   From: 2010.05.17/outbox.cif.g08.bks.cpg/sg3_4_cif.got.tgz:6284.got - 2010.06.03 18:33:08.
