data_PCOD9112873
_publ_section_title
;
Structure prediction by ZEFSAII (Michael W. Deem and Ramdas Pophale) SiO2 
 PCOD9112873
Probable space group: P 2
;
_chemical_formula_sum "Si O2"
_cell_formula_units_Z 14
_cell_length_a 6.874077
_cell_length_b 5.354996
_cell_length_c 17.062160
_cell_angle_alpha 90.000000
_cell_angle_beta 114.842942
_cell_angle_gamma 90.000000
_cell_volume 569.949543
_symmetry_space_group_name_H-M "P 2"
_symmetry_group_IT_number 3
_symmetry_cell_setting 'monoclinic'
loop_
_space_group_symop_operation_xyz
x,y,z
-x,y,-z
loop_
_atom_site_type_symbol
_atom_site_label
_atom_site_fract_x
_atom_site_fract_y
_atom_site_fract_z
Si Si1 0.621268 0.313650 0.222184
Si Si2 0.537081 0.810807 0.873195
Si Si3 0.013028 0.322193 0.595939
Si Si4 0.007108 0.318130 0.160599
Si Si5 0.641016 0.640085 0.593751
Si Si6 0.310782 0.138508 0.344366
Si Si7 0.855134 0.818980 0.067222
O O1 0.490420 0.565053 0.183897
O O2 0.808842 0.319481 0.188182
O O3 0.752743 0.310866 0.325573
O O4 0.490245 0.063286 0.180959
O O5 0.338441 0.815035 0.901524
O O6 0.743313 0.800606 0.964171
O O7 0.880345 0.565091 0.605369
O O8 0.871730 0.114713 0.618115
O O9 0.000000 0.305597 0.500000
O O10 0.995581 0.579747 0.114503
O O11 0.205697 0.262613 0.250701
O O12 0.969408 0.083396 0.098212
O O13 0.500000 0.746908 0.500000
O O14 0.546828 0.365584 0.598388
O O15 0.623744 0.853534 0.656168
#
# Coordination Sequence:
#
# PCOD9112873 Si02
#       7
#     2   2   2   2   2   2   2
#     4   9  17  26  40  56  87 119 159 185 230 278
#     4   9  16  25  35  57  84 122 156 179 225 282
#     4   9  21  34  51  72  96 130 174 204 243 291
#     4   9  15  24  39  60  83 119 157 183 224 281
#     4  10  20  34  51  70  94 130 169 205 251 290
#     4   9  19  31  49  68  97 126 168 197 247 291
#     4   9  15  22  37  55  85 117 159 179 217 282
#
# _framework density 24.563579000000001
#
# number of rings (size 3 to 8) (size 9 to 14) (size 15 to 20)
#    0.857    2.000    0.000    2.143    6.000    4.000 
#    0.000    0.000    0.000    0.000    0.000    0.000 
#    0.000    0.000    0.000   19.286   17.429    0.000 
#
# Total GULP energy -78193.957773 kJ/mol
# GULP energy per Si atom -5585.282698 kJ/mol
# Density = 2.450767 g / cm^3
# Si number density = 24.563579 Si / 1000 Ang^3
#
#
#
# Elastic Constant Matrix: (Units=GPa)
#
#
# Indices 1 2 3 4 5 6 
#
# 1 73.2773 12.7884 34.2111 0.0000 -31.1724 0.0000
# 2 12.7884 162.6900 78.2622 0.0000 -6.7871 0.0000
# 3 34.2111 78.2622 182.0332 0.0000 6.5929 0.0000
# 4 0.0000 0.0000 0.0000 26.2359 0.0000 2.4034
# 5 -31.1724 -6.7871 6.5929 0.0000 36.9398 0.0000
# 6 0.0000 0.0000 0.0000 2.4034 0.0000 5.4735
#
#
#
# Elastic Compliance Matrix: (Units=1/GPa)
#
#
# Indices 1 2 3 4 5 6 
#
# 1 0.026762 0.002203 -0.006854 0.000000 0.024212 0.000000
# 2 0.002203 0.008085 -0.004038 0.000000 0.004066 0.000000
# 3 -0.006854 -0.004038 0.008811 0.000000 -0.008098 0.000000
# 4 0.000000 0.000000 0.000000 0.039713 0.000000 -0.017438
# 5 0.024212 0.004066 -0.008098 0.000000 0.049695 0.000000
# 6 0.000000 0.000000 0.000000 -0.017438 0.000000 0.190354
#
#
# Mechanical properties :
#
#
# Convention : Reuss Voigt Hill
#
# Bulk Modulus (GPa) = 38.04858 74.28044 56.16451
# Shear Modulus (GPa) = 14.30385 33.24575 23.77480
#
# Velocity S-wave (km/s) = 2.41575 3.68293 3.11447
# Velocity P-wave (km/s) = 4.82748 6.95636 5.98730
#
# Compressibility (1/GPa) = 0.02628219
#
# Stress axis : x y z
#
# Youngs Moduli (GPa) = 37.36656 123.68101 113.49741
#
# Poissons Ratio (x) = -0.27253 0.77790
# Poissons Ratio (y) = -0.08234 0.45825
# Poissons Ratio (z) = 0.25611 0.49936
#
# Static dielectric constant tensor:
#      x y z
#    x 2.060650 0.000000 -0.010530 
#    y 0.000000 1.902000 0.000000 
#    z -0.010530 0.000000 1.985650 
# 
# From -- ./inp_files/15226.got.cif
#   From: 2010.05.17/outbox.cif.g08.bks.cpg/sg3_8_cif.got.tgz:15226.got - 2010.06.03 18:33:08.
