data_PCOD9112473
_publ_section_title
;
Structure prediction by ZEFSAII (Michael W. Deem and Ramdas Pophale) SiO2 
 PCOD9112473
Probable space group: P 2
;
_chemical_formula_sum "Si O2"
_cell_formula_units_Z 13
_cell_length_a 16.455933
_cell_length_b 8.131498
_cell_length_c 15.776604
_cell_angle_alpha 90.000000
_cell_angle_beta 161.580033
_cell_angle_gamma 90.000000
_cell_volume 667.061331
_symmetry_space_group_name_H-M "P 2"
_symmetry_group_IT_number 3
_symmetry_cell_setting 'monoclinic'
loop_
_space_group_symop_operation_xyz
x,y,z
-x,y,-z
loop_
_atom_site_type_symbol
_atom_site_label
_atom_site_fract_x
_atom_site_fract_y
_atom_site_fract_z
Si Si1 0.644261 0.497240 0.878566
Si Si2 0.479849 0.872018 0.284368
Si Si3 0.612324 0.363431 0.027446
Si Si4 0.000000 0.111420 0.500000
Si Si5 0.964062 0.987604 0.866417
Si Si6 0.258035 0.085697 0.596500
Si Si7 0.868766 0.299244 0.679120
O O1 0.585216 0.684148 0.798628
O O2 0.405391 0.384408 0.610067
O O3 0.684048 0.476113 0.019464
O O4 0.905664 0.431157 0.095844
O O5 0.731484 0.887080 0.592952
O O6 0.557982 0.967556 0.275319
O O7 0.233509 0.954399 0.085278
O O8 0.822759 0.237228 0.271444
O O9 0.500000 0.451067 0.000000
O O10 0.403598 0.239419 0.781948
O O11 0.871649 0.007106 0.448733
O O12 0.880307 0.177884 0.770177
O O13 0.000000 0.947488 0.000000
O O14 0.080490 0.172413 0.349566
#
# Coordination Sequence:
#
# PCOD9112473 Si02
#       7
#     2   2   2   1   2   2   2
#     4  11  21  39  59  91 124 163 195 247 310 364
#     4  11  24  39  65  92 130 162 193 245 323 367
#     4   9  18  32  55  83 116 162 213 255 287 340
#     4  10  16  32  58  90 114 162 220 258 278 336
#     4  11  23  44  67  92 118 157 206 253 299 371
#     4   9  19  33  58  86 117 163 211 247 290 354
#     4  10  20  38  65  86 115 159 210 244 293 362
#
# _framework density 19.488462999999999
#
# number of rings (size 3 to 8) (size 9 to 14) (size 15 to 20)
#    0.000    1.846    1.538    4.154    2.154    0.000 
#    0.000    6.923    0.000    0.923    0.000    0.000 
#    0.000    0.000    0.000    0.000    0.000    0.000 
#
# Total GULP energy -72464.124993 kJ/mol
# GULP energy per Si atom -5574.163461 kJ/mol
# Density = 1.944411 g / cm^3
# Si number density = 19.488463 Si / 1000 Ang^3
#
#
#
# Elastic Constant Matrix: (Units=GPa)
#
#
# Indices 1 2 3 4 5 6 
#
# 1 84.3476 19.5730 32.6680 0.0000 -2.3096 0.0000
# 2 19.5730 61.6835 4.2211 0.0000 -0.6671 0.0000
# 3 32.6680 4.2211 89.8933 0.0000 -0.6337 0.0000
# 4 0.0000 0.0000 0.0000 31.9750 0.0000 1.1947
# 5 -2.3096 -0.6671 -0.6337 0.0000 26.7663 0.0000
# 6 0.0000 0.0000 0.0000 1.1947 0.0000 11.4775
#
#
#
# Elastic Compliance Matrix: (Units=1/GPa)
#
#
# Indices 1 2 3 4 5 6 
#
# 1 0.014914 -0.004365 -0.005208 0.000000 0.001055 0.000000
# 2 -0.004365 0.017545 0.000763 0.000000 0.000079 0.000000
# 3 -0.005208 0.000763 0.012980 0.000000 -0.000123 0.000000
# 4 0.000000 0.000000 0.000000 0.031397 0.000000 -0.003268
# 5 0.001055 0.000079 -0.000123 0.000000 0.037450 0.000000
# 6 0.000000 0.000000 0.000000 -0.003268 0.000000 0.087467
#
#
# Mechanical properties :
#
#
# Convention : Reuss Voigt Hill
#
# Bulk Modulus (GPa) = 35.94423 38.76097 37.35260
# Shear Modulus (GPa) = 21.86779 26.00790 23.93785
#
# Velocity S-wave (km/s) = 3.35339 3.65708 3.50853
# Velocity P-wave (km/s) = 5.78598 6.14530 5.96834
#
# Compressibility (1/GPa) = 0.02782088
#
# Stress axis : x y z
#
# Youngs Moduli (GPa) = 67.04945 56.99486 77.04098
#
# Poissons Ratio (x) = 0.24877 0.40120
# Poissons Ratio (y) = 0.29265 -0.05877
# Poissons Ratio (z) = 0.34917 -0.04348
#
# Static dielectric constant tensor:
#      x y z
#    x 1.818580 0.000000 -0.027720 
#    y 0.000000 1.652470 0.000000 
#    z -0.027720 0.000000 1.832980 
# 
# From -- ./inp_files/3012.got.cif
#   From: 2010.05.17/outbox.cif.g08.bks.cpg/sg3_2_cif.got.tgz:3012.got - 2010.06.03 18:33:08.
