data_PCOD9112007
_publ_section_title
;
Structure prediction by ZEFSAII (Michael W. Deem and Ramdas Pophale) SiO2 
 PCOD9112007
Probable space group: P -1
;
_chemical_formula_sum "Si O2"
_cell_formula_units_Z 16
_cell_length_a 5.204860
_cell_length_b 11.080709
_cell_length_c 19.249483
_cell_angle_alpha 136.985880
_cell_angle_beta 107.134058
_cell_angle_gamma 59.977380
_cell_volume 650.944105
_symmetry_space_group_name_H-M "P -1"
_symmetry_group_IT_number 2
_symmetry_cell_setting 'triclinic'
loop_
_space_group_symop_operation_xyz
x,y,z
-x,-y,-z
loop_
_atom_site_type_symbol
_atom_site_label
_atom_site_fract_x
_atom_site_fract_y
_atom_site_fract_z
Si Si1 0.284481 0.446112 0.830719
Si Si2 0.586167 0.665469 0.722716
Si Si3 0.102376 0.897947 0.568671
Si Si4 0.707275 0.678911 0.582595
Si Si5 0.977653 0.949954 0.744772
Si Si6 0.055102 0.645682 0.116384
Si Si7 0.950254 0.730982 0.365341
Si Si8 0.185864 0.127479 0.066322
O O1 0.603889 0.442402 0.866883
O O2 0.285692 0.339423 0.713359
O O3 0.180314 0.330229 0.830725
O O4 0.026088 0.667976 0.902276
O O5 0.648412 0.607880 0.622435
O O6 0.232517 0.794092 0.748110
O O7 0.731708 0.801669 0.823974
O O8 0.736205 0.465104 0.693555
O O9 0.451649 0.747322 0.533316
O O10 0.043179 0.924773 0.656606
O O11 0.909218 0.812221 0.474372
O O12 0.048968 0.098047 0.610866
O O13 0.000000 0.500000 0.500000
O O14 0.716854 0.881324 0.694563
O O15 0.967306 0.161446 0.845135
O O16 0.000000 0.500000 0.000000
O O17 0.500000 0.000000 0.000000
O O18 0.000000 0.000000 0.000000
#
# Coordination Sequence:
#
# PCOD9112007 Si02
#       8
#     2   2   2   2   2   2   2   2
#     4  11  25  48  69 107 142 181 246 305 360 437
#     4  10  25  42  66  98 141 182 240 299 363 434
#     4  10  21  42  67  97 138 181 239 288 365 440
#     4  11  23  42  68 102 143 188 245 298 368 442
#     4  11  24  42  69  99 141 187 245 300 363 437
#     4  12  27  46  74 102 142 192 244 307 360 431
#     4  10  20  44  66  98 138 183 227 297 366 434
#     4  11  26  46  73 103 145 190 245 302 374 436
#
# _framework density 24.579685000000001
#
# number of rings (size 3 to 8) (size 9 to 14) (size 15 to 20)
#    0.000    1.250    1.250    3.375    7.000    2.000 
#    9.000    3.750    0.000    0.000    0.000    0.000 
#    0.000    0.000    0.000    0.000    0.000    0.000 
#
# Total GULP energy -89443.049602 kJ/mol
# GULP energy per Si atom -5590.190600 kJ/mol
# Density = 2.452374 g / cm^3
# Si number density = 24.579685 Si / 1000 Ang^3
#
#
#
# Elastic Constant Matrix: (Units=GPa)
#
#
# Indices 1 2 3 4 5 6 
#
# 1 95.9237 42.6994 43.4382 -1.6293 26.6260 -7.0179
# 2 42.6994 138.5504 50.5512 8.7950 15.8046 -9.0149
# 3 43.4382 50.5512 166.8735 -4.6268 40.6536 -14.4797
# 4 -1.6293 8.7950 -4.6268 47.2114 -1.0223 13.8174
# 5 26.6260 15.8046 40.6536 -1.0223 44.4014 -0.8238
# 6 -7.0179 -9.0149 -14.4797 13.8174 -0.8238 29.0008
#
#
#
# Elastic Compliance Matrix: (Units=1/GPa)
#
#
# Indices 1 2 3 4 5 6 
#
# 1 0.014212 -0.003199 -0.001022 0.000389 -0.006410 0.001567
# 2 -0.003199 0.009186 -0.001906 -0.002712 0.000376 0.002433
# 3 -0.001022 -0.001906 0.008746 0.000065 -0.006653 0.003307
# 4 0.000389 -0.002712 0.000065 0.025483 0.001022 -0.012829
# 5 -0.006410 0.000376 -0.006653 0.001022 0.032267 -0.004326
# 6 0.001567 0.002433 0.003307 -0.012829 -0.004326 0.043258
#
#
# Mechanical properties :
#
#
# Convention : Reuss Voigt Hill
#
# Bulk Modulus (GPa) = 50.27441 74.96947 62.62194
# Shear Modulus (GPa) = 32.88706 41.76664 37.32685
#
# Velocity S-wave (km/s) = 3.66181 4.12665 3.90116
# Velocity P-wave (km/s) = 6.19487 7.29880 6.76938
#
# Compressibility (1/GPa) = 0.01989084
#
# Stress axis : x y z
#
# Youngs Moduli (GPa) = 70.36220 108.85754 114.34369
#
# Poissons Ratio (x) = 0.34818 0.11688
# Poissons Ratio (y) = 0.22506 0.21793
# Poissons Ratio (z) = 0.07192 0.20747
#
# Static dielectric constant tensor:
#      x y z
#    x 1.988670 0.010410 -0.014950 
#    y 0.010410 1.969630 0.014310 
#    z -0.014950 0.014310 1.984380 
# 
# From -- ./inp_files/99314.got.cif
#   From: 2010.05.17/outbox.cif.g08.bks.cpg/sg2_50_cif.got.tgz:99314.got - 2010.06.03 11:33:40.
