data_PCOD9112044
_publ_section_title
;
Structure prediction by ZEFSAII (Michael W. Deem and Ramdas Pophale) SiO2 
 PCOD9112044
Probable space group: P -1
;
_chemical_formula_sum "Si O2"
_cell_formula_units_Z 14
_cell_length_a 27.373206
_cell_length_b 9.813189
_cell_length_c 8.485537
_cell_angle_alpha 112.274870
_cell_angle_beta 41.350625
_cell_angle_gamma 144.728993
_cell_volume 687.089445
_symmetry_space_group_name_H-M "P -1"
_symmetry_group_IT_number 2
_symmetry_cell_setting 'triclinic'
loop_
_space_group_symop_operation_xyz
x,y,z
-x,-y,-z
loop_
_atom_site_type_symbol
_atom_site_label
_atom_site_fract_x
_atom_site_fract_y
_atom_site_fract_z
Si Si1 0.368117 0.883105 0.811527
Si Si2 0.573540 0.402777 0.769763
Si Si3 0.246388 0.830605 0.787890
Si Si4 0.949567 0.445596 0.277317
Si Si5 0.323505 0.678236 0.329223
Si Si6 0.884875 0.666802 0.616639
Si Si7 0.348050 0.188445 0.412237
O O1 0.334763 0.940831 0.779116
O O2 0.500000 0.000000 0.500000
O O3 0.432690 0.074334 0.892530
O O4 0.216849 0.535621 0.071140
O O5 0.684890 0.476875 0.604731
O O6 0.641736 0.621517 0.563643
O O7 0.504775 0.386857 0.065859
O O8 0.265201 0.721568 0.580191
O O9 0.309871 0.072803 0.631105
O O10 0.073584 0.570760 0.130176
O O11 0.953364 0.624187 0.390651
O O12 0.780240 0.093007 0.521345
O O13 0.000000 0.500000 0.000000
O O14 0.227922 0.492006 0.322647
O O15 0.500000 0.000000 0.000000
O O16 0.000000 0.000000 0.500000
#
# Coordination Sequence:
#
# PCOD9112044 Si02
#       7
#     2   2   2   2   2   2   2
#     4  12  24  42  65 103 139 175 226 293 339 399
#     4  11  22  39  69  95 128 172 239 275 330 407
#     4  11  22  39  71  92 134 184 218 274 357 405
#     4  10  20  44  68  90 134 182 222 272 347 413
#     4  12  19  44  71  92 131 189 225 274 345 409
#     4  12  26  45  70 105 143 178 230 291 342 406
#     4  10  21  41  66  95 124 181 227 279 329 416
#
# _framework density 20.375803000000001
#
# number of rings (size 3 to 8) (size 9 to 14) (size 15 to 20)
#    0.000    0.857    8.571    0.000    0.000    4.571 
#    5.143    1.429    0.000    0.000    0.000    0.000 
#    0.000    0.000    0.000    0.000    0.000    0.000 
#
# Total GULP energy -78141.546561 kJ/mol
# GULP energy per Si atom -5581.539040 kJ/mol
# Density = 2.032943 g / cm^3
# Si number density = 20.375803 Si / 1000 Ang^3
#
#
#
# Elastic Constant Matrix: (Units=GPa)
#
#
# Indices 1 2 3 4 5 6 
#
# 1 149.3519 22.0931 29.4097 -14.9162 -13.2384 -14.0088
# 2 22.0931 84.8349 29.8866 -14.9537 -8.4342 -16.6773
# 3 29.4097 29.8866 91.2631 3.5719 -15.7038 -15.7204
# 4 -14.9162 -14.9537 3.5719 18.8777 -6.7490 4.4541
# 5 -13.2384 -8.4342 -15.7038 -6.7490 37.3560 -2.7488
# 6 -14.0088 -16.6773 -15.7204 4.4541 -2.7488 38.8606
#
#
#
# Elastic Compliance Matrix: (Units=1/GPa)
#
#
# Indices 1 2 3 4 5 6 
#
# 1 0.008421 0.000939 -0.002395 0.008841 0.003914 0.001733
# 2 0.000939 0.017654 -0.005031 0.016624 0.005528 0.004365
# 3 -0.002395 -0.005031 0.014971 -0.008615 0.003064 0.004238
# 4 0.008841 0.016624 -0.008615 0.081443 0.017888 -0.001233
# 5 0.003914 0.005528 0.003064 0.017888 0.034322 0.005401
# 6 0.001733 0.004365 0.004238 -0.001233 0.005401 0.030469
#
#
# Mechanical properties :
#
#
# Convention : Reuss Voigt Hill
#
# Bulk Modulus (GPa) = 35.62392 54.24765 44.93579
# Shear Modulus (GPa) = 23.85363 35.28956 29.57160
#
# Velocity S-wave (km/s) = 3.42524 4.16617 3.81374
# Velocity P-wave (km/s) = 5.75885 7.05861 6.44160
#
# Compressibility (1/GPa) = 0.02807103
#
# Stress axis : x y z
#
# Youngs Moduli (GPa) = 118.75300 56.64571 66.79467
#
# Poissons Ratio (x) = -0.05319 0.15998
# Poissons Ratio (y) = -0.11152 0.33606
# Poissons Ratio (z) = 0.28443 0.28500
#
# Static dielectric constant tensor:
#      x y z
#    x 1.728920 -0.040870 -0.165580 
#    y -0.040870 1.711750 -0.157050 
#    z -0.165580 -0.157050 0.876170 
# 
# From -- ./inp_files/201510.got.cif
#   From: 2010.05.17/outbox.cif.g08.bks.cpg/sg2_101_cif.got.tgz:201510.got - 2010.06.03 11:33:40.
