data_PCOD9112460
_publ_section_title
;
Structure prediction by ZEFSAII (Michael W. Deem and Ramdas Pophale) SiO2 
 PCOD9112460
Probable space group: P 2
;
_chemical_formula_sum "Si O2"
_cell_formula_units_Z 12
_cell_length_a 7.906605
_cell_length_b 5.308957
_cell_length_c 13.464801
_cell_angle_alpha 90.000000
_cell_angle_beta 125.998916
_cell_angle_gamma 90.000000
_cell_volume 457.259570
_symmetry_space_group_name_H-M "P 2"
_symmetry_group_IT_number 3
_symmetry_cell_setting 'monoclinic'
loop_
_space_group_symop_operation_xyz
x,y,z
-x,y,-z
loop_
_atom_site_type_symbol
_atom_site_label
_atom_site_fract_x
_atom_site_fract_y
_atom_site_fract_z
Si Si1 0.517271 0.823340 0.736128
Si Si2 0.011381 0.283524 0.382091
Si Si3 0.266500 0.784039 0.463702
Si Si4 0.873951 0.126450 0.062188
Si Si5 0.033502 0.629721 0.131720
Si Si6 0.467269 0.321545 0.827509
O O1 0.318053 0.779030 0.599187
O O2 0.738084 0.735907 0.767555
O O3 0.495992 0.618784 0.817217
O O4 0.531416 0.119402 0.763426
O O5 0.129396 0.540534 0.394713
O O6 0.000000 0.280122 0.500000
O O7 0.778926 0.272253 0.255887
O O8 0.146453 0.040255 0.399330
O O9 0.500000 0.779930 0.500000
O O10 0.642560 0.235164 0.966357
O O11 0.000000 0.089003 0.000000
O O12 0.000296 0.349367 0.157278
O O13 0.875930 0.849731 0.109278
O O14 0.000000 0.598062 0.000000
#
# Coordination Sequence:
#
# PCOD9112460 Si02
#       6
#     2   2   2   2   2   2
#     4  12  19  32  54  83 113 151 186 236 289 337
#     4  12  23  40  62  89 115 152 200 257 295 335
#     4  12  26  43  59  83 122 164 200 235 292 363
#     4  10  16  28  43  78 119 139 167 228 301 338
#     4  10  16  26  46  75 118 135 177 229 295 325
#     4  12  20  30  56  85 117 141 184 240 302 330
#
# _framework density 26.243299
#
# number of rings (size 3 to 8) (size 9 to 14) (size 15 to 20)
#    0.000    0.667   10.000    2.000    0.000    0.000 
#    0.000    0.000    0.000    0.000    0.000    7.000 
#    0.000    0.000    0.000    0.000    0.000    0.000 
#
# Total GULP energy -67147.950005 kJ/mol
# GULP energy per Si atom -5595.662500 kJ/mol
# Density = 2.618357 g / cm^3
# Si number density = 26.243299 Si / 1000 Ang^3
#
#
#
# Elastic Constant Matrix: (Units=GPa)
#
#
# Indices 1 2 3 4 5 6 
#
# 1 107.6889 32.1001 15.6389 0.0000 29.2172 0.0000
# 2 32.1001 179.5663 21.0941 0.0000 23.1038 0.0000
# 3 15.6389 21.0941 104.0968 0.0000 44.4655 0.0000
# 4 0.0000 0.0000 0.0000 46.1812 0.0000 18.0337
# 5 29.2172 23.1038 44.4655 0.0000 51.1563 0.0000
# 6 0.0000 0.0000 0.0000 18.0337 0.0000 28.1203
#
#
#
# Elastic Compliance Matrix: (Units=1/GPa)
#
#
# Indices 1 2 3 4 5 6 
#
# 1 0.011442 -0.001289 0.001726 0.000000 -0.007452 0.000000
# 2 -0.001289 0.006058 -0.000286 0.000000 -0.001751 0.000000
# 3 0.001726 -0.000286 0.015541 0.000000 -0.014365 0.000000
# 4 0.000000 0.000000 0.000000 0.028888 0.000000 -0.018526
# 5 -0.007452 -0.001751 -0.014365 0.000000 0.037081 0.000000
# 6 0.000000 0.000000 0.000000 -0.018526 0.000000 0.047442
#
#
# Mechanical properties :
#
#
# Convention : Reuss Voigt Hill
#
# Bulk Modulus (GPa) = 29.99184 58.77979 44.38581
# Shear Modulus (GPa) = 31.79317 46.59281 39.19299
#
# Velocity S-wave (km/s) = 3.48440 4.21814 3.86871
# Velocity P-wave (km/s) = 5.25750 6.79487 6.07501
#
# Compressibility (1/GPa) = 0.03334240
#
# Stress axis : x y z
#
# Youngs Moduli (GPa) = 87.40010 165.06128 64.34490
#
# Poissons Ratio (x) = 0.21280 -0.11104
# Poissons Ratio (y) = 0.11268 0.01840
# Poissons Ratio (z) = -0.15082 0.04719
#
# Static dielectric constant tensor:
#      x y z
#    x 2.192510 0.000000 -0.127980 
#    y 0.000000 2.010770 0.000000 
#    z -0.127980 0.000000 2.078830 
# 
# From -- ./inp_files/8071.got.cif
#   From: 2010.05.17/outbox.cif.g08.bks.cpg/sg3_5_cif.got.tgz:8071.got - 2010.06.03 18:33:08.
