data_PCOD9112824
_publ_section_title
;
Structure prediction by ZEFSAII (Michael W. Deem and Ramdas Pophale) SiO2 
 PCOD9112824
Probable space group: P 2
;
_chemical_formula_sum "Si O2"
_cell_formula_units_Z 13
_cell_length_a 12.475220
_cell_length_b 9.936409
_cell_length_c 5.953277
_cell_angle_alpha 90.000000
_cell_angle_beta 127.421621
_cell_angle_gamma 90.000000
_cell_volume 586.078302
_symmetry_space_group_name_H-M "P 2"
_symmetry_group_IT_number 3
_symmetry_cell_setting 'monoclinic'
loop_
_space_group_symop_operation_xyz
x,y,z
-x,y,-z
loop_
_atom_site_type_symbol
_atom_site_label
_atom_site_fract_x
_atom_site_fract_y
_atom_site_fract_z
Si Si1 0.704995 0.875000 0.618525
Si Si2 0.696139 0.126809 0.904142
Si Si3 0.359811 0.620226 0.191390
Si Si4 0.108666 0.014603 0.471411
Si Si5 0.500000 0.789146 0.000000
Si Si6 0.356127 0.375875 0.910038
Si Si7 0.133458 0.282888 0.261466
O O1 0.715713 0.729351 0.749561
O O2 0.657691 0.993315 0.722477
O O3 0.839557 0.921052 0.661752
O O4 0.589236 0.869674 0.285940
O O5 0.781565 0.214658 0.832222
O O6 0.774926 0.062508 0.213461
O O7 0.604879 0.238155 0.908906
O O8 0.500000 0.589499 0.500000
O O9 0.397990 0.700913 0.015904
O O10 0.300069 0.481388 0.023783
O O11 0.065982 0.157063 0.310543
O O12 0.000000 0.951683 0.500000
O O13 0.242557 0.351260 0.571677
O O14 0.500000 0.427382 0.000000
O O15 0.000000 0.360678 0.000000
#
# Coordination Sequence:
#
# PCOD9112824 Si02
#       7
#     2   2   2   2   1   2   2
#     4  10  22  39  63 101 125 177 223 278 339 408
#     4  10  22  41  62 101 135 168 221 284 337 399
#     4  10  22  42  65  90 136 184 225 267 350 414
#     4  10  19  38  64  96 132 169 226 274 339 407
#     4  10  20  42  62  92 132 176 228 260 348 420
#     4  11  25  42  64 106 135 179 229 281 333 407
#     4  10  21  40  66  99 137 183 220 270 349 409
#
# _framework density 22.181336999999999
#
# number of rings (size 3 to 8) (size 9 to 14) (size 15 to 20)
#    0.000    1.846    2.308    0.923    2.154    0.000 
#   41.538    0.000    0.000    0.000   40.000    1.077 
#    0.000    0.000    0.000    0.000    0.000    0.000 
#
# Total GULP energy -72496.759006 kJ/mol
# GULP energy per Si atom -5576.673770 kJ/mol
# Density = 2.213085 g / cm^3
# Si number density = 22.181337 Si / 1000 Ang^3
#
#
#
# Elastic Constant Matrix: (Units=GPa)
#
#
# Indices 1 2 3 4 5 6 
#
# 1 81.0116 29.0914 14.8000 0.0000 -10.0201 0.0000
# 2 29.0914 90.3961 58.9461 0.0000 -0.1014 0.0000
# 3 14.8000 58.9461 121.4941 0.0000 -9.6047 0.0000
# 4 0.0000 0.0000 0.0000 40.1359 0.0000 -42.9938
# 5 -10.0201 -0.1014 -9.6047 0.0000 27.6493 0.0000
# 6 0.0000 0.0000 0.0000 -42.9938 0.0000 58.2847
#
#
#
# Elastic Compliance Matrix: (Units=1/GPa)
#
#
# Indices 1 2 3 4 5 6 
#
# 1 0.014856 -0.005699 0.001418 0.000000 0.005855 0.000000
# 2 -0.005699 0.018573 -0.008714 0.000000 -0.005024 0.000000
# 3 0.001418 -0.008714 0.012672 0.000000 0.004884 0.000000
# 4 0.000000 0.000000 0.000000 0.118744 0.000000 0.087592
# 5 0.005855 -0.005024 0.004884 0.000000 0.039967 0.000000
# 6 0.000000 0.000000 0.000000 0.087592 0.000000 0.081769
#
#
# Mechanical properties :
#
#
# Convention : Reuss Voigt Hill
#
# Bulk Modulus (GPa) = 49.72432 55.39741 52.56087
# Shear Modulus (GPa) = 15.66044 37.88495 26.77269
#
# Velocity S-wave (km/s) = 2.65998 4.13724 3.47795
# Velocity P-wave (km/s) = 5.64800 6.91746 6.31471
#
# Compressibility (1/GPa) = 0.02011088
#
# Stress axis : x y z
#
# Youngs Moduli (GPa) = 67.31466 53.84055 78.91319
#
# Poissons Ratio (x) = 0.30685 -0.11193
# Poissons Ratio (y) = 0.38364 0.68767
# Poissons Ratio (z) = -0.09547 0.46918
#
# Static dielectric constant tensor:
#      x y z
#    x 1.922570 0.000000 0.012860 
#    y 0.000000 1.851930 0.000000 
#    z 0.012860 0.000000 1.920670 
# 
# From -- ./inp_files/3232.got.cif
#   From: 2010.05.17/outbox.cif.g08.bks.cpg/sg3_2_cif.got.tgz:3232.got - 2010.06.03 18:33:08.
