data_PCOD9112138
_publ_section_title
;
Structure prediction by ZEFSAII (Michael W. Deem and Ramdas Pophale) SiO2 
 PCOD9112138
Probable space group: P -1
;
_chemical_formula_sum "Si O2"
_cell_formula_units_Z 14
_cell_length_a 15.799949
_cell_length_b 24.285977
_cell_length_c 6.428567
_cell_angle_alpha 80.052707
_cell_angle_beta 106.012226
_cell_angle_gamma 164.409333
_cell_volume 594.571254
_symmetry_space_group_name_H-M "P -1"
_symmetry_group_IT_number 2
_symmetry_cell_setting 'triclinic'
loop_
_space_group_symop_operation_xyz
x,y,z
-x,-y,-z
loop_
_atom_site_type_symbol
_atom_site_label
_atom_site_fract_x
_atom_site_fract_y
_atom_site_fract_z
Si Si1 0.142646 0.178910 0.003845
Si Si2 0.284079 0.051484 0.517048
Si Si3 0.274955 0.889777 0.098892
Si Si4 0.169805 0.470436 0.764606
Si Si5 0.827820 0.702028 0.737999
Si Si6 0.738821 0.276521 0.321167
Si Si7 0.431511 0.722169 0.051492
O O1 0.475328 0.344740 0.146797
O O2 0.209992 0.278282 0.108173
O O3 0.031492 0.121215 0.728012
O O4 0.795183 0.940912 0.028806
O O5 0.560359 0.195848 0.452203
O O6 0.453257 0.200822 0.684493
O O7 0.139597 0.916301 0.665860
O O8 0.145963 0.766148 0.260850
O O9 0.484318 0.071230 0.207988
O O10 0.926149 0.701809 0.888220
O O11 0.500000 0.000000 0.000000
O O12 0.206895 0.531544 0.955729
O O13 0.077884 0.454960 0.523150
O O14 0.500000 0.500000 0.500000
O O15 0.747516 0.330579 0.119641
#
# Coordination Sequence:
#
# PCOD9112138 Si02
#       7
#     2   2   2   2   2   2   2
#     4  10  23  44  68 103 135 175 225 276 338 398
#     4  10  20  44  71  88 135 184 218 272 336 399
#     4  12  26  46  65 104 138 173 228 281 335 392
#     4  12  26  41  71 104 135 176 227 281 334 397
#     4  11  23  40  69  99 136 178 222 274 338 403
#     4  11  24  47  69  94 138 182 222 277 341 399
#     4  10  23  48  70  98 135 181 223 275 338 403
#
# _framework density 23.546379000000002
#
# number of rings (size 3 to 8) (size 9 to 14) (size 15 to 20)
#    0.000    1.143    4.286    3.000    4.000    2.286 
#    5.143    0.000    0.000    0.000    0.000    0.000 
#    0.000    0.000    0.000    0.000    0.000    0.000 
#
# Total GULP energy -78438.915286 kJ/mol
# GULP energy per Si atom -5602.779663 kJ/mol
# Density = 2.349279 g / cm^3
# Si number density = 23.546379 Si / 1000 Ang^3
#
#
#
# Elastic Constant Matrix: (Units=GPa)
#
#
# Indices 1 2 3 4 5 6 
#
# 1 123.4521 33.8683 57.1191 10.1050 7.1779 10.0520
# 2 33.8683 71.3935 28.4504 -7.1932 10.9189 -6.3497
# 3 57.1191 28.4504 146.7371 12.9854 2.1065 18.0329
# 4 10.1050 -7.1932 12.9854 39.0925 1.8855 3.7770
# 5 7.1779 10.9189 2.1065 1.8855 46.7658 21.1680
# 6 10.0520 -6.3497 18.0329 3.7770 21.1680 33.4541
#
#
#
# Elastic Compliance Matrix: (Units=1/GPa)
#
#
# Indices 1 2 3 4 5 6 
#
# 1 0.011136 -0.004886 -0.002783 -0.002599 0.001099 -0.003175
# 2 -0.004886 0.021514 -0.004349 0.005830 -0.010634 0.013966
# 3 -0.002783 -0.004349 0.009907 -0.002827 0.004734 -0.008006
# 4 -0.002599 0.005830 -0.002827 0.028204 -0.002907 0.002067
# 5 0.001099 -0.010634 0.004734 -0.002907 0.035974 -0.027334
# 6 -0.003175 0.013966 -0.008006 0.002067 -0.027334 0.054875
#
#
# Mechanical properties :
#
#
# Convention : Reuss Voigt Hill
#
# Bulk Modulus (GPa) = 53.99215 64.49536 59.24376
# Shear Modulus (GPa) = 26.06624 38.67214 32.36919
#
# Velocity S-wave (km/s) = 3.33080 4.05703 3.71172
# Velocity P-wave (km/s) = 6.14591 7.02824 6.60183
#
# Compressibility (1/GPa) = 0.01852121
#
# Stress axis : x y z
#
# Youngs Moduli (GPa) = 89.80055 46.48227 100.93436
#
# Poissons Ratio (x) = 0.22712 0.28089
# Poissons Ratio (y) = 0.43877 0.43894
# Poissons Ratio (z) = 0.24991 0.20214
#
# Static dielectric constant tensor:
#      x y z
#    x 1.862230 -0.012060 0.005790 
#    y -0.012060 1.929550 0.005300 
#    z 0.005790 0.005300 1.873540 
# 
# From -- ./inp_files/65694.got.cif
#   From: 2010.05.17/outbox.cif.g08.bks.cpg/sg2_33_cif.got.tgz:65694.got - 2010.06.03 11:33:40.
