data_PCOD9112607
_publ_section_title
;
Structure prediction by ZEFSAII (Michael W. Deem and Ramdas Pophale) SiO2 
 PCOD9112607
Probable space group: P 2
;
_chemical_formula_sum "Si O2"
_cell_formula_units_Z 13
_cell_length_a 10.257050
_cell_length_b 8.914885
_cell_length_c 13.975975
_cell_angle_alpha 90.000000
_cell_angle_beta 30.467060
_cell_angle_gamma 90.000000
_cell_volume 647.985152
_symmetry_space_group_name_H-M "P 2"
_symmetry_group_IT_number 3
_symmetry_cell_setting 'monoclinic'
loop_
_space_group_symop_operation_xyz
x,y,z
-x,y,-z
loop_
_atom_site_type_symbol
_atom_site_label
_atom_site_fract_x
_atom_site_fract_y
_atom_site_fract_z
Si Si1 0.000000 0.027400 0.500000
Si Si2 0.740355 0.226831 0.914063
Si Si3 0.538796 0.239659 0.714623
Si Si4 0.943097 0.449769 0.423947
Si Si5 0.596259 0.947085 0.282112
Si Si6 0.035613 0.796687 0.634446
Si Si7 0.926881 0.924529 0.885916
O O1 0.228696 0.132272 0.393143
O O2 0.909771 0.913244 0.639601
O O3 0.884034 0.351304 0.758552
O O4 0.907320 0.083026 0.841168
O O5 0.500000 0.177080 0.000000
O O6 0.629996 0.281382 0.086277
O O7 0.657067 0.385531 0.592045
O O8 0.414615 0.128672 0.715898
O O9 0.962363 0.626453 0.399497
O O10 0.000000 0.419214 0.500000
O O11 0.324732 0.864185 0.464594
O O12 0.801359 0.906833 0.232999
O O13 0.714191 0.913093 0.102698
O O14 0.895197 0.802803 0.824386
#
# Coordination Sequence:
#
# PCOD9112607 Si02
#       7
#     1   2   2   2   2   2   2
#     4  10  18  36  60  82 114 152 196 246 278 342
#     4  11  20  36  62  87 115 151 189 240 293 338
#     4  10  19  36  61  83 114 150 194 242 289 330
#     4  12  23  37  53  86 127 153 188 231 288 358
#     4   9  21  40  63  85 112 151 198 251 281 332
#     4  11  22  36  57  85 120 158 190 233 292 344
#     4  10  21  40  63  88 112 146 205 243 286 339
#
# _framework density 20.062189
#
# number of rings (size 3 to 8) (size 9 to 14) (size 15 to 20)
#    0.000    1.538    3.077    3.231    0.000    1.231 
#    0.000    3.077    0.000    3.692    0.000    0.000 
#    0.000    0.000    0.000    0.000    0.000    0.000 
#
# Total GULP energy -72520.434620 kJ/mol
# GULP energy per Si atom -5578.494971 kJ/mol
# Density = 2.001653 g / cm^3
# Si number density = 20.062189 Si / 1000 Ang^3
#
#
#
# Elastic Constant Matrix: (Units=GPa)
#
#
# Indices 1 2 3 4 5 6 
#
# 1 36.7694 9.6313 2.6536 0.0000 15.4143 0.0000
# 2 9.6313 95.9598 38.2129 0.0000 24.0162 0.0000
# 3 2.6536 38.2129 56.1747 0.0000 18.0528 0.0000
# 4 0.0000 0.0000 0.0000 24.8481 0.0000 6.4221
# 5 15.4143 24.0162 18.0528 0.0000 27.3493 0.0000
# 6 0.0000 0.0000 0.0000 6.4221 0.0000 11.7610
#
#
#
# Elastic Compliance Matrix: (Units=1/GPa)
#
#
# Indices 1 2 3 4 5 6 
#
# 1 0.037309 0.000061 0.006309 0.000000 -0.025246 0.000000
# 2 0.000061 0.015730 -0.007937 0.000000 -0.008609 0.000000
# 3 0.006309 -0.007937 0.027677 0.000000 -0.014855 0.000000
# 4 0.000000 0.000000 0.000000 0.046857 0.000000 -0.025587
# 5 -0.025246 -0.008609 -0.014855 0.000000 0.068158 0.000000
# 6 0.000000 0.000000 0.000000 -0.025587 0.000000 0.098999
#
#
# Mechanical properties :
#
#
# Convention : Reuss Voigt Hill
#
# Bulk Modulus (GPa) = 12.88942 32.21104 22.55023
# Shear Modulus (GPa) = 15.44532 22.01875 18.73203
#
# Velocity S-wave (km/s) = 2.77767 3.31649 3.05896
# Velocity P-wave (km/s) = 4.08973 5.54580 4.87246
#
# Compressibility (1/GPa) = 0.07758301
#
# Stress axis : x y z
#
# Youngs Moduli (GPa) = 26.80341 63.57318 36.13170
#
# Poissons Ratio (x) = -0.00391 -0.22796
# Poissons Ratio (y) = -0.00165 0.28676
# Poissons Ratio (z) = -0.16911 0.50456
#
# Static dielectric constant tensor:
#      x y z
#    x 1.738810 0.000000 -0.000750 
#    y 0.000000 1.683060 0.000000 
#    z -0.000750 0.000000 1.768020 
# 
# From -- ./inp_files/10651.got.cif
#   From: 2010.05.17/outbox.cif.g08.bks.cpg/sg3_6_cif.got.tgz:10651.got - 2010.06.03 18:33:08.
