data_PCOD9112882
_publ_section_title
;
Structure prediction by ZEFSAII (Michael W. Deem and Ramdas Pophale) SiO2 
 PCOD9112882
Probable space group: P 2
;
_chemical_formula_sum "Si O2"
_cell_formula_units_Z 13
_cell_length_a 12.070346
_cell_length_b 9.373007
_cell_length_c 9.556258
_cell_angle_alpha 90.000000
_cell_angle_beta 144.716714
_cell_angle_gamma 90.000000
_cell_volume 624.494171
_symmetry_space_group_name_H-M "P 2"
_symmetry_group_IT_number 3
_symmetry_cell_setting 'monoclinic'
loop_
_space_group_symop_operation_xyz
x,y,z
-x,y,-z
loop_
_atom_site_type_symbol
_atom_site_label
_atom_site_fract_x
_atom_site_fract_y
_atom_site_fract_z
Si Si1 0.025213 0.236320 0.191194
Si Si2 0.695836 0.421233 0.375041
Si Si3 0.954228 0.953462 0.608701
Si Si4 0.762637 0.702172 0.009654
Si Si5 0.754980 0.405877 0.126200
Si Si6 0.685576 0.748092 0.451629
Si Si7 0.000000 0.708788 0.000000
O O1 0.866251 0.318860 0.121979
O O2 0.213216 0.331161 0.408424
O O3 0.048358 0.082877 0.286462
O O4 0.000000 0.223315 0.000000
O O5 0.789749 0.372309 0.325007
O O6 0.728240 0.588667 0.438704
O O7 0.471662 0.390343 0.133255
O O8 0.000000 0.004158 0.500000
O O9 0.754788 0.865299 0.411500
O O10 0.118854 0.840216 0.821954
O O11 0.541580 0.743662 0.753814
O O12 0.783000 0.576455 0.141975
O O13 0.869065 0.636737 0.982784
O O14 0.828101 0.779907 0.730274
#
# Coordination Sequence:
#
# PCOD9112882 Si02
#       7
#     2   2   2   2   2   2   1
#     4  12  27  42  62  91 133 175 214 258 316 379
#     4  10  22  42  68  96 126 165 215 267 317 373
#     4  11  24  41  65  94 128 171 216 262 319 383
#     4  10  22  39  67  98 127 162 210 267 324 380
#     4  10  22  42  68  96 126 165 215 267 317 373
#     4  10  22  39  67  98 127 162 210 267 324 380
#     4  10  20  34  56  94 134 164 196 246 318 382
#
# _framework density 20.816846999999999
#
# number of rings (size 3 to 8) (size 9 to 14) (size 15 to 20)
#    0.000    1.538    0.000    4.615    8.615    3.692 
#    0.000    0.000    0.000    0.000    0.000    0.000 
#    0.000    0.000    0.000    0.000    0.000    0.000 
#
# Total GULP energy -72516.825623 kJ/mol
# GULP energy per Si atom -5578.217356 kJ/mol
# Density = 2.076947 g / cm^3
# Si number density = 20.816847 Si / 1000 Ang^3
#
#
#
# Elastic Constant Matrix: (Units=GPa)
#
#
# Indices 1 2 3 4 5 6 
#
# 1 105.6113 43.3850 60.6105 0.0000 -1.3445 0.0000
# 2 43.3850 115.6476 33.9871 0.0000 -4.1246 0.0000
# 3 60.6105 33.9871 79.3651 0.0000 -3.7105 0.0000
# 4 0.0000 0.0000 0.0000 8.3290 0.0000 -22.0634
# 5 -1.3445 -4.1246 -3.7105 0.0000 49.3433 0.0000
# 6 0.0000 0.0000 0.0000 -22.0634 0.0000 -30.5977
#
#
#
# Elastic Compliance Matrix: (Units=1/GPa)
#
#
# Indices 1 2 3 4 5 6 
#
# 1 0.017780 -0.003083 -0.012291 0.000000 -0.000697 0.000000
# 2 -0.003083 0.010439 -0.002087 0.000000 0.000632 0.000000
# 3 -0.012291 -0.002087 0.022937 0.000000 0.001215 0.000000
# 4 0.000000 0.000000 0.000000 0.041257 0.000000 -0.029749
# 5 -0.000697 0.000632 0.001215 0.000000 0.020391 0.000000
# 6 0.000000 0.000000 0.000000 -0.029749 0.000000 -0.011230
#
#
# Mechanical properties :
#
#
# Convention : Reuss Voigt Hill
#
# Bulk Modulus (GPa) = 61.59371 64.06548 62.82959
# Shear Modulus (GPa) = 35.23456 16.25766 25.74611
#
# Velocity S-wave (km/s) = 4.11858 2.79764 3.52062
# Velocity P-wave (km/s) = 7.22977 6.42482 6.83915
#
# Compressibility (1/GPa) = 0.01623542
#
# Stress axis : x y z
#
# Youngs Moduli (GPa) = 56.24293 95.79240 43.59808
#
# Poissons Ratio (x) = 0.29532 0.53586
# Poissons Ratio (y) = 0.17339 0.09097
# Poissons Ratio (z) = 0.69127 0.19988
#
# Static dielectric constant tensor:
#      x y z
#    x 1.791280 0.000000 -0.003100 
#    y 0.000000 1.731460 0.000000 
#    z -0.003100 0.000000 1.773790 
# 
# From -- ./inp_files/7562.got.cif
#   From: 2010.05.17/outbox.cif.g08.bks.cpg/sg3_4_cif.got.tgz:7562.got - 2010.06.03 18:33:08.
