data_PCOD9113602
_publ_section_title
;
Structure prediction by ZEFSAII (Michael W. Deem and Ramdas Pophale) SiO2 
 PCOD9113602
Probable space group: P 2
;
_chemical_formula_sum "Si O2"
_cell_formula_units_Z 16
_cell_length_a 18.715433
_cell_length_b 7.957759
_cell_length_c 5.389460
_cell_angle_alpha 90.000000
_cell_angle_beta 54.313393
_cell_angle_gamma 90.000000
_cell_volume 651.942878
_symmetry_space_group_name_H-M "P 2"
_symmetry_group_IT_number 3
_symmetry_cell_setting 'monoclinic'
loop_
_space_group_symop_operation_xyz
x,y,z
-x,y,-z
loop_
_atom_site_type_symbol
_atom_site_label
_atom_site_fract_x
_atom_site_fract_y
_atom_site_fract_z
Si Si1 0.107261 0.135000 0.243687
Si Si2 0.661464 0.587590 0.509733
Si Si3 0.056079 0.447865 0.127529
Si Si4 0.903819 0.780209 0.794669
Si Si5 0.724759 0.087316 0.795375
Si Si6 0.404345 0.278358 0.621551
Si Si7 0.408719 0.955725 0.327163
Si Si8 0.745897 0.704588 0.842737
O O1 0.124903 0.301648 0.050012
O O2 0.171890 0.128282 0.352352
O O3 0.000000 0.141355 0.500000
O O4 0.128272 0.962733 0.054911
O O5 0.622576 0.402289 0.548554
O O6 0.711584 0.618041 0.665463
O O7 0.600386 0.755549 0.619275
O O8 0.717435 0.609408 0.146979
O O9 0.096257 0.631755 0.009122
O O10 0.000000 0.467133 0.500000
O O11 0.000000 0.401308 0.000000
O O12 0.849605 0.720137 0.665430
O O13 0.000000 0.810851 0.500000
O O14 0.678048 0.036943 0.631108
O O15 0.713942 0.898249 0.934508
O O16 0.671100 0.245257 0.019363
O O17 0.500000 0.348795 0.500000
O O18 0.418860 0.083789 0.528767
O O19 0.500000 0.980726 0.000000
#
# Coordination Sequence:
#
# PCOD9113602 Si02
#       8
#     2   2   2   2   2   2   2   2
#     4   9  20  42  67  99 135 180 230 288 341 412
#     4  11  27  44  70 104 140 182 235 290 358 425
#     4  10  22  40  61  93 129 172 224 275 338 397
#     4   9  20  40  67  97 136 182 233 286 343 407
#     4  10  22  45  70  99 142 185 235 289 359 419
#     4  12  26  43  71 104 138 186 238 291 362 431
#     4  11  24  46  73  98 143 189 233 298 356 426
#     4  10  23  46  69 101 141 187 235 290 355 422
#
# _framework density 24.542027999999998
#
# number of rings (size 3 to 8) (size 9 to 14) (size 15 to 20)
#    0.000    1.750    2.500    0.000    3.500    5.500 
#    4.500    3.750    0.000    0.000    0.000    0.000 
#    0.000    0.000    0.000    0.000    0.000    0.000 
#
# Total GULP energy -89102.335854 kJ/mol
# GULP energy per Si atom -5568.895991 kJ/mol
# Density = 2.448617 g / cm^3
# Si number density = 24.542028 Si / 1000 Ang^3
#
#
#
# Elastic Constant Matrix: (Units=GPa)
#
#
# Indices 1 2 3 4 5 6 
#
# 1 143.2770 38.0233 46.1558 0.0000 -5.8902 0.0000
# 2 38.0233 129.0575 10.9889 0.0000 5.2522 0.0000
# 3 46.1558 10.9889 64.2748 0.0000 6.7033 0.0000
# 4 0.0000 0.0000 0.0000 15.7958 0.0000 17.9342
# 5 -5.8902 5.2522 6.7033 0.0000 25.0176 0.0000
# 6 0.0000 0.0000 0.0000 17.9342 0.0000 29.4201
#
#
#
# Elastic Compliance Matrix: (Units=1/GPa)
#
#
# Indices 1 2 3 4 5 6 
#
# 1 0.010272 -0.002594 -0.007450 0.000000 0.004959 0.000000
# 2 -0.002594 0.008561 0.000669 0.000000 -0.002587 0.000000
# 3 -0.007450 0.000669 0.021595 0.000000 -0.007681 0.000000
# 4 0.000000 0.000000 0.000000 0.205619 0.000000 -0.125343
# 5 0.004959 -0.002587 -0.007681 0.000000 0.043740 0.000000
# 6 0.000000 0.000000 0.000000 -0.125343 0.000000 0.110398
#
#
# Mechanical properties :
#
#
# Convention : Reuss Voigt Hill
#
# Bulk Modulus (GPa) = 46.13060 58.54948 52.34004
# Shear Modulus (GPa) = 11.73267 30.14280 20.93774
#
# Velocity S-wave (km/s) = 2.18884 3.50839 2.92402
# Velocity P-wave (km/s) = 5.02249 6.34983 5.72476
#
# Compressibility (1/GPa) = 0.02167758
#
# Stress axis : x y z
#
# Youngs Moduli (GPa) = 97.35595 116.80869 46.30797
#
# Poissons Ratio (x) = 0.30297 0.34498
# Poissons Ratio (y) = 0.25252 -0.03097
# Poissons Ratio (z) = 0.72528 -0.07811
#
# Static dielectric constant tensor:
#      x y z
#    x 2.061500 0.000000 -0.114340 
#    y 0.000000 2.058540 0.000000 
#    z -0.114340 0.000000 2.300970 
# 
# From -- ./inp_files/3708.got.cif
#   From: 2010.05.17/outbox.cif.g08.bks.cpg/sg3_2_cif.got.tgz:3708.got - 2010.06.03 18:33:08.
