data_PCOD9113613
_publ_section_title
;
Structure prediction by ZEFSAII (Michael W. Deem and Ramdas Pophale) SiO2 
 PCOD9113613
Probable space group: P 2
;
_chemical_formula_sum "Si O2"
_cell_formula_units_Z 16
_cell_length_a 7.672571
_cell_length_b 17.910495
_cell_length_c 8.744131
_cell_angle_alpha 90.000000
_cell_angle_beta 145.661067
_cell_angle_gamma 90.000000
_cell_volume 677.815431
_symmetry_space_group_name_H-M "P 2"
_symmetry_group_IT_number 3
_symmetry_cell_setting 'monoclinic'
loop_
_space_group_symop_operation_xyz
x,y,z
-x,y,-z
loop_
_atom_site_type_symbol
_atom_site_label
_atom_site_fract_x
_atom_site_fract_y
_atom_site_fract_z
Si Si1 0.603713 0.492950 0.397256
Si Si2 0.310963 0.174833 0.620214
Si Si3 0.059763 0.089106 0.869776
Si Si4 0.909816 0.563960 0.108479
Si Si5 0.361893 0.341109 0.732903
Si Si6 0.152621 0.942678 0.774221
Si Si7 0.883104 0.706668 0.576996
Si Si8 0.260785 0.800239 0.059441
O O1 0.500000 0.500127 0.500000
O O2 0.968780 0.505523 0.679844
O O3 0.519522 0.412007 0.275275
O O4 0.456331 0.556352 0.179255
O O5 0.416346 0.260570 0.697200
O O6 0.000000 0.167982 0.500000
O O7 0.182339 0.150334 0.363160
O O8 0.593949 0.123647 0.883939
O O9 0.987168 0.016585 0.713788
O O10 0.000000 0.067387 0.000000
O O11 0.092958 0.639185 0.284547
O O12 0.000000 0.545174 0.000000
O O13 0.000000 0.349941 0.500000
O O14 0.500000 0.338836 0.000000
O O15 0.000000 0.916312 0.500000
O O16 0.500000 0.968128 0.000000
O O17 0.210332 0.883820 0.955804
O O18 0.579405 0.760446 0.347770
O O19 0.000000 0.677440 0.500000
O O20 0.163603 0.757160 0.837520
O O21 0.000000 0.788932 0.000000
#
# Coordination Sequence:
#
# PCOD9113613 Si02
#       8
#     2   2   2   2   2   2   2   2
#     4  10  22  40  63  91 126 166 211 265 329 394
#     4  11  23  43  66  94 134 182 226 273 336 401
#     4  12  25  42  67 101 135 174 226 282 332 392
#     4  10  22  41  64  92 127 168 212 263 327 397
#     4  11  23  40  64  94 131 173 222 276 331 397
#     4  12  25  44  70  97 133 177 221 273 333 399
#     4  12  25  43  68  98 130 169 217 271 328 395
#     4  12  26  45  68  97 132 171 216 271 330 395
#
# _framework density 23.605246999999999
#
# number of rings (size 3 to 8) (size 9 to 14) (size 15 to 20)
#    0.000    0.750    0.000    9.000    0.000    4.500 
#    0.000    5.000    0.000    0.000    0.000    0.000 
#    0.000    0.000    0.000    0.000    0.000    0.000 
#
# Total GULP energy -89245.175530 kJ/mol
# GULP energy per Si atom -5577.823471 kJ/mol
# Density = 2.355152 g / cm^3
# Si number density = 23.605247 Si / 1000 Ang^3
#
#
#
# Elastic Constant Matrix: (Units=GPa)
#
#
# Indices 1 2 3 4 5 6 
#
# 1 56.8617 14.3863 29.8146 0.0000 -3.9215 0.0000
# 2 14.3863 120.9789 55.5524 0.0000 -4.1080 0.0000
# 3 29.8146 55.5524 190.6084 0.0000 -0.1445 0.0000
# 4 0.0000 0.0000 0.0000 42.3814 0.0000 -8.8463
# 5 -3.9215 -4.1080 -0.1445 0.0000 29.4404 0.0000
# 6 0.0000 0.0000 0.0000 -8.8463 0.0000 22.6110
#
#
#
# Elastic Compliance Matrix: (Units=1/GPa)
#
#
# Indices 1 2 3 4 5 6 
#
# 1 0.019445 -0.000962 -0.002759 0.000000 0.002442 0.000000
# 2 -0.000962 0.009642 -0.002659 0.000000 0.001204 0.000000
# 3 -0.002759 -0.002659 0.006452 0.000000 -0.000707 0.000000
# 4 0.000000 0.000000 0.000000 0.025693 0.000000 0.010052
# 5 0.002442 0.001204 -0.000707 0.000000 0.034457 0.000000
# 6 0.000000 0.000000 0.000000 0.010052 0.000000 0.048159
#
#
# Mechanical properties :
#
#
# Convention : Reuss Voigt Hill
#
# Bulk Modulus (GPa) = 43.90030 63.10620 53.50325
# Shear Modulus (GPa) = 30.45018 36.79962 33.62490
#
# Velocity S-wave (km/s) = 3.59552 3.95265 3.77831
# Velocity P-wave (km/s) = 5.98958 6.90096 6.46136
#
# Compressibility (1/GPa) = 0.02277889
#
# Stress axis : x y z
#
# Youngs Moduli (GPa) = 51.42652 103.71187 154.98355
#
# Poissons Ratio (x) = 0.09981 0.42764
# Poissons Ratio (y) = 0.04949 0.41206
# Poissons Ratio (z) = 0.14190 0.27574
#
# Static dielectric constant tensor:
#      x y z
#    x 1.973280 0.000000 0.043960 
#    y 0.000000 2.009320 0.000000 
#    z 0.043960 0.000000 1.914830 
# 
# From -- ./inp_files/6277.got.cif
#   From: 2010.05.17/outbox.cif.g08.bks.cpg/sg3_4_cif.got.tgz:6277.got - 2010.06.03 18:33:08.
