data_PCOD9113844
_publ_section_title
;
Structure prediction by ZEFSAII (Michael W. Deem and Ramdas Pophale) SiO2 
 PCOD9113844
Probable space group: P 2
;
_chemical_formula_sum "Si O2"
_cell_formula_units_Z 12
_cell_length_a 11.316292
_cell_length_b 8.419092
_cell_length_c 5.178937
_cell_angle_alpha 90.000000
_cell_angle_beta 92.263124
_cell_angle_gamma 90.000000
_cell_volume 493.027512
_symmetry_space_group_name_H-M "P 2"
_symmetry_group_IT_number 3
_symmetry_cell_setting 'monoclinic'
loop_
_space_group_symop_operation_xyz
x,y,z
-x,y,-z
loop_
_atom_site_type_symbol
_atom_site_label
_atom_site_fract_x
_atom_site_fract_y
_atom_site_fract_z
Si Si1 0.610032 0.470700 0.327851
Si Si2 0.692480 0.963655 0.855470
Si Si3 0.500000 0.735226 0.000000
Si Si4 0.500000 0.207510 0.000000
Si Si5 0.874918 0.742090 0.103373
Si Si6 0.923885 0.157074 0.730488
Si Si7 0.147320 0.520254 0.392468
O O1 0.500000 0.467713 0.500000
O O2 0.591990 0.317199 0.156419
O O3 0.725099 0.471138 0.501417
O O4 0.591847 0.625726 0.158051
O O5 0.590491 0.825706 0.811132
O O6 0.801261 0.055662 0.723256
O O7 0.773666 0.878723 0.089301
O O8 0.592979 0.099509 0.860238
O O9 0.890236 0.638889 0.369024
O O10 0.844743 0.618533 0.870515
O O11 0.000000 0.806036 0.000000
O O12 0.908858 0.347847 0.676102
O O13 0.000000 0.090747 0.500000
O O14 0.000000 0.148409 0.000000
#
# Coordination Sequence:
#
# PCOD9113844 Si02
#       7
#     2   2   1   1   2   2   2
#     4  11  23  44  77 109 146 203 262 316 377 463
#     4  11  25  48  76 111 158 203 249 324 402 457
#     4  10  22  50  74 110 154 200 258 320 386 468
#     4  10  26  48  72 110 156 196 262 318 394 462
#     4  12  26  49  75 111 149 199 254 316 378 458
#     4  12  28  50  78 116 157 206 259 321 387 465
#     4  12  26  48  79 109 147 198 265 310 374 454
#
# _framework density 24.339413
#
# number of rings (size 3 to 8) (size 9 to 14) (size 15 to 20)
#    0.000    0.667    1.667    5.500    7.000    2.667 
#    6.000    3.333    0.000    0.000    0.000    0.000 
#    0.000    0.000    0.000    0.000    0.000    0.000 
#
# Total GULP energy -66817.607777 kJ/mol
# GULP energy per Si atom -5568.133981 kJ/mol
# Density = 2.428402 g / cm^3
# Si number density = 24.339413 Si / 1000 Ang^3
#
#
#
# Elastic Constant Matrix: (Units=GPa)
#
#
# Indices 1 2 3 4 5 6 
#
# 1 183.5902 54.5239 59.8649 0.0000 -7.8744 0.0000
# 2 54.5239 140.9084 58.5174 0.0000 -12.9789 0.0000
# 3 59.8649 58.5174 139.0239 0.0000 -5.8180 0.0000
# 4 0.0000 0.0000 0.0000 28.8725 0.0000 12.0262
# 5 -7.8744 -12.9789 -5.8180 0.0000 56.7430 0.0000
# 6 0.0000 0.0000 0.0000 12.0262 0.0000 42.9703
#
#
#
# Elastic Compliance Matrix: (Units=1/GPa)
#
#
# Indices 1 2 3 4 5 6 
#
# 1 0.006654 -0.001649 -0.002158 0.000000 0.000325 0.000000
# 2 -0.001649 0.009156 -0.003079 0.000000 0.001550 0.000000
# 3 -0.002158 -0.003079 0.009417 0.000000 -0.000038 0.000000
# 4 0.000000 0.000000 0.000000 0.039205 0.000000 -0.010973
# 5 0.000325 0.001550 -0.000038 0.000000 0.018019 0.000000
# 6 0.000000 0.000000 0.000000 -0.010973 0.000000 0.026343
#
#
# Mechanical properties :
#
#
# Convention : Reuss Voigt Hill
#
# Bulk Modulus (GPa) = 87.29318 89.92612 88.60965
# Shear Modulus (GPa) = 39.56191 45.09157 42.32674
#
# Velocity S-wave (km/s) = 4.03603 4.30887 4.17468
# Velocity P-wave (km/s) = 7.59356 7.86016 7.72801
#
# Compressibility (1/GPa) = 0.01145565
#
# Stress axis : x y z
#
# Youngs Moduli (GPa) = 150.28317 109.21447 106.19506
#
# Poissons Ratio (x) = 0.18007 0.22914
# Poissons Ratio (y) = 0.24778 0.32700
# Poissons Ratio (z) = 0.32427 0.33629
#
# Static dielectric constant tensor:
#      x y z
#    x 1.934660 0.000000 -0.044810 
#    y 0.000000 1.821820 0.000000 
#    z -0.044810 0.000000 1.935560 
# 
# From -- ./inp_files/2119.got.cif
#   From: 2010.05.17/outbox.cif.g08.bks.cpg/sg3_2_cif.got.tgz:2119.got - 2010.06.03 18:33:08.
