data_PCOD9113974
_publ_section_title
;
Structure prediction by ZEFSAII (Michael W. Deem and Ramdas Pophale) SiO2 
 PCOD9113974
Probable space group: P 2
;
_chemical_formula_sum "Si O2"
_cell_formula_units_Z 14
_cell_length_a 12.063067
_cell_length_b 8.002522
_cell_length_c 6.782982
_cell_angle_alpha 90.000000
_cell_angle_beta 75.103128
_cell_angle_gamma 90.000000
_cell_volume 632.787309
_symmetry_space_group_name_H-M "P 2"
_symmetry_group_IT_number 3
_symmetry_cell_setting 'monoclinic'
loop_
_space_group_symop_operation_xyz
x,y,z
-x,y,-z
loop_
_atom_site_type_symbol
_atom_site_label
_atom_site_fract_x
_atom_site_fract_y
_atom_site_fract_z
Si Si1 0.000000 0.060280 0.000000
Si Si2 0.629595 0.750910 0.988900
Si Si3 0.669653 0.085151 0.732863
Si Si4 0.690623 0.498279 0.274249
Si Si5 0.186144 0.586569 0.388134
Si Si6 0.167801 0.320999 0.118204
Si Si7 0.500000 0.247354 0.500000
Si Si8 0.892463 0.933255 0.426127
O O1 0.082602 0.177431 0.089956
O O2 0.922095 0.954367 0.184052
O O3 0.640497 0.943236 0.910305
O O4 0.721696 0.658367 0.809586
O O5 0.500000 0.698860 0.000000
O O6 0.655787 0.678400 0.195608
O O7 0.775192 0.019647 0.549080
O O8 0.720833 0.241721 0.827375
O O9 0.568644 0.136225 0.629420
O O10 0.741919 0.511801 0.466789
O O11 0.585252 0.369887 0.340920
O O12 0.788121 0.418561 0.092603
O O13 0.115617 0.449862 0.299107
O O14 0.119241 0.741480 0.507913
O O15 0.000000 0.004007 0.500000
#
# Coordination Sequence:
#
# PCOD9113974 Si02
#       8
#     1   2   2   2   2   2   1   2
#     4  12  26  42  82 102 138 188 240 302 372 418
#     4  10  24  41  67 100 139 187 234 283 345 429
#     4  11  25  46  69 105 145 184 238 296 355 425
#     4  11  24  42  69 100 146 189 234 289 354 433
#     4  10  24  46  68  99 146 182 239 292 357 429
#     4  11  25  44  69 105 137 182 239 297 352 431
#     4  12  24  42  78 104 148 200 232 298 364 418
#     4  11  25  48  72 101 144 186 237 301 360 436
#
# _framework density 22.124338000000002
#
# number of rings (size 3 to 8) (size 9 to 14) (size 15 to 20)
#    0.000    1.143    2.857    1.714    6.000    4.571 
#    0.000    0.000    0.000    0.000    0.000    0.000 
#    0.000    0.000    0.000    0.000    0.000    0.000 
#
# Total GULP energy -78268.612445 kJ/mol
# GULP energy per Si atom -5590.615175 kJ/mol
# Density = 2.207398 g / cm^3
# Si number density = 22.124338 Si / 1000 Ang^3
#
#
#
# Elastic Constant Matrix: (Units=GPa)
#
#
# Indices 1 2 3 4 5 6 
#
# 1 78.4708 16.5863 20.6299 0.0000 1.5369 0.0000
# 2 16.5863 72.3433 57.8878 0.0000 -8.0978 0.0000
# 3 20.6299 57.8878 90.7928 0.0000 8.3204 0.0000
# 4 0.0000 0.0000 0.0000 23.1919 0.0000 -1.0692
# 5 1.5369 -8.0978 8.3204 0.0000 28.6182 0.0000
# 6 0.0000 0.0000 0.0000 -1.0692 0.0000 73.9831
#
#
#
# Elastic Compliance Matrix: (Units=1/GPa)
#
#
# Indices 1 2 3 4 5 6 
#
# 1 0.013622 -0.001533 -0.002066 0.000000 -0.000565 0.000000
# 2 -0.001533 0.034671 -0.023284 0.000000 0.016663 0.000000
# 3 -0.002066 -0.023284 0.027660 0.000000 -0.014519 0.000000
# 4 0.000000 0.000000 0.000000 0.043147 0.000000 0.000624
# 5 -0.000565 0.016663 -0.014519 0.000000 0.043909 0.000000
# 6 0.000000 0.000000 0.000000 0.000624 0.000000 0.013526
#
#
# Mechanical properties :
#
#
# Convention : Reuss Voigt Hill
#
# Bulk Modulus (GPa) = 45.07353 47.97942 46.52648
# Shear Modulus (GPa) = 21.03514 34.92551 27.98032
#
# Velocity S-wave (km/s) = 3.08680 3.97747 3.56010
# Velocity P-wave (km/s) = 5.75513 6.54424 6.16233
#
# Compressibility (1/GPa) = 0.02218597
#
# Stress axis : x y z
#
# Youngs Moduli (GPa) = 73.41150 28.84220 36.15362
#
# Poissons Ratio (x) = 0.04423 0.07468
# Poissons Ratio (y) = 0.11257 0.84182
# Poissons Ratio (z) = 0.15165 0.67157
#
# Static dielectric constant tensor:
#      x y z
#    x 1.790180 0.000000 -0.008570 
#    y 0.000000 1.857120 0.000000 
#    z -0.008570 0.000000 1.791160 
# 
# From -- ./inp_files/2196.got.cif
#   From: 2010.05.17/outbox.cif.g08.bks.cpg/sg3_2_cif.got.tgz:2196.got - 2010.06.03 18:33:08.
