data_PCOD9113470
_publ_section_title
;
Structure prediction by ZEFSAII (Michael W. Deem and Ramdas Pophale) SiO2 
 PCOD9113470
Probable space group: P 2
;
_chemical_formula_sum "Si O2"
_cell_formula_units_Z 11
_cell_length_a 5.344218
_cell_length_b 5.174424
_cell_length_c 17.307036
_cell_angle_alpha 90.000000
_cell_angle_beta 122.194906
_cell_angle_gamma 90.000000
_cell_volume 405.007160
_symmetry_space_group_name_H-M "P 2"
_symmetry_group_IT_number 3
_symmetry_cell_setting 'monoclinic'
loop_
_space_group_symop_operation_xyz
x,y,z
-x,y,-z
loop_
_atom_site_type_symbol
_atom_site_label
_atom_site_fract_x
_atom_site_fract_y
_atom_site_fract_z
Si Si1 0.129320 0.399500 0.252079
Si Si2 0.268149 0.566774 0.105064
Si Si3 0.978547 0.881573 0.314399
Si Si4 0.500000 0.890166 0.500000
Si Si5 0.733382 0.261696 0.405281
Si Si6 0.644637 0.066912 0.942279
O O1 0.139713 0.461354 0.163238
O O2 0.926571 0.610888 0.261724
O O3 0.472645 0.448906 0.335049
O O4 0.071371 0.099014 0.264883
O O5 0.471935 0.346005 0.101304
O O6 0.411519 0.849799 0.130952
O O7 0.000000 0.610844 0.000000
O O8 0.217966 0.763591 0.415720
O O9 0.808350 0.076454 0.344877
O O10 0.603620 0.071840 0.448063
O O11 0.000000 0.382247 0.500000
O O12 0.500000 0.990819 0.000000
O O13 0.000000 0.106100 0.000000
#
# Coordination Sequence:
#
# PCOD9113470 Si02
#       6
#     2   2   2   1   2   2
#     4  11  23  43  64  97 140 177 230 289 345 415
#     4  10  22  43  66  96 135 180 227 284 350 416
#     4  10  22  39  64  97 133 178 227 283 344 418
#     4   8  18  38  66  88 138 170 220 276 342 414
#     4   9  20  42  67 102 133 183 228 285 354 420
#     4  10  21  42  69  98 131 178 233 289 353 421
#
# _framework density 27.160015000000001
#
# number of rings (size 3 to 8) (size 9 to 14) (size 15 to 20)
#    0.000    2.182    0.000    1.636    0.000    7.273 
#   19.636   11.818    0.000    0.000    0.000    0.000 
#    0.000    0.000    0.000    0.000    0.000    0.000 
#
# Total GULP energy -61421.571253 kJ/mol
# GULP energy per Si atom -5583.779205 kJ/mol
# Density = 2.709820 g / cm^3
# Si number density = 27.160015 Si / 1000 Ang^3
#
#
#
# Elastic Constant Matrix: (Units=GPa)
#
#
# Indices 1 2 3 4 5 6 
#
# 1 87.0307 14.6500 33.6883 0.0000 -18.5800 0.0000
# 2 14.6500 164.4339 31.6304 0.0000 -9.8549 0.0000
# 3 33.6883 31.6304 136.9002 0.0000 -17.7927 0.0000
# 4 0.0000 0.0000 0.0000 89.9751 0.0000 -0.4139
# 5 -18.5800 -9.8549 -17.7927 0.0000 71.4397 0.0000
# 6 0.0000 0.0000 0.0000 -0.4139 0.0000 42.1477
#
#
#
# Elastic Compliance Matrix: (Units=1/GPa)
#
#
# Indices 1 2 3 4 5 6 
#
# 1 0.013225 -0.000480 -0.002795 0.000000 0.002677 0.000000
# 2 -0.000480 0.006401 -0.001305 0.000000 0.000433 0.000000
# 3 -0.002795 -0.001305 0.008450 0.000000 0.001197 0.000000
# 4 0.000000 0.000000 0.000000 0.011115 0.000000 0.000109
# 5 0.002677 0.000433 0.001197 0.000000 0.015052 0.000000
# 6 0.000000 0.000000 0.000000 0.000109 0.000000 0.023727
#
#
# Mechanical properties :
#
#
# Convention : Reuss Voigt Hill
#
# Bulk Modulus (GPa) = 52.86755 60.92246 56.89501
# Shear Modulus (GPa) = 53.51353 61.27223 57.39288
#
# Velocity S-wave (km/s) = 4.44363 4.75486 4.60188
# Velocity P-wave (km/s) = 6.77017 7.25428 7.01640
#
# Compressibility (1/GPa) = 0.01891519
#
# Stress axis : x y z
#
# Youngs Moduli (GPa) = 75.61667 156.22207 118.34975
#
# Poissons Ratio (x) = 0.07500 0.33084
# Poissons Ratio (y) = 0.03630 0.15439
# Poissons Ratio (z) = 0.21138 0.20380
#
# Static dielectric constant tensor:
#      x y z
#    x 2.615170 0.000000 0.579840 
#    y 0.000000 2.116040 0.000000 
#    z 0.579840 0.000000 2.548160 
# 
# From -- ./inp_files/3339.got.cif
#   From: 2010.05.17/outbox.cif.g08.bks.cpg/sg3_2_cif.got.tgz:3339.got - 2010.06.03 18:33:08.
