data_PCOD9113589
_publ_section_title
;
Structure prediction by ZEFSAII (Michael W. Deem and Ramdas Pophale) SiO2 
 PCOD9113589
Probable space group: P 2
;
_chemical_formula_sum "Si O2"
_cell_formula_units_Z 14
_cell_length_a 8.272825
_cell_length_b 8.531703
_cell_length_c 9.288541
_cell_angle_alpha 90.000000
_cell_angle_beta 57.346845
_cell_angle_gamma 90.000000
_cell_volume 551.981478
_symmetry_space_group_name_H-M "P 2"
_symmetry_group_IT_number 3
_symmetry_cell_setting 'monoclinic'
loop_
_space_group_symop_operation_xyz
x,y,z
-x,y,-z
loop_
_atom_site_type_symbol
_atom_site_label
_atom_site_fract_x
_atom_site_fract_y
_atom_site_fract_z
Si Si1 0.294217 0.847350 0.684258
Si Si2 0.193064 0.652262 0.493299
Si Si3 0.435862 0.663205 0.884523
Si Si4 0.790073 0.354552 0.891687
Si Si5 0.208203 0.166552 0.395566
Si Si6 0.620415 0.139339 0.192577
Si Si7 0.772484 0.364793 0.329369
O O1 0.500000 0.847891 0.500000
O O2 0.156762 0.798472 0.619068
O O3 0.302523 0.739973 0.824623
O O4 0.261663 0.016870 0.770031
O O5 0.363718 0.652810 0.297152
O O6 0.264440 0.528452 0.578332
O O7 0.000000 0.613098 0.500000
O O8 0.500000 0.752912 0.000000
O O9 0.331327 0.505509 0.997338
O O10 0.789027 0.308613 0.723056
O O11 0.010041 0.375308 0.831338
O O12 0.709046 0.196218 0.002315
O O13 0.405670 0.074602 0.277954
O O14 0.226207 0.241367 0.542944
O O15 0.000000 0.087810 0.500000
O O16 0.627530 0.301423 0.280576
#
# Coordination Sequence:
#
# PCOD9113589 Si02
#       7
#     2   2   2   2   2   2   2
#     4  10  25  44  64  93 134 180 223 265 335 412
#     4  11  23  44  70  97 129 174 228 280 338 405
#     4  11  22  41  67  98 132 174 223 280 335 391
#     4  11  23  40  64  99 133 167 219 278 330 386
#     4  10  22  39  66 100 132 170 219 272 331 394
#     4  12  23  42  66  95 134 174 219 277 331 390
#     4  11  22  40  67  98 129 169 221 274 328 396
#
# _framework density 25.36317
#
# number of rings (size 3 to 8) (size 9 to 14) (size 15 to 20)
#    0.000    1.143    0.000    7.714    0.000    3.429 
#    0.000   19.286    0.000    0.000    0.000    2.000 
#    0.000    0.000    0.000    0.000    0.000    0.000 
#
# Total GULP energy -78234.175692 kJ/mol
# GULP energy per Si atom -5588.155407 kJ/mol
# Density = 2.530544 g / cm^3
# Si number density = 25.363170 Si / 1000 Ang^3
#
#
#
# Elastic Constant Matrix: (Units=GPa)
#
#
# Indices 1 2 3 4 5 6 
#
# 1 107.0868 23.2080 54.9784 0.0000 -0.1246 0.0000
# 2 23.2080 64.0688 30.1809 0.0000 8.3404 0.0000
# 3 54.9784 30.1809 138.3564 0.0000 13.7785 0.0000
# 4 0.0000 0.0000 0.0000 20.9336 0.0000 16.6906
# 5 -0.1246 8.3404 13.7785 0.0000 54.6769 0.0000
# 6 0.0000 0.0000 0.0000 16.6906 0.0000 23.0368
#
#
#
# Elastic Compliance Matrix: (Units=1/GPa)
#
#
# Indices 1 2 3 4 5 6 
#
# 1 0.012163 -0.002515 -0.004437 0.000000 0.001529 0.000000
# 2 -0.002515 0.018079 -0.002738 0.000000 -0.002074 0.000000
# 3 -0.004437 -0.002738 0.009793 0.000000 -0.002060 0.000000
# 4 0.000000 0.000000 0.000000 0.113109 0.000000 -0.081949
# 5 0.001529 -0.002074 -0.002060 0.000000 0.019128 0.000000
# 6 0.000000 0.000000 0.000000 -0.081949 0.000000 0.102782
#
#
# Mechanical properties :
#
#
# Convention : Reuss Voigt Hill
#
# Bulk Modulus (GPa) = 48.41267 58.47184 53.44225
# Shear Modulus (GPa) = 16.59375 33.13912 24.86644
#
# Velocity S-wave (km/s) = 2.56060 3.61859 3.13456
# Velocity P-wave (km/s) = 5.27934 6.36890 5.84954
#
# Compressibility (1/GPa) = 0.02065575
#
# Stress axis : x y z
#
# Youngs Moduli (GPa) = 82.21714 55.31323 102.11163
#
# Poissons Ratio (x) = 0.13911 0.45306
# Poissons Ratio (y) = 0.20677 0.27957
# Poissons Ratio (z) = 0.36479 0.15144
#
# Static dielectric constant tensor:
#      x y z
#    x 2.062490 0.000000 -0.014050 
#    y 0.000000 2.145580 0.000000 
#    z -0.014050 0.000000 1.965970 
# 
# From -- ./inp_files/5503.got.cif
#   From: 2010.05.17/outbox.cif.g08.bks.cpg/sg3_3_cif.got.tgz:5503.got - 2010.06.03 18:33:08.
