data_PCOD9113554
_publ_section_title
;
Structure prediction by ZEFSAII (Michael W. Deem and Ramdas Pophale) SiO2 
 PCOD9113554
Probable space group: P 2
;
_chemical_formula_sum "Si O2"
_cell_formula_units_Z 14
_cell_length_a 7.579290
_cell_length_b 5.247904
_cell_length_c 13.526949
_cell_angle_alpha 90.000000
_cell_angle_beta 94.519019
_cell_angle_gamma 90.000000
_cell_volume 536.366983
_symmetry_space_group_name_H-M "P 2"
_symmetry_group_IT_number 3
_symmetry_cell_setting 'monoclinic'
loop_
_space_group_symop_operation_xyz
x,y,z
-x,y,-z
loop_
_atom_site_type_symbol
_atom_site_label
_atom_site_fract_x
_atom_site_fract_y
_atom_site_fract_z
Si Si1 0.077602 0.902900 0.696826
Si Si2 0.069684 0.560632 0.147951
Si Si3 0.742060 0.091094 0.575221
Si Si4 0.274692 0.253570 0.864203
Si Si5 0.338657 0.854011 0.043186
Si Si6 0.209714 0.591313 0.533423
Si Si7 0.614248 0.204309 0.781422
O O1 0.204960 0.712260 0.642201
O O2 0.943127 0.734794 0.755449
O O3 0.187116 0.071833 0.777344
O O4 0.949162 0.072148 0.621059
O O5 0.161753 0.713020 0.064654
O O6 0.201219 0.330410 0.178494
O O7 0.873407 0.461898 0.120982
O O8 0.721808 0.313357 0.493006
O O9 0.626137 0.157105 0.666054
O O10 0.705760 0.811292 0.531054
O O11 0.449220 0.359590 0.817930
O O12 0.306154 0.087367 0.965102
O O13 0.403266 0.953083 0.152677
O O14 0.500000 0.701612 0.000000
O O15 0.000000 0.585600 0.500000
#
# Coordination Sequence:
#
# PCOD9113554 Si02
#       7
#     2   2   2   2   2   2   2
#     4  11  24  42  72 111 151 193 258 318 386 461
#     4  12  24  46  75 102 147 199 257 312 388 460
#     4  11  21  42  72 108 143 206 246 316 377 464
#     4  11  27  46  72 112 153 191 257 324 382 465
#     4  10  25  47  71 106 150 201 249 313 389 471
#     4  10  22  37  73 106 147 194 259 303 387 453
#     4  11  24  45  73 104 150 198 252 306 390 459
#
# _framework density 26.101533
#
# number of rings (size 3 to 8) (size 9 to 14) (size 15 to 20)
#    0.000    1.143    2.857    3.000    2.000    8.571 
#    0.000    2.143    0.000    0.000    0.000    0.000 
#    0.000    0.000    0.000    0.000    0.000    0.000 
#
# Total GULP energy -78458.134370 kJ/mol
# GULP energy per Si atom -5604.152455 kJ/mol
# Density = 2.604212 g / cm^3
# Si number density = 26.101533 Si / 1000 Ang^3
#
#
#
# Elastic Constant Matrix: (Units=GPa)
#
#
# Indices 1 2 3 4 5 6 
#
# 1 118.3885 17.5161 47.4471 0.0000 -32.3279 0.0000
# 2 17.5161 99.4176 51.0810 0.0000 -14.5056 0.0000
# 3 47.4471 51.0810 155.8961 0.0000 -33.4115 0.0000
# 4 0.0000 0.0000 0.0000 58.7999 0.0000 -7.7508
# 5 -32.3279 -14.5056 -33.4115 0.0000 50.6978 0.0000
# 6 0.0000 0.0000 0.0000 -7.7508 0.0000 5.9609
#
#
#
# Elastic Compliance Matrix: (Units=1/GPa)
#
#
# Indices 1 2 3 4 5 6 
#
# 1 0.010791 -0.000021 -0.002101 0.000000 0.005491 0.000000
# 2 -0.000021 0.012137 -0.003760 0.000000 0.000981 0.000000
# 3 -0.002101 -0.003760 0.009046 0.000000 0.003546 0.000000
# 4 0.000000 0.000000 0.000000 0.020525 0.000000 0.026688
# 5 0.005491 0.000981 0.003546 0.000000 0.025844 0.000000
# 6 0.000000 0.000000 0.000000 0.026688 0.000000 0.202461
#
#
# Mechanical properties :
#
#
# Convention : Reuss Voigt Hill
#
# Bulk Modulus (GPa) = 49.47826 67.31006 58.39416
# Shear Modulus (GPa) = 16.70538 40.26893 28.48715
#
# Velocity S-wave (km/s) = 2.53260 3.93209 3.30721
# Velocity P-wave (km/s) = 5.24874 6.81607 6.08310
#
# Compressibility (1/GPa) = 0.02021090
#
# Stress axis : x y z
#
# Youngs Moduli (GPa) = 92.66940 82.38936 110.54601
#
# Poissons Ratio (x) = 0.00171 0.23223
# Poissons Ratio (y) = 0.00193 0.41569
# Poissons Ratio (z) = 0.19467 0.30981
#
# Static dielectric constant tensor:
#      x y z
#    x 2.111160 0.000000 0.036880 
#    y 0.000000 2.075480 0.000000 
#    z 0.036880 0.000000 2.050690 
# 
# From -- ./inp_files/13198.got.cif
#   From: 2010.05.17/outbox.cif.g08.bks.cpg/sg3_7_cif.got.tgz:13198.got - 2010.06.03 18:33:08.
