data_PCOD9113782
_publ_section_title
;
Structure prediction by ZEFSAII (Michael W. Deem and Ramdas Pophale) SiO2 
 PCOD9113782
Probable space group: P 2
;
_chemical_formula_sum "Si O2"
_cell_formula_units_Z 10
_cell_length_a 13.784531
_cell_length_b 5.654601
_cell_length_c 4.789362
_cell_angle_alpha 90.000000
_cell_angle_beta 106.586946
_cell_angle_gamma 90.000000
_cell_volume 357.777338
_symmetry_space_group_name_H-M "P 2"
_symmetry_group_IT_number 3
_symmetry_cell_setting 'monoclinic'
loop_
_space_group_symop_operation_xyz
x,y,z
-x,y,-z
loop_
_atom_site_type_symbol
_atom_site_label
_atom_site_fract_x
_atom_site_fract_y
_atom_site_fract_z
Si Si1 0.709711 0.311440 0.035658
Si Si2 0.677749 0.820576 0.770534
Si Si3 0.425411 0.479056 0.679915
Si Si4 0.894809 0.318150 0.750413
Si Si5 0.099150 0.821725 0.279557
O O1 0.677580 0.326904 0.340404
O O2 0.672548 0.579328 0.942852
O O3 0.812872 0.311485 0.936518
O O4 0.655863 0.067928 0.897923
O O5 0.610276 0.739826 0.451830
O O6 0.796318 0.829523 0.799059
O O7 0.500000 0.383973 0.500000
O O8 0.500000 0.470811 0.000000
O O9 0.893095 0.563420 0.573920
O O10 0.894848 0.077170 0.566786
O O11 0.000000 0.319726 0.000000
O O12 0.000000 0.821243 0.000000
#
# Coordination Sequence:
#
# PCOD9113782 Si02
#       5
#     2   2   2   2   2
#     4  10  22  44  70 104 148 192 246 311 377 449
#     4  10  22  44  70 104 148 192 246 311 377 449
#     4  12  26  52  74 113 149 204 260 324 384 452
#     4   8  14  28  58  96 135 181 232 290 357 446
#     4   8  14  28  58  96 135 181 232 290 357 446
#
# _framework density 27.950344000000001
#
# number of rings (size 3 to 8) (size 9 to 14) (size 15 to 20)
#    0.000    2.400    2.000    0.000    0.000    1.600 
#    7.200    0.000    0.000   19.200    0.000   56.000 
#    0.000    0.000    0.000    0.000    0.000    0.000 
#
# Total GULP energy -55698.215963 kJ/mol
# GULP energy per Si atom -5569.821596 kJ/mol
# Density = 2.788673 g / cm^3
# Si number density = 27.950344 Si / 1000 Ang^3
#
#
#
# Elastic Constant Matrix: (Units=GPa)
#
#
# Indices 1 2 3 4 5 6 
#
# 1 192.2538 13.0499 48.8533 0.0000 -22.1213 0.0000
# 2 13.0499 299.5961 41.7126 0.0000 -17.6235 0.0000
# 3 48.8533 41.7126 117.3616 0.0000 -6.6803 0.0000
# 4 0.0000 0.0000 0.0000 33.4217 0.0000 14.3380
# 5 -22.1213 -17.6235 -6.6803 0.0000 29.6048 0.0000
# 6 0.0000 0.0000 0.0000 14.3380 0.0000 11.7403
#
#
#
# Elastic Compliance Matrix: (Units=1/GPa)
#
#
# Indices 1 2 3 4 5 6 
#
# 1 0.006314 0.000329 -0.002498 0.000000 0.004350 0.000000
# 2 0.000329 0.003630 -0.001307 0.000000 0.002111 0.000000
# 3 -0.002498 -0.001307 0.010003 0.000000 -0.000387 0.000000
# 4 0.000000 0.000000 0.000000 0.062849 0.000000 -0.076755
# 5 0.004350 0.002111 -0.000387 0.000000 0.038199 0.000000
# 6 0.000000 0.000000 0.000000 -0.076755 0.000000 0.178914
#
#
# Mechanical properties :
#
#
# Convention : Reuss Voigt Hill
#
# Bulk Modulus (GPa) = 76.95028 90.71592 83.83310
# Shear Modulus (GPa) = 16.06727 48.65973 32.36350
#
# Velocity S-wave (km/s) = 2.40021 4.17698 3.40647
# Velocity P-wave (km/s) = 5.93904 7.46923 6.74765
#
# Compressibility (1/GPa) = 0.01299540
#
# Stress axis : x y z
#
# Youngs Moduli (GPa) = 158.36891 275.50949 99.97280
#
# Poissons Ratio (x) = -0.09053 0.24969
# Poissons Ratio (y) = -0.05204 0.13063
# Poissons Ratio (z) = 0.39554 0.35999
#
# Static dielectric constant tensor:
#      x y z
#    x 2.490190 0.000000 -0.241360 
#    y 0.000000 2.218780 0.000000 
#    z -0.241360 0.000000 2.618000 
# 
# From -- ./inp_files/2715.got.cif
#   From: 2010.05.17/outbox.cif.g08.bks.cpg/sg3_2_cif.got.tgz:2715.got - 2010.06.03 18:33:08.
