data_PCOD9113695
_publ_section_title
;
Structure prediction by ZEFSAII (Michael W. Deem and Ramdas Pophale) SiO2 
 PCOD9113695
Probable space group: P 2
;
_chemical_formula_sum "Si O2"
_cell_formula_units_Z 16
_cell_length_a 8.303573
_cell_length_b 8.219371
_cell_length_c 18.627410
_cell_angle_alpha 90.000000
_cell_angle_beta 30.343204
_cell_angle_gamma 90.000000
_cell_volume 642.245317
_symmetry_space_group_name_H-M "P 2"
_symmetry_group_IT_number 3
_symmetry_cell_setting 'monoclinic'
loop_
_space_group_symop_operation_xyz
x,y,z
-x,y,-z
loop_
_atom_site_type_symbol
_atom_site_label
_atom_site_fract_x
_atom_site_fract_y
_atom_site_fract_z
Si Si1 0.761084 0.516130 0.530750
Si Si2 0.176043 0.359467 0.270939
Si Si3 0.484360 0.858553 0.693084
Si Si4 0.746686 0.062169 0.464937
Si Si5 0.234908 0.172279 0.972499
Si Si6 0.929430 0.374607 0.206443
Si Si7 0.318682 0.879243 0.216660
Si Si8 0.879191 0.676181 0.964639
O O1 0.637951 0.692176 0.602768
O O2 0.447087 0.407262 0.640613
O O3 0.000000 0.453599 0.500000
O O4 0.993226 0.514676 0.373149
O O5 0.549833 0.326252 0.137734
O O6 0.100706 0.355623 0.216124
O O7 0.996619 0.207924 0.378382
O O8 0.584308 0.998816 0.599718
O O9 0.621507 0.883683 0.720211
O O10 0.109885 0.820998 0.847229
O O11 0.500000 0.118309 0.500000
O O12 0.946842 0.913367 0.351735
O O13 0.491178 0.033420 0.889053
O O14 0.000000 0.119811 0.000000
O O15 0.025645 0.223726 0.120183
O O16 0.059887 0.529174 0.112214
O O17 0.511819 0.728314 0.110486
O O18 0.000000 0.644422 0.000000
#
# Coordination Sequence:
#
# PCOD9113695 Si02
#       8
#     2   2   2   2   2   2   2   2
#     4  11  23  41  67  95 127 167 214 265 317 375
#     4  11  26  43  62  94 132 169 211 262 317 378
#     4  10  22  42  66  93 126 161 207 266 316 368
#     4  11  24  41  62  90 130 169 207 255 316 380
#     4  11  23  41  67  94 125 167 214 262 318 379
#     4  11  23  42  64  91 133 172 207 260 318 376
#     4  10  22  42  67  95 125 161 212 265 314 374
#     4   9  20  40  67  98 126 162 211 263 315 372
#
# _framework density 24.912597999999999
#
# number of rings (size 3 to 8) (size 9 to 14) (size 15 to 20)
#    0.000    1.500    0.000    4.875    0.000   11.000 
#    0.000    4.375    0.000    0.000    0.000    0.000 
#    0.000    0.000    0.000    0.000    0.000    0.000 
#
# Total GULP energy -89637.399171 kJ/mol
# GULP energy per Si atom -5602.337448 kJ/mol
# Density = 2.485590 g / cm^3
# Si number density = 24.912598 Si / 1000 Ang^3
#
#
#
# Elastic Constant Matrix: (Units=GPa)
#
#
# Indices 1 2 3 4 5 6 
#
# 1 35.9198 8.9018 17.8591 0.0000 5.7009 0.0000
# 2 8.9018 67.6058 37.6994 0.0000 6.5651 0.0000
# 3 17.8591 37.6994 143.2545 0.0000 -8.6524 0.0000
# 4 0.0000 0.0000 0.0000 37.7600 0.0000 -3.4964
# 5 5.7009 6.5651 -8.6524 0.0000 43.5243 0.0000
# 6 0.0000 0.0000 0.0000 -3.4964 0.0000 22.1540
#
#
#
# Elastic Compliance Matrix: (Units=1/GPa)
#
#
# Indices 1 2 3 4 5 6 
#
# 1 0.030785 -0.001547 -0.003705 0.000000 -0.004535 0.000000
# 2 -0.001547 0.017978 -0.004747 0.000000 -0.003453 0.000000
# 3 -0.003705 -0.004747 0.008871 0.000000 0.002965 0.000000
# 4 0.000000 0.000000 0.000000 0.026876 0.000000 0.004242
# 5 -0.004535 -0.003453 0.002965 0.000000 0.024680 0.000000
# 6 0.000000 0.000000 0.000000 0.004242 0.000000 0.045808
#
#
# Mechanical properties :
#
#
# Convention : Reuss Voigt Hill
#
# Bulk Modulus (GPa) = 26.57031 41.74455 34.15743
# Shear Modulus (GPa) = 26.66107 32.84231 29.75169
#
# Velocity S-wave (km/s) = 3.27492 3.63478 3.45953
# Velocity P-wave (km/s) = 4.99887 5.86586 5.44963
#
# Compressibility (1/GPa) = 0.03763599
#
# Stress axis : x y z
#
# Youngs Moduli (GPa) = 32.48339 55.62488 112.73137
#
# Poissons Ratio (x) = 0.08607 0.41763
# Poissons Ratio (y) = 0.05026 0.53510
# Poissons Ratio (z) = 0.12034 0.26403
#
# Static dielectric constant tensor:
#      x y z
#    x 1.894340 0.000000 -0.017930 
#    y 0.000000 2.082920 0.000000 
#    z -0.017930 0.000000 2.022480 
# 
# From -- ./inp_files/15042.got.cif
#   From: 2010.05.17/outbox.cif.g08.bks.cpg/sg3_8_cif.got.tgz:15042.got - 2010.06.03 18:33:08.
