data_PCOD9113978
_publ_section_title
;
Structure prediction by ZEFSAII (Michael W. Deem and Ramdas Pophale) SiO2 
 PCOD9113978
Probable space group: P 2
;
_chemical_formula_sum "Si O2"
_cell_formula_units_Z 15
_cell_length_a 15.149498
_cell_length_b 7.126257
_cell_length_c 11.591578
_cell_angle_alpha 90.000000
_cell_angle_beta 140.857101
_cell_angle_gamma 90.000000
_cell_volume 789.965765
_symmetry_space_group_name_H-M "P 2"
_symmetry_group_IT_number 3
_symmetry_cell_setting 'monoclinic'
loop_
_space_group_symop_operation_xyz
x,y,z
-x,y,-z
loop_
_atom_site_type_symbol
_atom_site_label
_atom_site_fract_x
_atom_site_fract_y
_atom_site_fract_z
Si Si1 0.812324 0.596210 0.760632
Si Si2 0.769481 0.287065 0.385816
Si Si3 0.998624 0.275724 0.815471
Si Si4 0.365964 0.884809 0.785201
Si Si5 0.251347 0.507000 0.039098
Si Si6 0.000000 0.946054 0.000000
Si Si7 0.844484 0.608821 0.298224
Si Si8 0.422964 0.569919 0.665679
O O1 0.669953 0.583610 0.543518
O O2 0.919304 0.442234 0.810836
O O3 0.776630 0.564866 0.857957
O O4 0.882125 0.801187 0.834918
O O5 0.705883 0.082946 0.307309
O O6 0.807242 0.399669 0.307456
O O7 0.656193 0.418403 0.335096
O O8 0.903371 0.268185 0.605090
O O9 0.012171 0.089863 0.905625
O O10 0.258709 0.749758 0.742431
O O11 0.412543 0.770765 0.718669
O O12 0.843399 0.321687 0.061841
O O13 0.180600 0.625965 0.863851
O O14 0.500000 0.912151 0.000000
O O15 0.416880 0.507998 0.187288
O O16 0.000000 0.647871 0.500000
#
# Coordination Sequence:
#
# PCOD9113978 Si02
#       8
#     2   2   2   2   2   1   2   2
#     4  11  23  43  66  92 129 171 207 265 328 374
#     4  10  24  42  64  91 132 168 208 261 323 376
#     4  11  22  42  66  94 124 165 217 265 320 381
#     4  11  23  43  65  95 129 168 215 258 320 385
#     4  12  21  43  64  92 126 167 213 264 311 375
#     4  12  20  40  70  94 124 166 216 264 328 376
#     4  11  24  42  66  94 129 169 211 266 318 376
#     4  10  24  43  67  91 130 172 210 260 318 383
#
# _framework density 18.988164000000001
#
# number of rings (size 3 to 8) (size 9 to 14) (size 15 to 20)
#    0.000    1.067    5.333    1.200    1.867    1.600 
#    4.800    0.000    2.933    0.000    0.000    0.000 
#    0.000    0.000    0.000    0.000    0.000    0.000 
#
# Total GULP energy -83637.908783 kJ/mol
# GULP energy per Si atom -5575.860586 kJ/mol
# Density = 1.894495 g / cm^3
# Si number density = 18.988164 Si / 1000 Ang^3
#
#
#
# Elastic Constant Matrix: (Units=GPa)
#
#
# Indices 1 2 3 4 5 6 
#
# 1 -415.9455 -298.8768 -422.3698 0.0000 -378.5368 0.0000
# 2 -298.8768 -99.0411 -268.9291 0.0000 -245.2454 0.0000
# 3 -422.3698 -268.9291 -302.1984 0.0000 -359.7187 0.0000
# 4 0.0000 0.0000 0.0000 370.7718 0.0000 -243.8627
# 5 -378.5368 -245.2454 -359.7187 0.0000 -243.4603 0.0000
# 6 0.0000 0.0000 0.0000 -243.8627 0.0000 193.0593
#
#
#
# Elastic Compliance Matrix: (Units=1/GPa)
#
#
# Indices 1 2 3 4 5 6 
#
# 1 0.011851 -0.002872 -0.005907 0.000000 -0.006805 0.000000
# 2 -0.002872 0.009792 -0.002275 0.000000 -0.002037 0.000000
# 3 -0.005907 -0.002275 0.008815 0.000000 -0.001550 0.000000
# 4 0.000000 0.000000 0.000000 0.015940 0.000000 0.020134
# 5 -0.006805 -0.002037 -0.001550 0.000000 0.010816 0.000000
# 6 0.000000 0.000000 0.000000 0.020134 0.000000 0.030612
#
#
# Mechanical properties :
#
#
# Convention : Reuss Voigt Hill
#
# Bulk Modulus (GPa) = 119.74174 -310.83738 -95.54782
# Shear Modulus (GPa) = 44.35923 75.60686 59.98305
#
# Velocity S-wave (km/s) = 4.83862 6.31699 5.62657
# Velocity P-wave (km/s) = 9.71671 10.52854 2.86668
#
# Compressibility (1/GPa) = 0.00835131
#
# Stress axis : x y z
#
# Youngs Moduli (GPa) = 84.38447 102.12069 113.43953
#
# Poissons Ratio (x) = 0.29330 0.67003
# Poissons Ratio (y) = 0.24236 0.25805
# Poissons Ratio (z) = 0.49842 0.23231
#
# Static dielectric constant tensor:
#      x y z
#    x 1.660720 0.000000 0.019100 
#    y 0.000000 1.732230 0.000000 
#    z 0.019100 0.000000 1.583050 
# 
# From -- ./inp_files/14208.got.cif
#   From: 2010.05.17/outbox.cif.g08.bks.cpg/sg3_8_cif.got.tgz:14208.got - 2010.06.03 18:33:08.
