data_PCOD9113231
_publ_section_title
;
Structure prediction by ZEFSAII (Michael W. Deem and Ramdas Pophale) SiO2 
 PCOD9113231
Probable space group: P 2
;
_chemical_formula_sum "Si O2"
_cell_formula_units_Z 16
_cell_length_a 20.868095
_cell_length_b 9.346630
_cell_length_c 8.974609
_cell_angle_alpha 90.000000
_cell_angle_beta 150.159189
_cell_angle_gamma 90.000000
_cell_volume 871.017184
_symmetry_space_group_name_H-M "P 2"
_symmetry_group_IT_number 3
_symmetry_cell_setting 'monoclinic'
loop_
_space_group_symop_operation_xyz
x,y,z
-x,y,-z
loop_
_atom_site_type_symbol
_atom_site_label
_atom_site_fract_x
_atom_site_fract_y
_atom_site_fract_z
Si Si1 0.498810 0.226480 0.176148
Si Si2 0.997572 0.725639 0.169997
Si Si3 0.783646 0.559947 0.218240
Si Si4 0.499084 0.532138 0.678271
Si Si5 0.000760 0.060555 0.823731
Si Si6 0.770001 0.220612 0.194803
Si Si7 0.261549 0.725542 0.178384
Si Si8 0.270410 0.064044 0.201038
O O1 0.533090 0.386742 0.300946
O O2 0.604180 0.121495 0.460483
O O3 0.500000 0.217053 0.000000
O O4 0.356793 0.200199 0.958301
O O5 0.099431 0.622488 0.452718
O O6 0.029734 0.892551 0.265652
O O7 0.000000 0.703482 0.000000
O O8 0.854206 0.702379 0.940913
O O9 0.792356 0.389543 0.214160
O O10 0.643070 0.581512 0.008662
O O11 0.779332 0.645756 0.055217
O O12 0.500000 0.503490 0.500000
O O13 0.393580 0.652063 0.494898
O O14 0.893415 0.153565 0.524677
O O15 0.000000 0.084721 0.000000
O O16 0.141955 0.089132 0.040409
O O17 0.745160 0.145208 0.986806
O O18 0.279724 0.894269 0.191784
#
# Coordination Sequence:
#
# PCOD9113231 Si02
#       8
#     2   2   2   2   2   2   2   2
#     4  11  23  39  58  84 117 150 185 233 285 335
#     4  10  22  38  56  81 116 150 184 228 278 331
#     4  10  21  37  57  84 112 144 188 230 277 331
#     4   9  20  39  59  83 112 144 186 235 280 331
#     4  10  22  40  58  83 117 150 187 235 284 333
#     4  11  23  38  60  86 113 150 191 233 280 335
#     4  10  21  37  60  85 110 145 188 232 277 330
#     4  11  22  38  60  86 113 149 193 232 279 336
#
# _framework density 18.369326000000001
#
# number of rings (size 3 to 8) (size 9 to 14) (size 15 to 20)
#    0.000    1.750    0.000    4.875    0.000   11.500 
#    0.000    0.625    0.000    0.000    0.000    0.000 
#    0.000    0.000    0.000    0.000    0.000    0.000 
#
# Total GULP energy -89386.729949 kJ/mol
# GULP energy per Si atom -5586.670622 kJ/mol
# Density = 1.832752 g / cm^3
# Si number density = 18.369326 Si / 1000 Ang^3
#
#
#
# Elastic Constant Matrix: (Units=GPa)
#
#
# Indices 1 2 3 4 5 6 
#
# 1 120.8407 84.2693 48.7756 0.0000 6.7476 0.0000
# 2 84.2693 116.1121 74.4401 0.0000 11.1139 0.0000
# 3 48.7756 74.4401 69.9641 0.0000 5.0977 0.0000
# 4 0.0000 0.0000 0.0000 11.2164 0.0000 47.2776
# 5 6.7476 11.1139 5.0977 0.0000 16.8969 0.0000
# 6 0.0000 0.0000 0.0000 47.2776 0.0000 -43.0989
#
#
#
# Elastic Compliance Matrix: (Units=1/GPa)
#
#
# Indices 1 2 3 4 5 6 
#
# 1 0.017172 -0.015365 0.004233 0.000000 0.001972 0.000000
# 2 -0.015365 0.042360 -0.033512 0.000000 -0.011616 0.000000
# 3 0.004233 -0.033512 0.046538 0.000000 0.006312 0.000000
# 4 0.000000 0.000000 0.000000 0.015853 0.000000 0.017391
# 5 0.001972 -0.011616 0.006312 0.000000 0.064131 0.000000
# 6 0.000000 0.000000 0.000000 0.017391 0.000000 -0.004126
#
#
# Mechanical properties :
#
#
# Convention : Reuss Voigt Hill
#
# Bulk Modulus (GPa) = 59.58815 80.20965 69.89890
# Shear Modulus (GPa) = 18.06286 3.63169 10.84728
#
# Velocity S-wave (km/s) = 3.13919 1.40760 2.43268
# Velocity P-wave (km/s) = 6.75638 6.81187 6.78418
#
# Compressibility (1/GPa) = 0.01678186
#
# Stress axis : x y z
#
# Youngs Moduli (GPa) = 58.23591 23.60695 21.48773
#
# Poissons Ratio (x) = 0.36272 -0.09096
# Poissons Ratio (y) = 0.89480 0.72010
# Poissons Ratio (z) = -0.24652 0.79112
#
# Static dielectric constant tensor:
#      x y z
#    x 1.620170 0.000000 0.009620 
#    y 0.000000 1.617220 0.000000 
#    z 0.009620 0.000000 1.625420 
# 
# From -- ./inp_files/5599.got.cif
#   From: 2010.05.17/outbox.cif.g08.bks.cpg/sg3_3_cif.got.tgz:5599.got - 2010.06.03 18:33:08.
