data_PCOD9113236
_publ_section_title
;
Structure prediction by ZEFSAII (Michael W. Deem and Ramdas Pophale) SiO2 
 PCOD9113236
Probable space group: P 2
;
_chemical_formula_sum "Si O2"
_cell_formula_units_Z 12
_cell_length_a 5.308688
_cell_length_b 12.858057
_cell_length_c 8.917088
_cell_angle_alpha 90.000000
_cell_angle_beta 95.002264
_cell_angle_gamma 90.000000
_cell_volume 606.356902
_symmetry_space_group_name_H-M "P 2"
_symmetry_group_IT_number 3
_symmetry_cell_setting 'monoclinic'
loop_
_space_group_symop_operation_xyz
x,y,z
-x,y,-z
loop_
_atom_site_type_symbol
_atom_site_label
_atom_site_fract_x
_atom_site_fract_y
_atom_site_fract_z
Si Si1 0.684044 0.505240 0.711992
Si Si2 0.556754 0.105298 0.827925
Si Si3 0.668705 0.322743 0.220695
Si Si4 0.500000 0.687781 0.500000
Si Si5 0.000000 0.824049 0.500000
Si Si6 0.965230 0.026850 0.329448
Si Si7 0.000000 0.427055 0.000000
Si Si8 0.000000 0.366992 0.500000
O O1 0.453245 0.432405 0.745062
O O2 0.585495 0.613489 0.642337
O O3 0.819425 0.443274 0.584472
O O4 0.866899 0.497876 0.866226
O O5 0.524860 0.228827 0.800018
O O6 0.825504 0.069239 0.775620
O O7 0.320979 0.050429 0.732702
O O8 0.500000 0.085994 0.000000
O O9 0.857781 0.300213 0.367460
O O10 0.811984 0.348654 0.075497
O O11 0.253334 0.756216 0.522874
O O12 0.010217 0.903605 0.359707
O O13 0.000000 0.070670 0.500000
#
# Coordination Sequence:
#
# PCOD9113236 Si02
#       8
#     2   2   2   1   1   2   1   1
#     4  11  22  39  63 101 133 182 220 277 314 410
#     4  12  25  41  72 102 140 185 222 267 347 416
#     4  11  24  39  61  97 143 188 214 268 318 411
#     4  12  22  42  78  96 130 172 236 280 352 400
#     4  10  25  47  74  98 124 170 231 305 358 390
#     4  10  25  47  70  99 129 175 230 293 343 401
#     4  10  24  40  60  88 162 178 220 256 340 382
#     4  10  21  37  58  92 144 172 233 263 312 364
#
# _framework density 19.790323999999998
#
# number of rings (size 3 to 8) (size 9 to 14) (size 15 to 20)
#    0.500    0.667    1.667    4.000   10.500    1.333 
#    0.000    0.000    7.333    0.000    0.000    0.000 
#    0.000    0.000    0.000    0.000    0.000    0.000 
#
# Total GULP energy -67010.288978 kJ/mol
# GULP energy per Si atom -5584.190748 kJ/mol
# Density = 1.974528 g / cm^3
# Si number density = 19.790324 Si / 1000 Ang^3
#
#
#
# Elastic Constant Matrix: (Units=GPa)
#
#
# Indices 1 2 3 4 5 6 
#
# 1 78.2274 28.8678 13.1750 0.0000 -11.6575 0.0000
# 2 28.8678 106.6856 23.0737 0.0000 -0.4017 0.0000
# 3 13.1750 23.0737 91.4591 0.0000 0.9378 0.0000
# 4 0.0000 0.0000 0.0000 -5.2719 0.0000 -35.6502
# 5 -11.6575 -0.4017 0.9378 0.0000 51.7303 0.0000
# 6 0.0000 0.0000 0.0000 -35.6502 0.0000 -0.4734
#
#
#
# Elastic Compliance Matrix: (Units=1/GPa)
#
#
# Indices 1 2 3 4 5 6 
#
# 1 0.014871 -0.003745 -0.001232 0.000000 0.003344 0.000000
# 2 -0.003745 0.010858 -0.002192 0.000000 -0.000720 0.000000
# 3 -0.001232 -0.002192 0.011670 0.000000 -0.000506 0.000000
# 4 0.000000 0.000000 0.000000 0.000373 0.000000 -0.028106
# 5 0.003344 -0.000720 -0.000506 0.000000 0.020088 0.000000
# 6 0.000000 0.000000 0.000000 -0.028106 0.000000 0.004156
#
#
# Mechanical properties :
#
#
# Convention : Reuss Voigt Hill
#
# Bulk Modulus (GPa) = 43.36421 45.17836 44.27129
# Shear Modulus (GPa) = 59.49428 23.28070 41.38749
#
# Velocity S-wave (km/s) = 5.48886 3.43354 4.57803
# Velocity P-wave (km/s) = 7.88223 6.21265 7.09671
#
# Compressibility (1/GPa) = 0.02306049
#
# Stress axis : x y z
#
# Youngs Moduli (GPa) = 67.24472 92.09672 85.69272
#
# Poissons Ratio (x) = 0.34490 0.10555
# Poissons Ratio (y) = 0.25183 0.18788
# Poissons Ratio (z) = 0.08283 0.20192
#
# Static dielectric constant tensor:
#      x y z
#    x 1.715040 0.000000 0.073840 
#    y 0.000000 1.684190 0.000000 
#    z 0.073840 0.000000 1.754550 
# 
# From -- ./inp_files/4276.got.cif
#   From: 2010.05.17/outbox.cif.g08.bks.cpg/sg3_3_cif.got.tgz:4276.got - 2010.06.03 18:33:08.
