data_PCOD9113165
_publ_section_title
;
Structure prediction by ZEFSAII (Michael W. Deem and Ramdas Pophale) SiO2 
 PCOD9113165
Probable space group: P 2
;
_chemical_formula_sum "Si O2"
_cell_formula_units_Z 15
_cell_length_a 8.070208
_cell_length_b 5.323686
_cell_length_c 18.063364
_cell_angle_alpha 90.000000
_cell_angle_beta 120.232690
_cell_angle_gamma 90.000000
_cell_volume 670.507030
_symmetry_space_group_name_H-M "P 2"
_symmetry_group_IT_number 3
_symmetry_cell_setting 'monoclinic'
loop_
_space_group_symop_operation_xyz
x,y,z
-x,y,-z
loop_
_atom_site_type_symbol
_atom_site_label
_atom_site_fract_x
_atom_site_fract_y
_atom_site_fract_z
Si Si1 0.577466 0.279580 0.186787
Si Si2 0.602356 0.770636 0.101223
Si Si3 0.717649 0.366115 0.637848
Si Si4 0.573891 0.975616 0.712063
Si Si5 0.500000 0.770563 0.500000
Si Si6 0.791617 0.832292 0.440035
Si Si7 0.034625 0.733937 0.233396
Si Si8 0.046637 0.128655 0.652485
O O1 0.532086 0.549601 0.141426
O O2 0.459493 0.169074 0.229051
O O3 0.791814 0.286457 0.268423
O O4 0.570437 0.050881 0.126042
O O5 0.832314 0.733212 0.147426
O O6 0.500000 0.741579 0.000000
O O7 0.590966 0.144476 0.641464
O O8 0.595579 0.594704 0.583083
O O9 0.874257 0.461330 0.731582
O O10 0.851346 0.278476 0.601846
O O11 0.393573 0.783898 0.658732
O O12 0.785412 0.862351 0.766790
O O13 0.684942 0.867767 0.494544
O O14 0.128214 0.060432 0.591407
O O15 0.000000 0.691622 0.500000
O O16 0.995942 0.888588 0.302247
#
# Coordination Sequence:
#
# PCOD9113165 Si02
#       8
#     2   2   2   2   1   2   2   2
#     4  10  22  42  69 100 137 179 235 282 347 428
#     4  11  23  42  73 105 140 178 233 289 354 426
#     4  11  22  40  65  92 128 177 233 285 358 415
#     4  10  24  41  67  93 132 187 230 288 351 431
#     4  12  26  40  66  96 132 180 234 308 358 416
#     4  11  24  42  61  89 137 174 231 297 356 408
#     4  10  20  42  69  91 135 175 228 274 352 425
#     4   9  21  41  64  91 124 186 224 279 345 425
#
# _framework density 22.371127000000001
#
# number of rings (size 3 to 8) (size 9 to 14) (size 15 to 20)
#    0.000    1.600    2.667    1.200    5.600    1.067 
#    4.800    0.667    0.000    0.000    0.000    0.000 
#    0.000    0.000    0.000    0.000    0.000    0.000 
#
# Total GULP energy -83538.083344 kJ/mol
# GULP energy per Si atom -5569.205556 kJ/mol
# Density = 2.232021 g / cm^3
# Si number density = 22.371127 Si / 1000 Ang^3
#
#
#
# Elastic Constant Matrix: (Units=GPa)
#
#
# Indices 1 2 3 4 5 6 
#
# 1 165.8704 24.9561 39.8455 0.0000 10.3090 0.0000
# 2 24.9561 57.0270 7.0435 0.0000 11.9273 0.0000
# 3 39.8455 7.0435 94.9773 0.0000 23.7595 0.0000
# 4 0.0000 0.0000 0.0000 18.3314 0.0000 -5.5184
# 5 10.3090 11.9273 23.7595 0.0000 27.6733 0.0000
# 6 0.0000 0.0000 0.0000 -5.5184 0.0000 16.1732
#
#
#
# Elastic Compliance Matrix: (Units=1/GPa)
#
#
# Indices 1 2 3 4 5 6 
#
# 1 0.007146 -0.003016 -0.003099 0.000000 0.001299 0.000000
# 2 -0.003016 0.020597 0.002136 0.000000 -0.009588 0.000000
# 3 -0.003099 0.002136 0.014788 0.000000 -0.012463 0.000000
# 4 0.000000 0.000000 0.000000 0.060796 0.000000 0.020744
# 5 0.001299 -0.009588 -0.012463 0.000000 0.050485 0.000000
# 6 0.000000 0.000000 0.000000 0.020744 0.000000 0.068909
#
#
# Mechanical properties :
#
#
# Convention : Reuss Voigt Hill
#
# Bulk Modulus (GPa) = 28.92376 51.28500 40.10438
# Shear Modulus (GPa) = 20.64375 28.83755 24.74065
#
# Velocity S-wave (km/s) = 3.04103 3.59423 3.32914
# Velocity P-wave (km/s) = 5.02868 6.34027 5.72218
#
# Compressibility (1/GPa) = 0.03457365
#
# Stress axis : x y z
#
# Youngs Moduli (GPa) = 139.93017 48.55074 67.62047
#
# Poissons Ratio (x) = 0.14644 0.20958
# Poissons Ratio (y) = 0.42207 -0.14447
# Poissons Ratio (z) = 0.43369 -0.10373
#
# Static dielectric constant tensor:
#      x y z
#    x 1.885080 0.000000 -0.006570 
#    y 0.000000 1.911710 0.000000 
#    z -0.006570 0.000000 2.377250 
# 
# From -- ./inp_files/8293.got.cif
#   From: 2010.05.17/outbox.cif.g08.bks.cpg/sg3_5_cif.got.tgz:8293.got - 2010.06.03 18:33:08.
