data_PCOD9113400
_publ_section_title
;
Structure prediction by ZEFSAII (Michael W. Deem and Ramdas Pophale) SiO2 
 PCOD9113400
Probable space group: P 2
;
_chemical_formula_sum "Si O2"
_cell_formula_units_Z 13
_cell_length_a 8.130991
_cell_length_b 10.058416
_cell_length_c 8.810558
_cell_angle_alpha 90.000000
_cell_angle_beta 129.973733
_cell_angle_gamma 90.000000
_cell_volume 552.201322
_symmetry_space_group_name_H-M "P 2"
_symmetry_group_IT_number 3
_symmetry_cell_setting 'monoclinic'
loop_
_space_group_symop_operation_xyz
x,y,z
-x,y,-z
loop_
_atom_site_type_symbol
_atom_site_label
_atom_site_fract_x
_atom_site_fract_y
_atom_site_fract_z
Si Si1 0.441198 0.697970 0.280511
Si Si2 0.516003 0.214020 0.684893
Si Si3 0.056301 0.998018 0.704846
Si Si4 0.776029 0.962743 0.802758
Si Si5 0.500000 0.838778 0.000000
Si Si6 0.209379 0.443767 0.033619
Si Si7 0.256055 0.276486 0.798227
O O1 0.500000 0.689720 0.500000
O O2 0.256894 0.809553 0.180106
O O3 0.381336 0.552267 0.186137
O O4 0.550005 0.757312 0.187218
O O5 0.500000 0.242194 0.500000
O O6 0.713688 0.301418 0.860850
O O7 0.304821 0.264382 0.648135
O O8 0.583968 0.059359 0.738119
O O9 0.277661 0.924012 0.886445
O O10 0.000000 0.965714 0.500000
O O11 0.836267 0.967293 0.662199
O O12 0.107399 0.153940 0.751335
O O13 0.000000 0.014795 0.000000
O O14 0.188567 0.412982 0.841088
O O15 0.000000 0.484067 0.000000
O O16 0.500000 0.248424 0.000000
#
# Coordination Sequence:
#
# PCOD9113400 Si02
#       7
#     2   2   2   2   1   2   2
#     4  12  27  48  73 102 142 194 248 300 372 442
#     4  11  22  40  69 103 138 180 237 294 356 440
#     4  12  23  41  72 112 147 187 242 300 371 443
#     4  12  22  41  69 103 140 183 230 297 370 425
#     4  12  26  46  74 108 152 192 236 316 360 448
#     4  11  25  44  67  92 140 190 239 298 365 426
#     4  10  21  40  67  97 144 185 236 293 369 425
#
# _framework density 23.542138000000001
#
# number of rings (size 3 to 8) (size 9 to 14) (size 15 to 20)
#    0.000    0.615    2.308    7.385    3.231    0.000 
#    0.000    0.000    0.000    0.000    0.000    0.000 
#    0.000    0.000    0.000    0.000    0.000    0.000 
#
# Total GULP energy -72411.786309 kJ/mol
# GULP energy per Si atom -5570.137408 kJ/mol
# Density = 2.348855 g / cm^3
# Si number density = 23.542138 Si / 1000 Ang^3
#
#
#
# Elastic Constant Matrix: (Units=GPa)
#
#
# Indices 1 2 3 4 5 6 
#
# 1 80.0364 38.5267 31.2653 0.0000 -28.8778 0.0000
# 2 38.5267 87.8414 35.8317 0.0000 -10.4581 0.0000
# 3 31.2653 35.8317 117.0799 0.0000 -31.8684 0.0000
# 4 0.0000 0.0000 0.0000 -2.0358 0.0000 -9.5791
# 5 -28.8778 -10.4581 -31.8684 0.0000 49.9395 0.0000
# 6 0.0000 0.0000 0.0000 -9.5791 0.0000 24.2126
#
#
#
# Elastic Compliance Matrix: (Units=1/GPa)
#
#
# Indices 1 2 3 4 5 6 
#
# 1 0.019614 -0.007301 -0.000402 0.000000 0.009556 0.000000
# 2 -0.007301 0.015728 -0.003771 0.000000 -0.003335 0.000000
# 3 -0.000402 -0.003771 0.011527 0.000000 0.006333 0.000000
# 4 0.000000 0.000000 0.000000 -0.171657 0.000000 -0.067912
# 5 0.009556 -0.003335 0.006333 0.000000 0.028893 0.000000
# 6 0.000000 0.000000 0.000000 -0.067912 0.000000 0.014433
#
#
# Mechanical properties :
#
#
# Convention : Reuss Voigt Hill
#
# Bulk Modulus (GPa) = 41.80730 55.13390 48.47060
# Shear Modulus (GPa) = -98.92988 26.37887 -36.27551
#
# Velocity S-wave (km/s) = -6.48951 3.35101 -3.92966
# Velocity P-wave (km/s) = 6.19310 6.20020 0.20965
#
# Compressibility (1/GPa) = 0.02391927
#
# Stress axis : x y z
#
# Youngs Moduli (GPa) = 50.98496 63.58266 86.75514
#
# Poissons Ratio (x) = 0.46419 0.03490
# Poissons Ratio (y) = 0.37222 0.32719
# Poissons Ratio (z) = 0.02051 0.23980
#
# Static dielectric constant tensor:
#      x y z
#    x 2.100240 0.000000 -0.211420 
#    y 0.000000 1.831240 0.000000 
#    z -0.211420 0.000000 2.137430 
# 
# From -- ./inp_files/5642.got.cif
#   From: 2010.05.17/outbox.cif.g08.bks.cpg/sg3_3_cif.got.tgz:5642.got - 2010.06.03 18:33:08.
