data_PCOD9113720
_publ_section_title
;
Structure prediction by ZEFSAII (Michael W. Deem and Ramdas Pophale) SiO2 
 PCOD9113720
Probable space group: P 2
;
_chemical_formula_sum "Si O2"
_cell_formula_units_Z 13
_cell_length_a 7.771142
_cell_length_b 13.151979
_cell_length_c 8.050975
_cell_angle_alpha 90.000000
_cell_angle_beta 43.412754
_cell_angle_gamma 90.000000
_cell_volume 565.507919
_symmetry_space_group_name_H-M "P 2"
_symmetry_group_IT_number 3
_symmetry_cell_setting 'monoclinic'
loop_
_space_group_symop_operation_xyz
x,y,z
-x,y,-z
loop_
_atom_site_type_symbol
_atom_site_label
_atom_site_fract_x
_atom_site_fract_y
_atom_site_fract_z
Si Si1 0.500000 0.118600 0.500000
Si Si2 0.500000 0.632709 0.500000
Si Si3 0.500000 0.147460 0.000000
Si Si4 0.797430 0.593040 0.788507
Si Si5 0.755415 0.769183 0.057808
Si Si6 0.107364 0.449293 0.755245
Si Si7 0.235903 0.261993 0.460731
Si Si8 0.758208 0.001589 0.044848
O O1 0.270370 0.189565 0.598861
O O2 0.546615 0.045619 0.313277
O O3 0.544066 0.707213 0.311323
O O4 0.269420 0.552658 0.665305
O O5 0.547377 0.222627 0.812547
O O6 0.273807 0.072517 0.096849
O O7 0.000000 0.589157 0.500000
O O8 0.860777 0.491030 0.842385
O O9 0.500000 0.591031 0.000000
O O10 0.841111 0.700298 0.846419
O O11 0.698786 0.884384 0.048263
O O12 0.000000 0.775167 0.000000
O O13 0.247494 0.373032 0.534155
O O14 0.000000 0.402600 0.000000
O O15 0.000000 0.256086 0.500000
O O16 0.000000 0.007718 0.000000
#
# Coordination Sequence:
#
# PCOD9113720 Si02
#       8
#     1   1   1   2   2   2   2   2
#     4  10  22  46  68 102 134 190 242 310 366 446
#     4  12  20  44  72  96 154 188 260 302 362 458
#     4  10  24  48  70 102 144 182 246 314 368 448
#     4  12  26  47  71 107 159 193 248 310 374 452
#     4  11  23  42  69 104 139 197 242 301 373 453
#     4  12  26  46  70 102 140 201 246 306 372 447
#     4  11  25  45  71 102 139 185 246 302 376 436
#     4  10  22  42  72 100 142 185 240 299 380 438
#
# _framework density 22.988181000000001
#
# number of rings (size 3 to 8) (size 9 to 14) (size 15 to 20)
#    0.000    0.923    3.077    3.231    1.077    4.308 
#    8.308    0.769    0.000    0.000    0.000    0.000 
#    0.000    0.000    0.000    0.000    0.000    0.000 
#
# Total GULP energy -72433.128781 kJ/mol
# GULP energy per Si atom -5571.779137 kJ/mol
# Density = 2.293586 g / cm^3
# Si number density = 22.988181 Si / 1000 Ang^3
#
#
#
# Elastic Constant Matrix: (Units=GPa)
#
#
# Indices 1 2 3 4 5 6 
#
# 1 75.3480 34.5546 26.8985 0.0000 5.1884 0.0000
# 2 34.5546 156.0866 46.1147 0.0000 12.6808 0.0000
# 3 26.8985 46.1147 84.9033 0.0000 18.7274 0.0000
# 4 0.0000 0.0000 0.0000 -71.2104 0.0000 -123.3014
# 5 5.1884 12.6808 18.7274 0.0000 35.0877 0.0000
# 6 0.0000 0.0000 0.0000 -123.3014 0.0000 -137.3385
#
#
#
# Elastic Compliance Matrix: (Units=1/GPa)
#
#
# Indices 1 2 3 4 5 6 
#
# 1 0.015686 -0.002398 -0.003793 0.000000 0.000572 0.000000
# 2 -0.002398 0.008010 -0.003435 0.000000 -0.000707 0.000000
# 3 -0.003793 -0.003435 0.016376 0.000000 -0.006938 0.000000
# 4 0.000000 0.000000 0.000000 0.025324 0.000000 -0.022736
# 5 0.000572 -0.000707 -0.006938 0.000000 0.032374 0.000000
# 6 0.000000 0.000000 0.000000 -0.022736 0.000000 0.013130
#
#
# Mechanical properties :
#
#
# Convention : Reuss Voigt Hill
#
# Bulk Modulus (GPa) = 48.03200 59.05261 53.54230
# Shear Modulus (GPa) = 36.47171 -20.77424 7.84873
#
# Velocity S-wave (km/s) = 3.98746 -3.00941 1.84977
# Velocity P-wave (km/s) = 6.49149 3.69711 5.28242
#
# Compressibility (1/GPa) = 0.02081945
#
# Stress axis : x y z
#
# Youngs Moduli (GPa) = 63.74950 124.84595 61.06619
#
# Poissons Ratio (x) = 0.29944 0.23163
# Poissons Ratio (y) = 0.15290 0.20974
# Poissons Ratio (z) = 0.24180 0.42881
#
# Static dielectric constant tensor:
#      x y z
#    x 2.031460 0.000000 0.156000 
#    y 0.000000 1.835370 0.000000 
#    z 0.156000 0.000000 2.305570 
# 
# From -- ./inp_files/5908.got.cif
#   From: 2010.05.17/outbox.cif.g08.bks.cpg/sg3_3_cif.got.tgz:5908.got - 2010.06.03 18:33:08.
