data_PCOD9113167
_publ_section_title
;
Structure prediction by ZEFSAII (Michael W. Deem and Ramdas Pophale) SiO2 
 PCOD9113167
Probable space group: P 2
;
_chemical_formula_sum "Si O2"
_cell_formula_units_Z 14
_cell_length_a 13.557999
_cell_length_b 8.970417
_cell_length_c 6.113755
_cell_angle_alpha 90.000000
_cell_angle_beta 52.993859
_cell_angle_gamma 90.000000
_cell_volume 593.785785
_symmetry_space_group_name_H-M "P 2"
_symmetry_group_IT_number 3
_symmetry_cell_setting 'monoclinic'
loop_
_space_group_symop_operation_xyz
x,y,z
-x,y,-z
loop_
_atom_site_type_symbol
_atom_site_label
_atom_site_fract_x
_atom_site_fract_y
_atom_site_fract_z
Si Si1 0.782928 0.021050 0.318065
Si Si2 0.327266 0.815295 0.871556
Si Si3 0.881937 0.776507 0.500738
Si Si4 0.376552 0.539701 0.522791
Si Si5 0.000000 0.217523 0.000000
Si Si6 0.500000 0.725399 0.000000
Si Si7 0.880032 0.433725 0.507762
Si Si8 0.352507 0.277274 0.262108
O O1 0.704411 0.116872 0.599298
O O2 0.888774 0.116931 0.055613
O O3 0.689017 0.948698 0.273187
O O4 0.861612 0.890520 0.330788
O O5 0.307559 0.661230 0.762591
O O6 0.225640 0.817338 0.190430
O O7 0.449676 0.813106 0.857064
O O8 0.867477 0.604528 0.446261
O O9 0.000000 0.792006 0.500000
O O10 0.500000 0.519169 0.500000
O O11 0.404550 0.617243 0.250629
O O12 0.335026 0.376916 0.506499
O O13 0.928546 0.320938 0.262063
O O14 0.747774 0.363126 0.762194
O O15 0.000000 0.439666 0.500000
O O16 0.500000 0.276472 0.000000
#
# Coordination Sequence:
#
# PCOD9113167 Si02
#       8
#     2   2   2   2   1   1   2   2
#     4  11  25  45  68 106 148 194 233 295 373 441
#     4  11  23  43  72 104 139 189 243 301 357 430
#     4  11  25  45  73 108 138 185 243 309 359 424
#     4  10  22  43  72 100 134 187 242 300 353 420
#     4  10  24  46  72 102 142 184 240 290 360 450
#     4  10  20  42  70 100 134 178 244 300 348 404
#     4  10  24  45  77 103 134 187 247 303 358 416
#     4  11  24  47  69 105 149 193 234 298 364 442
#
# _framework density 23.577527
#
# number of rings (size 3 to 8) (size 9 to 14) (size 15 to 20)
#    0.000    1.429    0.714    3.429    2.000   12.000 
#   12.857    0.000    0.000    0.857    0.000    0.000 
#    0.000    0.000    0.000    0.000    0.000    0.000 
#
# Total GULP energy -78111.236510 kJ/mol
# GULP energy per Si atom -5579.374036 kJ/mol
# Density = 2.352386 g / cm^3
# Si number density = 23.577527 Si / 1000 Ang^3
#
#
#
# Elastic Constant Matrix: (Units=GPa)
#
#
# Indices 1 2 3 4 5 6 
#
# 1 147.2050 71.6243 23.6823 0.0000 -9.1303 0.0000
# 2 71.6243 136.9132 29.8872 0.0000 0.3932 0.0000
# 3 23.6823 29.8872 58.8654 0.0000 -13.0446 0.0000
# 4 0.0000 0.0000 0.0000 3.9802 0.0000 4.8059
# 5 -9.1303 0.3932 -13.0446 0.0000 44.3192 0.0000
# 6 0.0000 0.0000 0.0000 4.8059 0.0000 24.7147
#
#
#
# Elastic Compliance Matrix: (Units=1/GPa)
#
#
# Indices 1 2 3 4 5 6 
#
# 1 0.009329 -0.004663 -0.001017 0.000000 0.001664 0.000000
# 2 -0.004663 0.010626 -0.004015 0.000000 -0.002237 0.000000
# 3 -0.001017 -0.004015 0.020750 0.000000 0.005934 0.000000
# 4 0.000000 0.000000 0.000000 0.328331 0.000000 -0.063846
# 5 0.001664 -0.002237 0.005934 0.000000 0.024673 0.000000
# 6 0.000000 0.000000 0.000000 -0.063846 0.000000 0.052877
#
#
# Mechanical properties :
#
#
# Convention : Reuss Voigt Hill
#
# Bulk Modulus (GPa) = 46.91318 65.93012 56.42165
# Shear Modulus (GPa) = 10.56904 29.12216 19.84560
#
# Velocity S-wave (km/s) = 2.11953 3.51831 2.90438
# Velocity P-wave (km/s) = 5.09220 6.67296 5.93544
#
# Compressibility (1/GPa) = 0.02131597
#
# Stress axis : x y z
#
# Youngs Moduli (GPa) = 107.19339 94.10748 48.19215
#
# Poissons Ratio (x) = 0.43883 0.04900
# Poissons Ratio (y) = 0.49985 0.19348
# Poissons Ratio (z) = 0.10900 0.37781
#
# Static dielectric constant tensor:
#      x y z
#    x 2.364610 0.000000 -0.303920 
#    y 0.000000 1.951840 0.000000 
#    z -0.303920 0.000000 1.971420 
# 
# From -- ./inp_files/3140.got.cif
#   From: 2010.05.17/outbox.cif.g08.bks.cpg/sg3_2_cif.got.tgz:3140.got - 2010.06.03 18:33:08.
