data_PCOD9113852
_publ_section_title
;
Structure prediction by ZEFSAII (Michael W. Deem and Ramdas Pophale) SiO2 
 PCOD9113852
Probable space group: P 2
;
_chemical_formula_sum "Si O2"
_cell_formula_units_Z 15
_cell_length_a 8.698756
_cell_length_b 7.327442
_cell_length_c 19.373997
_cell_angle_alpha 90.000000
_cell_angle_beta 34.039927
_cell_angle_gamma 90.000000
_cell_volume 691.255763
_symmetry_space_group_name_H-M "P 2"
_symmetry_group_IT_number 3
_symmetry_cell_setting 'monoclinic'
loop_
_space_group_symop_operation_xyz
x,y,z
-x,y,-z
loop_
_atom_site_type_symbol
_atom_site_label
_atom_site_fract_x
_atom_site_fract_y
_atom_site_fract_z
Si Si1 0.746781 0.070870 0.643871
Si Si2 0.886995 0.246236 0.738600
Si Si3 0.383200 0.715774 0.771650
Si Si4 0.497218 0.563225 0.874284
Si Si5 0.500000 0.280393 0.500000
Si Si6 0.847069 0.273177 0.909167
Si Si7 0.851320 0.887325 0.979304
Si Si8 0.478283 0.395052 0.656969
O O1 0.624749 0.240112 0.646649
O O2 0.000000 0.013672 0.500000
O O3 0.791689 0.141940 0.705313
O O4 0.541154 0.902135 0.726867
O O5 0.207684 0.189624 0.624109
O O6 0.770758 0.213989 0.859066
O O7 0.792606 0.460719 0.762440
O O8 0.377154 0.582847 0.841169
O O9 0.085769 0.770818 0.853225
O O10 0.545336 0.595215 0.657459
O O11 0.321311 0.430892 0.988999
O O12 0.430826 0.771855 0.921980
O O13 0.559381 0.386306 0.547601
O O14 0.155348 0.352333 0.786731
O O15 0.835522 0.091903 0.959464
O O16 0.000000 0.888733 0.000000
#
# Coordination Sequence:
#
# PCOD9113852 Si02
#       8
#     2   2   2   2   1   2   2   2
#     4  12  25  45  72 102 137 184 245 291 339 409
#     4  11  25  46  69 103 136 187 234 290 349 414
#     4  11  24  41  70 107 135 180 231 285 346 410
#     4  11  24  42  67 103 141 179 229 279 340 424
#     4  10  24  46  76  96 132 192 228 290 366 402
#     4  11  24  44  70 102 146 183 225 279 360 420
#     4  10  23  39  67 102 139 179 225 274 341 419
#     4  11  22  45  74  99 143 178 233 287 349 420
#
# _framework density 21.699638
#
# number of rings (size 3 to 8) (size 9 to 14) (size 15 to 20)
#    0.000    1.067    5.333    0.400    5.600    1.600 
#    4.800    2.000    0.000    0.000    0.000    0.000 
#    0.000    0.000    0.000    0.000    0.000    0.000 
#
# Total GULP energy -83556.300082 kJ/mol
# GULP energy per Si atom -5570.420005 kJ/mol
# Density = 2.165025 g / cm^3
# Si number density = 21.699638 Si / 1000 Ang^3
#
#
#
# Elastic Constant Matrix: (Units=GPa)
#
#
# Indices 1 2 3 4 5 6 
#
# 1 74.1228 27.9848 2.8208 0.0000 15.7259 0.0000
# 2 27.9848 110.2724 16.7830 0.0000 7.5249 0.0000
# 3 2.8208 16.7830 53.6671 0.0000 -2.5057 0.0000
# 4 0.0000 0.0000 0.0000 25.9346 0.0000 0.4263
# 5 15.7259 7.5249 -2.5057 0.0000 41.3450 0.0000
# 6 0.0000 0.0000 0.0000 0.4263 0.0000 -39.2696
#
#
#
# Elastic Compliance Matrix: (Units=1/GPa)
#
#
# Indices 1 2 3 4 5 6 
#
# 1 0.016040 -0.003710 0.000064 0.000000 -0.005422 0.000000
# 2 -0.003710 0.010534 -0.003132 0.000000 -0.000696 0.000000
# 3 0.000064 -0.003132 0.019691 0.000000 0.001739 0.000000
# 4 0.000000 0.000000 0.000000 0.038552 0.000000 0.000418
# 5 -0.005422 -0.000696 0.001739 0.000000 0.026481 0.000000
# 6 0.000000 0.000000 0.000000 0.000418 0.000000 -0.025460
#
#
# Mechanical properties :
#
#
# Convention : Reuss Voigt Hill
#
# Bulk Modulus (GPa) = 30.57304 37.02660 33.79982
# Shear Modulus (GPa) = 45.33277 18.30025 31.81651
#
# Velocity S-wave (km/s) = 4.57563 2.90719 3.83328
# Velocity P-wave (km/s) = 6.48344 5.32628 5.93314
#
# Compressibility (1/GPa) = 0.03270856
#
# Stress axis : x y z
#
# Youngs Moduli (GPa) = 62.34497 94.92907 50.78570
#
# Poissons Ratio (x) = 0.35222 -0.00326
# Poissons Ratio (y) = 0.23132 0.15905
# Poissons Ratio (z) = -0.00400 0.29729
#
# Static dielectric constant tensor:
#      x y z
#    x 1.865030 0.000000 -0.013680 
#    y 0.000000 1.747900 0.000000 
#    z -0.013680 0.000000 1.883150 
# 
# From -- ./inp_files/15721.got.cif
#   From: 2010.05.17/outbox.cif.g08.bks.cpg/sg3_8_cif.got.tgz:15721.got - 2010.06.03 18:33:08.
