data_PCOD9113396
_publ_section_title
;
Structure prediction by ZEFSAII (Michael W. Deem and Ramdas Pophale) SiO2 
 PCOD9113396
Probable space group: P 2
;
_chemical_formula_sum "Si O2"
_cell_formula_units_Z 10
_cell_length_a 5.628700
_cell_length_b 10.822597
_cell_length_c 7.199752
_cell_angle_alpha 90.000000
_cell_angle_beta 106.302014
_cell_angle_gamma 90.000000
_cell_volume 420.955126
_symmetry_space_group_name_H-M "P 2"
_symmetry_group_IT_number 3
_symmetry_cell_setting 'monoclinic'
loop_
_space_group_symop_operation_xyz
x,y,z
-x,y,-z
loop_
_atom_site_type_symbol
_atom_site_label
_atom_site_fract_x
_atom_site_fract_y
_atom_site_fract_z
Si Si1 0.465648 0.702180 0.211992
Si Si2 0.041238 0.379368 0.289765
Si Si3 0.051309 0.091353 0.222681
Si Si4 0.554988 0.986661 0.233991
Si Si5 0.000000 0.572028 0.000000
Si Si6 0.500000 0.512248 0.500000
O O1 0.178070 0.660429 0.159293
O O2 0.613553 0.608990 0.376739
O O3 0.525238 0.842346 0.273090
O O4 0.500000 0.687218 0.000000
O O5 0.013688 0.238245 0.227187
O O6 0.891097 0.473222 0.125415
O O7 0.324396 0.425601 0.339782
O O8 0.000000 0.389975 0.500000
O O9 0.340865 0.057000 0.302108
O O10 0.838069 0.032579 0.305131
O O11 0.000000 0.048759 0.000000
O O12 0.500000 0.001639 0.000000
#
# Coordination Sequence:
#
# PCOD9113396 Si02
#       6
#     2   2   2   2   1   1
#     4  10  21  40  67  92 129 169 217 270 340 388
#     4  11  23  41  64  93 133 169 227 270 335 391
#     4  10  21  42  65  98 127 178 219 275 324 399
#     4   9  21  38  69  94 132 168 226 269 332 391
#     4  10  22  40  66  96 126 172 220 266 344 396
#     4  10  24  42  60 100 130 166 226 276 324 404
#
# _framework density 23.755500999999999
#
# number of rings (size 3 to 8) (size 9 to 14) (size 15 to 20)
#    0.000    2.000    1.000    1.200    9.800    0.000 
#    3.600    0.000    0.000    0.000    0.000    0.000 
#    0.000    0.000    0.000    0.000    0.000    0.000 
#
# Total GULP energy -55765.995673 kJ/mol
# GULP energy per Si atom -5576.599567 kJ/mol
# Density = 2.370143 g / cm^3
# Si number density = 23.755501 Si / 1000 Ang^3
#
#
#
# Elastic Constant Matrix: (Units=GPa)
#
#
# Indices 1 2 3 4 5 6 
#
# 1 129.2700 80.4127 31.0478 0.0000 -6.8438 0.0000
# 2 80.4127 143.3173 7.8556 0.0000 3.2589 0.0000
# 3 31.0478 7.8556 95.9946 0.0000 3.3297 0.0000
# 4 0.0000 0.0000 0.0000 15.7818 0.0000 -3.7359
# 5 -6.8438 3.2589 3.3297 0.0000 39.7587 0.0000
# 6 0.0000 0.0000 0.0000 -3.7359 0.0000 29.5803
#
#
#
# Elastic Compliance Matrix: (Units=1/GPa)
#
#
# Indices 1 2 3 4 5 6 
#
# 1 0.013437 -0.007402 -0.003853 0.000000 0.003242 0.000000
# 2 -0.007402 0.011097 0.001566 0.000000 -0.002315 0.000000
# 3 -0.003853 0.001566 0.011596 0.000000 -0.001763 0.000000
# 4 0.000000 0.000000 0.000000 0.065317 0.000000 0.008249
# 5 0.003242 -0.002315 -0.001763 0.000000 0.026047 0.000000
# 6 0.000000 0.000000 0.000000 0.008249 0.000000 0.034848
#
#
# Mechanical properties :
#
#
# Convention : Reuss Voigt Hill
#
# Bulk Modulus (GPa) = 59.68755 67.46825 63.57790
# Shear Modulus (GPa) = 26.69447 33.64188 30.16818
#
# Velocity S-wave (km/s) = 3.35583 3.76729 3.56749
# Velocity P-wave (km/s) = 6.34001 6.88375 6.61747
#
# Compressibility (1/GPa) = 0.01675391
#
# Stress axis : x y z
#
# Youngs Moduli (GPa) = 74.42092 90.11153 86.23417
#
# Poissons Ratio (x) = 0.66699 0.33224
# Poissons Ratio (y) = 0.55085 -0.13506
# Poissons Ratio (z) = 0.28672 -0.14113
#
# Static dielectric constant tensor:
#      x y z
#    x 2.061840 0.000000 0.019310 
#    y 0.000000 1.818280 0.000000 
#    z 0.019310 0.000000 1.988470 
# 
# From -- ./inp_files/1001.got.cif
#   From: 2010.05.17/outbox.cif.g08.bks.cpg/sg3_1_cif.got.tgz:1001.got - 2010.06.03 18:33:08.
