data_PCOD9113163
_publ_section_title
;
Structure prediction by ZEFSAII (Michael W. Deem and Ramdas Pophale) SiO2 
 PCOD9113163
Probable space group: P 2
;
_chemical_formula_sum "Si O2"
_cell_formula_units_Z 14
_cell_length_a 6.184010
_cell_length_b 6.238683
_cell_length_c 16.796984
_cell_angle_alpha 90.000000
_cell_angle_beta 93.602740
_cell_angle_gamma 90.000000
_cell_volume 646.748270
_symmetry_space_group_name_H-M "P 2"
_symmetry_group_IT_number 3
_symmetry_cell_setting 'monoclinic'
loop_
_space_group_symop_operation_xyz
x,y,z
-x,y,-z
loop_
_atom_site_type_symbol
_atom_site_label
_atom_site_fract_x
_atom_site_fract_y
_atom_site_fract_z
Si Si1 0.143423 0.969580 0.213283
Si Si2 0.502004 0.627774 0.722454
Si Si3 0.000000 0.178428 0.500000
Si Si4 0.801973 0.641761 0.144275
Si Si5 0.500000 0.578900 0.000000
Si Si6 0.391652 0.905554 0.576358
Si Si7 0.863470 0.300792 0.922454
Si Si8 0.750046 0.248179 0.642270
O O1 0.335035 0.802591 0.236247
O O2 0.930786 0.841434 0.182868
O O3 0.205193 0.123304 0.141946
O O4 0.110783 0.111798 0.291348
O O5 0.345059 0.548257 0.788366
O O6 0.370897 0.740483 0.647894
O O7 0.645638 0.443611 0.686635
O O8 0.885322 0.310579 0.567372
O O9 0.825784 0.023614 0.454351
O O10 0.649247 0.703619 0.066250
O O11 0.975486 0.469309 0.116889
O O12 0.338841 0.430389 0.047357
O O13 0.500000 0.802321 0.500000
O O14 0.560109 0.089579 0.608065
O O15 0.000000 0.208287 0.000000
#
# Coordination Sequence:
#
# PCOD9113163 Si02
#       8
#     2   2   1   2   1   2   2   2
#     4  11  23  41  64  93 125 164 211 255 309 369
#     4  11  24  41  65  94 128 164 206 258 310 367
#     4  10  20  42  68  88 124 168 210 256 306 368
#     4  11  23  40  64  93 126 164 206 257 310 370
#     4  10  22  44  64  88 130 164 202 258 312 370
#     4   9  21  40  62  93 128 163 208 258 309 365
#     4  10  24  43  64  92 125 163 206 254 312 373
#     4  10  22  40  62  94 128 164 208 258 311 364
#
# _framework density 21.646753
#
# number of rings (size 3 to 8) (size 9 to 14) (size 15 to 20)
#    0.000    1.714    0.000    3.429    0.000   11.429 
#    0.000    8.571    0.000    0.000    0.000    0.000 
#    0.000    0.000    0.000    0.000    0.000    0.000 
#
# Total GULP energy -78330.513052 kJ/mol
# GULP energy per Si atom -5595.036647 kJ/mol
# Density = 2.159748 g / cm^3
# Si number density = 21.646753 Si / 1000 Ang^3
#
#
#
# Elastic Constant Matrix: (Units=GPa)
#
#
# Indices 1 2 3 4 5 6 
#
# 1 101.8872 31.1843 74.7695 0.0000 -17.4574 0.0000
# 2 31.1843 57.9010 59.3131 0.0000 -6.1173 0.0000
# 3 74.7695 59.3131 170.0954 0.0000 -4.7763 0.0000
# 4 0.0000 0.0000 0.0000 31.8922 0.0000 -7.7775
# 5 -17.4574 -6.1173 -4.7763 0.0000 57.6108 0.0000
# 6 0.0000 0.0000 0.0000 -7.7775 0.0000 8.4478
#
#
#
# Elastic Compliance Matrix: (Units=1/GPa)
#
#
# Indices 1 2 3 4 5 6 
#
# 1 0.015504 -0.001649 -0.006127 0.000000 0.004015 0.000000
# 2 -0.001649 0.027295 -0.008746 0.000000 0.001673 0.000000
# 3 -0.006127 -0.008746 0.011571 0.000000 -0.001826 0.000000
# 4 0.000000 0.000000 0.000000 0.040434 0.000000 0.037226
# 5 0.004015 0.001673 -0.001826 0.000000 0.018601 0.000000
# 6 0.000000 0.000000 0.000000 0.037226 0.000000 0.152646
#
#
# Mechanical properties :
#
#
# Convention : Reuss Voigt Hill
#
# Bulk Modulus (GPa) = 46.89316 73.37970 60.13643
# Shear Modulus (GPa) = 16.32896 30.56462 23.44679
#
# Velocity S-wave (km/s) = 2.74950 3.76170 3.29470
# Velocity P-wave (km/s) = 5.63823 7.26908 6.50496
#
# Compressibility (1/GPa) = 0.02132507
#
# Stress axis : x y z
#
# Youngs Moduli (GPa) = 64.49961 36.63645 86.42304
#
# Poissons Ratio (x) = 0.06042 0.52954
# Poissons Ratio (y) = 0.10637 0.75586
# Poissons Ratio (z) = 0.39521 0.32042
#
# Static dielectric constant tensor:
#      x y z
#    x 1.777860 0.000000 0.002710 
#    y 0.000000 1.749940 0.000000 
#    z 0.002710 0.000000 1.801120 
# 
# From -- ./inp_files/14608.got.cif
#   From: 2010.05.17/outbox.cif.g08.bks.cpg/sg3_8_cif.got.tgz:14608.got - 2010.06.03 18:33:08.
