data_PCOD9113074
_publ_section_title
;
Structure prediction by ZEFSAII (Michael W. Deem and Ramdas Pophale) SiO2 
 PCOD9113074
Probable space group: P 2
;
_chemical_formula_sum "Si O2"
_cell_formula_units_Z 14
_cell_length_a 11.561976
_cell_length_b 9.397337
_cell_length_c 9.673744
_cell_angle_alpha 90.000000
_cell_angle_beta 143.221114
_cell_angle_gamma 90.000000
_cell_volume 629.305277
_symmetry_space_group_name_H-M "P 2"
_symmetry_group_IT_number 3
_symmetry_cell_setting 'monoclinic'
loop_
_space_group_symop_operation_xyz
x,y,z
-x,y,-z
loop_
_atom_site_type_symbol
_atom_site_label
_atom_site_fract_x
_atom_site_fract_y
_atom_site_fract_z
Si Si1 0.707366 0.942800 0.768759
Si Si2 0.254291 0.259302 0.151982
Si Si3 0.460473 0.850099 0.111870
Si Si4 0.668214 0.408033 0.509639
Si Si5 0.221210 0.723945 0.389644
Si Si6 0.985975 0.325244 0.340567
Si Si7 0.122110 0.642653 0.748905
O O1 0.500000 0.938898 0.500000
O O2 0.673274 0.925299 0.900206
O O3 0.801294 0.815606 0.770996
O O4 0.771985 0.103567 0.807842
O O5 0.472383 0.314066 0.321092
O O6 0.214813 0.366854 0.239524
O O7 0.125702 0.257004 0.892993
O O8 0.659213 0.814314 0.381524
O O9 0.500000 0.919937 0.000000
O O10 0.332251 0.710510 0.955675
O O11 0.652188 0.578937 0.503160
O O12 0.801299 0.367607 0.508223
O O13 0.013050 0.680012 0.249985
O O14 0.000000 0.246264 0.500000
O O15 0.871352 0.472918 0.256186
O O16 0.000000 0.695468 0.500000
#
# Coordination Sequence:
#
# PCOD9113074 Si02
#       7
#     2   2   2   2   2   2   2
#     4  10  23  43  63  93 126 161 212 262 311 371
#     4  11  22  44  64  91 128 168 209 257 317 374
#     4  11  22  39  64  91 124 169 199 258 320 369
#     4  10  22  40  68  95 121 168 209 258 319 364
#     4  10  22  40  65  96 125 157 214 263 305 376
#     4  10  23  41  62  95 130 162 210 262 308 380
#     4  10  20  39  62  96 127 157 209 259 311 364
#
# _framework density 22.246752999999998
#
# number of rings (size 3 to 8) (size 9 to 14) (size 15 to 20)
#    0.000    1.714    2.857    1.286    8.000    1.143 
#    7.714    0.714    0.000    0.000    0.000    0.000 
#    0.000    0.000    0.000    0.000    0.000    0.000 
#
# Total GULP energy -78073.665470 kJ/mol
# GULP energy per Si atom -5576.690391 kJ/mol
# Density = 2.219612 g / cm^3
# Si number density = 22.246753 Si / 1000 Ang^3
#
#
#
# Elastic Constant Matrix: (Units=GPa)
#
#
# Indices 1 2 3 4 5 6 
#
# 1 100.6371 16.0677 31.1324 0.0000 -24.8362 0.0000
# 2 16.0677 57.3032 9.8208 0.0000 -10.1920 0.0000
# 3 31.1324 9.8208 88.3257 0.0000 -14.9117 0.0000
# 4 0.0000 0.0000 0.0000 32.7257 0.0000 41.4569
# 5 -24.8362 -10.1920 -14.9117 0.0000 47.2835 0.0000
# 6 0.0000 0.0000 0.0000 41.4569 0.0000 152.0848
#
#
#
# Elastic Compliance Matrix: (Units=1/GPa)
#
#
# Indices 1 2 3 4 5 6 
#
# 1 0.012554 -0.002041 -0.003337 0.000000 0.005102 0.000000
# 2 -0.002041 0.018652 -0.000905 0.000000 0.002663 0.000000
# 3 -0.003337 -0.000905 0.012960 0.000000 0.002139 0.000000
# 4 0.000000 0.000000 0.000000 0.046675 0.000000 -0.012723
# 5 0.005102 0.002663 0.002139 0.000000 0.025078 0.000000
# 6 0.000000 0.000000 0.000000 -0.012723 0.000000 0.010043
#
#
# Mechanical properties :
#
#
# Convention : Reuss Voigt Hill
#
# Bulk Modulus (GPa) = 31.64491 40.03418 35.83954
# Shear Modulus (GPa) = 33.54370 59.03516 46.28943
#
# Velocity S-wave (km/s) = 3.88726 5.15695 4.56645
# Velocity P-wave (km/s) = 5.86541 7.31392 6.62935
#
# Compressibility (1/GPa) = 0.03160066
#
# Stress axis : x y z
#
# Youngs Moduli (GPa) = 79.65708 53.61352 77.16282
#
# Poissons Ratio (x) = 0.10941 0.25746
# Poissons Ratio (y) = 0.16256 0.06983
# Poissons Ratio (z) = 0.26579 0.04852
#
# Static dielectric constant tensor:
#      x y z
#    x 1.896930 0.000000 -0.003220 
#    y 0.000000 1.819400 0.000000 
#    z -0.003220 0.000000 1.821710 
# 
# From -- ./inp_files/7584.got.cif
#   From: 2010.05.17/outbox.cif.g08.bks.cpg/sg3_4_cif.got.tgz:7584.got - 2010.06.03 18:33:08.
