data_PCOD9113625
_publ_section_title
;
Structure prediction by ZEFSAII (Michael W. Deem and Ramdas Pophale) SiO2 
 PCOD9113625
Probable space group: P 2
;
_chemical_formula_sum "Si O2"
_cell_formula_units_Z 16
_cell_length_a 16.569412
_cell_length_b 5.102594
_cell_length_c 25.973562
_cell_angle_alpha 90.000000
_cell_angle_beta 161.767400
_cell_angle_gamma 90.000000
_cell_volume 687.070045
_symmetry_space_group_name_H-M "P 2"
_symmetry_group_IT_number 3
_symmetry_cell_setting 'monoclinic'
loop_
_space_group_symop_operation_xyz
x,y,z
-x,y,-z
loop_
_atom_site_type_symbol
_atom_site_label
_atom_site_fract_x
_atom_site_fract_y
_atom_site_fract_z
Si Si1 0.604913 0.817970 0.665550
Si Si2 0.873453 0.689822 0.972758
Si Si3 0.751753 0.194902 0.037490
Si Si4 0.093788 0.737582 0.609115
Si Si5 0.385833 0.955232 0.636034
Si Si6 0.442568 0.329728 0.758878
Si Si7 0.461158 0.720234 0.038494
Si Si8 0.329820 0.309535 0.352092
O O1 0.607475 0.506938 0.656891
O O2 0.408769 0.928678 0.589108
O O3 0.575170 0.017132 0.601254
O O4 0.904676 0.845333 0.863820
O O5 0.690953 0.507471 0.895749
O O6 0.674458 0.890977 0.827983
O O7 0.000000 0.545108 0.000000
O O8 0.032128 0.287147 0.188131
O O9 0.568967 0.130944 0.876984
O O10 0.627352 0.435305 0.994411
O O11 0.748519 0.937272 0.071005
O O12 0.240117 0.498900 0.669361
O O13 0.284848 0.798543 0.773281
O O14 0.000000 0.898242 0.500000
O O15 0.818227 0.737888 0.470039
O O16 0.334891 0.207639 0.640682
O O17 0.500000 0.720925 0.000000
O O18 0.500000 0.428786 0.500000
#
# Coordination Sequence:
#
# PCOD9113625 Si02
#       8
#     2   2   2   2   2   2   2   2
#     4  11  26  45  71 101 143 187 233 294 366 446
#     4  10  22  40  66 100 139 183 225 284 362 448
#     4  11  24  44  73  97 138 183 237 300 348 435
#     4  11  24  43  66 104 138 182 237 299 359 420
#     4  11  25  42  66 103 145 184 231 298 369 437
#     4  11  23  41  71  99 141 189 235 290 366 442
#     4  11  26  47  71 100 137 193 244 289 362 437
#     4  12  26  45  71 104 134 183 246 303 368 421
#
# _framework density 23.287291
#
# number of rings (size 3 to 8) (size 9 to 14) (size 15 to 20)
#    0.000    1.000    2.500    3.000    7.000    5.000 
#    0.000    0.000    0.000    0.000    0.000    0.000 
#    0.000    0.000    0.000    0.000    0.000    0.000 
#
# Total GULP energy -89138.776147 kJ/mol
# GULP energy per Si atom -5571.173509 kJ/mol
# Density = 2.323429 g / cm^3
# Si number density = 23.287291 Si / 1000 Ang^3
#
#
#
# Elastic Constant Matrix: (Units=GPa)
#
#
# Indices 1 2 3 4 5 6 
#
# 1 155.9560 49.6544 47.0163 0.0000 1.1831 0.0000
# 2 49.6544 92.2907 13.5355 0.0000 9.8711 0.0000
# 3 47.0163 13.5355 68.6855 0.0000 -0.3781 0.0000
# 4 0.0000 0.0000 0.0000 9.0282 0.0000 -6.1029
# 5 1.1831 9.8711 -0.3781 0.0000 35.7161 0.0000
# 6 0.0000 0.0000 0.0000 -6.1029 0.0000 32.4028
#
#
#
# Elastic Compliance Matrix: (Units=1/GPa)
#
#
# Indices 1 2 3 4 5 6 
#
# 1 0.009496 -0.004372 -0.005634 0.000000 0.000834 0.000000
# 2 -0.004372 0.013527 0.000307 0.000000 -0.003590 0.000000
# 3 -0.005634 0.000307 0.018357 0.000000 0.000296 0.000000
# 4 0.000000 0.000000 0.000000 0.126923 0.000000 0.023905
# 5 0.000834 -0.003590 0.000296 0.000000 0.028966 0.000000
# 6 0.000000 0.000000 0.000000 0.023905 0.000000 0.035364
#
#
# Mechanical properties :
#
#
# Convention : Reuss Voigt Hill
#
# Bulk Modulus (GPa) = 45.49192 59.70495 52.59843
# Shear Modulus (GPa) = 19.27832 29.21116 24.24474
#
# Velocity S-wave (km/s) = 2.88035 3.54557 3.23013
# Velocity P-wave (km/s) = 5.53529 6.51579 6.04545
#
# Compressibility (1/GPa) = 0.02198193
#
# Stress axis : x y z
#
# Youngs Moduli (GPa) = 105.30401 73.92871 54.47554
#
# Poissons Ratio (x) = 0.32323 0.30693
# Poissons Ratio (y) = 0.46040 -0.01675
# Poissons Ratio (z) = 0.59330 -0.02273
#
# Static dielectric constant tensor:
#      x y z
#    x 1.979330 0.000000 -0.036580 
#    y 0.000000 1.932340 0.000000 
#    z -0.036580 0.000000 1.903730 
# 
# From -- ./inp_files/16339.got.cif
#   From: 2010.05.17/outbox.cif.g08.bks.cpg/sg3_9_cif.got.tgz:16339.got - 2010.06.03 18:33:08.
