data_PCOD9113328
_publ_section_title
;
Structure prediction by ZEFSAII (Michael W. Deem and Ramdas Pophale) SiO2 
 PCOD9113328
Probable space group: P 2
;
_chemical_formula_sum "Si O2"
_cell_formula_units_Z 15
_cell_length_a 5.232668
_cell_length_b 5.789620
_cell_length_c 20.202012
_cell_angle_alpha 90.000000
_cell_angle_beta 96.870684
_cell_angle_gamma 90.000000
_cell_volume 607.628038
_symmetry_space_group_name_H-M "P 2"
_symmetry_group_IT_number 3
_symmetry_cell_setting 'monoclinic'
loop_
_space_group_symop_operation_xyz
x,y,z
-x,y,-z
loop_
_atom_site_type_symbol
_atom_site_label
_atom_site_fract_x
_atom_site_fract_y
_atom_site_fract_z
Si Si1 0.329482 0.063350 0.930028
Si Si2 0.912934 0.390865 0.674125
Si Si3 0.769608 0.333258 0.199211
Si Si4 0.931555 0.677440 0.880593
Si Si5 0.533345 0.004046 0.629546
Si Si6 0.000000 0.428119 0.000000
Si Si7 0.395176 0.729001 0.242520
Si Si8 0.979385 0.756229 0.422661
O O1 0.384873 0.175784 0.858537
O O2 0.162760 0.264025 0.959014
O O3 0.500000 0.003992 0.000000
O O4 0.168672 0.837165 0.906887
O O5 0.802356 0.593024 0.716667
O O6 0.079131 0.236910 0.731263
O O7 0.072342 0.526077 0.622832
O O8 0.671274 0.253003 0.636485
O O9 0.597007 0.539205 0.223705
O O10 0.981817 0.461204 0.160573
O O11 0.743497 0.816994 0.827690
O O12 0.825199 0.582303 0.946232
O O13 0.510478 0.925306 0.705579
O O14 0.251224 0.943377 0.592772
O O15 0.748483 0.857333 0.595413
O O16 0.000000 0.696190 0.500000
#
# Coordination Sequence:
#
# PCOD9113328 Si02
#       8
#     2   2   2   2   2   1   2   2
#     4  11  23  37  59  89 123 172 229 289 359 442
#     4  10  23  42  70 100 138 188 237 293 368 435
#     4  10  21  39  62  94 131 172 231 293 359 428
#     4  10  22  37  58  87 124 171 222 286 360 432
#     4  11  24  42  73 103 144 191 246 298 369 442
#     4  10  22  40  56  78 124 164 220 282 354 422
#     4  10  21  40  63  95 133 174 227 298 356 434
#     4  11  25  46  69 107 151 192 242 309 363 442
#
# _framework density 24.686159
#
# number of rings (size 3 to 8) (size 9 to 14) (size 15 to 20)
#    0.000    1.600    1.333    2.400    1.867    5.867 
#    0.000    2.667    0.000    0.000    0.000    0.000 
#    0.000    0.000    0.000    0.000    0.000    0.000 
#
# Total GULP energy -83726.997968 kJ/mol
# GULP energy per Si atom -5581.799865 kJ/mol
# Density = 2.462997 g / cm^3
# Si number density = 24.686159 Si / 1000 Ang^3
#
#
#
# Elastic Constant Matrix: (Units=GPa)
#
#
# Indices 1 2 3 4 5 6 
#
# 1 87.0830 16.1298 41.2913 0.0000 1.8421 0.0000
# 2 16.1298 62.0524 35.9084 0.0000 -2.0792 0.0000
# 3 41.2913 35.9084 162.3749 0.0000 8.2004 0.0000
# 4 0.0000 0.0000 0.0000 28.4160 0.0000 10.8834
# 5 1.8421 -2.0792 8.2004 0.0000 20.2365 0.0000
# 6 0.0000 0.0000 0.0000 10.8834 0.0000 57.6277
#
#
#
# Elastic Compliance Matrix: (Units=1/GPa)
#
#
# Indices 1 2 3 4 5 6 
#
# 1 0.013215 -0.001722 -0.002971 0.000000 -0.000176 0.000000
# 2 -0.001722 0.018970 -0.003944 0.000000 0.003704 0.000000
# 3 -0.002971 -0.003944 0.007956 0.000000 -0.003359 0.000000
# 4 0.000000 0.000000 0.000000 0.037935 0.000000 -0.007164
# 5 -0.000176 0.003704 -0.003359 0.000000 0.051173 0.000000
# 6 0.000000 0.000000 0.000000 -0.007164 0.000000 0.018706
#
#
# Mechanical properties :
#
#
# Convention : Reuss Voigt Hill
#
# Bulk Modulus (GPa) = 43.73217 55.35215 49.54216
# Shear Modulus (GPa) = 28.92680 35.80144 32.36412
#
# Velocity S-wave (km/s) = 3.42684 3.81236 3.62473
# Velocity P-wave (km/s) = 5.78026 6.46915 6.13438
#
# Compressibility (1/GPa) = 0.02286646
#
# Stress axis : x y z
#
# Youngs Moduli (GPa) = 75.67422 52.71613 125.69263
#
# Poissons Ratio (x) = 0.09076 0.37340
# Poissons Ratio (y) = 0.13029 0.49576
# Poissons Ratio (z) = 0.22481 0.20793
#
# Static dielectric constant tensor:
#      x y z
#    x 2.014470 0.000000 0.073600 
#    y 0.000000 1.993070 0.000000 
#    z 0.073600 0.000000 2.027070 
# 
# From -- ./inp_files/15603.got.cif
#   From: 2010.05.17/outbox.cif.g08.bks.cpg/sg3_8_cif.got.tgz:15603.got - 2010.06.03 18:33:08.
