data_PCOD9113325
_publ_section_title
;
Structure prediction by ZEFSAII (Michael W. Deem and Ramdas Pophale) SiO2 
 PCOD9113325
Probable space group: P 2
;
_chemical_formula_sum "Si O2"
_cell_formula_units_Z 15
_cell_length_a 14.137112
_cell_length_b 5.932372
_cell_length_c 22.546719
_cell_angle_alpha 90.000000
_cell_angle_beta 159.692196
_cell_angle_gamma 90.000000
_cell_volume 656.268013
_symmetry_space_group_name_H-M "P 2"
_symmetry_group_IT_number 3
_symmetry_cell_setting 'monoclinic'
loop_
_space_group_symop_operation_xyz
x,y,z
-x,y,-z
loop_
_atom_site_type_symbol
_atom_site_label
_atom_site_fract_x
_atom_site_fract_y
_atom_site_fract_z
Si Si1 0.550834 0.295600 0.961136
Si Si2 0.506710 0.667788 0.167224
Si Si3 0.500000 0.732669 0.500000
Si Si4 0.310017 0.690382 0.514430
Si Si5 0.024877 0.004165 0.855818
Si Si6 0.385012 0.337331 0.659123
Si Si7 0.213144 0.028935 0.167554
Si Si8 0.061586 0.985232 0.629477
O O1 0.554085 0.526911 0.927654
O O2 0.296306 0.154504 0.787162
O O3 0.500000 0.329809 0.000000
O O4 0.819220 0.155442 0.100353
O O5 0.555624 0.495699 0.250034
O O6 0.785106 0.803739 0.320758
O O7 0.250156 0.837716 0.018269
O O8 0.380291 0.613257 0.488840
O O9 0.763897 0.878465 0.674879
O O10 0.280742 0.486021 0.542698
O O11 0.564216 0.846284 0.682835
O O12 0.059390 0.856370 0.383635
O O13 0.908394 0.135702 0.844188
O O14 0.658356 0.220177 0.797561
O O15 0.171530 0.131673 0.540082
O O16 0.000000 0.906695 0.000000
#
# Coordination Sequence:
#
# PCOD9113325 Si02
#       8
#     2   2   1   2   2   2   2   2
#     4  11  24  42  68  97 132 179 227 273 331 403
#     4  11  25  43  68 100 136 176 224 280 337 400
#     4  10  22  42  66  94 134 176 226 282 334 394
#     4  10  22  40  64  94 128 172 222 275 332 397
#     4  10  23  43  65  96 135 178 221 279 340 393
#     4  11  24  42  67  97 130 176 224 273 339 406
#     4  10  21  39  62  90 127 166 216 276 333 396
#     4  10  24  44  65  96 135 173 218 280 341 396
#
# _framework density 22.856515000000002
#
# number of rings (size 3 to 8) (size 9 to 14) (size 15 to 20)
#    0.000    1.600    0.000    3.200    0.000   15.467 
#    0.000    6.667    0.000    0.000    0.000    0.000 
#    0.000    0.000    0.000    0.000    0.000    0.000 
#
# Total GULP energy -83862.766409 kJ/mol
# GULP energy per Si atom -5590.851094 kJ/mol
# Density = 2.280449 g / cm^3
# Si number density = 22.856515 Si / 1000 Ang^3
#
#
#
# Elastic Constant Matrix: (Units=GPa)
#
#
# Indices 1 2 3 4 5 6 
#
# 1 174.8853 55.5650 43.2225 0.0000 4.6718 0.0000
# 2 55.5650 72.0840 10.1879 0.0000 8.0572 0.0000
# 3 43.2225 10.1879 75.3242 0.0000 19.2253 0.0000
# 4 0.0000 0.0000 0.0000 -85.0160 0.0000 -101.7666
# 5 4.6718 8.0572 19.2253 0.0000 31.4820 0.0000
# 6 0.0000 0.0000 0.0000 -101.7666 0.0000 -69.7933
#
#
#
# Elastic Compliance Matrix: (Units=1/GPa)
#
#
# Indices 1 2 3 4 5 6 
#
# 1 0.008997 -0.006597 -0.005166 0.000000 0.003508 0.000000
# 2 -0.006597 0.019208 0.002597 0.000000 -0.005523 0.000000
# 3 -0.005166 0.002597 0.018792 0.000000 -0.011374 0.000000
# 4 0.000000 0.000000 0.000000 0.015780 0.000000 -0.023009
# 5 0.003508 -0.005523 -0.011374 0.000000 0.039603 0.000000
# 6 0.000000 0.000000 0.000000 -0.023009 0.000000 0.019222
#
#
# Mechanical properties :
#
#
# Convention : Reuss Voigt Hill
#
# Bulk Modulus (GPa) = 34.88459 60.02716 47.45587
# Shear Modulus (GPa) = 33.44729 -10.44425 11.50152
#
# Velocity S-wave (km/s) = 3.82954 -2.13995 2.24566
# Velocity P-wave (km/s) = 5.90334 4.49597 5.24705
#
# Compressibility (1/GPa) = 0.02866596
#
# Stress axis : x y z
#
# Youngs Moduli (GPa) = 111.14621 52.06046 53.21448
#
# Poissons Ratio (x) = 0.34346 0.27489
# Poissons Ratio (y) = 0.73327 -0.13822
# Poissons Ratio (z) = 0.57416 -0.13522
#
# Static dielectric constant tensor:
#      x y z
#    x 1.879830 0.000000 0.024630 
#    y 0.000000 1.871370 0.000000 
#    z 0.024630 0.000000 1.911290 
# 
# From -- ./inp_files/16342.got.cif
#   From: 2010.05.17/outbox.cif.g08.bks.cpg/sg3_9_cif.got.tgz:16342.got - 2010.06.03 18:33:08.
