data_PCOD9113511
_publ_section_title
;
Structure prediction by ZEFSAII (Michael W. Deem and Ramdas Pophale) SiO2 
 PCOD9113511
Probable space group: P 2
;
_chemical_formula_sum "Si O2"
_cell_formula_units_Z 11
_cell_length_a 15.938203
_cell_length_b 5.342922
_cell_length_c 5.311442
_cell_angle_alpha 90.000000
_cell_angle_beta 107.603980
_cell_angle_gamma 90.000000
_cell_volume 431.122652
_symmetry_space_group_name_H-M "P 2"
_symmetry_group_IT_number 3
_symmetry_cell_setting 'monoclinic'
loop_
_space_group_symop_operation_xyz
x,y,z
-x,y,-z
loop_
_atom_site_type_symbol
_atom_site_label
_atom_site_fract_x
_atom_site_fract_y
_atom_site_fract_z
Si Si1 0.764356 0.013280 0.534048
Si Si2 0.159563 0.504605 0.167926
Si Si3 0.560158 0.437052 0.808296
Si Si4 0.602258 0.936366 0.665082
Si Si5 0.905991 0.866338 0.274406
Si Si6 0.000000 0.245485 0.000000
O O1 0.780964 0.269312 0.703827
O O2 0.799806 0.758248 0.691972
O O3 0.659792 0.975080 0.467265
O O4 0.825108 0.003938 0.342970
O O5 0.129862 0.600798 0.863626
O O6 0.066055 0.426098 0.208340
O O7 0.500000 0.423323 0.500000
O O8 0.621894 0.677492 0.825558
O O9 0.611328 0.175627 0.853361
O O10 0.500000 0.464492 0.000000
O O11 0.500000 0.919240 0.500000
O O12 0.000000 0.842315 0.500000
O O13 0.935039 0.060022 0.084065
#
# Coordination Sequence:
#
# PCOD9113511 Si02
#       6
#     2   2   2   2   2   1
#     4  12  27  49  73 110 157 202 256 325 389 459
#     4  12  26  48  67 116 144 195 262 308 383 472
#     4  10  21  44  74 108 143 196 253 317 386 466
#     4  10  23  48  74 109 148 198 261 310 390 469
#     4  12  25  49  78 106 156 206 250 325 393 468
#     4  12  24  48  70 114 144 200 266 300 392 478
#
# _framework density 25.514779000000001
#
# number of rings (size 3 to 8) (size 9 to 14) (size 15 to 20)
#    0.000    0.727    3.636    3.273    2.545    0.727 
#   22.909    0.000    0.000    0.000    0.000    0.000 
#    0.000    0.000    0.000    0.000    0.000    0.000 
#
# Total GULP energy -61404.596261 kJ/mol
# GULP energy per Si atom -5582.236024 kJ/mol
# Density = 2.545671 g / cm^3
# Si number density = 25.514779 Si / 1000 Ang^3
#
#
#
# Elastic Constant Matrix: (Units=GPa)
#
#
# Indices 1 2 3 4 5 6 
#
# 1 127.5850 17.1374 32.8513 0.0000 -37.7093 0.0000
# 2 17.1374 218.3271 34.5321 0.0000 -11.0509 0.0000
# 3 32.8513 34.5321 97.1666 0.0000 -36.2437 0.0000
# 4 0.0000 0.0000 0.0000 22.4668 0.0000 -2.6588
# 5 -37.7093 -11.0509 -36.2437 0.0000 35.7450 0.0000
# 6 0.0000 0.0000 0.0000 -2.6588 0.0000 25.2003
#
#
#
# Elastic Compliance Matrix: (Units=1/GPa)
#
#
# Indices 1 2 3 4 5 6 
#
# 1 0.011488 -0.000422 0.001187 0.000000 0.013192 0.000000
# 2 -0.000422 0.004872 -0.001919 0.000000 -0.000884 0.000000
# 3 0.001187 -0.001919 0.017398 0.000000 0.018299 0.000000
# 4 0.000000 0.000000 0.000000 0.045073 0.000000 0.004755
# 5 0.013192 -0.000884 0.018299 0.000000 0.060175 0.000000
# 6 0.000000 0.000000 0.000000 0.004755 0.000000 0.040184
#
#
# Mechanical properties :
#
#
# Convention : Reuss Voigt Hill
#
# Bulk Modulus (GPa) = 31.79568 68.01335 49.90452
# Shear Modulus (GPa) = 26.04425 40.58626 33.31526
#
# Velocity S-wave (km/s) = 3.19839 3.99268 3.61740
# Velocity P-wave (km/s) = 5.11158 6.92601 6.08679
#
# Compressibility (1/GPa) = 0.03145081
#
# Stress axis : x y z
#
# Youngs Moduli (GPa) = 87.04621 205.24995 57.47742
#
# Poissons Ratio (x) = 0.08655 -0.06820
# Poissons Ratio (y) = 0.03671 0.11028
# Poissons Ratio (z) = -0.10329 0.39381
#
# Static dielectric constant tensor:
#      x y z
#    x 1.983920 0.000000 -0.021680 
#    y 0.000000 2.086100 0.000000 
#    z -0.021680 0.000000 2.147320 
# 
# From -- ./inp_files/2695.got.cif
#   From: 2010.05.17/outbox.cif.g08.bks.cpg/sg3_2_cif.got.tgz:2695.got - 2010.06.03 18:33:08.
