data_PCOD9113063
_publ_section_title
;
Structure prediction by ZEFSAII (Michael W. Deem and Ramdas Pophale) SiO2 
 PCOD9113063
Probable space group: P 2
;
_chemical_formula_sum "Si O2"
_cell_formula_units_Z 15
_cell_length_a 22.262085
_cell_length_b 6.634661
_cell_length_c 13.532158
_cell_angle_alpha 90.000000
_cell_angle_beta 160.675139
_cell_angle_gamma 90.000000
_cell_volume 661.423689
_symmetry_space_group_name_H-M "P 2"
_symmetry_group_IT_number 3
_symmetry_cell_setting 'monoclinic'
loop_
_space_group_symop_operation_xyz
x,y,z
-x,y,-z
loop_
_atom_site_type_symbol
_atom_site_label
_atom_site_fract_x
_atom_site_fract_y
_atom_site_fract_z
Si Si1 0.640397 0.500000 0.630720
Si Si2 0.840833 0.815084 0.862860
Si Si3 0.366734 0.322757 0.059151
Si Si4 0.900335 0.659207 0.441817
Si Si5 0.686944 0.114904 0.457694
Si Si6 0.118061 0.301570 0.856076
Si Si7 0.000000 0.433550 0.000000
Si Si8 0.152202 0.991540 0.484976
O O1 0.500000 0.478964 0.500000
O O2 0.689659 0.735239 0.702154
O O3 0.533302 0.441537 0.367247
O O4 0.782335 0.326266 0.884269
O O5 0.915389 0.594760 0.945166
O O6 0.762611 0.941764 0.650112
O O7 0.995165 0.923722 0.163705
O O8 0.480382 0.169476 0.167665
O O9 0.242794 0.489881 0.814382
O O10 0.243552 0.234341 0.958276
O O11 0.000000 0.752242 0.500000
O O12 0.058365 0.530045 0.739825
O O13 0.815206 0.812837 0.387158
O O14 0.837352 0.294767 0.705316
O O15 0.694844 0.054305 0.355042
O O16 0.940906 0.167700 0.595969
#
# Coordination Sequence:
#
# PCOD9113063 Si02
#       8
#     2   2   2   2   2   2   1   2
#     4  10  20  38  69 102 138 177 224 290 350 401
#     4  12  22  38  68 106 135 180 229 281 346 418
#     4  10  23  45  69 100 142 179 222 294 354 402
#     4  10  24  47  72  97 135 189 237 284 349 411
#     4  12  24  40  69 108 141 182 230 284 362 412
#     4  10  22  44  72  98 135 181 233 284 344 414
#     4  12  20  40  66  96 150 176 218 280 348 416
#     4  12  23  40  75 102 131 185 241 279 337 431
#
# _framework density 22.678353999999999
#
# number of rings (size 3 to 8) (size 9 to 14) (size 15 to 20)
#    0.000    1.067    5.333    1.600    0.000    2.667 
#    2.400    0.667    2.933    0.000    0.000    0.000 
#    0.000    0.000    0.000    0.000    0.000    0.000 
#
# Total GULP energy -83711.685357 kJ/mol
# GULP energy per Si atom -5580.779024 kJ/mol
# Density = 2.262674 g / cm^3
# Si number density = 22.678354 Si / 1000 Ang^3
#
#
#
# Elastic Constant Matrix: (Units=GPa)
#
#
# Indices 1 2 3 4 5 6 
#
# 1 142.7833 60.7562 40.4789 0.0000 10.5599 0.0000
# 2 60.7562 86.3432 19.9187 0.0000 4.7774 0.0000
# 3 40.4789 19.9187 68.4571 0.0000 -3.4501 0.0000
# 4 0.0000 0.0000 0.0000 23.0782 0.0000 11.4337
# 5 10.5599 4.7774 -3.4501 0.0000 25.0773 0.0000
# 6 0.0000 0.0000 0.0000 11.4337 0.0000 31.0280
#
#
#
# Elastic Compliance Matrix: (Units=1/GPa)
#
#
# Indices 1 2 3 4 5 6 
#
# 1 0.011669 -0.006785 -0.005144 0.000000 -0.004329 0.000000
# 2 -0.006785 0.016570 -0.000830 0.000000 -0.000414 0.000000
# 3 -0.005144 -0.000830 0.018134 0.000000 0.004819 0.000000
# 4 0.000000 0.000000 0.000000 0.053008 0.000000 -0.019533
# 5 -0.004329 -0.000414 0.004819 0.000000 0.042441 0.000000
# 6 0.000000 0.000000 0.000000 -0.019533 0.000000 0.039427
#
#
# Mechanical properties :
#
#
# Convention : Reuss Voigt Hill
#
# Bulk Modulus (GPa) = 47.95038 59.98789 53.96914
# Shear Modulus (GPa) = 23.39506 27.59868 25.49687
#
# Velocity S-wave (km/s) = 3.21534 3.49228 3.35667
# Velocity P-wave (km/s) = 5.91389 6.53991 6.23476
#
# Compressibility (1/GPa) = 0.02085489
#
# Stress axis : x y z
#
# Youngs Moduli (GPa) = 85.69586 60.34846 55.14553
#
# Poissons Ratio (x) = 0.40946 0.28367
# Poissons Ratio (y) = 0.58144 0.04579
# Poissons Ratio (z) = 0.44082 0.05011
#
# Static dielectric constant tensor:
#      x y z
#    x 2.304500 0.000000 0.267250 
#    y 0.000000 1.849250 0.000000 
#    z 0.267250 0.000000 2.089560 
# 
# From -- ./inp_files/14444.got.cif
#   From: 2010.05.17/outbox.cif.g08.bks.cpg/sg3_8_cif.got.tgz:14444.got - 2010.06.03 18:33:08.
