data_PCOD9114234
_publ_section_title
;
Structure prediction by ZEFSAII (Michael W. Deem and Ramdas Pophale) SiO2 
 PCOD9114234
Probable space group: P 2
;
_chemical_formula_sum "Si O2"
_cell_formula_units_Z 16
_cell_length_a 8.305786
_cell_length_b 8.801988
_cell_length_c 9.203174
_cell_angle_alpha 90.000000
_cell_angle_beta 86.281583
_cell_angle_gamma 90.000000
_cell_volume 671.403981
_symmetry_space_group_name_H-M "P 2"
_symmetry_group_IT_number 3
_symmetry_cell_setting 'monoclinic'
loop_
_space_group_symop_operation_xyz
x,y,z
-x,y,-z
loop_
_atom_site_type_symbol
_atom_site_label
_atom_site_fract_x
_atom_site_fract_y
_atom_site_fract_z
Si Si1 0.094831 0.594380 0.124126
Si Si2 0.350286 0.657970 0.900632
Si Si3 0.560981 0.845568 0.664957
Si Si4 0.387803 0.315408 0.866169
Si Si5 0.400201 0.181585 0.363136
Si Si6 0.053748 0.835533 0.330573
Si Si7 0.908009 0.361271 0.645801
Si Si8 0.081560 0.127914 0.837324
O O1 0.987006 0.695482 0.238591
O O2 0.171608 0.477212 0.233575
O O3 0.207526 0.705756 0.020411
O O4 0.000000 0.511704 0.000000
O O5 0.424564 0.758574 0.767030
O O6 0.310315 0.482540 0.865460
O O7 0.500000 0.645052 0.000000
O O8 0.500000 0.835255 0.500000
O O9 0.751415 0.801253 0.671500
O O10 0.580882 0.020554 0.716299
O O11 0.510043 0.312147 0.726617
O O12 0.267123 0.172930 0.857160
O O13 0.500000 0.297695 0.000000
O O14 0.500000 0.157830 0.500000
O O15 0.220584 0.237238 0.401548
O O16 0.000000 0.843606 0.500000
O O17 0.982107 0.981871 0.249598
O O18 0.000000 0.428013 0.500000
O O19 0.028406 0.268267 0.739948
O O20 0.000000 0.123390 0.000000
#
# Coordination Sequence:
#
# PCOD9114234 Si02
#       8
#     2   2   2   2   2   2   2   2
#     4  12  27  48  74 110 150 200 261 325 389 466
#     4  11  23  48  75 104 154 198 253 320 381 461
#     4  11  27  47  75 107 152 205 257 315 386 467
#     4  11  25  44  72 108 148 194 247 313 382 454
#     4  11  25  43  69 107 147 194 252 311 379 458
#     4  12  28  49  73 108 153 203 259 322 394 467
#     4  12  24  46  76 110 157 208 258 320 390 467
#     4  12  25  46  75 110 150 204 257 319 387 463
#
# _framework density 23.830660999999999
#
# number of rings (size 3 to 8) (size 9 to 14) (size 15 to 20)
#    0.000    0.500    2.500    6.000    5.250    2.000 
#    2.250    0.000    0.000    0.000    0.000    0.000 
#    0.000    0.000    0.000    0.000    0.000    0.000 
#
# Total GULP energy -89217.411183 kJ/mol
# GULP energy per Si atom -5576.088199 kJ/mol
# Density = 2.377642 g / cm^3
# Si number density = 23.830661 Si / 1000 Ang^3
#
#
#
# Elastic Constant Matrix: (Units=GPa)
#
#
# Indices 1 2 3 4 5 6 
#
# 1 99.6742 30.6586 46.3665 0.0000 -7.2374 0.0000
# 2 30.6586 77.0656 52.6791 0.0000 5.9671 0.0000
# 3 46.3665 52.6791 164.1737 0.0000 -16.8134 0.0000
# 4 0.0000 0.0000 0.0000 34.9175 0.0000 3.3173
# 5 -7.2374 5.9671 -16.8134 0.0000 38.2584 0.0000
# 6 0.0000 0.0000 0.0000 3.3173 0.0000 37.7312
#
#
#
# Elastic Compliance Matrix: (Units=1/GPa)
#
#
# Indices 1 2 3 4 5 6 
#
# 1 0.012259 -0.003584 -0.002113 0.000000 0.001950 0.000000
# 2 -0.003584 0.018707 -0.005611 0.000000 -0.006061 0.000000
# 3 -0.002113 -0.005611 0.008939 0.000000 0.004404 0.000000
# 4 0.000000 0.000000 0.000000 0.028880 0.000000 -0.002539
# 5 0.001950 -0.006061 0.004404 0.000000 0.029388 0.000000
# 6 0.000000 0.000000 0.000000 -0.002539 0.000000 0.026727
#
#
# Mechanical properties :
#
#
# Convention : Reuss Voigt Hill
#
# Bulk Modulus (GPa) = 57.83713 66.70244 62.26978
# Shear Modulus (GPa) = 32.62043 36.26202 34.44123
#
# Velocity S-wave (km/s) = 3.70380 3.90507 3.80577
# Velocity P-wave (km/s) = 6.52791 6.95584 6.74527
#
# Compressibility (1/GPa) = 0.01728993
#
# Stress axis : x y z
#
# Youngs Moduli (GPa) = 81.57007 53.45726 111.86614
#
# Poissons Ratio (x) = 0.19158 0.23634
# Poissons Ratio (y) = 0.29234 0.62769
# Poissons Ratio (z) = 0.17233 0.29995
#
# Static dielectric constant tensor:
#      x y z
#    x 2.115290 0.000000 -0.065610 
#    y 0.000000 1.961460 0.000000 
#    z -0.065610 0.000000 1.860560 
# 
# From -- ./inp_files/5582.got.cif
#   From: 2010.05.17/outbox.cif.g08.bks.cpg/sg3_3_cif.got.tgz:5582.got - 2010.06.03 18:33:08.
