data_PCOD9114139
_publ_section_title
;
Structure prediction by ZEFSAII (Michael W. Deem and Ramdas Pophale) SiO2 
 PCOD9114139
Probable space group: P 2
;
_chemical_formula_sum "Si O2"
_cell_formula_units_Z 13
_cell_length_a 10.985707
_cell_length_b 5.322054
_cell_length_c 19.717392
_cell_angle_alpha 90.000000
_cell_angle_beta 142.614546
_cell_angle_gamma 90.000000
_cell_volume 699.954845
_symmetry_space_group_name_H-M "P 2"
_symmetry_group_IT_number 3
_symmetry_cell_setting 'monoclinic'
loop_
_space_group_symop_operation_xyz
x,y,z
-x,y,-z
loop_
_atom_site_type_symbol
_atom_site_label
_atom_site_fract_x
_atom_site_fract_y
_atom_site_fract_z
Si Si1 0.461799 0.390010 0.738895
Si Si2 0.049535 0.831653 0.873123
Si Si3 0.809192 0.837882 0.210935
Si Si4 0.892718 0.330118 0.877579
Si Si5 0.807745 0.890456 0.367072
Si Si6 0.575284 0.557543 0.932531
Si Si7 0.500000 0.189651 0.000000
O O1 0.650034 0.344070 0.773256
O O2 0.323059 0.640911 0.671537
O O3 0.576874 0.443464 0.859968
O O4 0.327126 0.140313 0.683771
O O5 0.958388 0.585795 0.868907
O O6 0.042195 0.817585 0.787398
O O7 0.958808 0.081946 0.865468
O O8 0.285617 0.799548 0.997267
O O9 0.876207 0.883144 0.317891
O O10 0.656526 0.605494 0.151969
O O11 0.649279 0.043547 0.115117
O O12 0.000000 0.319844 0.000000
O O13 0.000000 0.901832 0.500000
O O14 0.644022 0.357504 0.017277
#
# Coordination Sequence:
#
# PCOD9114139 Si02
#       7
#     2   2   2   2   2   2   1
#     4  11  24  42  63  91 129 165 215 256 310 373
#     4  12  23  37  56  89 135 162 211 236 300 392
#     4  11  23  33  61  92 126 160 205 262 325 361
#     4  12  26  37  59  89 135 181 201 237 301 393
#     4  11  25  45  70  93 119 162 217 278 323 358
#     4  11  21  32  56  90 129 168 194 255 311 379
#     4  12  16  34  52  94 126 160 192 244 340 378
#
# _framework density 18.572628000000002
#
# number of rings (size 3 to 8) (size 9 to 14) (size 15 to 20)
#    0.000    0.615    6.154    2.769    4.308    0.000 
#    0.000    0.000    0.000    5.538    0.000    0.000 
#    0.000    0.000    0.000    0.000    0.000    0.000 
#
# Total GULP energy -72449.926452 kJ/mol
# GULP energy per Si atom -5573.071266 kJ/mol
# Density = 1.853036 g / cm^3
# Si number density = 18.572628 Si / 1000 Ang^3
#
#
#
# Elastic Constant Matrix: (Units=GPa)
#
#
# Indices 1 2 3 4 5 6 
#
# 1 135.4280 66.2495 56.1749 0.0000 -8.3859 0.0000
# 2 66.2495 135.6718 33.6275 0.0000 -2.0224 0.0000
# 3 56.1749 33.6275 104.8401 0.0000 -18.0134 0.0000
# 4 0.0000 0.0000 0.0000 10.2235 0.0000 4.5586
# 5 -8.3859 -2.0224 -18.0134 0.0000 21.2890 0.0000
# 6 0.0000 0.0000 0.0000 4.5586 0.0000 38.4290
#
#
#
# Elastic Compliance Matrix: (Units=1/GPa)
#
#
# Indices 1 2 3 4 5 6 
#
# 1 0.011534 -0.004458 -0.004730 0.000000 0.000118 0.000000
# 2 -0.004458 0.009780 -0.001042 0.000000 -0.001709 0.000000
# 3 -0.004730 -0.001042 0.014123 0.000000 0.009988 0.000000
# 4 0.000000 0.000000 0.000000 0.103277 0.000000 -0.012251
# 5 0.000118 -0.001709 0.009988 0.000000 0.055308 0.000000
# 6 0.000000 0.000000 0.000000 -0.012251 0.000000 0.027475
#
#
# Mechanical properties :
#
#
# Convention : Reuss Voigt Hill
#
# Bulk Modulus (GPa) = 66.76664 76.44930 71.60797
# Shear Modulus (GPa) = 20.24703 28.64751 24.44727
#
# Velocity S-wave (km/s) = 3.30533 3.93168 3.63203
# Velocity P-wave (km/s) = 7.11294 7.86527 7.49855
#
# Compressibility (1/GPa) = 0.01497754
#
# Stress axis : x y z
#
# Youngs Moduli (GPa) = 86.69963 102.24525 70.80629
#
# Poissons Ratio (x) = 0.45581 0.33491
# Poissons Ratio (y) = 0.38651 0.07378
# Poissons Ratio (z) = 0.41009 0.10653
#
# Static dielectric constant tensor:
#      x y z
#    x 1.756700 0.000000 0.016580 
#    y 0.000000 1.701610 0.000000 
#    z 0.016580 0.000000 1.621450 
# 
# From -- ./inp_files/6637.got.cif
#   From: 2010.05.17/outbox.cif.g08.bks.cpg/sg3_4_cif.got.tgz:6637.got - 2010.06.03 18:33:08.
