data_PCOD9114717
_publ_section_title
;
Structure prediction by ZEFSAII (Michael W. Deem and Ramdas Pophale) SiO2 
 PCOD9114717
Probable space group: P 21
;
_chemical_formula_sum "Si O2"
_cell_formula_units_Z 16
_cell_length_a 6.524324
_cell_length_b 10.506880
_cell_length_c 10.840382
_cell_angle_alpha 90.000000
_cell_angle_beta 59.262836
_cell_angle_gamma 90.000000
_cell_volume 638.719739
_symmetry_space_group_name_H-M "P 21"
_symmetry_group_IT_number 4
_symmetry_cell_setting 'monoclinic'
loop_
_space_group_symop_operation_xyz
x,y,z
-x,1/2+y,-z
loop_
_atom_site_type_symbol
_atom_site_label
_atom_site_fract_x
_atom_site_fract_y
_atom_site_fract_z
Si Si1 0.637971 0.233710 0.343936
Si Si2 0.760476 0.190288 0.042728
Si Si3 0.651894 0.959717 0.437549
Si Si4 0.763809 0.555669 0.099075
Si Si5 0.077150 0.372411 0.182881
Si Si6 0.527690 0.441072 0.930054
Si Si7 0.087909 0.808036 0.261854
Si Si8 0.771248 0.070554 0.654527
O O1 0.619201 0.250835 0.201186
O O2 0.520490 0.349336 0.456229
O O3 0.921649 0.254489 0.277453
O O4 0.560126 0.090461 0.403892
O O5 0.628899 0.058824 0.063217
O O6 0.792332 0.251078 0.898631
O O7 0.036007 0.160720 0.991076
O O8 0.849264 0.881404 0.301174
O O9 0.791488 0.013616 0.513785
O O10 0.513000 0.599390 0.237017
O O11 0.903930 0.458514 0.147881
O O12 0.685840 0.489300 0.996562
O O13 0.150665 0.464581 0.271760
O O14 0.325803 0.343212 0.039146
O O15 0.699056 0.401348 0.766373
O O16 0.072070 0.694917 0.364021
#
# Coordination Sequence:
#
# PCOD9114717 Si02
#       8
#     2   2   2   2   2   2   2   2
#     4  12  29  51  80 114 161 212 266 333 394 486
#     4  11  25  46  79 116 152 205 269 335 383 466
#     4  12  32  51  77 117 164 218 264 320 409 494
#     4  10  18  45  72 112 155 195 258 315 402 452
#     4  10  22  45  76 108 148 203 258 318 394 457
#     4  10  23  42  73 116 153 199 255 334 393 459
#     4  12  26  47  76 118 158 202 271 326 397 471
#     4  11  25  47  75 111 155 212 247 327 388 483
#
# _framework density 25.050108000000002
#
# number of rings (size 3 to 8) (size 9 to 14) (size 15 to 20)
#    0.000    1.000    5.000    1.500    8.750    4.000 
#    0.000    0.000    0.000    0.000    0.000    0.000 
#    0.000    0.000    0.000    0.000    0.000    0.000 
#
# Total GULP energy -89417.119844 kJ/mol
# GULP energy per Si atom -5588.569990 kJ/mol
# Density = 2.499309 g / cm^3
# Si number density = 25.050108 Si / 1000 Ang^3
#
#
#
# Elastic Constant Matrix: (Units=GPa)
#
#
# Indices 1 2 3 4 5 6 
#
# 1 80.7462 10.4734 7.1859 0.0000 1.0164 0.0000
# 2 10.4734 74.6172 36.2682 0.0000 -12.3822 0.0000
# 3 7.1859 36.2682 83.6792 0.0000 -12.0896 0.0000
# 4 0.0000 0.0000 0.0000 31.8699 0.0000 -19.3046
# 5 1.0164 -12.3822 -12.0896 0.0000 37.4534 0.0000
# 6 0.0000 0.0000 0.0000 -19.3046 0.0000 28.4426
#
#
#
# Elastic Compliance Matrix: (Units=1/GPa)
#
#
# Indices 1 2 3 4 5 6 
#
# 1 0.012665 -0.001712 -0.000500 0.000000 -0.001071 0.000000
# 2 -0.001712 0.017632 -0.006971 0.000000 0.003625 0.000000
# 3 -0.000500 -0.006971 0.015402 0.000000 0.002681 0.000000
# 4 0.000000 0.000000 0.000000 0.053284 0.000000 0.036165
# 5 -0.001071 0.003625 0.002681 0.000000 0.028793 0.000000
# 6 0.000000 0.000000 0.000000 0.036165 0.000000 0.059705
#
#
# Mechanical properties :
#
#
# Convention : Reuss Voigt Hill
#
# Bulk Modulus (GPa) = 36.58804 38.54418 37.56611
# Shear Modulus (GPa) = 23.26038 31.89418 27.57728
#
# Velocity S-wave (km/s) = 3.05052 3.57209 3.32156
# Velocity P-wave (km/s) = 5.20050 5.69502 5.45337
#
# Compressibility (1/GPa) = 0.02733134
#
# Stress axis : x y z
#
# Youngs Moduli (GPa) = 78.96041 56.71464 64.92614
#
# Poissons Ratio (x) = 0.09711 0.03248
# Poissons Ratio (y) = 0.13520 0.45262
# Poissons Ratio (z) = 0.03950 0.39537
#
# Static dielectric constant tensor:
#      x y z
#    x 2.098330 0.000000 -0.042210 
#    y 0.000000 2.122490 0.000000 
#    z -0.042210 0.000000 2.032730 
# 
# From -- ./inp_files/10497.got.cif
#   From: 2010.05.17/outbox.cif.g08.bks.cpg/sg4_6_cif.got.tgz:10497.got - 2010.06.03 18:43:04.
