data_PCOD9114765
_publ_section_title
;
Structure prediction by ZEFSAII (Michael W. Deem and Ramdas Pophale) SiO2 
 PCOD9114765
Probable space group: P 21
;
_chemical_formula_sum "Si O2"
_cell_formula_units_Z 16
_cell_length_a 26.805323
_cell_length_b 5.031633
_cell_length_c 6.396205
_cell_angle_alpha 90.000000
_cell_angle_beta 43.651560
_cell_angle_gamma 90.000000
_cell_volume 595.486564
_symmetry_space_group_name_H-M "P 21"
_symmetry_group_IT_number 4
_symmetry_cell_setting 'monoclinic'
loop_
_space_group_symop_operation_xyz
x,y,z
-x,1/2+y,-z
loop_
_atom_site_type_symbol
_atom_site_label
_atom_site_fract_x
_atom_site_fract_y
_atom_site_fract_z
Si Si1 0.471440 0.674730 0.203724
Si Si2 0.903249 0.190185 0.409073
Si Si3 0.592960 0.802621 0.099381
Si Si4 0.028202 0.317822 0.302990
Si Si5 0.849810 0.690257 0.329094
Si Si6 0.770685 0.183753 0.065828
Si Si7 0.715947 0.685293 0.993161
Si Si8 0.652358 0.301705 0.690272
O O1 0.388862 0.730689 0.401340
O O2 0.489289 0.376893 0.078513
O O3 0.508227 0.748871 0.312711
O O4 0.875043 0.399100 0.324016
O O5 0.854844 0.224902 0.765659
O O6 0.984954 0.232125 0.226189
O O7 0.885120 0.899715 0.383247
O O8 0.632104 0.733674 0.196398
O O9 0.629753 0.593916 0.826483
O O10 0.618536 0.095279 0.957092
O O11 0.002357 0.614115 0.432171
O O12 0.112972 0.270086 0.001903
O O13 0.764961 0.726073 0.635541
O O14 0.735061 0.393578 0.012274
O O15 0.745345 0.891938 0.074385
O O16 0.736621 0.257402 0.391717
#
# Coordination Sequence:
#
# PCOD9114765 Si02
#       8
#     2   2   2   2   2   2   2   2
#     4   8  16  30  48  72 100 134 172 206 252 312
#     4  10  21  39  58  74 104 147 175 198 254 326
#     4  10  19  33  54  76 102 137 175 214 256 306
#     4  12  24  36  56  86 110 128 170 228 258 286
#     4  10  21  39  58  74 104 147 175 198 254 326
#     4  10  21  36  54  78 106 136 173 214 256 306
#     4  10  21  36  54  78 106 136 173 214 256 306
#     4  10  19  33  54  76 102 137 175 214 256 306
#
# _framework density 26.868784999999999
#
# number of rings (size 3 to 8) (size 9 to 14) (size 15 to 20)
#    0.000    2.000    0.000    3.750    0.000    2.000 
#    0.000    1.250    0.000    0.000    0.000    0.000 
#    0.000    0.000    0.000    0.000    0.000    0.000 
#
# Total GULP energy -89584.116497 kJ/mol
# GULP energy per Si atom -5599.007281 kJ/mol
# Density = 2.680763 g / cm^3
# Si number density = 26.868785 Si / 1000 Ang^3
#
#
#
# Elastic Constant Matrix: (Units=GPa)
#
#
# Indices 1 2 3 4 5 6 
#
# 1 87.2089 10.5721 -13.1484 0.0000 -3.2206 0.0000
# 2 10.5721 59.4558 27.6144 0.0000 -1.3311 0.0000
# 3 -13.1484 27.6144 112.5591 0.0000 -16.4580 0.0000
# 4 0.0000 0.0000 0.0000 32.3382 0.0000 9.9812
# 5 -3.2206 -1.3311 -16.4580 0.0000 22.3529 0.0000
# 6 0.0000 0.0000 0.0000 9.9812 0.0000 37.1859
#
#
#
# Elastic Compliance Matrix: (Units=1/GPa)
#
#
# Indices 1 2 3 4 5 6 
#
# 1 0.012449 -0.003449 0.002838 0.000000 0.003678 0.000000
# 2 -0.003449 0.020071 -0.005855 0.000000 -0.003613 0.000000
# 3 0.002838 -0.005855 0.011947 0.000000 0.008857 0.000000
# 4 0.000000 0.000000 0.000000 0.033716 0.000000 -0.009050
# 5 0.003678 -0.003613 0.008857 0.000000 0.051573 0.000000
# 6 0.000000 0.000000 0.000000 -0.009050 0.000000 0.029321
#
#
# Mechanical properties :
#
#
# Convention : Reuss Voigt Hill
#
# Bulk Modulus (GPa) = 31.71183 34.36668 33.03925
# Shear Modulus (GPa) = 27.39403 33.98779 30.69091
#
# Velocity S-wave (km/s) = 3.19650 3.56048 3.38339
# Velocity P-wave (km/s) = 5.04496 5.45170 5.25227
#
# Compressibility (1/GPa) = 0.03153398
#
# Stress axis : x y z
#
# Youngs Moduli (GPa) = 80.33024 49.82262 83.70129
#
# Poissons Ratio (x) = 0.17186 -0.23756
# Poissons Ratio (y) = 0.27709 0.49010
# Poissons Ratio (z) = -0.22799 0.29173
#
# Static dielectric constant tensor:
#      x y z
#    x 2.088740 0.000000 0.030010 
#    y 0.000000 2.000950 0.000000 
#    z 0.030010 0.000000 2.112530 
# 
# From -- ./inp_files/4234.got.cif
#   From: 2010.05.17/outbox.cif.g08.bks.cpg/sg4_3_cif.got.tgz:4234.got - 2010.06.03 18:43:04.
