data_PCOD9114617
_publ_section_title
;
Structure prediction by ZEFSAII (Michael W. Deem and Ramdas Pophale) SiO2 
 PCOD9114617
Probable space group: P 21
;
_chemical_formula_sum "Si O2"
_cell_formula_units_Z 16
_cell_length_a 6.824825
_cell_length_b 11.793257
_cell_length_c 7.649865
_cell_angle_alpha 90.000000
_cell_angle_beta 91.787715
_cell_angle_gamma 90.000000
_cell_volume 615.414351
_symmetry_space_group_name_H-M "P 21"
_symmetry_group_IT_number 4
_symmetry_cell_setting 'monoclinic'
loop_
_space_group_symop_operation_xyz
x,y,z
-x,1/2+y,-z
loop_
_atom_site_type_symbol
_atom_site_label
_atom_site_fract_x
_atom_site_fract_y
_atom_site_fract_z
Si Si1 0.325158 0.055490 0.480915
Si Si2 0.228590 0.273221 0.624622
Si Si3 0.196925 0.137746 0.097896
Si Si4 0.446874 0.961117 0.990742
Si Si5 0.753910 0.869354 0.765355
Si Si6 0.848984 0.995444 0.210741
Si Si7 0.687499 0.326424 0.699585
Si Si8 0.782126 0.084699 0.591408
O O1 0.197784 0.138656 0.599841
O O2 0.308586 0.109081 0.284971
O O3 0.547749 0.062092 0.552851
O O4 0.272165 0.925119 0.442281
O O5 0.219933 0.321119 0.427477
O O6 0.112096 0.363428 0.740067
O O7 0.456846 0.292861 0.679671
O O8 0.167527 0.272260 0.102642
O O9 0.999468 0.066795 0.101824
O O10 0.335822 0.079702 0.958080
O O11 0.307948 0.882545 0.107699
O O12 0.640041 0.992833 0.109514
O O13 0.533273 0.892677 0.829892
O O14 0.844314 0.993684 0.739576
O O15 0.856089 0.058509 0.398437
O O16 0.800519 0.212423 0.656939
#
# Coordination Sequence:
#
# PCOD9114617 Si02
#       8
#     2   2   2   2   2   2   2   2
#     4   9  15  33  57  87 113 148 201 236 291 354
#     4   8  16  32  59  86 116 153 194 253 291 348
#     4  10  21  38  62  87 111 162 206 232 313 370
#     4  10  21  38  60  83 119 161 193 249 304 361
#     4  10  20  35  60  88 121 152 203 247 299 361
#     4  10  19  39  62  80 118 156 195 257 304 345
#     4   9  16  31  56  89 113 156 206 229 302 357
#     4  10  18  34  62  88 117 158 196 257 298 346
#
# _framework density 25.998745
#
# number of rings (size 3 to 8) (size 9 to 14) (size 15 to 20)
#    0.000    2.500    5.000    0.000    1.750    0.000 
#   13.500    1.250    5.500    0.000    0.000    0.000 
#    0.000    0.000    0.000    0.000    0.000    0.000 
#
# Total GULP energy -89378.344018 kJ/mol
# GULP energy per Si atom -5586.146501 kJ/mol
# Density = 2.593957 g / cm^3
# Si number density = 25.998745 Si / 1000 Ang^3
#
#
#
# Elastic Constant Matrix: (Units=GPa)
#
#
# Indices 1 2 3 4 5 6 
#
# 1 71.0023 30.7623 25.3952 0.0000 -10.9198 0.0000
# 2 30.7623 200.4169 59.2189 0.0000 -12.5200 0.0000
# 3 25.3952 59.2189 118.8376 0.0000 -1.1665 0.0000
# 4 0.0000 0.0000 0.0000 14.8511 0.0000 -21.3663
# 5 -10.9198 -12.5200 -1.1665 0.0000 25.0562 0.0000
# 6 0.0000 0.0000 0.0000 -21.3663 0.0000 36.6936
#
#
#
# Elastic Compliance Matrix: (Units=1/GPa)
#
#
# Indices 1 2 3 4 5 6 
#
# 1 0.016666 -0.001313 -0.002843 0.000000 0.006474 0.000000
# 2 -0.001313 0.006156 -0.002764 0.000000 0.002375 0.000000
# 3 -0.002843 -0.002764 0.010379 0.000000 -0.002137 0.000000
# 4 0.000000 0.000000 0.000000 0.414977 0.000000 0.241636
# 5 0.006474 0.002375 -0.002137 0.000000 0.043819 0.000000
# 6 0.000000 0.000000 0.000000 0.241636 0.000000 0.167955
#
#
# Mechanical properties :
#
#
# Convention : Reuss Voigt Hill
#
# Bulk Modulus (GPa) = 51.65392 69.00106 60.32749
# Shear Modulus (GPa) = 7.35028 33.64554 20.49791
#
# Velocity S-wave (km/s) = 1.68324 3.60129 2.81093
# Velocity P-wave (km/s) = 4.86711 6.62497 5.81287
#
# Compressibility (1/GPa) = 0.01935961
#
# Stress axis : x y z
#
# Youngs Moduli (GPa) = 60.00301 162.43791 96.35108
#
# Poissons Ratio (x) = 0.21336 0.27396
# Poissons Ratio (y) = 0.07881 0.26629
# Poissons Ratio (z) = 0.17061 0.44894
#
# Static dielectric constant tensor:
#      x y z
#    x 2.069870 0.000000 -0.043340 
#    y 0.000000 2.095610 0.000000 
#    z -0.043340 0.000000 2.063390 
# 
# From -- ./inp_files/6096.got.cif
#   From: 2010.05.17/outbox.cif.g08.bks.cpg/sg4_4_cif.got.tgz:6096.got - 2010.06.03 18:43:04.
