data_PCOD9114791
_publ_section_title
;
Structure prediction by ZEFSAII (Michael W. Deem and Ramdas Pophale) SiO2 
 PCOD9114791
Probable space group: P 21
;
_chemical_formula_sum "Si O2"
_cell_formula_units_Z 10
_cell_length_a 7.521985
_cell_length_b 4.890939
_cell_length_c 10.642433
_cell_angle_alpha 90.000000
_cell_angle_beta 88.816642
_cell_angle_gamma 90.000000
_cell_volume 391.447028
_symmetry_space_group_name_H-M "P 21"
_symmetry_group_IT_number 4
_symmetry_cell_setting 'monoclinic'
loop_
_space_group_symop_operation_xyz
x,y,z
-x,1/2+y,-z
loop_
_atom_site_type_symbol
_atom_site_label
_atom_site_fract_x
_atom_site_fract_y
_atom_site_fract_z
Si Si1 0.746712 0.511600 0.554705
Si Si2 0.319487 0.518463 0.313123
Si Si3 0.062091 0.227915 0.677568
Si Si4 0.102356 0.195168 0.960304
Si Si5 0.414629 0.811164 0.056073
O O1 0.655666 0.218246 0.568121
O O2 0.785815 0.622655 0.416851
O O3 0.947746 0.465645 0.610332
O O4 0.640207 0.713589 0.648008
O O5 0.402301 0.663060 0.190945
O O6 0.104435 0.522237 0.302044
O O7 0.134127 0.274280 0.815334
O O8 0.058123 0.473865 0.032153
O O9 0.249596 0.007380 0.024807
O O10 0.437275 0.550879 0.962342
#
# Coordination Sequence:
#
# PCOD9114791 Si02
#       5
#     2   2   2   2   2
#     4  10  19  33  61  99 123 160 198 275 321 360
#     4  10  20  37  61  88 126 164 211 250 310 379
#     4  10  21  34  64  96 133 150 211 269 321 359
#     4  12  26  40  66  98 129 164 216 273 308 363
#     4  12  26  44  62  91 135 178 206 251 328 389
#
# _framework density 25.546239
#
# number of rings (size 3 to 8) (size 9 to 14) (size 15 to 20)
#    1.200    0.000    4.000    2.400    5.600    0.000 
#    0.000    0.000    0.000    4.800    0.000    2.800 
#    0.000    0.000    0.000    0.000    0.000    0.000 
#
# Total GULP energy -55807.615224 kJ/mol
# GULP energy per Si atom -5580.761522 kJ/mol
# Density = 2.548809 g / cm^3
# Si number density = 25.546239 Si / 1000 Ang^3
#
#
#
# Elastic Constant Matrix: (Units=GPa)
#
#
# Indices 1 2 3 4 5 6 
#
# 1 64.1755 -6.3195 12.1531 0.0000 -4.2827 0.0000
# 2 -6.3195 94.2556 23.9484 0.0000 -16.6218 0.0000
# 3 12.1531 23.9484 154.5553 0.0000 -28.2023 0.0000
# 4 0.0000 0.0000 0.0000 28.3012 0.0000 -5.1792
# 5 -4.2827 -16.6218 -28.2023 0.0000 36.3671 0.0000
# 6 0.0000 0.0000 0.0000 -5.1792 0.0000 7.9461
#
#
#
# Elastic Compliance Matrix: (Units=1/GPa)
#
#
# Indices 1 2 3 4 5 6 
#
# 1 0.016094 0.001692 -0.001212 0.000000 0.001728 0.000000
# 2 0.001692 0.011841 -0.001100 0.000000 0.004759 0.000000
# 3 -0.001212 -0.001100 0.007709 0.000000 0.005333 0.000000
# 4 0.000000 0.000000 0.000000 0.040120 0.000000 0.026150
# 5 0.001728 0.004759 0.005333 0.000000 0.034012 0.000000
# 6 0.000000 0.000000 0.000000 0.026150 0.000000 0.142893
#
#
# Mechanical properties :
#
#
# Convention : Reuss Voigt Hill
#
# Bulk Modulus (GPa) = 29.06608 41.39449 35.23029
# Shear Modulus (GPa) = 18.84118 33.40318 26.12218
#
# Velocity S-wave (km/s) = 2.71870 3.61994 3.20119
# Velocity P-wave (km/s) = 4.61060 5.80611 5.24254
#
# Compressibility (1/GPa) = 0.03440436
#
# Stress axis : x y z
#
# Youngs Moduli (GPa) = 62.13580 84.44915 129.71857
#
# Poissons Ratio (x) = -0.14288 0.15725
# Poissons Ratio (y) = -0.10512 0.14263
# Poissons Ratio (z) = 0.07532 0.09285
#
# Static dielectric constant tensor:
#      x y z
#    x 2.267120 0.000000 0.064750 
#    y 0.000000 1.946800 0.000000 
#    z 0.064750 0.000000 1.985580 
# 
# From -- ./inp_files/5169.got.cif
#   From: 2010.05.17/outbox.cif.g08.bks.cpg/sg4_3_cif.got.tgz:5169.got - 2010.06.03 18:43:04.
