data_PCOD9114832
_publ_section_title
;
Structure prediction by ZEFSAII (Michael W. Deem and Ramdas Pophale) SiO2 
 PCOD9114832
Probable space group: P 21
;
_chemical_formula_sum "Si O2"
_cell_formula_units_Z 16
_cell_length_a 10.142014
_cell_length_b 7.771547
_cell_length_c 7.974481
_cell_angle_alpha 90.000000
_cell_angle_beta 86.551988
_cell_angle_gamma 90.000000
_cell_volume 627.403924
_symmetry_space_group_name_H-M "P 21"
_symmetry_group_IT_number 4
_symmetry_cell_setting 'monoclinic'
loop_
_space_group_symop_operation_xyz
x,y,z
-x,1/2+y,-z
loop_
_atom_site_type_symbol
_atom_site_label
_atom_site_fract_x
_atom_site_fract_y
_atom_site_fract_z
Si Si1 0.027097 0.773610 0.393669
Si Si2 0.686990 0.801305 0.976354
Si Si3 0.714367 0.111446 0.777508
Si Si4 0.381173 0.430440 0.521338
Si Si5 0.475722 0.028526 0.185049
Si Si6 0.757905 0.637112 0.308991
Si Si7 0.114047 0.608477 0.694792
Si Si8 0.306080 0.790031 0.883778
O O1 0.905838 0.646308 0.364227
O O2 0.164071 0.704810 0.315170
O O3 0.051676 0.761998 0.590399
O O4 0.988847 0.953527 0.312204
O O5 0.649246 0.624158 0.886337
O O6 0.764978 0.933725 0.856595
O O7 0.754087 0.761048 0.146195
O O8 0.559641 0.917346 0.042460
O O9 0.606665 0.030700 0.656092
O O10 0.668947 0.251908 0.919530
O O11 0.507327 0.437677 0.636355
O O12 0.332158 0.231486 0.542040
O O13 0.248362 0.528007 0.601510
O O14 0.570342 0.194240 0.208396
O O15 0.711616 0.461409 0.224967
O O16 0.169444 0.685453 0.861874
#
# Coordination Sequence:
#
# PCOD9114832 Si02
#       8
#     2   2   2   2   2   2   2   2
#     4  10  19  35  56  82 117 158 196 245 298 361
#     4  10  20  37  60  86 115 156 203 249 303 368
#     4  10  21  37  57  87 124 153 199 261 304 349
#     4   8  18  37  56  79 116 154 195 246 297 361
#     4   9  18  36  59  78 112 154 193 242 302 366
#     4  10  20  35  57  84 115 159 203 233 296 376
#     4   9  18  34  56  79 111 156 199 230 294 373
#     4  10  20  35  57  87 114 150 200 250 298 362
#
# _framework density 25.501912999999998
#
# number of rings (size 3 to 8) (size 9 to 14) (size 15 to 20)
#    0.000    2.500    0.000    3.750    0.000    2.000 
#    0.000   15.000    0.000    0.000    0.000    0.000 
#    0.000    0.000    0.000    0.000    0.000    0.000 
#
# Total GULP energy -89189.255422 kJ/mol
# GULP energy per Si atom -5574.328464 kJ/mol
# Density = 2.544387 g / cm^3
# Si number density = 25.501913 Si / 1000 Ang^3
#
#
#
# Elastic Constant Matrix: (Units=GPa)
#
#
# Indices 1 2 3 4 5 6 
#
# 1 45.3980 6.6972 18.6796 0.0000 15.2724 0.0000
# 2 6.6972 118.1391 29.1662 0.0000 3.5670 0.0000
# 3 18.6796 29.1662 94.2688 0.0000 22.2719 0.0000
# 4 0.0000 0.0000 0.0000 33.4097 0.0000 16.0813
# 5 15.2724 3.5670 22.2719 0.0000 20.1584 0.0000
# 6 0.0000 0.0000 0.0000 16.0813 0.0000 37.7110
#
#
#
# Elastic Compliance Matrix: (Units=1/GPa)
#
#
# Indices 1 2 3 4 5 6 
#
# 1 0.029693 -0.000915 -0.000438 0.000000 -0.021850 0.000000
# 2 -0.000915 0.009256 -0.003328 0.000000 0.002732 0.000000
# 3 -0.000438 -0.003328 0.015571 0.000000 -0.016283 0.000000
# 4 0.000000 0.000000 0.000000 0.037662 0.000000 -0.016060
# 5 -0.021850 0.002732 -0.016283 0.000000 0.083668 0.000000
# 6 0.000000 0.000000 0.000000 -0.016060 0.000000 0.033366
#
#
# Mechanical properties :
#
#
# Convention : Reuss Voigt Hill
#
# Bulk Modulus (GPa) = 22.14471 40.76578 31.45524
# Shear Modulus (GPa) = 21.40119 31.80668 26.60393
#
# Velocity S-wave (km/s) = 2.90004 3.53544 3.23339
# Velocity P-wave (km/s) = 4.46274 5.71716 5.12844
#
# Compressibility (1/GPa) = 0.04515752
#
# Stress axis : x y z
#
# Youngs Moduli (GPa) = 33.67747 108.04327 64.22002
#
# Poissons Ratio (x) = 0.09890 0.02815
# Poissons Ratio (y) = 0.03083 0.21371
# Poissons Ratio (z) = 0.01476 0.35955
#
# Static dielectric constant tensor:
#      x y z
#    x 1.965460 0.000000 0.006670 
#    y 0.000000 2.145080 0.000000 
#    z 0.006670 0.000000 2.164460 
# 
# From -- ./inp_files/7570.got.cif
#   From: 2010.05.17/outbox.cif.g08.bks.cpg/sg4_4_cif.got.tgz:7570.got - 2010.06.03 18:43:04.
