data_PCOD9114343
_publ_section_title
;
Structure prediction by ZEFSAII (Michael W. Deem and Ramdas Pophale) SiO2 
 PCOD9114343
Probable space group: P 2
;
_chemical_formula_sum "Si O2"
_cell_formula_units_Z 10
_cell_length_a 15.640381
_cell_length_b 5.370308
_cell_length_c 10.095153
_cell_angle_alpha 90.000000
_cell_angle_beta 29.659030
_cell_angle_gamma 90.000000
_cell_volume 419.586937
_symmetry_space_group_name_H-M "P 2"
_symmetry_group_IT_number 3
_symmetry_cell_setting 'monoclinic'
loop_
_space_group_symop_operation_xyz
x,y,z
-x,y,-z
loop_
_atom_site_type_symbol
_atom_site_label
_atom_site_fract_x
_atom_site_fract_y
_atom_site_fract_z
Si Si1 0.500000 0.356120 0.500000
Si Si2 0.680801 0.725521 0.058141
Si Si3 0.864105 0.245249 0.413812
Si Si4 0.000000 0.456572 0.500000
Si Si5 0.793369 0.031443 0.153680
Si Si6 0.302466 0.758391 0.464148
O O1 0.618021 0.517286 0.246331
O O2 0.630124 0.197953 0.413923
O O3 0.508853 0.770468 0.204769
O O4 0.743074 0.940671 0.073858
O O5 0.841787 0.626749 0.760328
O O6 0.765408 0.494712 0.499340
O O7 0.931632 0.294562 0.470136
O O8 0.755507 0.991528 0.547535
O O9 0.032282 0.184863 0.097616
O O10 0.787024 0.812855 0.271043
#
# Coordination Sequence:
#
# PCOD9114343 Si02
#       6
#     1   2   2   1   2   2
#     4  12  20  46  82 116 148 200 266 308 374 456
#     4  12  26  49  82 113 161 203 259 315 389 473
#     4  12  30  49  78 113 163 205 256 327 387 462
#     4  12  30  56  72 110 160 220 256 304 402 476
#     4  12  25  46  82 120 153 202 260 323 392 456
#     4  12  27  50  80 121 153 199 264 333 380 448
#
# _framework density 23.832962999999999
#
# number of rings (size 3 to 8) (size 9 to 14) (size 15 to 20)
#    0.000    0.000    6.000    3.000    0.000    8.800 
#    0.000    6.000    0.000    0.000    0.000    0.000 
#    0.000    0.000    0.000    0.000    0.000    0.000 
#
# Total GULP energy -56030.869286 kJ/mol
# GULP energy per Si atom -5603.086929 kJ/mol
# Density = 2.377872 g / cm^3
# Si number density = 23.832963 Si / 1000 Ang^3
#
#
#
# Elastic Constant Matrix: (Units=GPa)
#
#
# Indices 1 2 3 4 5 6 
#
# 1 187.5359 82.4244 61.6167 0.0000 -14.0260 0.0000
# 2 82.4244 150.8591 50.3823 0.0000 -20.5233 0.0000
# 3 61.6167 50.3823 154.0434 0.0000 -17.1794 0.0000
# 4 0.0000 0.0000 0.0000 22.8483 0.0000 -11.4283
# 5 -14.0260 -20.5233 -17.1794 0.0000 34.4779 0.0000
# 6 0.0000 0.0000 0.0000 -11.4283 0.0000 59.9617
#
#
#
# Elastic Compliance Matrix: (Units=1/GPa)
#
#
# Indices 1 2 3 4 5 6 
#
# 1 0.007461 -0.003451 -0.001849 0.000000 0.000060 0.000000
# 2 -0.003451 0.009436 -0.001309 0.000000 0.003561 0.000000
# 3 -0.001849 -0.001309 0.007929 0.000000 0.002420 0.000000
# 4 0.000000 0.000000 0.000000 0.048379 0.000000 0.009221
# 5 0.000060 0.003561 0.002420 0.000000 0.032354 0.000000
# 6 0.000000 0.000000 0.000000 0.009221 0.000000 0.018435
#
#
# Mechanical properties :
#
#
# Convention : Reuss Voigt Hill
#
# Bulk Modulus (GPa) = 86.14220 97.92058 92.03139
# Shear Modulus (GPa) = 35.44105 43.32526 39.38316
#
# Velocity S-wave (km/s) = 3.86043 4.26828 4.06946
# Velocity P-wave (km/s) = 7.48953 8.09112 7.79613
#
# Compressibility (1/GPa) = 0.01160871
#
# Stress axis : x y z
#
# Youngs Moduli (GPa) = 134.03094 105.98226 126.11680
#
# Poissons Ratio (x) = 0.36572 0.23320
# Poissons Ratio (y) = 0.46251 0.16504
# Poissons Ratio (z) = 0.24783 0.13869
#
# Static dielectric constant tensor:
#      x y z
#    x 1.981840 0.000000 -0.009220 
#    y 0.000000 1.934690 0.000000 
#    z -0.009220 0.000000 1.860320 
# 
# From -- ./inp_files/4850.got.cif
#   From: 2010.05.17/outbox.cif.g08.bks.cpg/sg3_3_cif.got.tgz:4850.got - 2010.06.03 18:33:08.
