data_PCOD9114755
_publ_section_title
;
Structure prediction by ZEFSAII (Michael W. Deem and Ramdas Pophale) SiO2 
 PCOD9114755
Probable space group: P 21
;
_chemical_formula_sum "Si O2"
_cell_formula_units_Z 12
_cell_length_a 6.221105
_cell_length_b 13.587328
_cell_length_c 5.064568
_cell_angle_alpha 90.000000
_cell_angle_beta 90.000114
_cell_angle_gamma 90.000000
_cell_volume 428.098787
_symmetry_space_group_name_H-M "P 21"
_symmetry_group_IT_number 4
_symmetry_cell_setting 'monoclinic'
loop_
_space_group_symop_operation_xyz
x,y,z
-x,1/2+y,-z
loop_
_atom_site_type_symbol
_atom_site_label
_atom_site_fract_x
_atom_site_fract_y
_atom_site_fract_z
Si Si1 0.908724 0.544640 0.454813
Si Si2 0.408724 0.629534 0.045187
Si Si3 0.857413 0.961773 0.046370
Si Si4 0.357413 0.212401 0.453629
Si Si5 0.630486 0.377159 0.572633
Si Si6 0.130486 0.797015 0.927367
O O1 0.981688 0.510728 0.168115
O O2 0.868685 0.660648 0.486069
O O3 0.683021 0.490300 0.521763
O O4 0.071568 0.497879 0.665406
O O5 0.571568 0.676295 0.834594
O O6 0.183021 0.683873 0.978238
O O7 0.481689 0.663446 0.331886
O O8 0.368685 0.513526 0.013931
O O9 0.902017 0.846159 0.997135
O O10 0.402017 0.328014 0.502865
O O11 0.792191 0.323841 0.365240
O O12 0.707809 0.350333 0.865240
#
# Coordination Sequence:
#
# PCOD9114755 Si02
#       6
#     2   2   2   2   2   2
#     4  10  19  33  51  72  96 126 160 196 235 281
#     4  10  19  33  51  72  96 126 160 196 235 281
#     4  10  19  33  51  72  96 126 160 196 235 281
#     4  10  19  33  51  72  96 126 160 196 235 281
#     4   8  16  30  48  66  92 128 158 182 230 294
#     4   8  16  30  48  66  92 128 158 182 230 294
#
# _framework density 28.030913000000002
#
# number of rings (size 3 to 8) (size 9 to 14) (size 15 to 20)
#    0.000    2.667    0.000    2.000    0.000    0.000 
#    0.000    3.333    0.000    0.000    0.000    0.000 
#    0.000    0.000    0.000    0.000    0.000    0.000 
#
# Total GULP energy -67200.669328 kJ/mol
# GULP energy per Si atom -5600.055777 kJ/mol
# Density = 2.796711 g / cm^3
# Si number density = 28.030913 Si / 1000 Ang^3
#
#
#
# Elastic Constant Matrix: (Units=GPa)
#
#
# Indices 1 2 3 4 5 6 
#
# 1 66.2501 43.7254 37.6702 0.0000 4.7773 0.0000
# 2 43.7254 102.8289 30.4656 0.0000 -1.0505 0.0000
# 3 37.6702 30.4656 122.7388 0.0000 -0.3026 0.0000
# 4 0.0000 0.0000 0.0000 27.1370 0.0000 -3.0277
# 5 4.7773 -1.0505 -0.3026 0.0000 44.0429 0.0000
# 6 0.0000 0.0000 0.0000 -3.0277 0.0000 65.3596
#
#
#
# Elastic Compliance Matrix: (Units=1/GPa)
#
#
# Indices 1 2 3 4 5 6 
#
# 1 0.024001 -0.008689 -0.005216 0.000000 -0.002846 0.000000
# 2 -0.008689 0.013645 -0.000717 0.000000 0.001263 0.000000
# 3 -0.005216 -0.000717 0.009928 0.000000 0.000617 0.000000
# 4 0.000000 0.000000 0.000000 0.037042 0.000000 0.001716
# 5 -0.002846 0.001263 0.000617 0.000000 0.023048 0.000000
# 6 0.000000 0.000000 0.000000 0.001716 0.000000 0.015379
#
#
# Mechanical properties :
#
#
# Convention : Reuss Voigt Hill
#
# Bulk Modulus (GPa) = 54.56002 57.28223 55.92112
# Shear Modulus (GPa) = 31.56624 39.30501 35.43562
#
# Velocity S-wave (km/s) = 3.35942 3.74866 3.55936
# Velocity P-wave (km/s) = 5.87827 6.26230 6.07332
#
# Compressibility (1/GPa) = 0.01832844
#
# Stress axis : x y z
#
# Youngs Moduli (GPa) = 41.66579 73.28650 100.72704
#
# Poissons Ratio (x) = 0.63680 0.52542
# Poissons Ratio (y) = 0.36204 0.07222
# Poissons Ratio (z) = 0.21734 0.05254
#
# Static dielectric constant tensor:
#      x y z
#    x 2.185030 0.000000 -0.008030 
#    y 0.000000 2.165290 0.000000 
#    z -0.008030 0.000000 2.083700 
# 
# From -- ./inp_files/1702.got.cif
#   From: 2010.05.17/outbox.cif.g08.bks.cpg/sg4_1_cif.got.tgz:1702.got - 2010.06.03 18:43:04.
