data_PCOD9114267
_publ_section_title
;
Structure prediction by ZEFSAII (Michael W. Deem and Ramdas Pophale) SiO2 
 PCOD9114267
Probable space group: P 2
;
_chemical_formula_sum "Si O2"
_cell_formula_units_Z 16
_cell_length_a 15.433511
_cell_length_b 5.065844
_cell_length_c 9.522639
_cell_angle_alpha 90.000000
_cell_angle_beta 60.506227
_cell_angle_gamma 90.000000
_cell_volume 648.033333
_symmetry_space_group_name_H-M "P 2"
_symmetry_group_IT_number 3
_symmetry_cell_setting 'monoclinic'
loop_
_space_group_symop_operation_xyz
x,y,z
-x,y,-z
loop_
_atom_site_type_symbol
_atom_site_label
_atom_site_fract_x
_atom_site_fract_y
_atom_site_fract_z
Si Si1 0.308748 0.932220 0.280254
Si Si2 0.904875 0.490382 0.156143
Si Si3 0.150569 0.792912 0.184202
Si Si4 0.755853 0.135927 0.123190
Si Si5 0.026762 0.283790 0.314896
Si Si6 0.426994 0.451888 0.173963
Si Si7 0.704934 0.789305 0.388676
Si Si8 0.566614 0.401048 0.324021
O O1 0.387517 0.731298 0.148618
O O2 0.305133 0.819086 0.439743
O O3 0.207968 0.882770 0.277580
O O4 0.339950 0.235968 0.260329
O O5 0.857173 0.283762 0.083517
O O6 0.813437 0.675404 0.265865
O O7 0.942599 0.366132 0.271272
O O8 0.000000 0.613453 0.000000
O O9 0.054540 0.981917 0.259826
O O10 0.118614 0.489076 0.215673
O O11 0.217049 0.892304 0.999387
O O12 0.657163 0.287740 0.152307
O O13 0.710267 0.072775 0.312902
O O14 0.000000 0.311361 0.500000
O O15 0.486096 0.485600 0.272120
O O16 0.500000 0.335223 0.000000
O O17 0.621868 0.629289 0.369227
O O18 0.500000 0.255160 0.500000
#
# Coordination Sequence:
#
# PCOD9114267 Si02
#       8
#     2   2   2   2   2   2   2   2
#     4  12  27  48  74 109 151 195 249 308 370 440
#     4  11  24  46  69 109 144 193 246 301 369 438
#     4  12  27  48  74 109 151 195 249 308 370 440
#     4  11  26  42  75 105 148 194 242 307 367 438
#     4  12  27  47  76 107 150 198 246 306 371 443
#     4  12  27  47  76 107 150 198 246 306 371 443
#     4  11  26  42  75 105 148 194 242 307 367 438
#     4  11  24  46  69 109 144 193 246 301 369 438
#
# _framework density 24.690089
#
# number of rings (size 3 to 8) (size 9 to 14) (size 15 to 20)
#    0.000    0.500    2.500    4.500   10.500    1.000 
#    0.000    0.000    0.000    0.000    0.000    0.000 
#    0.000    0.000    0.000    0.000    0.000    0.000 
#
# Total GULP energy -89457.888066 kJ/mol
# GULP energy per Si atom -5591.118004 kJ/mol
# Density = 2.463389 g / cm^3
# Si number density = 24.690089 Si / 1000 Ang^3
#
#
#
# Elastic Constant Matrix: (Units=GPa)
#
#
# Indices 1 2 3 4 5 6 
#
# 1 90.7057 4.7177 10.3609 0.0000 10.6842 0.0000
# 2 4.7177 51.4881 1.3989 0.0000 -4.7958 0.0000
# 3 10.3609 1.3989 106.0510 0.0000 8.7312 0.0000
# 4 0.0000 0.0000 0.0000 32.7904 0.0000 -3.2339
# 5 10.6842 -4.7958 8.7312 0.0000 36.3879 0.0000
# 6 0.0000 0.0000 0.0000 -3.2339 0.0000 10.0093
#
#
#
# Elastic Compliance Matrix: (Units=1/GPa)
#
#
# Indices 1 2 3 4 5 6 
#
# 1 0.011589 -0.001354 -0.000836 0.000000 -0.003381 0.000000
# 2 -0.001354 0.019846 -0.000385 0.000000 0.003106 0.000000
# 3 -0.000836 -0.000385 0.009692 0.000000 -0.002131 0.000000
# 4 0.000000 0.000000 0.000000 0.031500 0.000000 0.010177
# 5 -0.003381 0.003106 -0.002131 0.000000 0.029395 0.000000
# 6 0.000000 0.000000 0.000000 0.010177 0.000000 0.103195
#
#
# Mechanical properties :
#
#
# Convention : Reuss Voigt Hill
#
# Bulk Modulus (GPa) = 27.79650 31.24442 29.52046
# Shear Modulus (GPa) = 22.48619 31.28868 26.88743
#
# Velocity S-wave (km/s) = 3.02112 3.56372 3.30358
# Velocity P-wave (km/s) = 4.84274 5.44202 5.15110
#
# Compressibility (1/GPa) = 0.03597576
#
# Stress axis : x y z
#
# Youngs Moduli (GPa) = 86.29036 50.38860 103.18209
#
# Poissons Ratio (x) = 0.06823 0.08626
# Poissons Ratio (y) = 0.11684 0.03974
# Poissons Ratio (z) = 0.07214 0.01941
#
# Static dielectric constant tensor:
#      x y z
#    x 2.012550 0.000000 -0.069590 
#    y 0.000000 2.006650 0.000000 
#    z -0.069590 0.000000 1.967720 
# 
# From -- ./inp_files/8276.got.cif
#   From: 2010.05.17/outbox.cif.g08.bks.cpg/sg3_5_cif.got.tgz:8276.got - 2010.06.03 18:33:08.
