data_PCOD9114166
_publ_section_title
;
Structure prediction by ZEFSAII (Michael W. Deem and Ramdas Pophale) SiO2 
 PCOD9114166
Probable space group: P 2
;
_chemical_formula_sum "Si O2"
_cell_formula_units_Z 16
_cell_length_a 9.056787
_cell_length_b 18.589698
_cell_length_c 7.994060
_cell_angle_alpha 90.000000
_cell_angle_beta 33.729861
_cell_angle_gamma 90.000000
_cell_volume 747.350476
_symmetry_space_group_name_H-M "P 2"
_symmetry_group_IT_number 3
_symmetry_cell_setting 'monoclinic'
loop_
_space_group_symop_operation_xyz
x,y,z
-x,y,-z
loop_
_atom_site_type_symbol
_atom_site_label
_atom_site_fract_x
_atom_site_fract_y
_atom_site_fract_z
Si Si1 0.581395 0.876580 0.732528
Si Si2 0.388389 0.716962 0.425861
Si Si3 0.025233 0.125026 0.179977
Si Si4 0.061707 0.960011 0.139425
Si Si5 0.481544 0.209821 0.314277
Si Si6 0.226287 0.483443 0.152667
Si Si7 0.868872 0.645602 0.806645
Si Si8 0.271786 0.356002 0.847756
O O1 0.579903 0.801665 0.635293
O O2 0.870834 0.909546 0.428087
O O3 0.500000 0.861466 0.000000
O O4 0.364190 0.934345 0.874987
O O5 0.500000 0.696821 0.500000
O O6 0.085873 0.690167 0.705982
O O7 0.579352 0.678461 0.110979
O O8 0.811495 0.182021 0.450609
O O9 0.315829 0.152479 0.950328
O O10 0.000943 0.041927 0.249734
O O11 0.000000 0.126615 0.000000
O O12 0.000000 0.953200 0.000000
O O13 0.500000 0.206503 0.500000
O O14 0.601452 0.288694 0.169483
O O15 0.000000 0.466324 0.500000
O O16 0.157380 0.560616 0.136148
O O17 0.500000 0.489390 0.000000
O O18 0.228321 0.421864 0.012199
O O19 0.000000 0.651806 0.500000
O O20 0.500000 0.375662 0.500000
O O21 0.000000 0.336892 0.000000
#
# Coordination Sequence:
#
# PCOD9114166 Si02
#       8
#     2   2   2   2   2   2   2   2
#     4  12  25  42  62  88 125 167 200 242 307 378
#     4  12  25  42  65  94 123 155 200 258 307 359
#     4   9  17  30  54  84 115 152 197 250 304 356
#     4  11  22  39  63  92 120 156 208 262 303 355
#     4   9  16  30  52  85 120 152 195 250 307 356
#     4  11  24  43  64  89 126 170 207 250 310 381
#     4  11  23  43  65  89 121 163 205 246 304 376
#     4  11  22  37  62  95 126 161 210 268 310 359
#
# _framework density 21.408964000000001
#
# number of rings (size 3 to 8) (size 9 to 14) (size 15 to 20)
#    0.000    1.250    0.000    8.625    0.000    3.500 
#    0.000    0.000    0.000    7.500    0.000    0.000 
#    0.000    0.000    0.000    0.000    0.000    0.000 
#
# Total GULP energy -89398.527625 kJ/mol
# GULP energy per Si atom -5587.407977 kJ/mol
# Density = 2.136024 g / cm^3
# Si number density = 21.408964 Si / 1000 Ang^3
#
#
#
# Elastic Constant Matrix: (Units=GPa)
#
#
# Indices 1 2 3 4 5 6 
#
# 1 35.6485 8.6283 1.0034 0.0000 -10.1881 0.0000
# 2 8.6283 106.6734 31.8296 0.0000 9.1772 0.0000
# 3 1.0034 31.8296 116.3802 0.0000 -10.3066 0.0000
# 4 0.0000 0.0000 0.0000 38.7218 0.0000 9.9541
# 5 -10.1881 9.1772 -10.3066 0.0000 26.9213 0.0000
# 6 0.0000 0.0000 0.0000 9.9541 0.0000 -17.8903
#
#
#
# Elastic Compliance Matrix: (Units=1/GPa)
#
#
# Indices 1 2 3 4 5 6 
#
# 1 0.033460 -0.004710 0.002343 0.000000 0.015165 0.000000
# 2 -0.004710 0.011481 -0.003730 0.000000 -0.007125 0.000000
# 3 0.002343 -0.003730 0.010127 0.000000 0.006035 0.000000
# 4 0.000000 0.000000 0.000000 0.022594 0.000000 0.012571
# 5 0.015165 -0.007125 0.006035 0.000000 0.047624 0.000000
# 6 0.000000 0.000000 0.000000 0.012571 0.000000 -0.048902
#
#
# Mechanical properties :
#
#
# Convention : Reuss Voigt Hill
#
# Bulk Modulus (GPa) = 23.32489 37.95832 30.64160
# Shear Modulus (GPa) = 48.60474 24.03328 36.31901
#
# Velocity S-wave (km/s) = 4.76993 3.35413 4.12325
# Velocity P-wave (km/s) = 6.42300 5.72441 6.08374
#
# Compressibility (1/GPa) = 0.04287267
#
# Stress axis : x y z
#
# Youngs Moduli (GPa) = 29.88655 87.09715 98.74509
#
# Poissons Ratio (x) = 0.41024 -0.23133
# Poissons Ratio (y) = 0.14077 0.36837
# Poissons Ratio (z) = -0.07002 0.32491
#
# Static dielectric constant tensor:
#      x y z
#    x 1.799220 0.000000 -0.002320 
#    y 0.000000 1.759090 0.000000 
#    z -0.002320 0.000000 1.747290 
# 
# From -- ./inp_files/6208.got.cif
#   From: 2010.05.17/outbox.cif.g08.bks.cpg/sg3_4_cif.got.tgz:6208.got - 2010.06.03 18:33:08.
