data_PCOD9114722
_publ_section_title
;
Structure prediction by ZEFSAII (Michael W. Deem and Ramdas Pophale) SiO2 
 PCOD9114722
Probable space group: P 21
;
_chemical_formula_sum "Si O2"
_cell_formula_units_Z 14
_cell_length_a 13.150028
_cell_length_b 4.954578
_cell_length_c 19.821400
_cell_angle_alpha 90.000000
_cell_angle_beta 37.184883
_cell_angle_gamma 90.000000
_cell_volume 780.520257
_symmetry_space_group_name_H-M "P 21"
_symmetry_group_IT_number 4
_symmetry_cell_setting 'monoclinic'
loop_
_space_group_symop_operation_xyz
x,y,z
-x,1/2+y,-z
loop_
_atom_site_type_symbol
_atom_site_label
_atom_site_fract_x
_atom_site_fract_y
_atom_site_fract_z
Si Si1 0.753173 0.769950 0.479625
Si Si2 0.482803 0.786940 0.919680
Si Si3 0.107778 0.047940 0.454259
Si Si4 0.441261 0.646590 0.570565
Si Si5 0.126645 0.771258 0.664565
Si Si6 0.240611 0.048951 0.140838
Si Si7 0.648663 0.300995 0.783887
O O1 0.817904 0.678108 0.517618
O O2 0.553017 0.721725 0.575959
O O3 0.841402 0.572475 0.378261
O O4 0.802394 0.071035 0.431628
O O5 0.578233 0.001832 0.822324
O O6 0.607629 0.752028 0.918590
O O7 0.491169 0.500993 0.878964
O O8 0.307385 0.887085 0.041218
O O9 0.245376 0.901455 0.335148
O O10 0.022762 0.304089 0.461371
O O11 0.476397 0.339191 0.530966
O O12 0.244934 0.710676 0.666707
O O13 0.933607 0.698309 0.776802
O O14 0.237310 0.857948 0.209384
#
# Coordination Sequence:
#
# PCOD9114722 Si02
#       7
#     2   2   2   2   2   2   2
#     4  10  20  34  47  71 101 131 154 201 235 286
#     4  10  20  31  47  65  95 128 152 204 237 292
#     4  12  23  33  47  72  98 134 169 192 226 293
#     4   8  16  32  47  69  94 121 159 195 246 282
#     4  10  20  29  54  72  95 126 160 202 242 288
#     4  10  19  31  48  69  93 123 161 194 249 279
#     4  10  20  32  44  64  96 127 159 188 239 282
#
# _framework density 17.936754000000001
#
# number of rings (size 3 to 8) (size 9 to 14) (size 15 to 20)
#    0.857    1.143    1.429    3.429    4.000    0.000 
#    0.000    0.000    0.000    0.000    0.000    2.000 
#    0.000    0.000    0.000    0.000    0.000    0.000 
#
# Total GULP energy -78026.358088 kJ/mol
# GULP energy per Si atom -5573.311292 kJ/mol
# Density = 1.789593 g / cm^3
# Si number density = 17.936754 Si / 1000 Ang^3
#
#
#
# Elastic Constant Matrix: (Units=GPa)
#
#
# Indices 1 2 3 4 5 6 
#
# 1 61.8660 -4.8836 6.3768 0.0000 -9.8321 0.0000
# 2 -4.8836 60.6588 -12.7658 0.0000 4.9323 0.0000
# 3 6.3768 -12.7658 41.8173 0.0000 -2.5880 0.0000
# 4 0.0000 0.0000 0.0000 20.0203 0.0000 0.1631
# 5 -9.8321 4.9323 -2.5880 0.0000 20.3351 0.0000
# 6 0.0000 0.0000 0.0000 0.1631 0.0000 18.1315
#
#
#
# Elastic Compliance Matrix: (Units=1/GPa)
#
#
# Indices 1 2 3 4 5 6 
#
# 1 0.017711 0.000317 -0.002095 0.000000 0.008220 0.000000
# 2 0.000317 0.017891 0.005195 0.000000 -0.003525 0.000000
# 3 -0.002095 0.005195 0.025882 0.000000 0.001021 0.000000
# 4 0.000000 0.000000 0.000000 0.049953 0.000000 -0.000449
# 5 0.008220 -0.003525 0.001021 0.000000 0.054135 0.000000
# 6 0.000000 0.000000 0.000000 -0.000449 0.000000 0.055157
#
#
# Mechanical properties :
#
#
# Convention : Reuss Voigt Hill
#
# Bulk Modulus (GPa) = 14.63755 15.75520 15.19638
# Shear Modulus (GPa) = 21.12651 23.40503 22.26577
#
# Velocity S-wave (km/s) = 3.43568 3.61621 3.52710
# Velocity P-wave (km/s) = 4.89049 5.12238 5.00778
#
# Compressibility (1/GPa) = 0.06831744
#
# Stress axis : x y z
#
# Youngs Moduli (GPa) = 56.46104 55.89357 38.63650
#
# Poissons Ratio (x) = -0.01769 0.08096
# Poissons Ratio (y) = -0.01787 -0.20073
# Poissons Ratio (z) = 0.11831 -0.29038
#
# Static dielectric constant tensor:
#      x y z
#    x 1.643320 0.000000 -0.021770 
#    y 0.000000 1.648030 0.000000 
#    z -0.021770 0.000000 1.623440 
# 
# From -- ./inp_files/11484.got.cif
#   From: 2010.05.17/outbox.cif.g08.bks.cpg/sg4_6_cif.got.tgz:11484.got - 2010.06.03 18:43:04.
