data_PCOD9114104
_publ_section_title
;
Structure prediction by ZEFSAII (Michael W. Deem and Ramdas Pophale) SiO2 
 PCOD9114104
Probable space group: P 2
;
_chemical_formula_sum "Si O2"
_cell_formula_units_Z 10
_cell_length_a 11.236109
_cell_length_b 4.713698
_cell_length_c 19.508781
_cell_angle_alpha 90.000000
_cell_angle_beta 159.060654
_cell_angle_gamma 90.000000
_cell_volume 369.264372
_symmetry_space_group_name_H-M "P 2"
_symmetry_group_IT_number 3
_symmetry_cell_setting 'monoclinic'
loop_
_space_group_symop_operation_xyz
x,y,z
-x,y,-z
loop_
_atom_site_type_symbol
_atom_site_label
_atom_site_fract_x
_atom_site_fract_y
_atom_site_fract_z
Si Si1 0.117030 0.016610 0.303147
Si Si2 0.726341 0.672736 0.187287
Si Si3 0.213187 0.338993 0.549085
Si Si4 0.327108 0.817639 0.212798
Si Si5 0.942922 0.525481 0.127145
O O1 0.500000 0.106802 0.500000
O O2 0.550035 0.587145 0.293985
O O3 0.884873 0.971576 0.245884
O O4 0.114694 0.683835 0.283609
O O5 0.009908 0.494416 0.378661
O O6 0.500000 0.565751 0.000000
O O7 0.420111 0.664237 0.075799
O O8 0.000000 0.236739 0.500000
O O9 0.436550 0.079443 0.642030
O O10 0.936679 0.199658 0.146786
O O11 0.178115 0.623468 0.192951
O O12 0.000000 0.935084 0.000000
#
# Coordination Sequence:
#
# PCOD9114104 Si02
#       5
#     2   2   2   2   2
#     4  11  24  45  71 107 153 205 260 323 390 472
#     4  10  26  47  75 115 165 211 261 327 400 480
#     4  12  27  49  81 119 159 213 272 330 404 488
#     4  12  27  50  79 113 157 212 273 339 402 475
#     4  11  25  45  73 108 152 205 260 321 396 473
#
# _framework density 27.080870000000001
#
# number of rings (size 3 to 8) (size 9 to 14) (size 15 to 20)
#    0.000    0.800    0.000    5.400    0.000   20.000 
#    0.000    0.000    0.000    0.000    0.000    0.000 
#    0.000    0.000    0.000    0.000    0.000    0.000 
#
# Total GULP energy -55790.888682 kJ/mol
# GULP energy per Si atom -5579.088868 kJ/mol
# Density = 2.701923 g / cm^3
# Si number density = 27.080870 Si / 1000 Ang^3
#
#
#
# Elastic Constant Matrix: (Units=GPa)
#
#
# Indices 1 2 3 4 5 6 
#
# 1 132.0793 49.6793 69.5634 0.0000 5.7766 0.0000
# 2 49.6793 146.8365 84.3885 0.0000 12.9062 0.0000
# 3 69.5634 84.3885 198.4838 0.0000 21.8109 0.0000
# 4 0.0000 0.0000 0.0000 31.1882 0.0000 3.6217
# 5 5.7766 12.9062 21.8109 0.0000 43.8735 0.0000
# 6 0.0000 0.0000 0.0000 3.6217 0.0000 18.2073
#
#
#
# Elastic Compliance Matrix: (Units=1/GPa)
#
#
# Indices 1 2 3 4 5 6 
#
# 1 0.009624 -0.001763 -0.002688 0.000000 0.000588 0.000000
# 2 -0.001763 0.009361 -0.003263 0.000000 -0.000899 0.000000
# 3 -0.002688 -0.003263 0.007641 0.000000 -0.002485 0.000000
# 4 0.000000 0.000000 0.000000 0.032822 0.000000 -0.006529
# 5 0.000588 -0.000899 -0.002485 0.000000 0.024215 0.000000
# 6 0.000000 0.000000 0.000000 -0.006529 0.000000 0.056222
#
#
# Mechanical properties :
#
#
# Convention : Reuss Voigt Hill
#
# Bulk Modulus (GPa) = 89.30568 98.29579 93.80074
# Shear Modulus (GPa) = 31.43737 36.90503 34.17120
#
# Velocity S-wave (km/s) = 3.41085 3.69558 3.55607
# Velocity P-wave (km/s) = 6.96856 7.38821 7.18145
#
# Compressibility (1/GPa) = 0.01119750
#
# Stress axis : x y z
#
# Youngs Moduli (GPa) = 103.90254 106.82241 130.87600
#
# Poissons Ratio (x) = 0.18833 0.35181
# Poissons Ratio (y) = 0.18318 0.42710
# Poissons Ratio (z) = 0.27930 0.34860
#
# Static dielectric constant tensor:
#      x y z
#    x 2.460370 0.000000 0.133720 
#    y 0.000000 2.004140 0.000000 
#    z 0.133720 0.000000 2.189100 
# 
# From -- ./inp_files/16282.got.cif
#   From: 2010.05.17/outbox.cif.g08.bks.cpg/sg3_9_cif.got.tgz:16282.got - 2010.06.03 18:33:08.
