data_PCOD9114455
_publ_section_title
;
Structure prediction by ZEFSAII (Michael W. Deem and Ramdas Pophale) SiO2 
 PCOD9114455
Probable space group: P 21
;
_chemical_formula_sum "Si O2"
_cell_formula_units_Z 10
_cell_length_a 8.102881
_cell_length_b 5.182547
_cell_length_c 11.242004
_cell_angle_alpha 90.000000
_cell_angle_beta 64.749503
_cell_angle_gamma 90.000000
_cell_volume 426.984100
_symmetry_space_group_name_H-M "P 21"
_symmetry_group_IT_number 4
_symmetry_cell_setting 'monoclinic'
loop_
_space_group_symop_operation_xyz
x,y,z
-x,1/2+y,-z
loop_
_atom_site_type_symbol
_atom_site_label
_atom_site_fract_x
_atom_site_fract_y
_atom_site_fract_z
Si Si1 0.087463 0.494110 0.529273
Si Si2 0.611187 0.378297 0.929843
Si Si3 0.548108 0.184559 0.696013
Si Si4 0.213275 0.902402 0.895383
Si Si5 0.830650 0.892553 0.230174
O O1 0.292255 0.582796 0.434562
O O2 0.077832 0.443531 0.672478
O O3 0.962303 0.731616 0.524539
O O4 0.634499 0.333615 0.782667
O O5 0.469487 0.610394 0.993841
O O6 0.779451 0.440077 0.965092
O O7 0.389682 0.351293 0.682009
O O8 0.424724 0.956113 0.790576
O O9 0.157122 0.627813 0.864470
O O10 0.114074 0.128213 0.852726
#
# Coordination Sequence:
#
# PCOD9114455 Si02
#       5
#     2   2   2   2   2
#     4  12  28  41  57  87 134 170 203 249 310 367
#     4  10  16  32  57 102 121 139 193 272 312 342
#     4   9  23  35  67  88 122 158 206 252 298 364
#     4   9  18  33  63  95 114 145 203 269 294 353
#     4  10  21  37  62  86 121 156 213 248 300 350
#
# _framework density 23.420074
#
# number of rings (size 3 to 8) (size 9 to 14) (size 15 to 20)
#    1.200    0.800    2.000    1.200    5.600    0.000 
#    0.000    0.000    0.000    4.800    0.000    0.000 
#    0.000    0.000    0.000    0.000    0.000    0.000 
#
# Total GULP energy -55876.271803 kJ/mol
# GULP energy per Si atom -5587.627180 kJ/mol
# Density = 2.336677 g / cm^3
# Si number density = 23.420074 Si / 1000 Ang^3
#
#
#
# Elastic Constant Matrix: (Units=GPa)
#
#
# Indices 1 2 3 4 5 6 
#
# 1 92.7817 17.6760 41.3349 0.0000 13.8057 0.0000
# 2 17.6760 115.5045 30.4960 0.0000 17.4906 0.0000
# 3 41.3349 30.4960 106.5888 0.0000 19.0668 0.0000
# 4 0.0000 0.0000 0.0000 29.6619 0.0000 20.3841
# 5 13.8057 17.4906 19.0668 0.0000 48.9531 0.0000
# 6 0.0000 0.0000 0.0000 20.3841 0.0000 15.2667
#
#
#
# Elastic Compliance Matrix: (Units=1/GPa)
#
#
# Indices 1 2 3 4 5 6 
#
# 1 0.013213 -0.000530 -0.004665 0.000000 -0.001720 0.000000
# 2 -0.000530 0.009674 -0.002118 0.000000 -0.002482 0.000000
# 3 -0.004665 -0.002118 0.012282 0.000000 -0.002711 0.000000
# 4 0.000000 0.000000 0.000000 0.408983 0.000000 -0.546072
# 5 -0.001720 -0.002482 -0.002711 0.000000 0.022856 0.000000
# 6 0.000000 0.000000 0.000000 -0.546072 0.000000 0.794616
#
#
# Mechanical properties :
#
#
# Convention : Reuss Voigt Hill
#
# Bulk Modulus (GPa) = 48.67856 54.87653 51.77754
# Shear Modulus (GPa) = 3.89682 33.80090 18.84886
#
# Velocity S-wave (km/s) = 1.29131 3.80313 2.84001
# Velocity P-wave (km/s) = 4.80140 6.53967 5.73676
#
# Compressibility (1/GPa) = 0.02054293
#
# Stress axis : x y z
#
# Youngs Moduli (GPa) = 75.68275 103.37117 81.42094
#
# Poissons Ratio (x) = 0.05478 0.37980
# Poissons Ratio (y) = 0.04011 0.17247
# Poissons Ratio (z) = 0.35303 0.21897
#
# Static dielectric constant tensor:
#      x y z
#    x 1.946530 0.000000 -0.054320 
#    y 0.000000 1.823770 0.000000 
#    z -0.054320 0.000000 1.874930 
# 
# From -- ./inp_files/5147.got.cif
#   From: 2010.05.17/outbox.cif.g08.bks.cpg/sg4_3_cif.got.tgz:5147.got - 2010.06.03 18:43:04.
