data_PCOD9114182
_publ_section_title
;
Structure prediction by ZEFSAII (Michael W. Deem and Ramdas Pophale) SiO2 
 PCOD9114182
Probable space group: P 2
;
_chemical_formula_sum "Si O2"
_cell_formula_units_Z 14
_cell_length_a 8.874385
_cell_length_b 6.141600
_cell_length_c 14.645806
_cell_angle_alpha 90.000000
_cell_angle_beta 45.978775
_cell_angle_gamma 90.000000
_cell_volume 573.999799
_symmetry_space_group_name_H-M "P 2"
_symmetry_group_IT_number 3
_symmetry_cell_setting 'monoclinic'
loop_
_space_group_symop_operation_xyz
x,y,z
-x,y,-z
loop_
_atom_site_type_symbol
_atom_site_label
_atom_site_fract_x
_atom_site_fract_y
_atom_site_fract_z
Si Si1 0.710793 0.377900 0.624105
Si Si2 0.938071 0.158223 0.361376
Si Si3 0.500000 0.017421 0.500000
Si Si4 0.247720 0.760446 0.237812
Si Si5 0.595389 0.012365 0.170796
Si Si6 0.617107 0.686810 0.317707
Si Si7 0.964259 0.507903 0.815657
Si Si8 0.000000 0.316979 0.000000
O O1 0.878755 0.295549 0.477321
O O2 0.756839 0.569553 0.680714
O O3 0.520012 0.480379 0.646716
O O4 0.598066 0.166491 0.714322
O O5 0.067848 0.293692 0.232277
O O6 0.717689 0.136180 0.400927
O O7 0.060412 0.936591 0.333280
O O8 0.468194 0.860372 0.428476
O O9 0.472889 0.876130 0.146197
O O10 0.206258 0.666216 0.154862
O O11 0.679181 0.823265 0.202849
O O12 0.792496 0.169509 0.077647
O O13 0.811996 0.623732 0.298177
O O14 0.989363 0.455250 0.911379
#
# Coordination Sequence:
#
# PCOD9114182 Si02
#       8
#     2   2   1   2   2   2   2   1
#     4  11  24  47  73 112 158 202 247 313 383 478
#     4  12  25  45  76 115 162 199 248 310 382 473
#     4  12  20  40  70 114 152 192 250 298 368 464
#     4  11  28  48  75 116 160 202 250 316 401 459
#     4  11  25  51  77 106 146 199 262 320 386 458
#     4  11  22  43  75 110 145 197 252 307 385 460
#     4  12  26  49  77 113 150 200 261 319 384 465
#     4  12  28  54  86 104 146 212 274 328 384 448
#
# _framework density 24.390252
#
# number of rings (size 3 to 8) (size 9 to 14) (size 15 to 20)
#    0.000    0.571    4.286    3.429    0.000    4.000 
#    0.000    4.286    0.000    0.000    0.000    0.000 
#    0.000    0.000    0.000    0.000    0.000    0.000 
#
# Total GULP energy -78164.658888 kJ/mol
# GULP energy per Si atom -5583.189921 kJ/mol
# Density = 2.433474 g / cm^3
# Si number density = 24.390252 Si / 1000 Ang^3
#
#
#
# Elastic Constant Matrix: (Units=GPa)
#
#
# Indices 1 2 3 4 5 6 
#
# 1 157.0864 70.5008 38.3736 0.0000 10.9244 0.0000
# 2 70.5008 110.3289 40.0153 0.0000 10.5025 0.0000
# 3 38.3736 40.0153 79.0858 0.0000 8.9624 0.0000
# 4 0.0000 0.0000 0.0000 8.6186 0.0000 -16.2796
# 5 10.9244 10.5025 8.9624 0.0000 19.4085 0.0000
# 6 0.0000 0.0000 0.0000 -16.2796 0.0000 58.9004
#
#
#
# Elastic Compliance Matrix: (Units=1/GPa)
#
#
# Indices 1 2 3 4 5 6 
#
# 1 0.009180 -0.005098 -0.001690 0.000000 -0.001628 0.000000
# 2 -0.005098 0.014176 -0.004384 0.000000 -0.002777 0.000000
# 3 -0.001690 -0.004384 0.016152 0.000000 -0.004135 0.000000
# 4 0.000000 0.000000 0.000000 0.242774 0.000000 0.067101
# 5 -0.001628 -0.002777 -0.004135 0.000000 0.055852 0.000000
# 6 0.000000 0.000000 0.000000 0.067101 0.000000 0.035524
#
#
# Mechanical properties :
#
#
# Convention : Reuss Voigt Hill
#
# Bulk Modulus (GPa) = 58.26770 71.58673 64.92721
# Shear Modulus (GPa) = 12.44637 30.55960 21.50299
#
# Velocity S-wave (km/s) = 2.26144 3.54353 2.97243
# Velocity P-wave (km/s) = 5.54621 6.79385 6.20149
#
# Compressibility (1/GPa) = 0.01716217
#
# Stress axis : x y z
#
# Youngs Moduli (GPa) = 108.93133 70.54168 61.91355
#
# Poissons Ratio (x) = 0.35963 0.10466
# Poissons Ratio (y) = 0.55534 0.27145
# Poissons Ratio (z) = 0.18413 0.30928
#
# Static dielectric constant tensor:
#      x y z
#    x 1.983310 0.000000 -0.035480 
#    y 0.000000 2.021420 0.000000 
#    z -0.035480 0.000000 2.119540 
# 
# From -- ./inp_files/13343.got.cif
#   From: 2010.05.17/outbox.cif.g08.bks.cpg/sg3_7_cif.got.tgz:13343.got - 2010.06.03 18:33:08.
