data_PCOD9114843
_publ_section_title
;
Structure prediction by ZEFSAII (Michael W. Deem and Ramdas Pophale) SiO2 
 PCOD9114843
Probable space group: P 21
;
_chemical_formula_sum "Si O2"
_cell_formula_units_Z 16
_cell_length_a 12.609590
_cell_length_b 8.138257
_cell_length_c 9.307013
_cell_angle_alpha 90.000000
_cell_angle_beta 131.810659
_cell_angle_gamma 90.000000
_cell_volume 711.875590
_symmetry_space_group_name_H-M "P 21"
_symmetry_group_IT_number 4
_symmetry_cell_setting 'monoclinic'
loop_
_space_group_symop_operation_xyz
x,y,z
-x,1/2+y,-z
loop_
_atom_site_type_symbol
_atom_site_label
_atom_site_fract_x
_atom_site_fract_y
_atom_site_fract_z
Si Si1 0.362886 0.147750 0.000927
Si Si2 0.259970 0.246494 0.611912
Si Si3 0.431751 0.764963 0.032612
Si Si4 0.984273 0.412260 0.333220
Si Si5 0.869185 0.274343 0.835813
Si Si6 0.848863 0.621021 0.970994
Si Si7 0.090406 0.924179 0.401162
Si Si8 0.178645 0.599871 0.942700
O O1 0.259893 0.218586 0.784050
O O2 0.511695 0.222380 0.076782
O O3 0.300324 0.186925 0.101074
O O4 0.370289 0.949181 0.988597
O O5 0.427698 0.264431 0.739326
O O6 0.190862 0.084481 0.481572
O O7 0.154046 0.393721 0.481453
O O8 0.323918 0.623410 0.986476
O O9 0.928784 0.562015 0.189211
O O10 0.934014 0.399482 0.452440
O O11 0.912763 0.256135 0.193601
O O12 0.841136 0.288968 0.641003
O O13 0.038340 0.234707 0.008295
O O14 0.831107 0.453575 0.864468
O O15 0.795916 0.134423 0.865957
O O16 0.932242 0.957727 0.193512
#
# Coordination Sequence:
#
# PCOD9114843 Si02
#       8
#     2   2   2   2   2   2   2   2
#     4  10  20  37  60  89 124 153 199 251 294 358
#     4   9  21  34  56  89 116 151 191 260 295 333
#     4  10  20  37  59  83 124 157 196 240 302 354
#     4  10  19  35  59  87 118 146 200 261 292 335
#     4  11  22  36  62  87 123 161 196 248 309 367
#     4  11  21  41  58  96 121 156 206 250 303 358
#     4  11  20  35  60  89 114 156 201 252 302 345
#     4  10  21  37  58  86 118 156 197 244 293 366
#
# _framework density 22.475836999999999
#
# number of rings (size 3 to 8) (size 9 to 14) (size 15 to 20)
#    0.750    1.000    5.000    0.750    3.500    0.000 
#    0.000    0.000    2.750    3.000    0.000    0.000 
#    0.000    0.000    0.000    0.000    0.000    0.000 
#
# Total GULP energy -89138.572692 kJ/mol
# GULP energy per Si atom -5571.160793 kJ/mol
# Density = 2.242468 g / cm^3
# Si number density = 22.475837 Si / 1000 Ang^3
#
#
#
# Elastic Constant Matrix: (Units=GPa)
#
#
# Indices 1 2 3 4 5 6 
#
# 1 119.4764 7.5444 18.2506 0.0000 -4.2477 0.0000
# 2 7.5444 32.0985 6.4430 0.0000 -5.2082 0.0000
# 3 18.2506 6.4430 62.1674 0.0000 -4.4532 0.0000
# 4 0.0000 0.0000 0.0000 16.7892 0.0000 3.1145
# 5 -4.2477 -5.2082 -4.4532 0.0000 41.9369 0.0000
# 6 0.0000 0.0000 0.0000 3.1145 0.0000 39.0162
#
#
#
# Elastic Compliance Matrix: (Units=1/GPa)
#
#
# Indices 1 2 3 4 5 6 
#
# 1 0.008850 -0.001524 -0.002408 0.000000 0.000451 0.000000
# 2 -0.001524 0.032636 -0.002676 0.000000 0.003615 0.000000
# 3 -0.002408 -0.002676 0.017159 0.000000 0.001246 0.000000
# 4 0.000000 0.000000 0.000000 0.060457 0.000000 -0.004826
# 5 0.000451 0.003615 0.001246 0.000000 0.024472 0.000000
# 6 0.000000 0.000000 0.000000 -0.004826 0.000000 0.026016
#
#
# Mechanical properties :
#
#
# Convention : Reuss Voigt Hill
#
# Bulk Modulus (GPa) = 22.01199 30.91315 26.46257
# Shear Modulus (GPa) = 25.25909 31.64874 28.45391
#
# Velocity S-wave (km/s) = 3.35600 3.75657 3.56192
# Velocity P-wave (km/s) = 4.98316 5.70960 5.35870
#
# Compressibility (1/GPa) = 0.04542978
#
# Stress axis : x y z
#
# Youngs Moduli (GPa) = 112.99543 30.64113 58.27821
#
# Poissons Ratio (x) = 0.04668 0.14032
# Poissons Ratio (y) = 0.17215 0.15596
# Poissons Ratio (z) = 0.27208 0.08200
#
# Static dielectric constant tensor:
#      x y z
#    x 1.924990 0.000000 -0.014720 
#    y 0.000000 1.914690 0.000000 
#    z -0.014720 0.000000 1.851320 
# 
# From -- ./inp_files/8351.got.cif
#   From: 2010.05.17/outbox.cif.g08.bks.cpg/sg4_5_cif.got.tgz:8351.got - 2010.06.03 18:43:04.
