data_PCOD9114982
_publ_section_title
;
Structure prediction by ZEFSAII (Michael W. Deem and Ramdas Pophale) SiO2 
 PCOD9114982
Probable space group: P 21
;
_chemical_formula_sum "Si O2"
_cell_formula_units_Z 16
_cell_length_a 9.070275
_cell_length_b 11.571244
_cell_length_c 7.460972
_cell_angle_alpha 90.000000
_cell_angle_beta 53.320539
_cell_angle_gamma 90.000000
_cell_volume 628.007420
_symmetry_space_group_name_H-M "P 21"
_symmetry_group_IT_number 4
_symmetry_cell_setting 'monoclinic'
loop_
_space_group_symop_operation_xyz
x,y,z
-x,1/2+y,-z
loop_
_atom_site_type_symbol
_atom_site_label
_atom_site_fract_x
_atom_site_fract_y
_atom_site_fract_z
Si Si1 0.198184 0.658510 0.133299
Si Si2 0.246347 0.566296 0.474872
Si Si3 0.989247 0.859839 0.472072
Si Si4 0.342529 0.862270 0.810998
Si Si5 0.515700 0.500188 0.582053
Si Si6 0.633074 0.499937 0.863557
Si Si7 0.881016 0.562073 0.170189
Si Si8 0.126299 0.199489 0.161675
O O1 0.298888 0.617301 0.241043
O O2 0.309976 0.736672 0.912297
O O3 0.039212 0.745695 0.324134
O O4 0.078285 0.565362 0.115444
O O5 0.159426 0.440214 0.512395
O O6 0.387727 0.565161 0.534512
O O7 0.071610 0.641092 0.660848
O O8 0.185959 0.926078 0.333354
O O9 0.904927 0.821741 0.723613
O O10 0.431955 0.935282 0.908459
O O11 0.448042 0.877917 0.547103
O O12 0.159476 0.942216 0.909236
O O13 0.482683 0.493451 0.815819
O O14 0.714450 0.561947 0.430148
O O15 0.715759 0.624962 0.853648
O O16 0.848922 0.672085 0.064747
#
# Coordination Sequence:
#
# PCOD9114982 Si02
#       8
#     2   2   2   2   2   2   2   2
#     4  10  19  38  63  82 119 161 204 248 284 358
#     4  10  21  37  56  86 117 153 199 249 296 357
#     4   9  18  33  58  82 109 155 204 235 289 351
#     4   8  20  36  57  86 115 149 199 237 295 351
#     4  10  20  37  57  83 121 152 186 252 309 336
#     4   9  17  36  58  75 114 156 184 243 292 342
#     4   9  19  34  58  86 113 155 197 243 289 348
#     4   9  18  35  57  84 110 151 205 237 280 363
#
# _framework density 25.477408
#
# number of rings (size 3 to 8) (size 9 to 14) (size 15 to 20)
#    0.750    2.000    0.000    3.000    1.750    0.000 
#    4.500    7.500    0.000    0.000    0.000    0.000 
#    0.000    0.000    0.000    0.000    0.000    0.000 
#
# Total GULP energy -89385.717393 kJ/mol
# GULP energy per Si atom -5586.607337 kJ/mol
# Density = 2.541942 g / cm^3
# Si number density = 25.477408 Si / 1000 Ang^3
#
#
#
# Elastic Constant Matrix: (Units=GPa)
#
#
# Indices 1 2 3 4 5 6 
#
# 1 154.6059 22.8821 29.3559 0.0000 34.6688 0.0000
# 2 22.8821 57.2432 7.5461 0.0000 13.5350 0.0000
# 3 29.3559 7.5461 96.8990 0.0000 29.4379 0.0000
# 4 0.0000 0.0000 0.0000 25.9700 0.0000 -1.7646
# 5 34.6688 13.5350 29.4379 0.0000 43.7376 0.0000
# 6 0.0000 0.0000 0.0000 -1.7646 0.0000 3.3539
#
#
#
# Elastic Compliance Matrix: (Units=1/GPa)
#
#
# Indices 1 2 3 4 5 6 
#
# 1 0.008077 -0.001870 -0.000669 0.000000 -0.005373 0.000000
# 2 -0.001870 0.019293 0.000537 0.000000 -0.004850 0.000000
# 3 -0.000669 0.000537 0.013036 0.000000 -0.008410 0.000000
# 4 0.000000 0.000000 0.000000 0.039934 0.000000 0.021011
# 5 -0.005373 -0.004850 -0.008410 0.000000 0.034284 0.000000
# 6 0.000000 0.000000 0.000000 0.021011 0.000000 0.309215
#
#
# Mechanical properties :
#
#
# Convention : Reuss Voigt Hill
#
# Bulk Modulus (GPa) = 27.47063 47.59069 37.53066
# Shear Modulus (GPa) = 11.36430 31.20989 21.28709
#
# Velocity S-wave (km/s) = 2.11429 3.50380 2.89369
# Velocity P-wave (km/s) = 4.09464 5.92359 5.09191
#
# Compressibility (1/GPa) = 0.03640252
#
# Stress axis : x y z
#
# Youngs Moduli (GPa) = 123.81302 51.83313 76.71215
#
# Poissons Ratio (x) = 0.09692 0.05131
# Poissons Ratio (y) = 0.23152 -0.04123
# Poissons Ratio (z) = 0.08281 -0.02786
#
# Static dielectric constant tensor:
#      x y z
#    x 1.994580 0.000000 -0.000930 
#    y 0.000000 2.028330 0.000000 
#    z -0.000930 0.000000 2.094030 
# 
# From -- ./inp_files/5936.got.cif
#   From: 2010.05.17/outbox.cif.g08.bks.cpg/sg4_3_cif.got.tgz:5936.got - 2010.06.03 18:43:04.
