data_PCOD9114355
_publ_section_title
;
Structure prediction by ZEFSAII (Michael W. Deem and Ramdas Pophale) SiO2 
 PCOD9114355
Probable space group: P 2
;
_chemical_formula_sum "Si O2"
_cell_formula_units_Z 13
_cell_length_a 21.502594
_cell_length_b 5.289769
_cell_length_c 15.174575
_cell_angle_alpha 90.000000
_cell_angle_beta 19.485902
_cell_angle_gamma 90.000000
_cell_volume 575.754672
_symmetry_space_group_name_H-M "P 2"
_symmetry_group_IT_number 3
_symmetry_cell_setting 'monoclinic'
loop_
_space_group_symop_operation_xyz
x,y,z
-x,y,-z
loop_
_atom_site_type_symbol
_atom_site_label
_atom_site_fract_x
_atom_site_fract_y
_atom_site_fract_z
Si Si1 0.411511 0.406690 0.022412
Si Si2 0.000000 0.757252 0.000000
Si Si3 0.235115 0.386065 0.570018
Si Si4 0.701276 0.847449 0.095569
Si Si5 0.307714 0.074234 0.643857
Si Si6 0.778637 0.889715 0.788738
Si Si7 0.152279 0.339310 0.009085
O O1 0.583218 0.455931 0.726691
O O2 0.500000 0.374497 0.000000
O O3 0.277948 0.650192 0.195507
O O4 0.309293 0.149816 0.129297
O O5 0.849425 0.597222 0.253198
O O6 0.881657 0.918260 0.089390
O O7 0.291163 0.170240 0.565448
O O8 0.062021 0.335723 0.736145
O O9 0.786931 0.596503 0.024146
O O10 0.491094 0.908306 0.407825
O O11 0.812126 0.099154 0.976102
O O12 0.705120 0.830613 0.985204
O O13 0.284146 0.295874 0.746670
O O14 0.000000 0.915143 0.500000
#
# Coordination Sequence:
#
# PCOD9114355 Si02
#       7
#     2   1   2   2   2   2   2
#     4  12  29  52  83 115 144 198 263 321 370 452
#     4  12  22  44  76 106 152 204 252 300 378 444
#     4  12  26  45  77 106 157 196 257 310 381 433
#     4  12  29  47  74 107 159 195 249 304 382 451
#     4  12  25  47  70 111 152 205 248 306 371 454
#     4  12  28  54  80 110 152 199 247 317 395 442
#     4  12  27  45  72 112 149 204 244 306 360 466
#
# _framework density 22.579060999999999
#
# number of rings (size 3 to 8) (size 9 to 14) (size 15 to 20)
#    0.000    0.000    4.615    4.154    6.462    2.462 
#    0.000    0.000    0.000    0.000    0.000    0.000 
#    0.000    0.000    0.000    0.000    0.000    0.000 
#
# Total GULP energy -72820.939516 kJ/mol
# GULP energy per Si atom -5601.610732 kJ/mol
# Density = 2.252767 g / cm^3
# Si number density = 22.579061 Si / 1000 Ang^3
#
#
#
# Elastic Constant Matrix: (Units=GPa)
#
#
# Indices 1 2 3 4 5 6 
#
# 1 132.6098 71.1895 39.3162 0.0000 -20.3317 0.0000
# 2 71.1895 166.2370 45.8964 0.0000 -24.3414 0.0000
# 3 39.3162 45.8964 114.7293 0.0000 -14.0441 0.0000
# 4 0.0000 0.0000 0.0000 27.0124 0.0000 -20.0704
# 5 -20.3317 -24.3414 -14.0441 0.0000 38.4037 0.0000
# 6 0.0000 0.0000 0.0000 -20.0704 0.0000 43.8738
#
#
#
# Elastic Compliance Matrix: (Units=1/GPa)
#
#
# Indices 1 2 3 4 5 6 
#
# 1 0.010392 -0.003572 -0.001817 0.000000 0.002573 0.000000
# 2 -0.003572 0.008457 -0.001816 0.000000 0.002805 0.000000
# 3 -0.001817 -0.001816 0.010266 0.000000 0.001641 0.000000
# 4 0.000000 0.000000 0.000000 0.056082 0.000000 0.025655
# 5 0.002573 0.002805 0.001641 0.000000 0.029780 0.000000
# 6 0.000000 0.000000 0.000000 0.025655 0.000000 0.034529
#
#
# Mechanical properties :
#
#
# Convention : Reuss Voigt Hill
#
# Bulk Modulus (GPa) = 68.00170 80.70893 74.35531
# Shear Modulus (GPa) = 29.61789 39.00293 34.31041
#
# Velocity S-wave (km/s) = 3.62573 4.16070 3.90239
# Velocity P-wave (km/s) = 6.90727 7.67493 7.30120
#
# Compressibility (1/GPa) = 0.01470551
#
# Stress axis : x y z
#
# Youngs Moduli (GPa) = 96.23180 118.24334 97.40651
#
# Poissons Ratio (x) = 0.42232 0.17702
# Poissons Ratio (y) = 0.34370 0.17688
# Poissons Ratio (z) = 0.17488 0.21471
#
# Static dielectric constant tensor:
#      x y z
#    x 1.875700 0.000000 -0.013500 
#    y 0.000000 1.864880 0.000000 
#    z -0.013500 0.000000 1.800390 
# 
# From -- ./inp_files/14272.got.cif
#   From: 2010.05.17/outbox.cif.g08.bks.cpg/sg3_8_cif.got.tgz:14272.got - 2010.06.03 18:33:08.
