data_PCOD9114039
_publ_section_title
;
Structure prediction by ZEFSAII (Michael W. Deem and Ramdas Pophale) SiO2 
 PCOD9114039
Probable space group: P 2
;
_chemical_formula_sum "Si O2"
_cell_formula_units_Z 11
_cell_length_a 15.424043
_cell_length_b 4.884812
_cell_length_c 5.806948
_cell_angle_alpha 90.000000
_cell_angle_beta 77.534539
_cell_angle_gamma 90.000000
_cell_volume 427.202208
_symmetry_space_group_name_H-M "P 2"
_symmetry_group_IT_number 3
_symmetry_cell_setting 'monoclinic'
loop_
_space_group_symop_operation_xyz
x,y,z
-x,y,-z
loop_
_atom_site_type_symbol
_atom_site_label
_atom_site_fract_x
_atom_site_fract_y
_atom_site_fract_z
Si Si1 0.690315 0.110990 0.001105
Si Si2 0.879141 0.464879 0.408769
Si Si3 0.500000 0.630865 0.500000
Si Si4 0.124920 0.960130 0.302114
Si Si5 0.500000 0.932482 0.000000
Si Si6 0.000000 0.812623 0.000000
Si Si7 0.306336 0.593698 0.701775
O O1 0.707650 0.422287 0.057702
O O2 0.691733 0.912746 0.227455
O O3 0.771711 0.008399 0.803541
O O4 0.592961 0.091415 0.949091
O O5 0.898355 0.155891 0.470789
O O6 0.936549 0.611474 0.182186
O O7 0.776032 0.513237 0.406464
O O8 0.894481 0.647841 0.625398
O O9 0.402597 0.495517 0.556156
O O10 0.499156 0.777583 0.752816
O O11 0.066200 0.003031 0.110723
#
# Coordination Sequence:
#
# PCOD9114039 Si02
#       7
#     2   2   1   2   1   1   2
#     4  11  24  47  76 111 154 199 252 324 390 472
#     4  12  28  50  80 111 150 206 262 325 401 477
#     4  10  24  46  80 116 160 208 264 320 398 478
#     4  12  28  50  80 111 150 206 262 325 401 477
#     4  10  24  46  80 116 160 208 264 320 398 478
#     4  12  30  54  76 112 164 198 270 342 404 478
#     4  11  24  47  76 111 154 199 252 324 390 472
#
# _framework density 25.748930999999999
#
# number of rings (size 3 to 8) (size 9 to 14) (size 15 to 20)
#    0.000    0.727    1.818    3.818    0.000   14.545 
#    0.000    0.000    0.000    0.000    0.000    0.000 
#    0.000    0.000    0.000    0.000    0.000    0.000 
#
# Total GULP energy -61599.968228 kJ/mol
# GULP energy per Si atom -5599.997112 kJ/mol
# Density = 2.569033 g / cm^3
# Si number density = 25.748931 Si / 1000 Ang^3
#
#
#
# Elastic Constant Matrix: (Units=GPa)
#
#
# Indices 1 2 3 4 5 6 
#
# 1 182.7525 26.1892 40.5237 0.0000 14.1410 0.0000
# 2 26.1892 81.7601 21.8776 0.0000 2.0064 0.0000
# 3 40.5237 21.8776 103.5069 0.0000 -1.1650 0.0000
# 4 0.0000 0.0000 0.0000 34.4252 0.0000 6.1088
# 5 14.1410 2.0064 -1.1650 0.0000 57.9976 0.0000
# 6 0.0000 0.0000 0.0000 6.1088 0.0000 11.7166
#
#
#
# Elastic Compliance Matrix: (Units=1/GPa)
#
#
# Indices 1 2 3 4 5 6 
#
# 1 0.006272 -0.001389 -0.002179 0.000000 -0.001525 0.000000
# 2 -0.001389 0.013286 -0.002266 0.000000 -0.000167 0.000000
# 3 -0.002179 -0.002266 0.011003 0.000000 0.000831 0.000000
# 4 0.000000 0.000000 0.000000 0.032010 0.000000 -0.016689
# 5 -0.001525 -0.000167 0.000831 0.000000 0.017636 0.000000
# 6 0.000000 0.000000 0.000000 -0.016689 0.000000 0.094050
#
#
# Mechanical properties :
#
#
# Convention : Reuss Voigt Hill
#
# Bulk Modulus (GPa) = 52.93075 60.57783 56.75429
# Shear Modulus (GPa) = 26.01133 39.45650 32.73392
#
# Velocity S-wave (km/s) = 3.18180 3.91878 3.56936
# Velocity P-wave (km/s) = 5.83948 6.63726 6.25111
#
# Compressibility (1/GPa) = 0.01889261
#
# Stress axis : x y z
#
# Youngs Moduli (GPa) = 159.43647 75.26591 90.88607
#
# Poissons Ratio (x) = 0.10451 0.19806
# Poissons Ratio (y) = 0.22138 0.20599
# Poissons Ratio (z) = 0.34745 0.17059
#
# Static dielectric constant tensor:
#      x y z
#    x 2.048900 0.000000 0.030070 
#    y 0.000000 1.949140 0.000000 
#    z 0.030070 0.000000 2.074120 
# 
# From -- ./inp_files/2708.got.cif
#   From: 2010.05.17/outbox.cif.g08.bks.cpg/sg3_2_cif.got.tgz:2708.got - 2010.06.03 18:33:08.
