data_PCOD9114533
_publ_section_title
;
Structure prediction by ZEFSAII (Michael W. Deem and Ramdas Pophale) SiO2 
 PCOD9114533
Probable space group: P 21
;
_chemical_formula_sum "Si O2"
_cell_formula_units_Z 16
_cell_length_a 32.422336
_cell_length_b 5.321392
_cell_length_c 18.032118
_cell_angle_alpha 90.000000
_cell_angle_beta 165.111832
_cell_angle_gamma 90.000000
_cell_volume 799.349231
_symmetry_space_group_name_H-M "P 21"
_symmetry_group_IT_number 4
_symmetry_cell_setting 'monoclinic'
loop_
_space_group_symop_operation_xyz
x,y,z
-x,1/2+y,-z
loop_
_atom_site_type_symbol
_atom_site_label
_atom_site_fract_x
_atom_site_fract_y
_atom_site_fract_z
Si Si1 0.931439 0.336450 0.644427
Si Si2 0.484499 0.113810 0.517663
Si Si3 0.049582 0.302659 0.684062
Si Si4 0.196630 0.799238 0.871186
Si Si5 0.248810 0.377162 0.297799
Si Si6 0.099836 0.361138 0.188037
Si Si7 0.883365 0.839621 0.610250
Si Si8 0.729171 0.380267 0.733387
O O1 0.016650 0.296417 0.713979
O O2 0.834537 0.593891 0.481219
O O3 0.821390 0.100365 0.471334
O O4 0.068809 0.360158 0.947756
O O5 0.444291 0.372323 0.403749
O O6 0.338472 0.980996 0.306761
O O7 0.618425 0.221719 0.806140
O O8 0.116369 0.577649 0.780173
O O9 0.884886 0.284801 0.350674
O O10 0.156642 0.070140 0.838614
O O11 0.229755 0.429829 0.351296
O O12 0.329892 0.606786 0.394669
O O13 0.318889 0.102605 0.405932
O O14 0.147711 0.323997 0.356390
O O15 0.978104 0.597432 0.973533
O O16 0.077351 0.859599 0.932163
#
# Coordination Sequence:
#
# PCOD9114533 Si02
#       8
#     2   2   2   2   2   2   2   2
#     4  10  18  28  47  73  93 133 166 214 252 306
#     4  12  26  37  54  77 108 144 182 226 266 319
#     4  10  21  38  59  72 102 134 187 232 274 305
#     4  10  23  39  54  78  97 141 182 232 273 312
#     4  10  19  29  49  70 105 138 171 205 258 325
#     4  12  16  30  43  70 105 144 161 204 258 319
#     4  10  19  28  47  73 105 136 169 205 259 326
#     4  10  20  33  43  69  99 138 174 204 252 310
#
# _framework density 20.016282
#
# number of rings (size 3 to 8) (size 9 to 14) (size 15 to 20)
#    0.000    1.500    5.000    2.250   10.500    0.000 
#    0.000    0.000    0.000    0.000    0.000    0.000 
#    0.000    6.000    0.000    0.000    0.000    0.000 
#
# Total GULP energy -89164.445244 kJ/mol
# GULP energy per Si atom -5572.777828 kJ/mol
# Density = 1.997072 g / cm^3
# Si number density = 20.016282 Si / 1000 Ang^3
#
#
#
# Elastic Constant Matrix: (Units=GPa)
#
#
# Indices 1 2 3 4 5 6 
#
# 1 92.5405 5.6477 1.9422 0.0000 -4.7603 0.0000
# 2 5.6477 159.6402 -0.5311 0.0000 0.7469 0.0000
# 3 1.9422 -0.5311 32.8940 0.0000 -5.6210 0.0000
# 4 0.0000 0.0000 0.0000 14.5785 0.0000 0.5564
# 5 -4.7603 0.7469 -5.6210 0.0000 5.9024 0.0000
# 6 0.0000 0.0000 0.0000 0.5564 0.0000 34.1108
#
#
#
# Elastic Compliance Matrix: (Units=1/GPa)
#
#
# Indices 1 2 3 4 5 6 
#
# 1 0.011336 -0.000445 0.001069 0.000000 0.010218 0.000000
# 2 -0.000445 0.006285 -0.000083 0.000000 -0.001234 0.000000
# 3 0.001069 -0.000083 0.036411 0.000000 0.035547 0.000000
# 4 0.000000 0.000000 0.000000 0.068637 0.000000 -0.001120
# 5 0.010218 -0.001234 0.035547 0.000000 0.211670 0.000000
# 6 0.000000 0.000000 0.000000 -0.001120 0.000000 0.029335
#
#
# Mechanical properties :
#
#
# Convention : Reuss Voigt Hill
#
# Bulk Modulus (GPa) = 18.14403 33.24359 25.69381
# Shear Modulus (GPa) = 13.12462 29.45272 21.28867
#
# Velocity S-wave (km/s) = 2.56344 3.84009 3.26478
# Velocity P-wave (km/s) = 4.22444 6.02545 5.20346
#
# Compressibility (1/GPa) = 0.05511456
#
# Stress axis : x y z
#
# Youngs Moduli (GPa) = 88.21131 159.10045 27.46458
#
# Poissons Ratio (x) = 0.07085 -0.02937
# Poissons Ratio (y) = 0.03928 0.00228
# Poissons Ratio (z) = -0.09434 0.01321
#
# Static dielectric constant tensor:
#      x y z
#    x 1.729020 0.000000 0.019950 
#    y 0.000000 1.834390 0.000000 
#    z 0.019950 0.000000 1.736470 
# 
# From -- ./inp_files/14269.got.cif
#   From: 2010.05.17/outbox.cif.g08.bks.cpg/sg4_8_cif.got.tgz:14269.got - 2010.06.03 18:43:04.
