data_PCOD9114400
_publ_section_title
;
Structure prediction by ZEFSAII (Michael W. Deem and Ramdas Pophale) SiO2 
 PCOD9114400
Probable space group: P 2
;
_chemical_formula_sum "Si O2"
_cell_formula_units_Z 14
_cell_length_a 9.523578
_cell_length_b 16.123233
_cell_length_c 5.159497
_cell_angle_alpha 90.000000
_cell_angle_beta 127.906790
_cell_angle_gamma 90.000000
_cell_volume 625.090431
_symmetry_space_group_name_H-M "P 2"
_symmetry_group_IT_number 3
_symmetry_cell_setting 'monoclinic'
loop_
_space_group_symop_operation_xyz
x,y,z
-x,y,-z
loop_
_atom_site_type_symbol
_atom_site_label
_atom_site_fract_x
_atom_site_fract_y
_atom_site_fract_z
Si Si1 0.376330 0.654950 0.608888
Si Si2 0.323908 0.265275 0.133678
Si Si3 0.000000 0.360961 0.000000
Si Si4 0.707744 0.982059 0.278037
Si Si5 0.183864 0.493927 0.565738
Si Si6 0.500000 0.381036 0.000000
Si Si7 0.116206 0.807219 0.386755
Si Si8 0.197186 0.085646 0.114605
O O1 0.500000 0.650056 0.500000
O O2 0.253552 0.573957 0.494540
O O3 0.259757 0.737809 0.478778
O O4 0.500000 0.656722 0.000000
O O5 0.500000 0.296075 0.500000
O O6 0.354930 0.305402 0.889678
O O7 0.302363 0.167691 0.144545
O O8 0.138674 0.303760 0.010597
O O9 0.875291 0.421356 0.693565
O O10 0.798749 0.894441 0.436343
O O11 0.718635 0.040106 0.543302
O O12 0.500000 0.967748 0.000000
O O13 0.797618 0.025438 0.129287
O O14 0.000000 0.515558 0.500000
O O15 0.350077 0.452657 0.910642
O O16 0.000000 0.777284 0.500000
O O17 0.000000 0.821418 0.000000
O O18 0.000000 0.106276 0.000000
#
# Coordination Sequence:
#
# PCOD9114400 Si02
#       8
#     2   2   1   2   2   1   2   2
#     4  12  29  49  78 113 154 194 246 308 372 448
#     4  12  26  45  69 105 148 194 254 313 376 435
#     4  12  26  44  72 104 144 200 252 308 380 444
#     4  12  26  48  76 109 148 196 245 306 376 445
#     4  12  27  46  74 106 149 198 253 307 382 443
#     4  12  26  46  72 102 146 198 252 312 372 448
#     4  12  26  49  80 112 150 193 245 302 375 448
#     4  12  27  47  73 108 149 198 251 309 371 444
#
# _framework density 22.396758999999999
#
# number of rings (size 3 to 8) (size 9 to 14) (size 15 to 20)
#    0.000    0.000    4.286    5.571    8.000    1.143 
#    2.571    0.000    0.000    0.000    0.000    0.000 
#    0.000    0.000    0.000    0.000    0.000    0.000 
#
# Total GULP energy -78103.005392 kJ/mol
# GULP energy per Si atom -5578.786099 kJ/mol
# Density = 2.234578 g / cm^3
# Si number density = 22.396759 Si / 1000 Ang^3
#
#
#
# Elastic Constant Matrix: (Units=GPa)
#
#
# Indices 1 2 3 4 5 6 
#
# 1 192.8977 89.6433 27.6261 0.0000 7.7980 0.0000
# 2 89.6433 154.8834 39.0641 0.0000 9.0538 0.0000
# 3 27.6261 39.0641 73.2719 0.0000 2.7435 0.0000
# 4 0.0000 0.0000 0.0000 51.5764 0.0000 39.9656
# 5 7.7980 9.0538 2.7435 0.0000 41.4414 0.0000
# 6 0.0000 0.0000 0.0000 39.9656 0.0000 40.8619
#
#
#
# Elastic Compliance Matrix: (Units=1/GPa)
#
#
# Indices 1 2 3 4 5 6 
#
# 1 0.007119 -0.003954 -0.000560 0.000000 -0.000439 0.000000
# 2 -0.003954 0.009734 -0.003656 0.000000 -0.001141 0.000000
# 3 -0.000560 -0.003656 0.015813 0.000000 -0.000143 0.000000
# 4 0.000000 0.000000 0.000000 0.080080 0.000000 -0.078323
# 5 -0.000439 -0.001141 -0.000143 0.000000 0.024472 0.000000
# 6 0.000000 0.000000 0.000000 -0.078323 0.000000 0.101078
#
#
# Mechanical properties :
#
#
# Convention : Reuss Voigt Hill
#
# Bulk Modulus (GPa) = 61.24775 81.52445 71.38610
# Shear Modulus (GPa) = 19.22504 44.42391 31.82447
#
# Velocity S-wave (km/s) = 2.93300 4.45848 3.77363
# Velocity P-wave (km/s) = 6.23507 7.93619 7.13650
#
# Compressibility (1/GPa) = 0.01632713
#
# Stress axis : x y z
#
# Youngs Moduli (GPa) = 140.46171 102.73773 63.23752
#
# Poissons Ratio (x) = 0.40619 0.03541
# Poissons Ratio (y) = 0.55534 0.23119
# Poissons Ratio (z) = 0.07866 0.37560
#
# Static dielectric constant tensor:
#      x y z
#    x 1.871580 0.000000 -0.021690 
#    y 0.000000 1.785190 0.000000 
#    z -0.021690 0.000000 1.934800 
# 
# From -- ./inp_files/1662.got.cif
#   From: 2010.05.17/outbox.cif.g08.bks.cpg/sg3_1_cif.got.tgz:1662.got - 2010.06.03 18:33:08.
