data_PCOD9114935
_publ_section_title
;
Structure prediction by ZEFSAII (Michael W. Deem and Ramdas Pophale) SiO2 
 PCOD9114935
Probable space group: P 21
;
_chemical_formula_sum "Si O2"
_cell_formula_units_Z 14
_cell_length_a 6.969139
_cell_length_b 5.735680
_cell_length_c 14.622672
_cell_angle_alpha 90.000000
_cell_angle_beta 69.652035
_cell_angle_gamma 90.000000
_cell_volume 548.034034
_symmetry_space_group_name_H-M "P 21"
_symmetry_group_IT_number 4
_symmetry_cell_setting 'monoclinic'
loop_
_space_group_symop_operation_xyz
x,y,z
-x,1/2+y,-z
loop_
_atom_site_type_symbol
_atom_site_label
_atom_site_fract_x
_atom_site_fract_y
_atom_site_fract_z
Si Si1 0.263562 0.523920 0.477270
Si Si2 0.709688 0.542523 0.484490
Si Si3 0.924400 0.398972 0.969333
Si Si4 0.818282 0.681049 0.224642
Si Si5 0.830078 0.100558 0.717563
Si Si6 0.434570 0.991738 0.289199
Si Si7 0.444948 0.874214 0.867156
O O1 0.508015 0.525031 0.455679
O O2 0.180950 0.295674 0.544193
O O3 0.213705 0.513220 0.377776
O O4 0.196319 0.781332 0.524784
O O5 0.628714 0.586772 0.602192
O O6 0.020716 0.344894 0.854921
O O7 0.676471 0.382210 0.017595
O O8 0.998547 0.661949 0.987143
O O9 0.945188 0.553941 0.282211
O O10 0.621347 0.824472 0.285355
O O11 0.722155 0.501588 0.169238
O O12 0.765017 0.367606 0.717795
O O13 0.663262 0.996825 0.816597
O O14 0.521977 0.133242 0.189580
#
# Coordination Sequence:
#
# PCOD9114935 Si02
#       7
#     2   2   2   2   2   2   2
#     4   9  17  32  55  85 115 149 194 239 283 346
#     4   9  17  31  58  83 111 156 195 230 288 346
#     4  10  20  39  60  83 117 158 195 238 294 348
#     4  10  22  38  58  85 118 153 189 246 294 340
#     4  10  21  37  58  88 116 149 196 242 291 343
#     4  10  19  37  60  80 114 154 194 234 288 351
#     4  10  20  38  59  80 113 155 193 237 286 352
#
# _framework density 25.545859
#
# number of rings (size 3 to 8) (size 9 to 14) (size 15 to 20)
#    0.000    2.286    2.857    0.000    0.000    1.143 
#    2.571    0.000    3.143    0.000    0.000    0.000 
#    0.000    0.000    0.000    0.000    0.000    0.000 
#
# Total GULP energy -78112.811230 kJ/mol
# GULP energy per Si atom -5579.486516 kJ/mol
# Density = 2.548772 g / cm^3
# Si number density = 25.545859 Si / 1000 Ang^3
#
#
#
# Elastic Constant Matrix: (Units=GPa)
#
#
# Indices 1 2 3 4 5 6 
#
# 1 117.9815 17.5030 0.8558 0.0000 -0.5102 0.0000
# 2 17.5030 122.8807 17.4295 0.0000 -10.3629 0.0000
# 3 0.8558 17.4295 45.2315 0.0000 -15.0694 0.0000
# 4 0.0000 0.0000 0.0000 36.5294 0.0000 -12.2806
# 5 -0.5102 -10.3629 -15.0694 0.0000 33.5151 0.0000
# 6 0.0000 0.0000 0.0000 -12.2806 0.0000 -10.2787
#
#
#
# Elastic Compliance Matrix: (Units=1/GPa)
#
#
# Indices 1 2 3 4 5 6 
#
# 1 0.008664 -0.001286 0.000286 0.000000 -0.000137 0.000000
# 2 -0.001286 0.008854 -0.002919 0.000000 0.001405 0.000000
# 3 0.000286 -0.002919 0.026969 0.000000 0.011228 0.000000
# 4 0.000000 0.000000 0.000000 0.019531 0.000000 -0.023334
# 5 -0.000137 0.001405 0.011228 0.000000 0.035318 0.000000
# 6 0.000000 0.000000 0.000000 -0.023334 0.000000 -0.069410
#
#
# Mechanical properties :
#
#
# Convention : Reuss Voigt Hill
#
# Bulk Modulus (GPa) = 27.28689 39.74114 33.51402
# Shear Modulus (GPa) = 100.04060 28.64020 64.34040
#
# Velocity S-wave (km/s) = 6.26468 3.35196 5.02403
# Velocity P-wave (km/s) = 7.93933 5.52914 6.84121
#
# Compressibility (1/GPa) = 0.03664763
#
# Stress axis : x y z
#
# Youngs Moduli (GPa) = 115.41945 112.94631 37.08026
#
# Poissons Ratio (x) = 0.14528 -0.01060
# Poissons Ratio (y) = 0.14846 0.10824
# Poissons Ratio (z) = -0.03301 0.32970
#
# Static dielectric constant tensor:
#      x y z
#    x 1.993150 0.000000 -0.021390 
#    y 0.000000 2.118360 0.000000 
#    z -0.021390 0.000000 2.195040 
# 
# From -- ./inp_files/3876.got.cif
#   From: 2010.05.17/outbox.cif.g08.bks.cpg/sg4_2_cif.got.tgz:3876.got - 2010.06.03 18:43:04.
