data_PCOD9114563
_publ_section_title
;
Structure prediction by ZEFSAII (Michael W. Deem and Ramdas Pophale) SiO2 
 PCOD9114563
Probable space group: P 21
;
_chemical_formula_sum "Si O2"
_cell_formula_units_Z 14
_cell_length_a 11.764776
_cell_length_b 7.606370
_cell_length_c 9.202681
_cell_angle_alpha 90.000000
_cell_angle_beta 42.017204
_cell_angle_gamma 90.000000
_cell_volume 551.227858
_symmetry_space_group_name_H-M "P 21"
_symmetry_group_IT_number 4
_symmetry_cell_setting 'monoclinic'
loop_
_space_group_symop_operation_xyz
x,y,z
-x,1/2+y,-z
loop_
_atom_site_type_symbol
_atom_site_label
_atom_site_fract_x
_atom_site_fract_y
_atom_site_fract_z
Si Si1 0.330446 0.949300 0.727155
Si Si2 0.844768 0.395805 0.717536
Si Si3 0.491823 0.369581 0.176215
Si Si4 0.850211 0.449142 0.372776
Si Si5 0.810819 0.831575 0.067583
Si Si6 0.321003 0.541487 0.079228
Si Si7 0.025631 0.345481 0.807671
O O1 0.316856 0.917003 0.567577
O O2 0.283305 0.151226 0.805895
O O3 0.496090 0.897267 0.662516
O O4 0.167882 0.843333 0.946881
O O5 0.667376 0.462559 0.954361
O O6 0.842193 0.437306 0.552218
O O7 0.999179 0.440103 0.678022
O O8 0.825353 0.184453 0.752909
O O9 0.520361 0.166013 0.112816
O O10 0.353076 0.440394 0.198162
O O11 0.908817 0.647414 0.277180
O O12 0.998469 0.316874 0.179316
O O13 0.855418 0.925000 0.179409
O O14 0.716619 0.929077 0.026853
#
# Coordination Sequence:
#
# PCOD9114563 Si02
#       7
#     2   2   2   2   2   2   2
#     4   9  18  32  56  86 108 154 191 227 280 346
#     4   9  20  33  56  82 115 149 189 238 291 325
#     4   9  19  35  56  76 110 149 205 228 273 334
#     4  10  18  34  56  80 123 143 180 245 281 345
#     4  10  18  31  61  84 113 152 185 226 291 345
#     4  10  19  36  59  81 111 151 198 235 275 345
#     4   9  18  35  52  87 114 150 186 223 287 350
#
# _framework density 25.397848
#
# number of rings (size 3 to 8) (size 9 to 14) (size 15 to 20)
#    0.857    1.714    1.429    0.857    0.000    2.286 
#    0.000    0.000    3.143    0.000    0.000    0.000 
#    0.000    0.000    0.000    0.000    0.000    0.000 
#
# Total GULP energy -78108.369344 kJ/mol
# GULP energy per Si atom -5579.169239 kJ/mol
# Density = 2.534004 g / cm^3
# Si number density = 25.397848 Si / 1000 Ang^3
#
#
#
# Elastic Constant Matrix: (Units=GPa)
#
#
# Indices 1 2 3 4 5 6 
#
# 1 210.1956 45.7308 58.6515 0.0000 73.9238 0.0000
# 2 45.7308 69.8043 12.2081 0.0000 19.1517 0.0000
# 3 58.6515 12.2081 90.1110 0.0000 24.5604 0.0000
# 4 0.0000 0.0000 0.0000 17.8250 0.0000 13.3716
# 5 73.9238 19.1517 24.5604 0.0000 48.8470 0.0000
# 6 0.0000 0.0000 0.0000 13.3716 0.0000 37.1483
#
#
#
# Elastic Compliance Matrix: (Units=1/GPa)
#
#
# Indices 1 2 3 4 5 6 
#
# 1 0.011331 -0.002921 -0.003033 0.000000 -0.014478 0.000000
# 2 -0.002921 0.016827 0.000249 0.000000 -0.002303 0.000000
# 3 -0.003033 0.000249 0.013690 0.000000 -0.002390 0.000000
# 4 0.000000 0.000000 0.000000 0.076853 0.000000 -0.027663
# 5 -0.014478 -0.002303 -0.002390 0.000000 0.044487 0.000000
# 6 0.000000 0.000000 0.000000 -0.027663 0.000000 0.036877
#
#
# Mechanical properties :
#
#
# Convention : Reuss Voigt Hill
#
# Bulk Modulus (GPa) = 32.85419 67.03240 49.94330
# Shear Modulus (GPa) = 22.56111 37.66542 30.11326
#
# Velocity S-wave (km/s) = 2.98368 3.85517 3.44708
# Velocity P-wave (km/s) = 4.98334 6.80196 5.96240
#
# Compressibility (1/GPa) = 0.03043752
#
# Stress axis : x y z
#
# Youngs Moduli (GPa) = 88.25348 59.42684 73.04857
#
# Poissons Ratio (x) = 0.17356 0.22159
# Poissons Ratio (y) = 0.25775 -0.01818
# Poissons Ratio (z) = 0.26771 -0.01479
#
# Static dielectric constant tensor:
#      x y z
#    x 2.063420 0.000000 -0.010790 
#    y 0.000000 1.986790 0.000000 
#    z -0.010790 0.000000 2.080330 
# 
# From -- ./inp_files/7624.got.cif
#   From: 2010.05.17/outbox.cif.g08.bks.cpg/sg4_4_cif.got.tgz:7624.got - 2010.06.03 18:43:04.
