data_PCOD9114435
_publ_section_title
;
Structure prediction by ZEFSAII (Michael W. Deem and Ramdas Pophale) SiO2 
 PCOD9114435
Probable space group: P 2
;
_chemical_formula_sum "Si O2"
_cell_formula_units_Z 11
_cell_length_a 15.000000
_cell_length_b 6.000000
_cell_length_c 15.000000
_cell_angle_alpha 90.000000
_cell_angle_beta 20.000000
_cell_angle_gamma 90.000000
_cell_volume 461.727193
_symmetry_space_group_name_H-M "P 2"
_symmetry_group_IT_number 3
_symmetry_cell_setting 'monoclinic'
loop_
_space_group_symop_operation_xyz
x,y,z
-x,y,-z
loop_
_atom_site_type_symbol
_atom_site_label
_atom_site_fract_x
_atom_site_fract_y
_atom_site_fract_z
Si Si1 0.000000 0.799881 0.000000
Si Si2 0.218648 0.770098 0.149599
Si Si3 0.675346 0.814892 0.589466
Si Si4 0.000000 0.116466 0.500000
Si Si5 0.635078 0.467239 0.242335
Si Si6 0.500000 0.396647 0.000000
Si Si7 0.141866 0.168447 0.720550
O O1 0.773823 0.634738 0.180466
O O2 0.905189 0.965347 0.166631
O O3 0.347479 0.558727 0.076038
O O4 0.951970 0.698037 0.351492
O O5 0.101569 0.953837 0.326711
O O6 0.460983 0.871499 0.866488
O O7 0.508862 0.636757 0.689448
O O8 0.775722 0.039886 0.447109
O O9 0.262505 0.261408 0.269911
O O10 0.399762 0.312951 0.499012
O O11 0.875093 0.316245 0.976529
#
# Coordination Sequence:
#
# PCOD9114435 Si02
#       7
#     1   2   2   1   2   1   2
#     4  12  28  50  76 106 148 190 246 308 352 428
#     4  12  26  50  76 107 151 188 239 303 354 430
#     4  12  27  49  74 107 151 190 237 303 362 427
#     4  12  26  48  78 110 144 192 244 292 360 430
#     4  12  28  49  75 108 145 193 245 297 365 430
#     4  12  26  48  78 110 144 192 244 292 360 430
#     4  12  28  49  75 108 145 193 245 297 365 430
#
# _framework density 23.823591
#
# number of rings (size 3 to 8) (size 9 to 14) (size 15 to 20)
#    0.000    0.000    0.000   10.364    0.000   16.727 
#    0.000    7.273    0.000    0.000    0.000    0.000 
#    0.000    0.000    0.000    0.000    0.000    0.000 
#
# Total GULP energy -61596.082302 kJ/mol
# GULP energy per Si atom -5599.643846 kJ/mol
# Density = 2.376937 g / cm^3
# Si number density = 23.823591 Si / 1000 Ang^3
#
#
#
# Elastic Constant Matrix: (Units=GPa)
#
#
# Indices 1 2 3 4 5 6 
#
# 1 58.6186 34.4230 25.8315 0.0000 -36.3696 0.0000
# 2 34.4230 122.8301 53.5993 0.0000 -25.9032 0.0000
# 3 25.8315 53.5993 195.7796 0.0000 -32.5074 0.0000
# 4 0.0000 0.0000 0.0000 76.1351 0.0000 -2.9240
# 5 -36.3696 -25.9032 -32.5074 0.0000 60.5724 0.0000
# 6 0.0000 0.0000 0.0000 -2.9240 0.0000 68.2329
#
#
#
# Elastic Compliance Matrix: (Units=1/GPa)
#
#
# Indices 1 2 3 4 5 6 
#
# 1 0.029767 -0.005051 0.000071 0.000000 0.015751 0.000000
# 2 -0.005051 0.010574 -0.002175 0.000000 0.000322 0.000000
# 3 0.000071 -0.002175 0.006089 0.000000 0.002380 0.000000
# 4 0.000000 0.000000 0.000000 0.013156 0.000000 0.000564
# 5 0.015751 0.000322 0.002380 0.000000 0.027381 0.000000
# 6 0.000000 0.000000 0.000000 0.000564 0.000000 0.014680
#
#
# Mechanical properties :
#
#
# Convention : Reuss Voigt Hill
#
# Bulk Modulus (GPa) = 31.13438 67.21510 49.17474
# Shear Modulus (GPa) = 39.47412 58.54639 49.01025
#
# Velocity S-wave (km/s) = 4.07496 4.96269 4.54057
# Velocity P-wave (km/s) = 5.93612 7.81746 6.94083
#
# Compressibility (1/GPa) = 0.03211884
#
# Stress axis : x y z
#
# Youngs Moduli (GPa) = 33.59400 94.57273 164.22752
#
# Poissons Ratio (x) = 0.47773 -0.01161
# Poissons Ratio (y) = 0.16970 0.35719
# Poissons Ratio (z) = -0.00238 0.20569
#
# Static dielectric constant tensor:
#      x y z
#    x 2.076530 0.000000 0.016630 
#    y 0.000000 1.910930 0.000000 
#    z 0.016630 0.000000 1.875640 
# 
# From -- ./inp_files/13903.got.cif
#   From: 2010.05.17/outbox.ucp.g08.bks.cvg/sg3_7_cif.got.tgz:13903.got - 2010.06.11 12:50:29.
