data_PCOD9114666
_publ_section_title
;
Structure prediction by ZEFSAII (Michael W. Deem and Ramdas Pophale) SiO2 
 PCOD9114666
Probable space group: P 21
;
_chemical_formula_sum "Si O2"
_cell_formula_units_Z 16
_cell_length_a 10.876207
_cell_length_b 14.756197
_cell_length_c 10.251144
_cell_angle_alpha 90.000000
_cell_angle_beta 27.114170
_cell_angle_gamma 90.000000
_cell_volume 749.834237
_symmetry_space_group_name_H-M "P 21"
_symmetry_group_IT_number 4
_symmetry_cell_setting 'monoclinic'
loop_
_space_group_symop_operation_xyz
x,y,z
-x,1/2+y,-z
loop_
_atom_site_type_symbol
_atom_site_label
_atom_site_fract_x
_atom_site_fract_y
_atom_site_fract_z
Si Si1 0.779119 0.517710 0.932075
Si Si2 0.135112 0.476039 0.113133
Si Si3 0.974486 0.284166 0.157291
Si Si4 0.516599 0.667853 0.357369
Si Si5 0.894449 0.344394 0.954432
Si Si6 0.620721 0.586281 0.544830
Si Si7 0.756542 0.950732 0.689038
Si Si8 0.364554 0.277490 0.342268
O O1 0.645710 0.604293 0.124258
O O2 0.841571 0.450496 0.993728
O O3 0.547638 0.478378 0.056971
O O4 0.050847 0.506818 0.591465
O O5 0.163519 0.477689 0.241822
O O6 0.025652 0.375986 0.185831
O O7 0.919041 0.545812 0.258633
O O8 0.418870 0.507810 0.784198
O O9 0.778117 0.206931 0.399849
O O10 0.835464 0.308626 0.152029
O O11 0.268921 0.248432 0.843466
O O12 0.523752 0.621744 0.494262
O O13 0.679568 0.300402 0.058964
O O14 0.192344 0.318574 0.625795
O O15 0.641996 0.669556 0.629300
O O16 0.758713 0.841142 0.656902
#
# Coordination Sequence:
#
# PCOD9114666 Si02
#       8
#     2   2   2   2   2   2   2   2
#     4  10  22  40  69  92 123 175 218 273 318 396
#     4  12  27  43  66  99 137 183 218 281 332 397
#     4  12  23  41  63  96 144 166 208 279 345 403
#     4  12  24  41  68 102 135 164 222 277 342 409
#     4  10  18  37  63  93 125 163 209 263 337 382
#     4  12  23  43  69 102 133 169 231 278 340 396
#     4  10  23  46  64  92 133 174 231 256 330 401
#     4  10  20  39  68  92 124 174 215 269 314 398
#
# _framework density 21.338048000000001
#
# number of rings (size 3 to 8) (size 9 to 14) (size 15 to 20)
#    0.000    1.000    2.500    4.500    0.000    3.000 
#    6.750    0.000    0.000    0.000    0.000    0.000 
#    0.000    0.000    0.000    0.000    0.000    0.000 
#
# Total GULP energy -89247.100073 kJ/mol
# GULP energy per Si atom -5577.943755 kJ/mol
# Density = 2.128948 g / cm^3
# Si number density = 21.338048 Si / 1000 Ang^3
#
#
#
# Elastic Constant Matrix: (Units=GPa)
#
#
# Indices 1 2 3 4 5 6 
#
# 1 30.4008 18.5186 -7.5938 0.0000 -2.5173 0.0000
# 2 18.5186 50.1757 -6.5435 0.0000 0.2159 0.0000
# 3 -7.5938 -6.5435 71.4266 0.0000 -17.7208 0.0000
# 4 0.0000 0.0000 0.0000 38.1051 0.0000 3.4309
# 5 -2.5173 0.2159 -17.7208 0.0000 15.0410 0.0000
# 6 0.0000 0.0000 0.0000 3.4309 0.0000 -9.2539
#
#
#
# Elastic Compliance Matrix: (Units=1/GPa)
#
#
# Indices 1 2 3 4 5 6 
#
# 1 0.045966 -0.016046 0.007606 0.000000 0.016884 0.000000
# 2 -0.016046 0.025848 -0.000136 0.000000 -0.003217 0.000000
# 3 0.007606 -0.000136 0.021355 0.000000 0.026435 0.000000
# 4 0.000000 0.000000 0.000000 0.025395 0.000000 0.009416
# 5 0.016884 -0.003217 0.026435 0.000000 0.100501 0.000000
# 6 0.000000 0.000000 0.000000 0.009416 0.000000 -0.104572
#
#
# Mechanical properties :
#
#
# Convention : Reuss Voigt Hill
#
# Bulk Modulus (GPa) = 13.15481 17.86284 15.50883
# Shear Modulus (GPa) = 31.85019 18.61989 25.23504
#
# Velocity S-wave (km/s) = 3.86767 2.95721 3.44267
# Velocity P-wave (km/s) = 5.11112 4.47768 4.80485
#
# Compressibility (1/GPa) = 0.07601782
#
# Stress axis : x y z
#
# Youngs Moduli (GPa) = 21.75514 38.68746 46.82755
#
# Poissons Ratio (x) = 0.62077 -0.35617
# Poissons Ratio (y) = 0.34908 0.00637
# Poissons Ratio (z) = -0.16547 0.00526
#
# Static dielectric constant tensor:
#      x y z
#    x 1.750580 0.000000 -0.001120 
#    y 0.000000 1.841850 0.000000 
#    z -0.001120 0.000000 1.758980 
# 
# From -- ./inp_files/12343.got.cif
#   From: 2010.05.17/outbox.cif.g08.bks.cpg/sg4_7_cif.got.tgz:12343.got - 2010.06.03 18:43:04.
