data_PCOD9114014
_publ_section_title
;
Structure prediction by ZEFSAII (Michael W. Deem and Ramdas Pophale) SiO2 
 PCOD9114014
Probable space group: P 2
;
_chemical_formula_sum "Si O2"
_cell_formula_units_Z 12
_cell_length_a 15.567164
_cell_length_b 8.926699
_cell_length_c 9.961992
_cell_angle_alpha 90.000000
_cell_angle_beta 22.314288
_cell_angle_gamma 90.000000
_cell_volume 525.620335
_symmetry_space_group_name_H-M "P 2"
_symmetry_group_IT_number 3
_symmetry_cell_setting 'monoclinic'
loop_
_space_group_symop_operation_xyz
x,y,z
-x,y,-z
loop_
_atom_site_type_symbol
_atom_site_label
_atom_site_fract_x
_atom_site_fract_y
_atom_site_fract_z
Si Si1 0.704740 0.230340 0.029147
Si Si2 0.796889 0.111545 0.188170
Si Si3 0.438705 0.732743 0.240263
Si Si4 0.315014 0.561836 0.881021
Si Si5 0.206245 0.977965 0.290575
Si Si6 0.970464 0.810601 0.862443
O O1 0.814363 0.158529 0.005556
O O2 0.435618 0.192611 0.431760
O O3 0.773271 0.402583 0.940178
O O4 0.769350 0.146268 0.797780
O O5 0.000000 0.147725 0.000000
O O6 0.796287 0.928796 0.179820
O O7 0.561158 0.633539 0.172238
O O8 0.171081 0.727788 0.651272
O O9 0.500000 0.681565 0.000000
O O10 0.561061 0.893844 0.076519
O O11 0.500000 0.525464 0.500000
O O12 0.150791 0.685752 0.052565
O O13 0.000000 0.913657 0.500000
O O14 0.132104 0.925742 0.544094
#
# Coordination Sequence:
#
# PCOD9114014 Si02
#       6
#     2   2   2   2   2   2
#     4  11  25  46  65  98 143 181 221 281 349 416
#     4  11  23  41  66  99 131 178 234 280 330 406
#     4  10  24  45  69 105 136 175 241 291 340 411
#     4  12  26  45  69 104 148 185 222 287 359 423
#     4  11  20  45  70  95 130 174 233 281 334 402
#     4  11  25  42  74 102 130 182 236 290 333 408
#
# _framework density 22.830168
#
# number of rings (size 3 to 8) (size 9 to 14) (size 15 to 20)
#    0.000    1.000    5.000    1.000    7.000    1.333 
#    6.000    4.167    0.000    0.000    0.000    0.000 
#    0.000    0.000    0.000    0.000    0.000    0.000 
#
# Total GULP energy -66950.523265 kJ/mol
# GULP energy per Si atom -5579.210272 kJ/mol
# Density = 2.277821 g / cm^3
# Si number density = 22.830168 Si / 1000 Ang^3
#
#
#
# Elastic Constant Matrix: (Units=GPa)
#
#
# Indices 1 2 3 4 5 6 
#
# 1 115.9199 50.0712 27.0021 0.0000 -41.3877 0.0000
# 2 50.0712 120.0466 34.8732 0.0000 -14.2692 0.0000
# 3 27.0021 34.8732 105.1563 0.0000 -14.7864 0.0000
# 4 0.0000 0.0000 0.0000 20.2665 0.0000 10.9296
# 5 -41.3877 -14.2692 -14.7864 0.0000 56.0842 0.0000
# 6 0.0000 0.0000 0.0000 10.9296 0.0000 7.1725
#
#
#
# Elastic Compliance Matrix: (Units=1/GPa)
#
#
# Indices 1 2 3 4 5 6 
#
# 1 0.013963 -0.004521 -0.000830 0.000000 0.008935 0.000000
# 2 -0.004521 0.010822 -0.002607 0.000000 -0.001270 0.000000
# 3 -0.000830 -0.002607 0.010809 0.000000 0.001574 0.000000
# 4 0.000000 0.000000 0.000000 0.276863 0.000000 -0.421888
# 5 0.008935 -0.001270 0.001574 0.000000 0.024516 0.000000
# 6 0.000000 0.000000 0.000000 -0.421888 0.000000 0.782300
#
#
# Mechanical properties :
#
#
# Convention : Reuss Voigt Hill
#
# Bulk Modulus (GPa) = 50.81581 62.77954 56.79768
# Shear Modulus (GPa) = 4.37926 31.98305 18.18116
#
# Velocity S-wave (km/s) = 1.38649 3.74694 2.82506
# Velocity P-wave (km/s) = 4.98695 6.80276 5.96436
#
# Compressibility (1/GPa) = 0.01967891
#
# Stress axis : x y z
#
# Youngs Moduli (GPa) = 71.61900 92.40457 92.51972
#
# Poissons Ratio (x) = 0.41774 0.07677
# Poissons Ratio (y) = 0.32377 0.24117
# Poissons Ratio (z) = 0.05943 0.24087
#
# Static dielectric constant tensor:
#      x y z
#    x 1.969730 0.000000 0.126330 
#    y 0.000000 1.862000 0.000000 
#    z 0.126330 0.000000 2.037290 
# 
# From -- ./inp_files/12475.got.cif
#   From: 2010.05.17/outbox.cif.g08.bks.cpg/sg3_7_cif.got.tgz:12475.got - 2010.06.03 18:33:08.
