data_PCOD9114812
_publ_section_title
;
Structure prediction by ZEFSAII (Michael W. Deem and Ramdas Pophale) SiO2 
 PCOD9114812
Probable space group: P 21
;
_chemical_formula_sum "Si O2"
_cell_formula_units_Z 16
_cell_length_a 8.198851
_cell_length_b 7.607026
_cell_length_c 20.963202
_cell_angle_alpha 90.000000
_cell_angle_beta 146.174578
_cell_angle_gamma 90.000000
_cell_volume 727.811406
_symmetry_space_group_name_H-M "P 21"
_symmetry_group_IT_number 4
_symmetry_cell_setting 'monoclinic'
loop_
_space_group_symop_operation_xyz
x,y,z
-x,1/2+y,-z
loop_
_atom_site_type_symbol
_atom_site_label
_atom_site_fract_x
_atom_site_fract_y
_atom_site_fract_z
Si Si1 0.528284 0.486660 0.742511
Si Si2 0.347215 0.547605 0.427885
Si Si3 0.746792 0.730243 0.118212
Si Si4 0.923348 0.869420 0.772234
Si Si5 0.829777 0.063865 0.066533
Si Si6 0.337066 0.866219 0.357445
Si Si7 0.906960 0.697110 0.382638
Si Si8 0.285217 0.828129 0.624805
O O1 0.556702 0.442736 0.675455
O O2 0.373651 0.318063 0.722355
O O3 0.319202 0.655360 0.679662
O O4 0.863700 0.531909 0.870476
O O5 0.166326 0.399321 0.330837
O O6 0.482463 0.675243 0.418115
O O7 0.569254 0.482138 0.552822
O O8 0.125262 0.669004 0.395380
O O9 0.900697 0.544862 0.149801
O O10 0.993620 0.828331 0.239246
O O11 0.714573 0.872119 0.050948
O O12 0.441862 0.672260 0.050938
O O13 0.614824 0.861498 0.708024
O O14 0.086161 0.691360 0.845963
O O15 0.823173 0.500583 0.375539
O O16 0.081860 0.784974 0.498232
#
# Coordination Sequence:
#
# PCOD9114812 Si02
#       8
#     2   2   2   2   2   2   2   2
#     4  10  22  39  55  85 116 156 204 244 288 341
#     4  11  22  35  55  86 129 157 184 235 304 365
#     4  10  19  34  57  89 111 148 196 249 294 333
#     4  10  22  37  55  88 121 151 190 247 298 354
#     4  10  19  35  61  84 116 145 201 255 295 322
#     4  10  21  37  55  89 122 153 192 239 297 355
#     4  12  21  36  55  83 119 164 196 232 285 364
#     4  11  20  35  55  78 118 156 201 233 281 350
#
# _framework density 21.983718
#
# number of rings (size 3 to 8) (size 9 to 14) (size 15 to 20)
#    0.000    1.500    3.750    3.000    3.500    0.000 
#    2.250    0.000    0.000    0.000   26.000    0.000 
#    0.000    0.000    0.000    0.000    0.000    0.000 
#
# Total GULP energy -89279.499210 kJ/mol
# GULP energy per Si atom -5579.968701 kJ/mol
# Density = 2.193368 g / cm^3
# Si number density = 21.983718 Si / 1000 Ang^3
#
#
#
# Elastic Constant Matrix: (Units=GPa)
#
#
# Indices 1 2 3 4 5 6 
#
# 1 28.2853 26.6470 10.9986 0.0000 8.4311 0.0000
# 2 26.6470 136.7787 27.9275 0.0000 11.8030 0.0000
# 3 10.9986 27.9275 70.1210 0.0000 24.0332 0.0000
# 4 0.0000 0.0000 0.0000 54.2667 0.0000 9.6170
# 5 8.4311 11.8030 24.0332 0.0000 20.0687 0.0000
# 6 0.0000 0.0000 0.0000 9.6170 0.0000 18.6201
#
#
#
# Elastic Compliance Matrix: (Units=1/GPa)
#
#
# Indices 1 2 3 4 5 6 
#
# 1 0.047458 -0.008105 0.001669 0.000000 -0.017169 0.000000
# 2 -0.008105 0.009369 -0.002949 0.000000 0.001426 0.000000
# 3 0.001669 -0.002949 0.025137 0.000000 -0.029070 0.000000
# 4 0.000000 0.000000 0.000000 0.020284 0.000000 -0.010476
# 5 -0.017169 0.001426 -0.029070 0.000000 0.091015 0.000000
# 6 0.000000 0.000000 0.000000 -0.010476 0.000000 0.059116
#
#
# Mechanical properties :
#
#
# Convention : Reuss Voigt Hill
#
# Bulk Modulus (GPa) = 15.82430 40.70347 28.26389
# Shear Modulus (GPa) = 17.11065 29.89855 23.50460
#
# Velocity S-wave (km/s) = 2.79289 3.69186 3.27338
# Velocity P-wave (km/s) = 4.19692 6.06041 5.21262
#
# Compressibility (1/GPa) = 0.06319393
#
# Stress axis : x y z
#
# Youngs Moduli (GPa) = 21.07114 106.73361 39.78171
#
# Poissons Ratio (x) = 0.86506 -0.06638
# Poissons Ratio (y) = 0.17078 0.11732
# Poissons Ratio (z) = -0.03516 0.31477
#
# Static dielectric constant tensor:
#      x y z
#    x 1.790520 0.000000 0.004330 
#    y 0.000000 1.924850 0.000000 
#    z 0.004330 0.000000 1.890240 
# 
# From -- ./inp_files/16086.got.cif
#   From: 2010.05.17/outbox.cif.g08.bks.cpg/sg4_9_cif.got.tgz:16086.got - 2010.06.03 18:43:04.
