data_PCOD9114269
_publ_section_title
;
Structure prediction by ZEFSAII (Michael W. Deem and Ramdas Pophale) SiO2 
 PCOD9114269
Probable space group: P 2
;
_chemical_formula_sum "Si O2"
_cell_formula_units_Z 13
_cell_length_a 18.107819
_cell_length_b 5.094021
_cell_length_c 5.993717
_cell_angle_alpha 90.000000
_cell_angle_beta 68.109053
_cell_angle_gamma 90.000000
_cell_volume 513.005506
_symmetry_space_group_name_H-M "P 2"
_symmetry_group_IT_number 3
_symmetry_cell_setting 'monoclinic'
loop_
_space_group_symop_operation_xyz
x,y,z
-x,y,-z
loop_
_atom_site_type_symbol
_atom_site_label
_atom_site_fract_x
_atom_site_fract_y
_atom_site_fract_z
Si Si1 0.693700 0.754300 0.575704
Si Si2 0.073271 0.389525 0.788078
Si Si3 0.776888 0.373994 0.116694
Si Si4 0.576978 0.561134 0.066486
Si Si5 0.000000 0.020957 0.500000
Si Si6 0.625058 0.068134 0.282805
Si Si7 0.159056 0.749582 0.338560
O O1 0.728576 0.564478 0.342417
O O2 0.648793 0.574358 0.806502
O O3 0.767107 0.893780 0.622204
O O4 0.633566 0.961370 0.526871
O O5 0.141993 0.272335 0.865015
O O6 0.118645 0.595379 0.586531
O O7 0.033017 0.185999 0.668242
O O8 0.000000 0.516319 0.000000
O O9 0.717531 0.137958 0.125826
O O10 0.803688 0.548693 0.879065
O O11 0.582347 0.331255 0.244470
O O12 0.586227 0.833904 0.187497
O O13 0.500000 0.538826 0.000000
O O14 0.080879 0.882398 0.324729
#
# Coordination Sequence:
#
# PCOD9114269 Si02
#       7
#     2   2   2   2   1   2   2
#     4  11  25  47  79 111 150 213 257 325 395 474
#     4  11  25  41  65 101 145 199 255 321 394 460
#     4  11  24  47  73 107 147 206 263 318 392 472
#     4  12  29  52  79 117 163 202 259 327 398 473
#     4  12  24  40  64 104 144 198 254 330 386 466
#     4  12  25  51  76 116 153 203 260 319 389 478
#     4  11  24  46  71 102 152 198 259 322 393 465
#
# _framework density 25.340862000000001
#
# number of rings (size 3 to 8) (size 9 to 14) (size 15 to 20)
#    0.000    0.615    3.077    3.692    2.154    8.615 
#    2.769    0.000    0.000    0.000    0.000    0.000 
#    0.000    0.000    0.000    0.000    0.000    0.000 
#
# Total GULP energy -72775.509412 kJ/mol
# GULP energy per Si atom -5598.116109 kJ/mol
# Density = 2.528318 g / cm^3
# Si number density = 25.340862 Si / 1000 Ang^3
#
#
#
# Elastic Constant Matrix: (Units=GPa)
#
#
# Indices 1 2 3 4 5 6 
#
# 1 210.2586 40.3208 12.8555 0.0000 48.2324 0.0000
# 2 40.3208 104.6154 14.7556 0.0000 20.8244 0.0000
# 3 12.8555 14.7556 54.3394 0.0000 -9.4467 0.0000
# 4 0.0000 0.0000 0.0000 55.1630 0.0000 30.6047
# 5 48.2324 20.8244 -9.4467 0.0000 48.4514 0.0000
# 6 0.0000 0.0000 0.0000 30.6047 0.0000 47.7358
#
#
#
# Elastic Compliance Matrix: (Units=1/GPa)
#
#
# Indices 1 2 3 4 5 6 
#
# 1 0.006610 -0.000863 -0.002493 0.000000 -0.006695 0.000000
# 2 -0.000863 0.011359 -0.003705 0.000000 -0.004745 0.000000
# 3 -0.002493 -0.003705 0.021434 0.000000 0.008253 0.000000
# 4 0.000000 0.000000 0.000000 0.028136 0.000000 -0.018039
# 5 -0.006695 -0.004745 0.008253 0.000000 0.030953 0.000000
# 6 0.000000 0.000000 0.000000 -0.018039 0.000000 0.032514
#
#
# Mechanical properties :
#
#
# Convention : Reuss Voigt Hill
#
# Bulk Modulus (GPa) = 39.55847 56.11969 47.83908
# Shear Modulus (GPa) = 32.56185 50.35548 41.45867
#
# Velocity S-wave (km/s) = 3.58851 4.46256 4.04919
# Velocity P-wave (km/s) = 5.72838 6.98187 6.38596
#
# Compressibility (1/GPa) = 0.02527904
#
# Stress axis : x y z
#
# Youngs Moduli (GPa) = 151.28961 88.03879 46.65571
#
# Poissons Ratio (x) = 0.07599 0.11632
# Poissons Ratio (y) = 0.13059 0.17286
# Poissons Ratio (z) = 0.37720 0.32619
#
# Static dielectric constant tensor:
#      x y z
#    x 2.200000 0.000000 -0.031210 
#    y 0.000000 2.030990 0.000000 
#    z -0.031210 0.000000 1.993240 
# 
# From -- ./inp_files/3416.got.cif
#   From: 2010.05.17/outbox.cif.g08.bks.cpg/sg3_2_cif.got.tgz:3416.got - 2010.06.03 18:33:08.
