data_PCOD9115117
_publ_section_title
;
Structure prediction by ZEFSAII (Michael W. Deem and Ramdas Pophale) SiO2 
 PCOD9115117
Probable space group: P 21
;
_chemical_formula_sum "Si O2"
_cell_formula_units_Z 14
_cell_length_a 5.499289
_cell_length_b 12.741309
_cell_length_c 9.055665
_cell_angle_alpha 90.000000
_cell_angle_beta 53.085640
_cell_angle_gamma 90.000000
_cell_volume 507.315298
_symmetry_space_group_name_H-M "P 21"
_symmetry_group_IT_number 4
_symmetry_cell_setting 'monoclinic'
loop_
_space_group_symop_operation_xyz
x,y,z
-x,1/2+y,-z
loop_
_atom_site_type_symbol
_atom_site_label
_atom_site_fract_x
_atom_site_fract_y
_atom_site_fract_z
Si Si1 0.981832 0.002510 0.569719
Si Si2 0.211727 0.095252 0.179891
Si Si3 0.618153 0.734120 0.497228
Si Si4 0.251771 0.786132 0.362628
Si Si5 0.638405 0.453704 0.308338
Si Si6 0.837411 0.800699 0.976324
Si Si7 0.787677 0.122860 0.100994
O O1 0.064048 0.056902 0.384417
O O2 0.613638 0.001471 0.711017
O O3 0.093679 0.882545 0.502931
O O4 0.206077 0.029463 0.626084
O O5 0.195461 0.221541 0.152865
O O6 0.568520 0.072411 0.062447
O O7 0.013750 0.052115 0.116021
O O8 0.437153 0.716990 0.412186
O O9 0.553139 0.859772 0.544880
O O10 0.439391 0.675295 0.694529
O O11 0.979645 0.724831 0.383704
O O12 0.506460 0.827123 0.156295
O O13 0.931020 0.393566 0.136506
O O14 0.007570 0.719942 0.026393
#
# Coordination Sequence:
#
# PCOD9115117 Si02
#       7
#     2   2   2   2   2   2   2
#     4  10  20  36  55  79 109 144 185 221 277 319
#     4  10  20  33  59  80 108 143 183 226 278 317
#     4   9  18  32  52  81 100 136 182 223 255 309
#     4  10  20  32  56  79 110 142 178 222 265 329
#     4   9  19  33  56  77 104 141 186 224 255 329
#     4   9  22  33  59  82 111 141 189 218 273 317
#     4   9  19  33  57  74 108 133 187 224 261 316
#
# _framework density 27.596252
#
# number of rings (size 3 to 8) (size 9 to 14) (size 15 to 20)
#    0.857    1.714    0.000    1.714    8.000    0.000 
#    0.000    0.000    9.429    0.000    0.000    0.000 
#    0.000    0.000    0.000    0.000    0.000    0.000 
#
# Total GULP energy -78250.850118 kJ/mol
# GULP energy per Si atom -5589.346437 kJ/mol
# Density = 2.753344 g / cm^3
# Si number density = 27.596252 Si / 1000 Ang^3
#
#
#
# Elastic Constant Matrix: (Units=GPa)
#
#
# Indices 1 2 3 4 5 6 
#
# 1 279.8356 58.4537 76.3022 0.0000 -48.9652 0.0000
# 2 58.4537 57.1325 16.7669 0.0000 3.9345 0.0000
# 3 76.3022 16.7669 96.9355 0.0000 -40.4637 0.0000
# 4 0.0000 0.0000 0.0000 28.5162 0.0000 -7.0227
# 5 -48.9652 3.9345 -40.4637 0.0000 53.9230 0.0000
# 6 0.0000 0.0000 0.0000 -7.0227 0.0000 34.9217
#
#
#
# Elastic Compliance Matrix: (Units=1/GPa)
#
#
# Indices 1 2 3 4 5 6 
#
# 1 0.006164 -0.006080 -0.001862 0.000000 0.004643 0.000000
# 2 -0.006080 0.025603 -0.003971 0.000000 -0.010369 0.000000
# 3 -0.001862 -0.003971 0.017304 0.000000 0.011584 0.000000
# 4 0.000000 0.000000 0.000000 0.036895 0.000000 0.007419
# 5 0.004643 -0.010369 0.011584 0.000000 0.032211 0.000000
# 6 0.000000 0.000000 0.000000 0.007419 0.000000 0.030128
#
#
# Mechanical properties :
#
#
# Convention : Reuss Voigt Hill
#
# Bulk Modulus (GPa) = 39.61114 81.88325 60.74720
# Shear Modulus (GPa) = 27.69411 42.29757 34.99584
#
# Velocity S-wave (km/s) = 3.17132 3.91926 3.56496
# Velocity P-wave (km/s) = 5.27206 7.08640 6.24547
#
# Compressibility (1/GPa) = 0.02524542
#
# Stress axis : x y z
#
# Youngs Moduli (GPa) = 162.24292 39.05825 57.78993
#
# Poissons Ratio (x) = 0.23746 0.10759
# Poissons Ratio (y) = 0.98636 0.22950
# Poissons Ratio (z) = 0.30206 0.15511
#
# Static dielectric constant tensor:
#      x y z
#    x 2.207140 0.000000 0.001130 
#    y 0.000000 2.221590 0.000000 
#    z 0.001130 0.000000 2.136620 
# 
# From -- ./inp_files/1970.got.cif
#   From: 2010.05.17/outbox.cif.g08.bks.cpg/sg4_1_cif.got.tgz:1970.got - 2010.06.03 18:43:04.
