data_PCOD9115532
_publ_section_title
;
Structure prediction by ZEFSAII (Michael W. Deem and Ramdas Pophale) SiO2 
 PCOD9115532
Probable space group: P 21
;
_chemical_formula_sum "Si O2"
_cell_formula_units_Z 14
_cell_length_a 13.578957
_cell_length_b 8.460646
_cell_length_c 10.259780
_cell_angle_alpha 90.000000
_cell_angle_beta 150.257669
_cell_angle_gamma 90.000000
_cell_volume 584.759745
_symmetry_space_group_name_H-M "P 21"
_symmetry_group_IT_number 4
_symmetry_cell_setting 'monoclinic'
loop_
_space_group_symop_operation_xyz
x,y,z
-x,1/2+y,-z
loop_
_atom_site_type_symbol
_atom_site_label
_atom_site_fract_x
_atom_site_fract_y
_atom_site_fract_z
Si Si1 0.159488 0.335120 0.537566
Si Si2 0.494839 0.228922 0.473391
Si Si3 0.739085 0.071668 0.532314
Si Si4 0.304537 0.989353 0.425582
Si Si5 0.566107 0.325191 0.159430
Si Si6 0.940856 0.490867 0.497886
Si Si7 0.935781 0.837908 0.104844
O O1 0.203715 0.395341 0.443098
O O2 0.030748 0.470759 0.459468
O O3 0.057756 0.166368 0.442573
O O4 0.360659 0.320223 0.851013
O O5 0.590747 0.102115 0.481806
O O6 0.656358 0.367622 0.648712
O O7 0.425519 0.143268 0.524137
O O8 0.288653 0.306850 0.189437
O O9 0.632467 0.151721 0.283470
O O10 0.934344 0.180791 0.774061
O O11 0.410127 0.921522 0.677274
O O12 0.069723 0.975234 0.188800
O O13 0.724216 0.412805 0.250018
O O14 0.057184 0.381559 0.734951
#
# Coordination Sequence:
#
# PCOD9115532 Si02
#       7
#     2   2   2   2   2   2   2
#     4  12  21  35  59  87 121 156 192 239 294 353
#     4  10  20  40  62  82 118 154 192 250 294 336
#     4   9  21  36  55  86 117 153 198 235 289 359
#     4   9  21  37  61  87 111 154 201 238 294 355
#     4   9  20  39  57  81 117 154 193 244 290 340
#     4  10  21  35  57  86 118 156 196 237 292 356
#     4   9  20  40  57  83 122 155 194 245 293 343
#
# _framework density 23.941455000000001
#
# number of rings (size 3 to 8) (size 9 to 14) (size 15 to 20)
#    0.000    2.857    0.000    4.286    0.000    5.714 
#    0.000    2.857    0.000    0.000    0.000    0.000 
#    0.000    0.000    0.000    0.000    0.000    0.000 
#
# Total GULP energy -78156.476940 kJ/mol
# GULP energy per Si atom -5582.605496 kJ/mol
# Density = 2.388696 g / cm^3
# Si number density = 23.941455 Si / 1000 Ang^3
#
#
#
# Elastic Constant Matrix: (Units=GPa)
#
#
# Indices 1 2 3 4 5 6 
#
# 1 103.6876 26.8022 -0.0955 0.0000 21.0995 0.0000
# 2 26.8022 48.4571 -1.6305 0.0000 -4.3236 0.0000
# 3 -0.0955 -1.6305 39.2792 0.0000 11.4503 0.0000
# 4 0.0000 0.0000 0.0000 16.9561 0.0000 2.8378
# 5 21.0995 -4.3236 11.4503 0.0000 18.8768 0.0000
# 6 0.0000 0.0000 0.0000 2.8378 0.0000 58.9958
#
#
#
# Elastic Compliance Matrix: (Units=1/GPa)
#
#
# Indices 1 2 3 4 5 6 
#
# 1 0.018750 -0.012661 0.007866 0.000000 -0.028629 0.000000
# 2 -0.012661 0.029630 -0.005958 0.000000 0.024552 0.000000
# 3 0.007866 -0.005958 0.034247 0.000000 -0.030930 0.000000
# 4 0.000000 0.000000 0.000000 0.059455 0.000000 -0.002860
# 5 -0.028629 0.024552 -0.030930 0.000000 0.109360 0.000000
# 6 0.000000 0.000000 0.000000 -0.002860 0.000000 0.017088
#
#
# Mechanical properties :
#
#
# Convention : Reuss Voigt Hill
#
# Bulk Modulus (GPa) = 16.36104 26.84182 21.60143
# Shear Modulus (GPa) = 16.10782 30.05557 23.08169
#
# Velocity S-wave (km/s) = 2.59665 3.54697 3.10835
# Velocity P-wave (km/s) = 3.97979 5.29249 4.68237
#
# Compressibility (1/GPa) = 0.06112080
#
# Stress axis : x y z
#
# Youngs Moduli (GPa) = 53.33364 33.74993 29.19963
#
# Poissons Ratio (x) = 0.42729 -0.22967
# Poissons Ratio (y) = 0.67523 0.17397
# Poissons Ratio (z) = -0.41950 0.20108
#
# Static dielectric constant tensor:
#      x y z
#    x 1.937720 0.000000 0.003420 
#    y 0.000000 2.019160 0.000000 
#    z 0.003420 0.000000 1.870040 
# 
# From -- ./inp_files/12661.got.cif
#   From: 2010.05.17/outbox.cif.g08.bks.cpg/sg4_7_cif.got.tgz:12661.got - 2010.06.03 18:43:04.
