data_PCOD9115612
_publ_section_title
;
Structure prediction by ZEFSAII (Michael W. Deem and Ramdas Pophale) SiO2 
 PCOD9115612
Probable space group: P 21
;
_chemical_formula_sum "Si O2"
_cell_formula_units_Z 16
_cell_length_a 5.620793
_cell_length_b 15.702370
_cell_length_c 8.347156
_cell_angle_alpha 90.000000
_cell_angle_beta 57.473657
_cell_angle_gamma 90.000000
_cell_volume 621.159666
_symmetry_space_group_name_H-M "P 21"
_symmetry_group_IT_number 4
_symmetry_cell_setting 'monoclinic'
loop_
_space_group_symop_operation_xyz
x,y,z
-x,1/2+y,-z
loop_
_atom_site_type_symbol
_atom_site_label
_atom_site_fract_x
_atom_site_fract_y
_atom_site_fract_z
Si Si1 0.369960 0.734850 0.195040
Si Si2 0.998829 0.775572 0.646450
Si Si3 0.735815 0.027467 0.030256
Si Si4 0.541180 0.185187 0.305779
Si Si5 0.213954 0.932516 0.734634
Si Si6 0.653828 0.407730 0.959049
Si Si7 0.253549 0.404561 0.673142
Si Si8 0.198002 0.197803 0.733071
O O1 0.462473 0.820622 0.072978
O O2 0.640005 0.683464 0.159208
O O3 0.188708 0.760016 0.418866
O O4 0.135929 0.688553 0.170861
O O5 0.692727 0.739820 0.708168
O O6 0.179155 0.729542 0.721797
O O7 0.014051 0.873949 0.694300
O O8 0.527205 0.993037 0.970646
O O9 0.697894 0.951372 0.176326
O O10 0.637703 0.107329 0.164478
O O11 0.048198 0.018171 0.843228
O O12 0.366602 0.155815 0.526172
O O13 0.511639 0.933833 0.536910
O O14 0.255880 0.888444 0.892034
O O15 0.931360 0.428430 0.752236
O O16 0.246808 0.301682 0.690066
#
# Coordination Sequence:
#
# PCOD9115612 Si02
#       8
#     2   2   2   2   2   2   2   2
#     4   9  16  33  59  88 116 156 217 264 307 387
#     4  10  21  40  69  94 128 186 226 276 343 412
#     4  11  24  39  67 100 134 178 228 287 344 404
#     4  10  22  38  66  96 136 179 224 278 355 404
#     4  11  23  39  70 102 131 180 236 276 335 409
#     4  10  22  35  63 100 132 165 223 286 333 394
#     4  10  20  41  64  94 132 173 224 280 326 410
#     4   9  16  33  62  88 115 171 212 263 317 396
#
# _framework density 25.758275000000001
#
# number of rings (size 3 to 8) (size 9 to 14) (size 15 to 20)
#    0.000    2.000    3.750    0.000    5.250    1.000 
#    0.000    0.000   11.000    1.500    0.000    0.000 
#    0.000    0.000    0.000    0.000    0.000    0.000 
#
# Total GULP energy -89488.008948 kJ/mol
# GULP energy per Si atom -5593.000559 kJ/mol
# Density = 2.569965 g / cm^3
# Si number density = 25.758275 Si / 1000 Ang^3
#
#
#
# Elastic Constant Matrix: (Units=GPa)
#
#
# Indices 1 2 3 4 5 6 
#
# 1 174.0426 20.6683 29.3443 0.0000 4.7218 0.0000
# 2 20.6683 30.0636 30.8795 0.0000 13.9381 0.0000
# 3 29.3443 30.8795 133.1962 0.0000 -15.1772 0.0000
# 4 0.0000 0.0000 0.0000 34.9636 0.0000 2.4166
# 5 4.7218 13.9381 -15.1772 0.0000 42.7613 0.0000
# 6 0.0000 0.0000 0.0000 2.4166 0.0000 34.0875
#
#
#
# Elastic Compliance Matrix: (Units=1/GPa)
#
#
# Indices 1 2 3 4 5 6 
#
# 1 0.006291 -0.004241 -0.000338 0.000000 0.000568 0.000000
# 2 -0.004241 0.067467 -0.017883 0.000000 -0.027870 0.000000
# 3 -0.000338 -0.017883 0.012919 0.000000 0.010451 0.000000
# 4 0.000000 0.000000 0.000000 0.028742 0.000000 -0.002038
# 5 0.000568 -0.027870 0.010451 0.000000 0.036117 0.000000
# 6 0.000000 0.000000 0.000000 -0.002038 0.000000 0.029481
#
#
# Mechanical properties :
#
#
# Convention : Reuss Voigt Hill
#
# Bulk Modulus (GPa) = 23.94987 55.45407 39.70197
# Shear Modulus (GPa) = 20.84576 39.45649 30.15112
#
# Velocity S-wave (km/s) = 2.84788 3.91807 3.42503
# Velocity P-wave (km/s) = 4.48687 6.48411 5.57565
#
# Compressibility (1/GPa) = 0.04175388
#
# Stress axis : x y z
#
# Youngs Moduli (GPa) = 158.95867 14.82207 77.40597
#
# Poissons Ratio (x) = 0.06286 0.02617
# Poissons Ratio (y) = 0.67412 1.38421
# Poissons Ratio (z) = 0.05374 0.26506
#
# Static dielectric constant tensor:
#      x y z
#    x 2.158400 0.000000 -0.024570 
#    y 0.000000 2.078300 0.000000 
#    z -0.024570 0.000000 2.001230 
# 
# From -- ./inp_files/4888.got.cif
#   From: 2010.05.17/outbox.cif.g08.bks.cpg/sg4_3_cif.got.tgz:4888.got - 2010.06.03 18:43:04.
