data_PCOD9115123
_publ_section_title
;
Structure prediction by ZEFSAII (Michael W. Deem and Ramdas Pophale) SiO2 
 PCOD9115123
Probable space group: P 21
;
_chemical_formula_sum "Si O2"
_cell_formula_units_Z 16
_cell_length_a 11.257951
_cell_length_b 8.170977
_cell_length_c 11.827853
_cell_angle_alpha 90.000000
_cell_angle_beta 36.151975
_cell_angle_gamma 90.000000
_cell_volume 641.858148
_symmetry_space_group_name_H-M "P 21"
_symmetry_group_IT_number 4
_symmetry_cell_setting 'monoclinic'
loop_
_space_group_symop_operation_xyz
x,y,z
-x,1/2+y,-z
loop_
_atom_site_type_symbol
_atom_site_label
_atom_site_fract_x
_atom_site_fract_y
_atom_site_fract_z
Si Si1 0.147400 0.330560 0.182273
Si Si2 0.388005 0.195084 0.454538
Si Si3 0.688192 0.201540 0.907070
Si Si4 0.018043 0.462150 0.070029
Si Si5 0.548382 0.848963 0.353505
Si Si6 0.817848 0.304931 0.023193
Si Si7 0.451597 0.661161 0.212976
Si Si8 0.270178 0.296024 0.321350
O O1 0.230226 0.518791 0.130911
O O2 0.108129 0.289402 0.344274
O O3 0.984696 0.349951 0.206941
O O4 0.321286 0.208650 0.001920
O O5 0.392623 0.290154 0.567965
O O6 0.600034 0.245766 0.233327
O O7 0.225299 0.229847 0.481113
O O8 0.404399 0.005336 0.470353
O O9 0.680259 0.251223 0.782630
O O10 0.794230 0.331625 0.908168
O O11 0.456210 0.194068 0.126180
O O12 0.244336 0.410748 0.861583
O O13 0.027590 0.654100 0.086390
O O14 0.884103 0.437108 0.062531
O O15 0.449668 0.718339 0.343909
O O16 0.365892 0.477548 0.266349
#
# Coordination Sequence:
#
# PCOD9115123 Si02
#       8
#     2   2   2   2   2   2   2   2
#     4   8  15  27  42  64  93 120 150 190 230 268
#     4  10  20  33  48  69  96 123 154 192 232 275
#     4   8  15  27  42  64  93 120 150 190 230 268
#     4   9  18  31  47  69  96 123 152 188 228 272
#     4  10  20  33  48  69  96 123 154 192 232 275
#     4   9  18  31  47  69  96 123 152 188 228 272
#     4   9  15  25  44  67  90 118 151 189 232 272
#     4   9  15  25  44  67  90 118 151 189 232 272
#
# _framework density 24.927624999999999
#
# number of rings (size 3 to 8) (size 9 to 14) (size 15 to 20)
#    0.000    3.000    0.000    3.000    0.000    6.000 
#    0.000    0.000    0.000    1.500    0.000    0.000 
#    0.000    0.000    0.000    0.000    0.000    0.000 
#
# Total GULP energy -89253.942746 kJ/mol
# GULP energy per Si atom -5578.371422 kJ/mol
# Density = 2.487089 g / cm^3
# Si number density = 24.927625 Si / 1000 Ang^3
#
#
#
# Elastic Constant Matrix: (Units=GPa)
#
#
# Indices 1 2 3 4 5 6 
#
# 1 117.8725 20.7784 47.6892 0.0000 55.4363 0.0000
# 2 20.7784 45.7364 16.7743 0.0000 12.5159 0.0000
# 3 47.6892 16.7743 77.4460 0.0000 20.4823 0.0000
# 4 0.0000 0.0000 0.0000 15.4598 0.0000 4.9348
# 5 55.4363 12.5159 20.4823 0.0000 51.7377 0.0000
# 6 0.0000 0.0000 0.0000 4.9348 0.0000 33.1398
#
#
#
# Elastic Compliance Matrix: (Units=1/GPa)
#
#
# Indices 1 2 3 4 5 6 
#
# 1 0.020535 -0.001504 -0.007368 0.000000 -0.018722 0.000000
# 2 -0.001504 0.024684 -0.003649 0.000000 -0.002915 0.000000
# 3 -0.007368 -0.003649 0.017780 0.000000 0.001738 0.000000
# 4 0.000000 0.000000 0.000000 0.067912 0.000000 -0.010113
# 5 -0.018722 -0.002915 0.001738 0.000000 0.039406 0.000000
# 6 0.000000 0.000000 0.000000 -0.010113 0.000000 0.031681
#
#
# Mechanical properties :
#
#
# Convention : Reuss Voigt Hill
#
# Bulk Modulus (GPa) = 26.34550 45.72651 36.03601
# Shear Modulus (GPa) = 20.86017 30.45499 25.65758
#
# Velocity S-wave (km/s) = 2.89594 3.49913 3.21172
# Velocity P-wave (km/s) = 4.66623 5.89141 5.31425
#
# Compressibility (1/GPa) = 0.03795714
#
# Stress axis : x y z
#
# Youngs Moduli (GPa) = 48.69758 40.51237 56.24390
#
# Poissons Ratio (x) = 0.06091 0.41438
# Poissons Ratio (y) = 0.07322 0.20526
# Poissons Ratio (z) = 0.35879 0.14785
#
# Static dielectric constant tensor:
#      x y z
#    x 2.061170 0.000000 0.016290 
#    y 0.000000 1.956180 0.000000 
#    z 0.016290 0.000000 2.033500 
# 
# From -- ./inp_files/7677.got.cif
#   From: 2010.05.17/outbox.cif.g08.bks.cpg/sg4_4_cif.got.tgz:7677.got - 2010.06.03 18:43:04.
