data_PCOD9115937
_publ_section_title
;
Structure prediction by ZEFSAII (Michael W. Deem and Ramdas Pophale) SiO2 
 PCOD9115937
Probable space group: P 21
;
_chemical_formula_sum "Si O2"
_cell_formula_units_Z 10
_cell_length_a 10.658739
_cell_length_b 5.321202
_cell_length_c 16.239354
_cell_angle_alpha 90.000000
_cell_angle_beta 156.091010
_cell_angle_gamma 90.000000
_cell_volume 373.288738
_symmetry_space_group_name_H-M "P 21"
_symmetry_group_IT_number 4
_symmetry_cell_setting 'monoclinic'
loop_
_space_group_symop_operation_xyz
x,y,z
-x,1/2+y,-z
loop_
_atom_site_type_symbol
_atom_site_label
_atom_site_fract_x
_atom_site_fract_y
_atom_site_fract_z
Si Si1 0.683047 0.316790 0.988413
Si Si2 0.472996 0.009607 0.582817
Si Si3 0.236716 0.015935 0.258730
Si Si4 0.158411 0.446653 0.559877
Si Si5 0.094576 0.178172 0.744305
O O1 0.862407 0.542170 0.142386
O O2 0.499996 0.421321 0.800365
O O3 0.424757 0.226470 0.899530
O O4 0.895022 0.086182 0.085926
O O5 0.447958 0.021721 0.468501
O O6 0.662357 0.768028 0.727787
O O7 0.117556 0.928093 0.389252
O O8 0.669367 0.253829 0.725540
O O9 0.014253 0.697523 0.512803
O O10 0.088770 0.479069 0.422291
#
# Coordination Sequence:
#
# PCOD9115937 Si02
#       5
#     2   2   2   2   2
#     4  11  22  40  73 107 141 185 241 294 353 424
#     4  10  21  38  63  97 136 180 226 278 346 416
#     4  10  21  38  63  97 136 180 226 278 346 416
#     4  10  24  42  64 104 148 178 226 304 364 406
#     4  11  22  40  73 107 141 185 241 294 353 424
#
# _framework density 26.788913000000001
#
# number of rings (size 3 to 8) (size 9 to 14) (size 15 to 20)
#    0.000    1.600    0.000    6.000    0.000    9.600 
#    0.000    0.000    0.000   26.400    0.000    0.000 
#    0.000    0.000    0.000    0.000    0.000    0.000 
#
# Total GULP energy -55949.010862 kJ/mol
# GULP energy per Si atom -5594.901086 kJ/mol
# Density = 2.672794 g / cm^3
# Si number density = 26.788913 Si / 1000 Ang^3
#
#
#
# Elastic Constant Matrix: (Units=GPa)
#
#
# Indices 1 2 3 4 5 6 
#
# 1 77.0887 58.2805 62.1553 0.0000 15.1681 0.0000
# 2 58.2805 261.7458 87.2287 0.0000 21.4694 0.0000
# 3 62.1553 87.2287 155.6058 0.0000 18.7596 0.0000
# 4 0.0000 0.0000 0.0000 46.3718 0.0000 6.2263
# 5 15.1681 21.4694 18.7596 0.0000 71.9615 0.0000
# 6 0.0000 0.0000 0.0000 6.2263 0.0000 36.1339
#
#
#
# Elastic Compliance Matrix: (Units=1/GPa)
#
#
# Indices 1 2 3 4 5 6 
#
# 1 0.020377 -0.002146 -0.006707 0.000000 -0.001907 0.000000
# 2 -0.002146 0.004962 -0.001859 0.000000 -0.000544 0.000000
# 3 -0.006707 -0.001859 0.010232 0.000000 -0.000699 0.000000
# 4 0.000000 0.000000 0.000000 0.022076 0.000000 -0.003804
# 5 -0.001907 -0.000544 -0.000699 0.000000 0.014643 0.000000
# 6 0.000000 0.000000 0.000000 -0.003804 0.000000 0.028330
#
#
# Mechanical properties :
#
#
# Convention : Reuss Voigt Hill
#
# Bulk Modulus (GPa) = 70.68107 101.08547 85.88327
# Shear Modulus (GPa) = 39.44498 50.01183 44.72841
#
# Velocity S-wave (km/s) = 3.84140 4.32543 4.09058
# Velocity P-wave (km/s) = 6.79094 7.92224 7.37830
#
# Compressibility (1/GPa) = 0.01414806
#
# Stress axis : x y z
#
# Youngs Moduli (GPa) = 49.07525 201.51356 97.73342
#
# Poissons Ratio (x) = 0.43239 0.65547
# Poissons Ratio (y) = 0.10530 0.18171
# Poissons Ratio (z) = 0.32913 0.37466
#
# Static dielectric constant tensor:
#      x y z
#    x 2.172800 0.000000 0.077710 
#    y 0.000000 2.273930 0.000000 
#    z 0.077710 0.000000 2.066900 
# 
# From -- ./inp_files/15055.got.cif
#   From: 2010.05.17/outbox.cif.g08.bks.cpg/sg4_8_cif.got.tgz:15055.got - 2010.06.03 18:43:04.
