data_PCOD9115751
_publ_section_title
;
Structure prediction by ZEFSAII (Michael W. Deem and Ramdas Pophale) SiO2 
 PCOD9115751
Probable space group: P 21
;
_chemical_formula_sum "Si O2"
_cell_formula_units_Z 14
_cell_length_a 10.002465
_cell_length_b 9.694303
_cell_length_c 9.045733
_cell_angle_alpha 90.000000
_cell_angle_beta 41.372014
_cell_angle_gamma 90.000000
_cell_volume 579.739614
_symmetry_space_group_name_H-M "P 21"
_symmetry_group_IT_number 4
_symmetry_cell_setting 'monoclinic'
loop_
_space_group_symop_operation_xyz
x,y,z
-x,1/2+y,-z
loop_
_atom_site_type_symbol
_atom_site_label
_atom_site_fract_x
_atom_site_fract_y
_atom_site_fract_z
Si Si1 0.361021 0.812830 0.588238
Si Si2 0.298768 0.701261 0.944991
Si Si3 0.801286 0.754836 0.850765
Si Si4 0.465613 0.927975 0.203142
Si Si5 0.938343 0.365651 0.609220
Si Si6 0.098473 0.553433 0.695315
Si Si7 0.970351 0.973037 0.944012
O O1 0.420416 0.764937 0.703822
O O2 0.495921 0.876869 0.347194
O O3 0.250633 0.680324 0.599855
O O4 0.203722 0.936083 0.750517
O O5 0.432566 0.576859 0.900759
O O6 0.103233 0.625848 0.032745
O O7 0.196396 0.800966 0.148329
O O8 0.869630 0.617474 0.878045
O O9 0.934145 0.757993 0.592724
O O10 0.574129 0.806239 0.019027
O O11 0.884131 0.875689 0.888442
O O12 0.229669 0.933456 0.358347
O O13 0.104440 0.469460 0.539284
O O14 0.110525 0.451636 0.823476
#
# Coordination Sequence:
#
# PCOD9115751 Si02
#       7
#     2   2   2   2   2   2   2
#     4  10  20  45  68  97 127 173 232 276 328 394
#     4  10  24  42  69  98 131 180 225 271 342 397
#     4  10  24  41  65  97 129 178 217 272 339 389
#     4  11  25  43  65  98 142 167 222 282 330 408
#     4  12  24  43  67  96 140 174 221 273 345 404
#     4  10  21  39  69  91 127 177 220 273 323 393
#     4   9  18  41  67  91 126 167 229 269 319 391
#
# _framework density 24.148772999999998
#
# number of rings (size 3 to 8) (size 9 to 14) (size 15 to 20)
#    0.000    1.714    4.286    0.000    6.000    1.143 
#    0.000    2.857    0.000    0.000    0.000    0.000 
#    0.000    0.000    0.000    0.000    0.000    0.000 
#
# Total GULP energy -78082.140481 kJ/mol
# GULP energy per Si atom -5577.295749 kJ/mol
# Density = 2.409381 g / cm^3
# Si number density = 24.148773 Si / 1000 Ang^3
#
#
#
# Elastic Constant Matrix: (Units=GPa)
#
#
# Indices 1 2 3 4 5 6 
#
# 1 66.6774 12.2571 17.2902 0.0000 11.5722 0.0000
# 2 12.2571 61.5255 26.7538 0.0000 16.5337 0.0000
# 3 17.2902 26.7538 84.8537 0.0000 16.7168 0.0000
# 4 0.0000 0.0000 0.0000 28.9912 0.0000 11.4006
# 5 11.5722 16.5337 16.7168 0.0000 29.4978 0.0000
# 6 0.0000 0.0000 0.0000 11.4006 0.0000 27.8332
#
#
#
# Elastic Compliance Matrix: (Units=1/GPa)
#
#
# Indices 1 2 3 4 5 6 
#
# 1 0.016561 -0.001131 -0.002097 0.000000 -0.004674 0.000000
# 2 -0.001131 0.020803 -0.004636 0.000000 -0.008589 0.000000
# 3 -0.002097 -0.004636 0.014634 0.000000 -0.004872 0.000000
# 4 0.000000 0.000000 0.000000 0.041116 0.000000 -0.016841
# 5 -0.004674 -0.008589 -0.004872 0.000000 0.043310 0.000000
# 6 0.000000 0.000000 0.000000 -0.016841 0.000000 0.042826
#
#
# Mechanical properties :
#
#
# Convention : Reuss Voigt Hill
#
# Bulk Modulus (GPa) = 27.57230 36.18432 31.87831
# Shear Modulus (GPa) = 24.14665 27.71482 25.93074
#
# Velocity S-wave (km/s) = 3.16557 3.39140 3.28043
# Velocity P-wave (km/s) = 4.98032 5.50926 5.25145
#
# Compressibility (1/GPa) = 0.03626828
#
# Stress axis : x y z
#
# Youngs Moduli (GPa) = 60.38444 48.07005 68.33452
#
# Poissons Ratio (x) = 0.05438 0.14329
# Poissons Ratio (y) = 0.06831 0.31683
# Poissons Ratio (z) = 0.12662 0.22288
#
# Static dielectric constant tensor:
#      x y z
#    x 1.997350 0.000000 -0.013340 
#    y 0.000000 1.937840 0.000000 
#    z -0.013340 0.000000 1.959520 
# 
# From -- ./inp_files/8288.got.cif
#   From: 2010.05.17/outbox.cif.g08.bks.cpg/sg4_5_cif.got.tgz:8288.got - 2010.06.03 18:43:04.
