data_PCOD9115715
_publ_section_title
;
Structure prediction by ZEFSAII (Michael W. Deem and Ramdas Pophale) SiO2 
 PCOD9115715
Probable space group: P 21
;
_chemical_formula_sum "Si O2"
_cell_formula_units_Z 16
_cell_length_a 9.067531
_cell_length_b 9.834376
_cell_length_c 11.611868
_cell_angle_alpha 90.000000
_cell_angle_beta 52.761656
_cell_angle_gamma 90.000000
_cell_volume 824.364493
_symmetry_space_group_name_H-M "P 21"
_symmetry_group_IT_number 4
_symmetry_cell_setting 'monoclinic'
loop_
_space_group_symop_operation_xyz
x,y,z
-x,1/2+y,-z
loop_
_atom_site_type_symbol
_atom_site_label
_atom_site_fract_x
_atom_site_fract_y
_atom_site_fract_z
Si Si1 0.627097 0.406150 0.719447
Si Si2 0.097832 0.049259 0.048972
Si Si3 0.137878 0.810460 0.597671
Si Si4 0.468621 0.682717 0.843274
Si Si5 0.772736 0.911134 0.663220
Si Si6 0.015722 0.497320 0.650561
Si Si7 0.515682 0.137098 0.895514
Si Si8 0.135624 0.816292 0.862840
O O1 0.697227 0.345069 0.566459
O O2 0.503889 0.539649 0.764412
O O3 0.526361 0.288194 0.838325
O O4 0.813728 0.455619 0.697811
O O5 0.563600 0.149289 0.007502
O O6 0.018014 0.199042 0.066994
O O7 0.313404 0.070194 0.978492
O O8 0.995357 0.979970 0.206707
O O9 0.065782 0.656509 0.612082
O O10 0.193270 0.832660 0.703106
O O11 0.961534 0.902292 0.647126
O O12 0.647794 0.779643 0.747399
O O13 0.301440 0.761520 0.863363
O O14 0.836457 0.919634 0.499677
O O15 0.658159 0.041925 0.758861
O O16 0.072182 0.956096 0.949977
#
# Coordination Sequence:
#
# PCOD9115715 Si02
#       8
#     2   2   2   2   2   2   2   2
#     4  11  22  39  67 100 120 170 217 262 322 373
#     4  11  24  46  65  95 133 170 212 267 325 386
#     4  10  22  43  63  93 137 167 207 264 329 385
#     4  12  23  41  65  99 124 165 221 267 309 383
#     4  11  22  41  71  93 126 168 214 272 317 370
#     4  10  20  43  67  92 131 162 216 269 322 366
#     4  12  23  41  72  96 128 162 224 272 313 375
#     4  11  26  44  62  94 135 174 203 261 333 392
#
# _framework density 19.408892000000002
#
# number of rings (size 3 to 8) (size 9 to 14) (size 15 to 20)
#    0.000    1.000    5.000    2.250    3.500    0.000 
#    9.000    0.000    0.000    0.000    0.000    0.000 
#    0.000    0.000    0.000    0.000    0.000    0.000 
#
# Total GULP energy -89396.339336 kJ/mol
# GULP energy per Si atom -5587.271209 kJ/mol
# Density = 1.936472 g / cm^3
# Si number density = 19.408892 Si / 1000 Ang^3
#
#
#
# Elastic Constant Matrix: (Units=GPa)
#
#
# Indices 1 2 3 4 5 6 
#
# 1 50.7215 -8.1207 21.8957 0.0000 18.0962 0.0000
# 2 -8.1207 66.8399 21.7039 0.0000 17.0193 0.0000
# 3 21.8957 21.7039 92.8535 0.0000 16.5213 0.0000
# 4 0.0000 0.0000 0.0000 31.6231 0.0000 0.8608
# 5 18.0962 17.0193 16.5213 0.0000 28.9554 0.0000
# 6 0.0000 0.0000 0.0000 0.8608 0.0000 31.6357
#
#
#
# Elastic Compliance Matrix: (Units=1/GPa)
#
#
# Indices 1 2 3 4 5 6 
#
# 1 0.033068 0.012252 -0.006348 0.000000 -0.024246 0.000000
# 2 0.012252 0.022685 -0.004960 0.000000 -0.018161 0.000000
# 3 -0.006348 -0.004960 0.013580 0.000000 -0.000866 0.000000
# 4 0.000000 0.000000 0.000000 0.031646 0.000000 -0.000861
# 5 -0.024246 -0.018161 -0.000866 0.000000 0.060857 0.000000
# 6 0.000000 0.000000 0.000000 -0.000861 0.000000 0.031633
#
#
# Mechanical properties :
#
#
# Convention : Reuss Voigt Hill
#
# Bulk Modulus (GPa) = 14.04069 31.26361 22.65215
# Shear Modulus (GPa) = 23.22124 30.10526 26.66325
#
# Velocity S-wave (km/s) = 3.46269 3.94268 3.71045
# Velocity P-wave (km/s) = 4.82046 6.07200 5.48206
#
# Compressibility (1/GPa) = 0.07122158
#
# Stress axis : x y z
#
# Youngs Moduli (GPa) = 30.24096 44.08268 73.63792
#
# Poissons Ratio (x) = -0.54012 0.46742
# Poissons Ratio (y) = -0.37053 0.36527
# Poissons Ratio (z) = 0.19196 0.21866
#
# Static dielectric constant tensor:
#      x y z
#    x 1.656910 0.000000 -0.004840 
#    y 0.000000 1.667890 0.000000 
#    z -0.004840 0.000000 1.672410 
# 
# From -- ./inp_files/13716.got.cif
#   From: 2010.05.17/outbox.cif.g08.bks.cpg/sg4_7_cif.got.tgz:13716.got - 2010.06.03 18:43:04.
