data_PCOD9115086
_publ_section_title
;
Structure prediction by ZEFSAII (Michael W. Deem and Ramdas Pophale) SiO2 
 PCOD9115086
Probable space group: P 21
;
_chemical_formula_sum "Si O2"
_cell_formula_units_Z 16
_cell_length_a 19.924269
_cell_length_b 5.459590
_cell_length_c 14.731777
_cell_angle_alpha 90.000000
_cell_angle_beta 24.426586
_cell_angle_gamma 90.000000
_cell_volume 662.676219
_symmetry_space_group_name_H-M "P 21"
_symmetry_group_IT_number 4
_symmetry_cell_setting 'monoclinic'
loop_
_space_group_symop_operation_xyz
x,y,z
-x,1/2+y,-z
loop_
_atom_site_type_symbol
_atom_site_label
_atom_site_fract_x
_atom_site_fract_y
_atom_site_fract_z
Si Si1 0.452285 0.993230 0.419635
Si Si2 0.984807 0.245328 0.871526
Si Si3 0.396150 0.836503 0.890687
Si Si4 0.273423 0.576850 0.522455
Si Si5 0.704100 0.886211 0.270655
Si Si6 0.897349 0.422139 0.609319
Si Si7 0.817509 0.599073 0.971049
Si Si8 0.881998 0.393898 0.426757
O O1 0.341765 0.781101 0.510608
O O2 0.550212 0.938978 0.393109
O O3 0.587176 0.076980 0.180329
O O4 0.355053 0.243915 0.567218
O O5 0.104648 0.450187 0.765177
O O6 0.910218 0.345717 0.868526
O O7 0.109265 0.053538 0.675373
O O8 0.835350 0.109369 0.106492
O O9 0.578870 0.901761 0.689076
O O10 0.257066 0.866905 0.136092
O O11 0.345518 0.037306 0.877509
O O12 0.224845 0.679024 0.482804
O O13 0.793665 0.674150 0.104068
O O14 0.834017 0.477264 0.585159
O O15 0.996464 0.668249 0.516721
O O16 0.934419 0.796275 0.785061
#
# Coordination Sequence:
#
# PCOD9115086 Si02
#       8
#     2   2   2   2   2   2   2   2
#     4  12  26  44  76 120 157 203 277 334 402 477
#     4  10  22  46  79 106 149 212 254 324 407 482
#     4  12  24  45  76 111 160 204 261 334 400 479
#     4  11  26  47  75 111 164 209 252 338 418 488
#     4  11  24  41  79 112 147 204 270 328 386 482
#     4  12  28  47  83 128 154 209 280 341 401 493
#     4  10  19  41  75 105 142 199 255 320 388 462
#     4  10  23  47  73 107 159 202 263 321 410 485
#
# _framework density 24.144521999999998
#
# number of rings (size 3 to 8) (size 9 to 14) (size 15 to 20)
#    0.000    1.000    3.750    2.250    5.250    0.000 
#    4.500    0.000   46.750    0.000    0.000    0.000 
#    0.000    0.000    0.000    0.000    0.000    0.000 
#
# Total GULP energy -89178.872236 kJ/mol
# GULP energy per Si atom -5573.679515 kJ/mol
# Density = 2.408957 g / cm^3
# Si number density = 24.144522 Si / 1000 Ang^3
#
#
#
# Elastic Constant Matrix: (Units=GPa)
#
#
# Indices 1 2 3 4 5 6 
#
# 1 102.9846 35.0973 58.0750 0.0000 -12.3268 0.0000
# 2 35.0973 106.5352 48.8831 0.0000 -17.2898 0.0000
# 3 58.0750 48.8831 135.2666 0.0000 -3.1833 0.0000
# 4 0.0000 0.0000 0.0000 35.0899 0.0000 -17.4746
# 5 -12.3268 -17.2898 -3.1833 0.0000 48.3208 0.0000
# 6 0.0000 0.0000 0.0000 -17.4746 0.0000 42.0727
#
#
#
# Elastic Compliance Matrix: (Units=1/GPa)
#
#
# Indices 1 2 3 4 5 6 
#
# 1 0.013467 -0.001685 -0.005114 0.000000 0.002496 0.000000
# 2 -0.001685 0.012191 -0.003595 0.000000 0.003695 0.000000
# 3 -0.005114 -0.003595 0.010844 0.000000 -0.001877 0.000000
# 4 0.000000 0.000000 0.000000 0.035930 0.000000 0.014923
# 5 0.002496 0.003695 -0.001877 0.000000 0.022530 0.000000
# 6 0.000000 0.000000 0.000000 0.014923 0.000000 0.029967
#
#
# Mechanical properties :
#
#
# Convention : Reuss Voigt Hill
#
# Bulk Modulus (GPa) = 63.64215 69.87746 66.75980
# Shear Modulus (GPa) = 33.12229 38.61206 35.86718
#
# Velocity S-wave (km/s) = 3.70785 4.00335 3.85843
# Velocity P-wave (km/s) = 6.68931 7.09741 6.89638
#
# Compressibility (1/GPa) = 0.01571286
#
# Stress axis : x y z
#
# Youngs Moduli (GPa) = 74.25430 82.02716 92.21959
#
# Poissons Ratio (x) = 0.13821 0.47164
# Poissons Ratio (y) = 0.12512 0.33155
# Poissons Ratio (z) = 0.37976 0.29491
#
# Static dielectric constant tensor:
#      x y z
#    x 1.988060 0.000000 0.009290 
#    y 0.000000 2.179880 0.000000 
#    z 0.009290 0.000000 1.920820 
# 
# From -- ./inp_files/14433.got.cif
#   From: 2010.05.17/outbox.cif.g08.bks.cpg/sg4_8_cif.got.tgz:14433.got - 2010.06.03 18:43:04.
