data_PCOD9115356
_publ_section_title
;
Structure prediction by ZEFSAII (Michael W. Deem and Ramdas Pophale) SiO2 
 PCOD9115356
Probable space group: P 21
;
_chemical_formula_sum "Si O2"
_cell_formula_units_Z 16
_cell_length_a 13.828752
_cell_length_b 8.788178
_cell_length_c 6.916054
_cell_angle_alpha 90.000000
_cell_angle_beta 58.605502
_cell_angle_gamma 90.000000
_cell_volume 717.455608
_symmetry_space_group_name_H-M "P 21"
_symmetry_group_IT_number 4
_symmetry_cell_setting 'monoclinic'
loop_
_space_group_symop_operation_xyz
x,y,z
-x,1/2+y,-z
loop_
_atom_site_type_symbol
_atom_site_label
_atom_site_fract_x
_atom_site_fract_y
_atom_site_fract_z
Si Si1 0.840633 0.964760 0.668460
Si Si2 0.542536 0.174664 0.214345
Si Si3 0.645185 0.672438 0.271115
Si Si4 0.599098 0.865934 0.939698
Si Si5 0.051855 0.662007 0.916984
Si Si6 0.954413 0.252855 0.652074
Si Si7 0.764003 0.351225 0.098459
Si Si8 0.149184 0.365684 0.915686
O O1 0.819262 0.955214 0.922601
O O2 0.936510 0.840908 0.529419
O O3 0.717096 0.922383 0.720152
O O4 0.894650 0.130492 0.574450
O O5 0.467706 0.165417 0.485615
O O6 0.548161 0.011984 0.103010
O O7 0.666928 0.233999 0.137846
O O8 0.484154 0.295118 0.131105
O O9 0.704763 0.508868 0.204868
O O10 0.737174 0.785741 0.270921
O O11 0.623342 0.737743 0.078729
O O12 0.012290 0.662884 0.185682
O O13 0.159286 0.776170 0.811785
O O14 0.091378 0.490417 0.836502
O O15 0.943764 0.738217 0.933568
O O16 0.855018 0.365068 0.829462
#
# Coordination Sequence:
#
# PCOD9115356 Si02
#       8
#     2   2   2   2   2   2   2   2
#     4  10  21  40  61  95 129 165 211 271 329 390
#     4  12  24  46  69  93 134 179 219 273 329 383
#     4  11  24  41  71  95 128 176 220 274 331 387
#     4  11  25  45  67 100 134 170 230 274 320 397
#     4   9  20  37  60  85 131 158 205 263 325 385
#     4   9  21  37  64  85 128 165 202 266 334 377
#     4  10  21  42  62  91 131 167 215 273 318 396
#     4  10  20  38  58  96 125 164 208 268 320 397
#
# _framework density 22.301031999999999
#
# number of rings (size 3 to 8) (size 9 to 14) (size 15 to 20)
#    0.750    1.000    1.250    3.000    5.250    0.000 
#    0.000    2.500    0.000    0.000    0.000    0.000 
#    0.000    0.000    0.000    0.000    0.000    0.000 
#
# Total GULP energy -89357.172170 kJ/mol
# GULP energy per Si atom -5584.823261 kJ/mol
# Density = 2.225027 g / cm^3
# Si number density = 22.301032 Si / 1000 Ang^3
#
#
#
# Elastic Constant Matrix: (Units=GPa)
#
#
# Indices 1 2 3 4 5 6 
#
# 1 66.0535 -1.6877 19.2767 0.0000 -18.7543 0.0000
# 2 -1.6877 76.9265 23.8812 0.0000 -7.9316 0.0000
# 3 19.2767 23.8812 78.1319 0.0000 -25.8173 0.0000
# 4 0.0000 0.0000 0.0000 38.5667 0.0000 -7.9154
# 5 -18.7543 -7.9316 -25.8173 0.0000 33.8278 0.0000
# 6 0.0000 0.0000 0.0000 -7.9154 0.0000 38.8256
#
#
#
# Elastic Compliance Matrix: (Units=1/GPa)
#
#
# Indices 1 2 3 4 5 6 
#
# 1 0.018381 0.002006 -0.002174 0.000000 0.009002 0.000000
# 2 0.002006 0.014581 -0.004619 0.000000 0.001005 0.000000
# 3 -0.002174 -0.004619 0.018709 0.000000 0.011991 0.000000
# 4 0.000000 0.000000 0.000000 0.027061 0.000000 0.005517
# 5 0.009002 0.001005 0.011991 0.000000 0.043939 0.000000
# 6 0.000000 0.000000 0.000000 0.005517 0.000000 0.026881
#
#
# Mechanical properties :
#
#
# Convention : Reuss Voigt Hill
#
# Bulk Modulus (GPa) = 23.75449 33.78359 28.76904
# Shear Modulus (GPa) = 28.87521 34.22012 31.54767
#
# Velocity S-wave (km/s) = 3.60223 3.92147 3.76523
# Velocity P-wave (km/s) = 5.28926 5.97375 5.64189
#
# Compressibility (1/GPa) = 0.04209730
#
# Stress axis : x y z
#
# Youngs Moduli (GPa) = 54.40489 68.58147 53.44967
#
# Poissons Ratio (x) = -0.13759 0.11618
# Poissons Ratio (y) = -0.10914 0.24691
# Poissons Ratio (z) = 0.11825 0.31681
#
# Static dielectric constant tensor:
#      x y z
#    x 1.853220 0.000000 0.039430 
#    y 0.000000 1.838620 0.000000 
#    z 0.039430 0.000000 1.829170 
# 
# From -- ./inp_files/12007.got.cif
#   From: 2010.05.17/outbox.cif.g08.bks.cpg/sg4_7_cif.got.tgz:12007.got - 2010.06.03 18:43:04.
