data_PCOD9115969
_publ_section_title
;
Structure prediction by ZEFSAII (Michael W. Deem and Ramdas Pophale) SiO2 
 PCOD9115969
Probable space group: P 21
;
_chemical_formula_sum "Si O2"
_cell_formula_units_Z 16
_cell_length_a 21.530419
_cell_length_b 6.741599
_cell_length_c 12.567775
_cell_angle_alpha 90.000000
_cell_angle_beta 155.599522
_cell_angle_gamma 90.000000
_cell_volume 753.601292
_symmetry_space_group_name_H-M "P 21"
_symmetry_group_IT_number 4
_symmetry_cell_setting 'monoclinic'
loop_
_space_group_symop_operation_xyz
x,y,z
-x,1/2+y,-z
loop_
_atom_site_type_symbol
_atom_site_label
_atom_site_fract_x
_atom_site_fract_y
_atom_site_fract_z
Si Si1 0.499937 0.428610 0.263931
Si Si2 0.682987 0.536037 0.758215
Si Si3 0.200682 0.164702 0.778609
Si Si4 0.177222 0.394900 0.937765
Si Si5 0.911209 0.612931 0.621439
Si Si6 0.686697 0.271915 0.970728
Si Si7 0.205881 0.846815 0.404180
Si Si8 0.016191 0.982954 0.907532
O O1 0.575866 0.458584 0.498229
O O2 0.435343 0.653526 0.148578
O O3 0.629967 0.344694 0.391404
O O4 0.361158 0.276352 0.038566
O O5 0.644330 0.412369 0.803977
O O6 0.690182 0.769792 0.798786
O O7 0.853092 0.512360 0.977669
O O8 0.115620 0.245589 0.750486
O O9 0.125610 0.209130 0.549392
O O10 0.220297 0.928289 0.815229
O O11 0.056407 0.473006 0.832414
O O12 0.228275 0.590497 0.953963
O O13 0.785168 0.472051 0.473634
O O14 0.941038 0.780687 0.753390
O O15 0.113592 0.646782 0.284312
O O16 0.102711 0.955940 0.153944
#
# Coordination Sequence:
#
# PCOD9115969 Si02
#       8
#     2   2   2   2   2   2   2   2
#     4  10  25  44  64  98 138 183 224 280 342 414
#     4  10  21  38  68  99 133 173 224 285 336 395
#     4  10  26  44  62 102 137 184 226 270 344 425
#     4  10  22  39  65 103 133 174 228 275 338 403
#     4  12  24  42  71  99 137 181 217 287 347 406
#     4  10  22  41  65  97 138 171 223 275 341 408
#     4  11  24  44  69  99 134 173 231 287 339 413
#     4  11  22  42  68 101 130 169 231 285 343 392
#
# _framework density 21.231387000000002
#
# number of rings (size 3 to 8) (size 9 to 14) (size 15 to 20)
#    0.000    1.500    3.750    0.000    7.000    3.000 
#    4.500    0.000    0.000    0.000    0.000    0.000 
#    0.000    0.000    0.000    0.000    0.000    0.000 
#
# Total GULP energy -89193.859191 kJ/mol
# GULP energy per Si atom -5574.616199 kJ/mol
# Density = 2.118306 g / cm^3
# Si number density = 21.231387 Si / 1000 Ang^3
#
#
#
# Elastic Constant Matrix: (Units=GPa)
#
#
# Indices 1 2 3 4 5 6 
#
# 1 70.4613 35.3277 15.5020 0.0000 13.9514 0.0000
# 2 35.3277 110.5375 27.0917 0.0000 20.0357 0.0000
# 3 15.5020 27.0917 45.8783 0.0000 11.5298 0.0000
# 4 0.0000 0.0000 0.0000 22.0745 0.0000 3.1735
# 5 13.9514 20.0357 11.5298 0.0000 32.3974 0.0000
# 6 0.0000 0.0000 0.0000 3.1735 0.0000 41.2801
#
#
#
# Elastic Compliance Matrix: (Units=1/GPa)
#
#
# Indices 1 2 3 4 5 6 
#
# 1 0.017700 -0.004328 -0.002397 0.000000 -0.004093 0.000000
# 2 -0.004328 0.012344 -0.004807 0.000000 -0.004060 0.000000
# 3 -0.002397 -0.004807 0.026839 0.000000 -0.005547 0.000000
# 4 0.000000 0.000000 0.000000 0.045807 0.000000 -0.003522
# 5 -0.004093 -0.004060 -0.005547 0.000000 0.037114 0.000000
# 6 0.000000 0.000000 0.000000 -0.003522 0.000000 0.024495
#
#
# Mechanical properties :
#
#
# Convention : Reuss Voigt Hill
#
# Bulk Modulus (GPa) = 29.56758 42.52444 36.04601
# Shear Modulus (GPa) = 25.17192 29.08076 27.12634
#
# Velocity S-wave (km/s) = 3.44699 3.70497 3.57830
# Velocity P-wave (km/s) = 5.45884 6.19475 5.83840
#
# Compressibility (1/GPa) = 0.03382082
#
# Stress axis : x y z
#
# Youngs Moduli (GPa) = 56.49854 81.01324 37.25924
#
# Poissons Ratio (x) = 0.35059 0.08929
# Poissons Ratio (y) = 0.24450 0.17909
# Poissons Ratio (z) = 0.13540 0.38940
#
# Static dielectric constant tensor:
#      x y z
#    x 1.796700 0.000000 0.018660 
#    y 0.000000 1.788090 0.000000 
#    z 0.018660 0.000000 1.787830 
# 
# From -- ./inp_files/11645.got.cif
#   From: 2010.05.17/outbox.cif.g08.bks.cpg/sg4_6_cif.got.tgz:11645.got - 2010.06.03 18:43:04.
