data_PCOD9115680
_publ_section_title
;
Structure prediction by ZEFSAII (Michael W. Deem and Ramdas Pophale) SiO2 
 PCOD9115680
Probable space group: P 21
;
_chemical_formula_sum "Si O2"
_cell_formula_units_Z 16
_cell_length_a 8.263061
_cell_length_b 8.645451
_cell_length_c 10.473321
_cell_angle_alpha 90.000000
_cell_angle_beta 56.942409
_cell_angle_gamma 90.000000
_cell_volume 627.076651
_symmetry_space_group_name_H-M "P 21"
_symmetry_group_IT_number 4
_symmetry_cell_setting 'monoclinic'
loop_
_space_group_symop_operation_xyz
x,y,z
-x,1/2+y,-z
loop_
_atom_site_type_symbol
_atom_site_label
_atom_site_fract_x
_atom_site_fract_y
_atom_site_fract_z
Si Si1 0.555022 0.431860 0.726483
Si Si2 0.999333 0.843536 0.197874
Si Si3 0.357833 0.979844 0.946420
Si Si4 0.804588 0.811223 0.004982
Si Si5 0.142176 0.106016 0.533233
Si Si6 0.690400 0.053541 0.384389
Si Si7 0.707885 0.082252 0.666513
Si Si8 0.787006 0.386174 0.269088
O O1 0.375226 0.430955 0.902633
O O2 0.704879 0.575011 0.647555
O O3 0.430206 0.438377 0.650499
O O4 0.662493 0.267028 0.691495
O O5 0.907673 0.784332 0.102167
O O6 0.915533 0.755845 0.357800
O O7 0.911511 0.013200 0.255462
O O8 0.231109 0.861036 0.085309
O O9 0.279580 0.948396 0.837580
O O10 0.290526 0.154035 0.003622
O O11 0.586454 0.990015 0.824777
O O12 0.981838 0.864207 0.843712
O O13 0.933836 0.050388 0.576809
O O14 0.229764 0.999835 0.606045
O O15 0.644901 0.036286 0.551343
O O16 0.672277 0.229107 0.347186
#
# Coordination Sequence:
#
# PCOD9115680 Si02
#       8
#     2   2   2   2   2   2   2   2
#     4  10  24  43  68  98 133 182 229 285 339 408
#     4  10  22  38  68  97 134 177 220 290 342 405
#     4  10  20  42  66  96 129 178 230 282 335 410
#     4   9  19  39  68 100 129 171 233 285 332 408
#     4  12  25  43  65 100 140 182 221 286 353 412
#     4  11  23  40  68 102 127 180 231 285 339 405
#     4  11  26  43  64  98 140 181 230 283 348 422
#     4  11  21  40  71 101 132 169 232 284 348 404
#
# _framework density 25.515225000000001
#
# number of rings (size 3 to 8) (size 9 to 14) (size 15 to 20)
#    0.000    1.500    3.750    0.750    5.250    0.000 
#    4.500    0.000    0.000    0.000    0.000    0.000 
#    0.000    0.000    0.000    0.000    0.000    0.000 
#
# Total GULP energy -89347.375938 kJ/mol
# GULP energy per Si atom -5584.210996 kJ/mol
# Density = 2.545715 g / cm^3
# Si number density = 25.515225 Si / 1000 Ang^3
#
#
#
# Elastic Constant Matrix: (Units=GPa)
#
#
# Indices 1 2 3 4 5 6 
#
# 1 75.2965 -1.2768 25.6132 0.0000 -9.5301 0.0000
# 2 -1.2768 46.4053 18.6347 0.0000 8.5695 0.0000
# 3 25.6132 18.6347 118.0047 0.0000 -23.2093 0.0000
# 4 0.0000 0.0000 0.0000 32.8107 0.0000 -16.9284
# 5 -9.5301 8.5695 -23.2093 0.0000 51.2203 0.0000
# 6 0.0000 0.0000 0.0000 -16.9284 0.0000 11.6043
#
#
#
# Elastic Compliance Matrix: (Units=1/GPa)
#
#
# Indices 1 2 3 4 5 6 
#
# 1 0.014518 0.001494 -0.003189 0.000000 0.001006 0.000000
# 2 0.001494 0.024996 -0.005532 0.000000 -0.006411 0.000000
# 3 -0.003189 -0.005532 0.011094 0.000000 0.005359 0.000000
# 4 0.000000 0.000000 0.000000 0.123221 0.000000 0.179756
# 5 0.001006 -0.006411 0.005359 0.000000 0.023212 0.000000
# 6 0.000000 0.000000 0.000000 0.179756 0.000000 0.348404
#
#
# Mechanical properties :
#
#
# Convention : Reuss Voigt Hill
#
# Bulk Modulus (GPa) = 27.65971 36.18318 31.92144
# Shear Modulus (GPa) = 8.74201 32.24275 20.49238
#
# Velocity S-wave (km/s) = 1.85301 3.55867 2.83705
# Velocity P-wave (km/s) = 3.92965 5.57649 4.82387
#
# Compressibility (1/GPa) = 0.03615367
#
# Stress axis : x y z
#
# Youngs Moduli (GPa) = 68.87805 40.00659 90.13700
#
# Poissons Ratio (x) = -0.05979 0.28748
# Poissons Ratio (y) = -0.10293 0.49868
# Poissons Ratio (z) = 0.21968 0.22134
#
# Static dielectric constant tensor:
#      x y z
#    x 2.023850 0.000000 -0.030630 
#    y 0.000000 2.010650 0.000000 
#    z -0.030630 0.000000 2.071670 
# 
# From -- ./inp_files/8004.got.cif
#   From: 2010.05.17/outbox.cif.g08.bks.cpg/sg4_5_cif.got.tgz:8004.got - 2010.06.03 18:43:04.
