data_PCOD9115876
_publ_section_title
;
Structure prediction by ZEFSAII (Michael W. Deem and Ramdas Pophale) SiO2 
 PCOD9115876
Probable space group: P 21
;
_chemical_formula_sum "Si O2"
_cell_formula_units_Z 14
_cell_length_a 23.303248
_cell_length_b 5.044554
_cell_length_c 16.460813
_cell_angle_alpha 90.000000
_cell_angle_beta 18.311041
_cell_angle_gamma 90.000000
_cell_volume 607.942771
_symmetry_space_group_name_H-M "P 21"
_symmetry_group_IT_number 4
_symmetry_cell_setting 'monoclinic'
loop_
_space_group_symop_operation_xyz
x,y,z
-x,1/2+y,-z
loop_
_atom_site_type_symbol
_atom_site_label
_atom_site_fract_x
_atom_site_fract_y
_atom_site_fract_z
Si Si1 0.022115 0.638570 0.747278
Si Si2 0.036163 0.848141 0.497380
Si Si3 0.446912 0.948879 0.975177
Si Si4 0.073068 0.177075 0.946528
Si Si5 0.523361 0.763095 0.527636
Si Si6 0.400135 0.945562 0.225837
Si Si7 0.853232 0.125444 0.896291
O O1 0.212144 0.787126 0.474202
O O2 0.008292 0.567621 0.859707
O O3 0.978938 0.376798 0.753140
O O4 0.879002 0.876344 0.922706
O O5 0.248007 0.830564 0.234102
O O6 0.971468 0.552800 0.567148
O O7 0.921657 0.997512 0.720588
O O8 0.468265 0.004217 0.042709
O O9 0.593061 0.737417 0.746154
O O10 0.465271 0.238369 0.911775
O O11 0.285707 0.236354 0.680638
O O12 0.968442 0.446751 0.062589
O O13 0.505871 0.537705 0.481259
O O14 0.353969 0.721106 0.817018
#
# Coordination Sequence:
#
# PCOD9115876 Si02
#       7
#     2   2   2   2   2   2   2
#     4  12  23  43  74 100 133 180 237 289 350 432
#     4  12  26  44  66  95 144 185 232 297 357 403
#     4  10  21  39  62  90 129 168 219 278 342 394
#     4  12  26  46  70 105 150 181 221 305 376 417
#     4  12  23  47  77 105 137 188 250 292 348 447
#     4  10  21  37  66  94 120 167 224 286 320 399
#     4  12  24  44  75 101 131 187 253 289 337 434
#
# _framework density 23.028479999999998
#
# number of rings (size 3 to 8) (size 9 to 14) (size 15 to 20)
#    0.000    0.571    4.286    4.286    4.000    0.000 
#    7.714    0.000    0.000    0.000    0.000    0.000 
#    0.000    0.000    0.000    0.000    0.000    0.000 
#
# Total GULP energy -78227.046517 kJ/mol
# GULP energy per Si atom -5587.646180 kJ/mol
# Density = 2.297607 g / cm^3
# Si number density = 23.028480 Si / 1000 Ang^3
#
#
#
# Elastic Constant Matrix: (Units=GPa)
#
#
# Indices 1 2 3 4 5 6 
#
# 1 58.5193 10.8812 15.5498 0.0000 -10.5348 0.0000
# 2 10.8812 97.6194 -8.7386 0.0000 -2.1624 0.0000
# 3 15.5498 -8.7386 89.1233 0.0000 -13.5454 0.0000
# 4 0.0000 0.0000 0.0000 35.8133 0.0000 -4.4791
# 5 -10.5348 -2.1624 -13.5454 0.0000 24.0495 0.0000
# 6 0.0000 0.0000 0.0000 -4.4791 0.0000 37.3358
#
#
#
# Elastic Compliance Matrix: (Units=1/GPa)
#
#
# Indices 1 2 3 4 5 6 
#
# 1 0.019422 -0.002243 -0.002566 0.000000 0.006861 0.000000
# 2 -0.002243 0.010653 0.001566 0.000000 0.000858 0.000000
# 3 -0.002566 0.001566 0.012765 0.000000 0.006206 0.000000
# 4 0.000000 0.000000 0.000000 0.028348 0.000000 0.003401
# 5 0.006861 0.000858 0.006206 0.000000 0.048159 0.000000
# 6 0.000000 0.000000 0.000000 0.003401 0.000000 0.027192
#
#
# Mechanical properties :
#
#
# Convention : Reuss Voigt Hill
#
# Bulk Modulus (GPa) = 27.50599 31.18298 29.34448
# Shear Modulus (GPa) = 30.27690 34.61103 32.44396
#
# Velocity S-wave (km/s) = 3.62989 3.88102 3.75755
# Velocity P-wave (km/s) = 5.43493 5.80116 5.62103
#
# Compressibility (1/GPa) = 0.03635572
#
# Stress axis : x y z
#
# Youngs Moduli (GPa) = 51.48715 93.86996 78.33958
#
# Poissons Ratio (x) = 0.21051 0.20101
# Poissons Ratio (y) = 0.11547 -0.12269
# Poissons Ratio (z) = 0.13211 -0.14702
#
# Static dielectric constant tensor:
#      x y z
#    x 1.902530 0.000000 -0.009020 
#    y 0.000000 1.914260 0.000000 
#    z -0.009020 0.000000 1.890220 
# 
# From -- ./inp_files/14382.got.cif
#   From: 2010.05.17/outbox.cif.g08.bks.cpg/sg4_8_cif.got.tgz:14382.got - 2010.06.03 18:43:04.
