data_PCOD9115419
_publ_section_title
;
Structure prediction by ZEFSAII (Michael W. Deem and Ramdas Pophale) SiO2 
 PCOD9115419
Probable space group: P 21
;
_chemical_formula_sum "Si O2"
_cell_formula_units_Z 14
_cell_length_a 9.938659
_cell_length_b 7.499725
_cell_length_c 13.758497
_cell_angle_alpha 90.000000
_cell_angle_beta 149.007174
_cell_angle_gamma 90.000000
_cell_volume 528.071763
_symmetry_space_group_name_H-M "P 21"
_symmetry_group_IT_number 4
_symmetry_cell_setting 'monoclinic'
loop_
_space_group_symop_operation_xyz
x,y,z
-x,1/2+y,-z
loop_
_atom_site_type_symbol
_atom_site_label
_atom_site_fract_x
_atom_site_fract_y
_atom_site_fract_z
Si Si1 0.708127 0.209690 0.754048
Si Si2 0.098098 0.416830 0.490123
Si Si3 0.021325 0.717565 0.880494
Si Si4 0.436799 0.112165 0.295952
Si Si5 0.178664 0.241761 0.722972
Si Si6 0.803039 0.611801 0.056921
Si Si7 0.126978 0.063766 0.399686
O O1 0.693707 0.421717 0.758921
O O2 0.427496 0.118249 0.570784
O O3 0.903610 0.175015 0.787681
O O4 0.833446 0.149398 0.933802
O O5 0.268672 0.538398 0.522750
O O6 0.859726 0.551564 0.353701
O O7 0.017508 0.229969 0.394628
O O8 0.276661 0.366310 0.694031
O O9 0.717623 0.744905 0.727762
O O10 0.020792 0.577952 0.793663
O O11 0.151297 0.897739 0.919900
O O12 0.367556 0.167066 0.142628
O O13 0.929295 0.371633 0.591250
O O14 0.291426 0.189615 0.898233
#
# Coordination Sequence:
#
# PCOD9115419 Si02
#       7
#     2   2   2   2   2   2   2
#     4   9  21  38  61 100 136 164 212 270 337 406
#     4  11  24  44  64  92 128 177 230 271 319 388
#     4  10  20  38  65  98 139 164 207 275 338 403
#     4   9  21  41  62  95 134 169 212 273 335 396
#     4  12  24  43  66  92 127 176 233 271 318 390
#     4  10  21  38  65  99 130 168 217 271 335 397
#     4  11  23  40  67  96 130 176 215 271 340 392
#
# _framework density 26.51155
#
# number of rings (size 3 to 8) (size 9 to 14) (size 15 to 20)
#    0.000    1.714    2.857    0.857    4.000    1.143 
#    0.000    5.714    0.000    0.000    0.000    0.000 
#    0.000    0.000    0.000    0.000    0.000    0.000 
#
# Total GULP energy -78145.072887 kJ/mol
# GULP energy per Si atom -5581.790920 kJ/mol
# Density = 2.645121 g / cm^3
# Si number density = 26.511550 Si / 1000 Ang^3
#
#
#
# Elastic Constant Matrix: (Units=GPa)
#
#
# Indices 1 2 3 4 5 6 
#
# 1 49.5927 25.8639 26.6861 0.0000 -32.8607 0.0000
# 2 25.8639 133.7568 31.8343 0.0000 -10.5408 0.0000
# 3 26.6861 31.8343 53.6437 0.0000 -37.4165 0.0000
# 4 0.0000 0.0000 0.0000 25.3049 0.0000 -15.2904
# 5 -32.8607 -10.5408 -37.4165 0.0000 39.6616 0.0000
# 6 0.0000 0.0000 0.0000 -15.2904 0.0000 49.6424
#
#
#
# Elastic Compliance Matrix: (Units=1/GPa)
#
#
# Indices 1 2 3 4 5 6 
#
# 1 0.060178 -0.012789 0.029413 0.000000 0.074208 0.000000
# 2 -0.012789 0.012256 -0.017633 0.000000 -0.023973 0.000000
# 3 0.029413 -0.017633 0.082468 0.000000 0.097483 0.000000
# 4 0.000000 0.000000 0.000000 0.048555 0.000000 0.014955
# 5 0.074208 -0.023973 0.097483 0.000000 0.172290 0.000000
# 6 0.000000 0.000000 0.000000 0.014955 0.000000 0.024751
#
#
# Mechanical properties :
#
#
# Convention : Reuss Voigt Hill
#
# Bulk Modulus (GPa) = 6.54087 45.08464 25.81275
# Shear Modulus (GPa) = 11.02596 33.09570 22.06083
#
# Velocity S-wave (km/s) = 2.04156 3.53703 2.88778
# Velocity P-wave (km/s) = 2.83369 5.80718 4.56909
#
# Compressibility (1/GPa) = 0.15288491
#
# Stress axis : x y z
#
# Youngs Moduli (GPa) = 16.61747 81.58940 12.12597
#
# Poissons Ratio (x) = 1.04341 -0.35666
# Poissons Ratio (y) = 0.21251 0.21381
# Poissons Ratio (z) = -0.48876 1.43863
#
# Static dielectric constant tensor:
#      x y z
#    x 2.221980 0.000000 0.072770 
#    y 0.000000 2.073150 0.000000 
#    z 0.072770 0.000000 2.157290 
# 
# From -- ./inp_files/7973.got.cif
#   From: 2010.05.17/outbox.cif.g08.bks.cpg/sg4_4_cif.got.tgz:7973.got - 2010.06.03 18:43:04.
