data_PCOD9115973
_publ_section_title
;
Structure prediction by ZEFSAII (Michael W. Deem and Ramdas Pophale) SiO2 
 PCOD9115973
Probable space group: P 21
;
_chemical_formula_sum "Si O2"
_cell_formula_units_Z 14
_cell_length_a 9.117199
_cell_length_b 7.487337
_cell_length_c 12.871242
_cell_angle_alpha 90.000000
_cell_angle_beta 41.048241
_cell_angle_gamma 90.000000
_cell_volume 576.995564
_symmetry_space_group_name_H-M "P 21"
_symmetry_group_IT_number 4
_symmetry_cell_setting 'monoclinic'
loop_
_space_group_symop_operation_xyz
x,y,z
-x,1/2+y,-z
loop_
_atom_site_type_symbol
_atom_site_label
_atom_site_fract_x
_atom_site_fract_y
_atom_site_fract_z
Si Si1 0.010072 0.223790 0.984276
Si Si2 0.972859 0.915745 0.836562
Si Si3 0.827108 0.608249 0.469290
Si Si4 0.469145 0.820814 0.307629
Si Si5 0.203976 0.499224 0.435392
Si Si6 0.393535 0.861250 0.918834
Si Si7 0.520418 0.463819 0.914668
O O1 0.272447 0.266477 0.824141
O O2 0.955751 0.049770 0.944367
O O3 0.962858 0.237616 0.133797
O O4 0.827929 0.354634 0.029914
O O5 0.102107 0.021058 0.677962
O O6 0.725701 0.894895 0.923327
O O7 0.587201 0.516344 0.618244
O O8 0.828264 0.822669 0.477342
O O9 0.992418 0.543108 0.474765
O O10 0.295473 0.675201 0.445731
O O11 0.406474 0.841347 0.219203
O O12 0.411655 0.455265 0.248836
O O13 0.485518 0.663830 0.894904
O O14 0.336961 0.949203 0.059056
#
# Coordination Sequence:
#
# PCOD9115973 Si02
#       7
#     2   2   2   2   2   2   2
#     4  10  24  47  71 102 142 193 249 308 363 439
#     4  10  23  47  68 102 145 185 247 305 362 446
#     4  12  25  46  72 108 153 188 248 300 379 446
#     4  11  24  46  71 104 149 192 240 310 369 443
#     4  12  24  44  74 109 145 192 243 309 366 437
#     4  11  21  40  73 110 143 191 250 311 367 429
#     4  10  21  38  73 107 137 185 251 307 358 430
#
# _framework density 24.263618000000001
#
# number of rings (size 3 to 8) (size 9 to 14) (size 15 to 20)
#    0.000    1.143    4.286    1.714    2.000    1.143 
#    7.714    0.000    0.000    0.000    0.000    0.000 
#    0.000    0.000    0.000    0.000    0.000    0.000 
#
# Total GULP energy -78198.677449 kJ/mol
# GULP energy per Si atom -5585.619818 kJ/mol
# Density = 2.420839 g / cm^3
# Si number density = 24.263618 Si / 1000 Ang^3
#
#
#
# Elastic Constant Matrix: (Units=GPa)
#
#
# Indices 1 2 3 4 5 6 
#
# 1 98.8896 22.9635 9.9540 0.0000 -11.5593 0.0000
# 2 22.9635 112.7504 18.2609 0.0000 0.2601 0.0000
# 3 9.9540 18.2609 58.4578 0.0000 3.2120 0.0000
# 4 0.0000 0.0000 0.0000 36.8123 0.0000 3.5214
# 5 -11.5593 0.2601 3.2120 0.0000 36.1748 0.0000
# 6 0.0000 0.0000 0.0000 3.5214 0.0000 33.3861
#
#
#
# Elastic Compliance Matrix: (Units=1/GPa)
#
#
# Indices 1 2 3 4 5 6 
#
# 1 0.011169 -0.002046 -0.001467 0.000000 0.003714 0.000000
# 2 -0.002046 0.009718 -0.002660 0.000000 -0.000487 0.000000
# 3 -0.001467 -0.002660 0.018301 0.000000 -0.002075 0.000000
# 4 0.000000 0.000000 0.000000 0.027442 0.000000 -0.002894
# 5 0.003714 -0.000487 -0.002075 0.000000 0.029018 0.000000
# 6 0.000000 0.000000 0.000000 -0.002894 0.000000 0.030258
#
#
# Mechanical properties :
#
#
# Convention : Reuss Voigt Hill
#
# Bulk Modulus (GPa) = 37.25522 41.38385 39.31953
# Shear Modulus (GPa) = 33.96754 35.86925 34.91840
#
# Velocity S-wave (km/s) = 3.74563 3.84906 3.79770
# Velocity P-wave (km/s) = 5.83901 6.07014 5.95570
#
# Compressibility (1/GPa) = 0.02684188
#
# Stress axis : x y z
#
# Youngs Moduli (GPa) = 89.53253 102.90380 54.64127
#
# Poissons Ratio (x) = 0.21052 0.08015
# Poissons Ratio (y) = 0.18316 0.14537
# Poissons Ratio (z) = 0.13133 0.27378
#
# Static dielectric constant tensor:
#      x y z
#    x 1.869950 0.000000 0.018680 
#    y 0.000000 2.159070 0.000000 
#    z 0.018680 0.000000 1.943360 
# 
# From -- ./inp_files/10786.got.cif
#   From: 2010.05.17/outbox.cif.g08.bks.cpg/sg4_6_cif.got.tgz:10786.got - 2010.06.03 18:43:04.
