data_PCOD9115856
_publ_section_title
;
Structure prediction by ZEFSAII (Michael W. Deem and Ramdas Pophale) SiO2 
 PCOD9115856
Probable space group: P 21
;
_chemical_formula_sum "Si O2"
_cell_formula_units_Z 14
_cell_length_a 10.019023
_cell_length_b 6.967649
_cell_length_c 12.309614
_cell_angle_alpha 90.000000
_cell_angle_beta 62.676974
_cell_angle_gamma 90.000000
_cell_volume 763.450134
_symmetry_space_group_name_H-M "P 21"
_symmetry_group_IT_number 4
_symmetry_cell_setting 'monoclinic'
loop_
_space_group_symop_operation_xyz
x,y,z
-x,1/2+y,-z
loop_
_atom_site_type_symbol
_atom_site_label
_atom_site_fract_x
_atom_site_fract_y
_atom_site_fract_z
Si Si1 0.980783 0.505490 0.362501
Si Si2 0.048058 0.240990 0.819919
Si Si3 0.259080 0.081865 0.927150
Si Si4 0.066442 0.119386 0.207023
Si Si5 0.519738 0.348211 0.855601
Si Si6 0.700541 0.193749 0.997955
Si Si7 0.176175 0.853912 0.363484
O O1 0.021239 0.323319 0.271906
O O2 0.117743 0.637050 0.358966
O O3 0.894892 0.651487 0.314247
O O4 0.887492 0.424591 0.498394
O O5 0.142664 0.163934 0.884472
O O6 0.045657 0.473027 0.814496
O O7 0.874082 0.166527 0.895838
O O8 0.420709 0.171996 0.853230
O O9 0.276358 0.853797 0.918381
O O10 0.200070 0.139102 0.069837
O O11 0.110265 0.991024 0.294083
O O12 0.400979 0.517497 0.925054
O O13 0.646715 0.382733 0.718396
O O14 0.609386 0.289498 0.931727
#
# Coordination Sequence:
#
# PCOD9115856 Si02
#       7
#     2   2   2   2   2   2   2
#     4  11  21  39  65  86 125 165 215 265 300 380
#     4  10  24  40  62  95 125 167 216 247 324 390
#     4  11  24  39  62  95 132 163 204 259 328 387
#     4  10  21  37  61  93 122 157 207 261 306 370
#     4  12  22  38  60  94 129 158 208 266 324 375
#     4  11  22  38  61  96 129 162 203 265 323 377
#     4  11  22  39  61  95 118 164 219 257 317 365
#
# _framework density 18.337804999999999
#
# number of rings (size 3 to 8) (size 9 to 14) (size 15 to 20)
#    0.000    1.143    7.143    0.857    8.000    1.143 
#    0.000    0.000    6.286    0.000    0.000    0.000 
#    0.000    0.000    0.000    0.000    0.000    0.000 
#
# Total GULP energy -78030.137932 kJ/mol
# GULP energy per Si atom -5573.581281 kJ/mol
# Density = 1.829607 g / cm^3
# Si number density = 18.337805 Si / 1000 Ang^3
#
#
#
# Elastic Constant Matrix: (Units=GPa)
#
#
# Indices 1 2 3 4 5 6 
#
# 1 76.9302 20.1163 17.6960 0.0000 6.0302 0.0000
# 2 20.1163 90.2162 27.6653 0.0000 1.2393 0.0000
# 3 17.6960 27.6653 65.6518 0.0000 5.2143 0.0000
# 4 0.0000 0.0000 0.0000 31.2305 0.0000 1.8849
# 5 6.0302 1.2393 5.2143 0.0000 7.2249 0.0000
# 6 0.0000 0.0000 0.0000 1.8849 0.0000 20.3113
#
#
#
# Elastic Compliance Matrix: (Units=1/GPa)
#
#
# Indices 1 2 3 4 5 6 
#
# 1 0.014979 -0.002542 -0.002130 0.000000 -0.010529 0.000000
# 2 -0.002542 0.013183 -0.005154 0.000000 0.003580 0.000000
# 3 -0.002130 -0.005154 0.018847 0.000000 -0.010940 0.000000
# 4 0.000000 0.000000 0.000000 0.032200 0.000000 -0.002988
# 5 -0.010529 0.003580 -0.010940 0.000000 0.154479 0.000000
# 6 0.000000 0.000000 0.000000 -0.002988 0.000000 0.049511
#
#
# Mechanical properties :
#
#
# Convention : Reuss Voigt Hill
#
# Bulk Modulus (GPa) = 36.55560 40.41705 38.48632
# Shear Modulus (GPa) = 16.02716 22.90804 19.46760
#
# Velocity S-wave (km/s) = 2.95955 3.53827 3.26177
# Velocity P-wave (km/s) = 5.62640 6.22741 5.93452
#
# Compressibility (1/GPa) = 0.02735559
#
# Stress axis : x y z
#
# Youngs Moduli (GPa) = 66.76114 75.85680 53.05927
#
# Poissons Ratio (x) = 0.19284 0.11301
# Poissons Ratio (y) = 0.16972 0.27348
# Poissons Ratio (z) = 0.14220 0.39099
#
# Static dielectric constant tensor:
#      x y z
#    x 1.626620 0.000000 0.005880 
#    y 0.000000 1.693070 0.000000 
#    z 0.005880 0.000000 1.637780 
# 
# From -- ./inp_files/11467.got.cif
#   From: 2010.05.17/outbox.cif.g08.bks.cpg/sg4_6_cif.got.tgz:11467.got - 2010.06.03 18:43:04.
