data_PCOD9115162
_publ_section_title
;
Structure prediction by ZEFSAII (Michael W. Deem and Ramdas Pophale) SiO2 
 PCOD9115162
Probable space group: P 21
;
_chemical_formula_sum "Si O2"
_cell_formula_units_Z 16
_cell_length_a 17.435421
_cell_length_b 7.060539
_cell_length_c 7.087056
_cell_angle_alpha 90.000000
_cell_angle_beta 59.749813
_cell_angle_gamma 90.000000
_cell_volume 753.644238
_symmetry_space_group_name_H-M "P 21"
_symmetry_group_IT_number 4
_symmetry_cell_setting 'monoclinic'
loop_
_space_group_symop_operation_xyz
x,y,z
-x,1/2+y,-z
loop_
_atom_site_type_symbol
_atom_site_label
_atom_site_fract_x
_atom_site_fract_y
_atom_site_fract_z
Si Si1 0.576671 0.569120 0.249776
Si Si2 0.161840 0.920983 0.337230
Si Si3 0.112804 0.493027 0.267130
Si Si4 0.017540 0.992062 0.254248
Si Si5 0.640418 0.304950 0.877170
Si Si6 0.617856 0.224499 0.463109
Si Si7 0.040107 0.890498 0.812395
Si Si8 0.688211 0.954875 0.079323
O O1 0.619232 0.421478 0.345859
O O2 0.479681 0.632548 0.437573
O O3 0.633476 0.760652 0.157067
O O4 0.570353 0.445149 0.064289
O O5 0.131535 0.710451 0.305605
O O6 0.106165 0.044215 0.259070
O O7 0.266704 0.914989 0.203270
O O8 0.124554 0.965767 0.591585
O O9 0.048340 0.484266 0.166462
O O10 0.052437 0.405313 0.510747
O O11 0.210499 0.415770 0.105252
O O12 0.969432 0.175655 0.236790
O O13 0.045067 0.892551 0.028802
O O14 0.631408 0.265036 0.667111
O O15 0.646550 0.105175 0.980953
O O16 0.683589 0.073899 0.281731
#
# Coordination Sequence:
#
# PCOD9115162 Si02
#       8
#     2   2   2   2   2   2   2   2
#     4  11  24  42  66  97 130 165 210 268 323 384
#     4   9  20  40  57  83 123 159 202 258 308 366
#     4   9  20  38  59  83 121 160 204 254 312 364
#     4  10  20  35  59  85 123 160 209 252 306 368
#     4  10  25  41  68  96 127 172 214 262 326 387
#     4  11  24  44  68  97 130 169 213 263 327 389
#     4  10  20  34  60  87 117 167 203 251 304 368
#     4  10  23  44  67  92 133 168 211 270 320 382
#
# _framework density 21.230177000000001
#
# number of rings (size 3 to 8) (size 9 to 14) (size 15 to 20)
#    0.000    2.000    1.250    0.750    3.500    8.000 
#    0.000    0.000    0.000    0.000    0.000    0.000 
#    0.000    0.000    0.000    0.000    0.000    0.000 
#
# Total GULP energy -89284.895961 kJ/mol
# GULP energy per Si atom -5580.305998 kJ/mol
# Density = 2.118186 g / cm^3
# Si number density = 21.230177 Si / 1000 Ang^3
#
#
#
# Elastic Constant Matrix: (Units=GPa)
#
#
# Indices 1 2 3 4 5 6 
#
# 1 27.6139 17.5831 38.7888 0.0000 -9.7863 0.0000
# 2 17.5831 86.0962 50.7627 0.0000 4.6291 0.0000
# 3 38.7888 50.7627 131.2958 0.0000 20.4792 0.0000
# 4 0.0000 0.0000 0.0000 34.6240 0.0000 -6.7149
# 5 -9.7863 4.6291 20.4792 0.0000 42.8893 0.0000
# 6 0.0000 0.0000 0.0000 -6.7149 0.0000 24.2372
#
#
#
# Elastic Compliance Matrix: (Units=1/GPa)
#
#
# Indices 1 2 3 4 5 6 
#
# 1 0.101917 -0.001962 -0.035668 0.000000 0.040498 0.000000
# 2 -0.001962 0.015144 -0.005349 0.000000 0.000472 0.000000
# 3 -0.035668 -0.005349 0.023123 0.000000 -0.018602 0.000000
# 4 0.000000 0.000000 0.000000 0.030522 0.000000 0.008456
# 5 0.040498 0.000472 -0.018602 0.000000 0.041388 0.000000
# 6 0.000000 0.000000 0.000000 0.008456 0.000000 0.043602
#
#
# Mechanical properties :
#
#
# Convention : Reuss Voigt Hill
#
# Bulk Modulus (GPa) = 18.44095 51.03058 34.73576
# Shear Modulus (GPa) = 13.89938 29.54152 21.72045
#
# Velocity S-wave (km/s) = 2.56149 3.73431 3.20205
# Velocity P-wave (km/s) = 4.17772 6.53318 5.48342
#
# Compressibility (1/GPa) = 0.05422716
#
# Stress axis : x y z
#
# Youngs Moduli (GPa) = 9.81193 66.03233 43.24616
#
# Poissons Ratio (x) = 0.12954 1.54249
# Poissons Ratio (y) = 0.01925 0.23133
# Poissons Ratio (z) = 0.34997 0.35322
#
# Static dielectric constant tensor:
#      x y z
#    x 1.737630 0.000000 -0.002690 
#    y 0.000000 1.842800 0.000000 
#    z -0.002690 0.000000 1.807650 
# 
# From -- ./inp_files/4041.got.cif
#   From: 2010.05.17/outbox.cif.g08.bks.cpg/sg4_3_cif.got.tgz:4041.got - 2010.06.03 18:43:04.
