data_PCOD9115990
_publ_section_title
;
Structure prediction by ZEFSAII (Michael W. Deem and Ramdas Pophale) SiO2 
 PCOD9115990
Probable space group: P 21
;
_chemical_formula_sum "Si O2"
_cell_formula_units_Z 16
_cell_length_a 16.872921
_cell_length_b 8.335720
_cell_length_c 12.204144
_cell_angle_alpha 90.000000
_cell_angle_beta 155.948318
_cell_angle_gamma 90.000000
_cell_volume 699.572641
_symmetry_space_group_name_H-M "P 21"
_symmetry_group_IT_number 4
_symmetry_cell_setting 'monoclinic'
loop_
_space_group_symop_operation_xyz
x,y,z
-x,1/2+y,-z
loop_
_atom_site_type_symbol
_atom_site_label
_atom_site_fract_x
_atom_site_fract_y
_atom_site_fract_z
Si Si1 0.459007 0.457270 0.401019
Si Si2 0.945059 0.265383 0.577968
Si Si3 0.592612 0.074682 0.218428
Si Si4 0.860487 0.601582 0.366251
Si Si5 0.877176 0.411505 0.904757
Si Si6 0.881468 0.796666 0.595067
Si Si7 0.596772 0.147389 0.477454
Si Si8 0.041372 0.487731 0.887314
O O1 0.676200 0.513297 0.643231
O O2 0.447138 0.279417 0.337098
O O3 0.451693 0.481444 0.522998
O O4 0.255590 0.539772 0.113046
O O5 0.736586 0.178998 0.324780
O O6 0.944119 0.431889 0.509951
O O7 0.087549 0.147482 0.692234
O O8 0.995265 0.325013 0.763174
O O9 0.599714 0.136835 0.352336
O O10 0.683437 0.896354 0.335872
O O11 0.369667 0.087976 0.903576
O O12 0.941008 0.740951 0.548684
O O13 0.024057 0.449658 0.993480
O O14 0.792220 0.235785 0.767004
O O15 0.975531 0.403871 0.147961
O O16 0.884714 0.624753 0.660721
#
# Coordination Sequence:
#
# PCOD9115990 Si02
#       8
#     2   2   2   2   2   2   2   2
#     4  10  21  39  60  97 139 175 226 272 340 422
#     4  11  24  44  71  98 141 181 237 293 346 415
#     4  12  24  47  69 103 137 185 239 293 348 414
#     4  11  26  46  71 104 135 190 237 291 353 406
#     4  10  23  41  64 102 141 175 223 277 356 412
#     4  11  25  43  72 102 141 181 238 286 345 425
#     4  10  22  41  64  99 138 183 225 283 349 413
#     4  11  21  43  67  99 138 186 227 289 347 411
#
# _framework density 22.871106999999999
#
# number of rings (size 3 to 8) (size 9 to 14) (size 15 to 20)
#    0.750    0.500    2.500    3.000    0.000    5.000 
#    0.000    8.750    0.000    0.000    0.000    0.000 
#    0.000    0.000    0.000    0.000    0.000    0.000 
#
# Total GULP energy -89135.042818 kJ/mol
# GULP energy per Si atom -5570.940176 kJ/mol
# Density = 2.281905 g / cm^3
# Si number density = 22.871107 Si / 1000 Ang^3
#
#
#
# Elastic Constant Matrix: (Units=GPa)
#
#
# Indices 1 2 3 4 5 6 
#
# 1 102.5884 43.1789 22.3764 0.0000 9.4533 0.0000
# 2 43.1789 79.9148 12.5657 0.0000 9.1812 0.0000
# 3 22.3764 12.5657 78.8373 0.0000 17.2303 0.0000
# 4 0.0000 0.0000 0.0000 24.4070 0.0000 7.5588
# 5 9.4533 9.1812 17.2303 0.0000 35.1106 0.0000
# 6 0.0000 0.0000 0.0000 7.5588 0.0000 34.3899
#
#
#
# Elastic Compliance Matrix: (Units=1/GPa)
#
#
# Indices 1 2 3 4 5 6 
#
# 1 0.013150 -0.006640 -0.002554 0.000000 -0.000551 0.000000
# 2 -0.006640 0.016410 -0.000206 0.000000 -0.002402 0.000000
# 3 -0.002554 -0.000206 0.014875 0.000000 -0.006559 0.000000
# 4 0.000000 0.000000 0.000000 0.043965 0.000000 -0.009663
# 5 -0.000551 -0.002402 -0.006559 0.000000 0.032477 0.000000
# 6 0.000000 0.000000 0.000000 -0.009663 0.000000 0.031202
#
#
# Mechanical properties :
#
#
# Convention : Reuss Voigt Hill
#
# Bulk Modulus (GPa) = 39.00816 46.39807 42.70312
# Shear Modulus (GPa) = 27.86699 30.99613 29.43156
#
# Velocity S-wave (km/s) = 3.49440 3.68537 3.59115
# Velocity P-wave (km/s) = 5.77700 6.20001 5.99224
#
# Compressibility (1/GPa) = 0.02563566
#
# Stress axis : x y z
#
# Youngs Moduli (GPa) = 76.04326 60.94000 67.22526
#
# Poissons Ratio (x) = 0.40467 0.17167
# Poissons Ratio (y) = 0.50496 0.01383
# Poissons Ratio (z) = 0.19419 0.01254
#
# Static dielectric constant tensor:
#      x y z
#    x 1.827720 0.000000 -0.007620 
#    y 0.000000 1.907040 0.000000 
#    z -0.007620 0.000000 1.925360 
# 
# From -- ./inp_files/14483.got.cif
#   From: 2010.05.17/outbox.cif.g08.bks.cpg/sg4_8_cif.got.tgz:14483.got - 2010.06.03 18:43:04.
