data_PCOD9115996
_publ_section_title
;
Structure prediction by ZEFSAII (Michael W. Deem and Ramdas Pophale) SiO2 
 PCOD9115996
Probable space group: P 21
;
_chemical_formula_sum "Si O2"
_cell_formula_units_Z 12
_cell_length_a 5.148159
_cell_length_b 4.870817
_cell_length_c 17.067614
_cell_angle_alpha 90.000000
_cell_angle_beta 78.858205
_cell_angle_gamma 90.000000
_cell_volume 419.916418
_symmetry_space_group_name_H-M "P 21"
_symmetry_group_IT_number 4
_symmetry_cell_setting 'monoclinic'
loop_
_space_group_symop_operation_xyz
x,y,z
-x,1/2+y,-z
loop_
_atom_site_type_symbol
_atom_site_label
_atom_site_fract_x
_atom_site_fract_y
_atom_site_fract_z
Si Si1 0.331399 0.049450 0.805320
Si Si2 0.823939 0.051574 0.484250
Si Si3 0.953487 0.321313 0.952448
Si Si4 0.428785 0.687373 0.355576
Si Si5 0.336215 0.045226 0.162812
Si Si6 0.079267 0.189072 0.324226
O O1 0.322797 0.093499 0.712023
O O2 0.575559 0.248285 0.813692
O O3 0.101259 0.173790 0.871409
O O4 0.431700 0.755333 0.828099
O O5 0.946687 0.759624 0.498333
O O6 0.570453 0.134133 0.551191
O O7 0.826958 0.101315 0.390652
O O8 0.727443 0.502308 0.924116
O O9 0.111476 0.560210 0.989437
O O10 0.195009 0.481980 0.340308
O O11 0.312404 0.983306 0.341307
O O12 0.086697 0.147586 0.230146
#
# Coordination Sequence:
#
# PCOD9115996 Si02
#       6
#     2   2   2   2   2   2
#     4  10  21  39  61  86 118 157 199 247 305 368
#     4   8  12  20  38  70 106 138 182 232 272 334
#     4  12  26  42  62  90 120 158 208 260 318 374
#     4   8  14  25  45  74 107 144 187 232 283 344
#     4  10  21  39  61  86 118 157 199 247 305 368
#     4   8  14  25  45  74 107 144 187 232 283 344
#
# _framework density 28.577121000000002
#
# number of rings (size 3 to 8) (size 9 to 14) (size 15 to 20)
#    0.000    2.667    0.000    2.000    0.000    2.667 
#    0.000    0.000    0.000    0.000    0.000   37.333 
#    0.000    0.000    0.000    0.000    0.000    4.667 
#
# Total GULP energy -67214.238964 kJ/mol
# GULP energy per Si atom -5601.186580 kJ/mol
# Density = 2.851208 g / cm^3
# Si number density = 28.577121 Si / 1000 Ang^3
#
#
#
# Elastic Constant Matrix: (Units=GPa)
#
#
# Indices 1 2 3 4 5 6 
#
# 1 94.8194 30.6305 52.9677 0.0000 -0.9000 0.0000
# 2 30.6305 153.6700 49.4335 0.0000 18.6787 0.0000
# 3 52.9677 49.4335 137.9627 0.0000 -15.7188 0.0000
# 4 0.0000 0.0000 0.0000 58.5614 0.0000 -11.2262
# 5 -0.9000 18.6787 -15.7188 0.0000 47.4447 0.0000
# 6 0.0000 0.0000 0.0000 -11.2262 0.0000 19.6423
#
#
#
# Elastic Compliance Matrix: (Units=1/GPa)
#
#
# Indices 1 2 3 4 5 6 
#
# 1 0.013650 -0.000990 -0.005001 0.000000 -0.001008 0.000000
# 2 -0.000990 0.008201 -0.003043 0.000000 -0.004256 0.000000
# 3 -0.005001 -0.003043 0.010792 0.000000 0.004679 0.000000
# 4 0.000000 0.000000 0.000000 0.019177 0.000000 0.010960
# 5 -0.001008 -0.004256 0.004679 0.000000 0.024284 0.000000
# 6 0.000000 0.000000 0.000000 0.010960 0.000000 0.057175
#
#
# Mechanical properties :
#
#
# Convention : Reuss Voigt Hill
#
# Bulk Modulus (GPa) = 68.61029 72.50175 70.55602
# Shear Modulus (GPa) = 32.00925 42.02438 37.01681
#
# Velocity S-wave (km/s) = 3.35042 3.83895 3.60297
# Velocity P-wave (km/s) = 6.24724 6.71384 6.48474
#
# Compressibility (1/GPa) = 0.01457507
#
# Stress axis : x y z
#
# Youngs Moduli (GPa) = 73.25964 121.93591 92.66168
#
# Poissons Ratio (x) = 0.12066 0.46340
# Poissons Ratio (y) = 0.07249 0.28202
# Poissons Ratio (z) = 0.36637 0.37111
#
# Static dielectric constant tensor:
#      x y z
#    x 2.138790 0.000000 -0.035770 
#    y 0.000000 2.107220 0.000000 
#    z -0.035770 0.000000 2.426680 
# 
# From -- ./inp_files/3836.got.cif
#   From: 2010.05.17/outbox.cif.g08.bks.cpg/sg4_2_cif.got.tgz:3836.got - 2010.06.03 18:43:04.
