data_PCOD9115066
_publ_section_title
;
Structure prediction by ZEFSAII (Michael W. Deem and Ramdas Pophale) SiO2 
 PCOD9115066
Probable space group: P 21
;
_chemical_formula_sum "Si O2"
_cell_formula_units_Z 16
_cell_length_a 6.387680
_cell_length_b 16.738699
_cell_length_c 9.636878
_cell_angle_alpha 90.000000
_cell_angle_beta 132.544390
_cell_angle_gamma 90.000000
_cell_volume 759.142907
_symmetry_space_group_name_H-M "P 21"
_symmetry_group_IT_number 4
_symmetry_cell_setting 'monoclinic'
loop_
_space_group_symop_operation_xyz
x,y,z
-x,1/2+y,-z
loop_
_atom_site_type_symbol
_atom_site_label
_atom_site_fract_x
_atom_site_fract_y
_atom_site_fract_z
Si Si1 0.679399 0.493710 0.982906
Si Si2 0.668787 0.850346 0.448433
Si Si3 0.078275 0.541973 0.684238
Si Si4 0.461619 0.166206 0.105463
Si Si5 0.546398 0.286212 0.387154
Si Si6 0.931431 0.426484 0.844719
Si Si7 0.247668 0.943390 0.674919
Si Si8 0.816900 0.786741 0.221990
O O1 0.643327 0.474620 0.128771
O O2 0.361773 0.489207 0.775326
O O3 0.738098 0.587726 0.987962
O O4 0.900969 0.440825 0.995570
O O5 0.657848 0.789718 0.572049
O O6 0.382281 0.899848 0.342197
O O7 0.660060 0.812028 0.292308
O O8 0.954527 0.900054 0.583218
O O9 0.218056 0.629189 0.752998
O O10 0.989818 0.509916 0.794686
O O11 0.838212 0.515604 0.467636
O O12 0.443458 0.221189 0.231725
O O13 0.365803 0.219530 0.934151
O O14 0.577286 0.373404 0.325064
O O15 0.863930 0.264660 0.584839
O O16 0.130931 0.358584 0.866263
#
# Coordination Sequence:
#
# PCOD9115066 Si02
#       8
#     2   2   2   2   2   2   2   2
#     4  10  25  39  64  94 130 167 209 262 321 379
#     4  10  19  40  68  94 117 160 220 261 304 373
#     4  10  22  44  60  89 134 162 208 269 312 371
#     4  10  25  42  60  92 138 162 208 267 330 370
#     4  10  23  40  66  92 124 166 212 262 316 383
#     4  11  19  43  67  88 127 168 212 263 305 376
#     4  11  21  40  69  92 122 169 217 259 309 380
#     4  10  22  42  64  93 128 164 214 269 309 378
#
# _framework density 21.076401000000001
#
# number of rings (size 3 to 8) (size 9 to 14) (size 15 to 20)
#    0.750    1.000    5.000    0.000    7.000    0.000 
#    9.000    0.000    0.000    0.000    0.000    0.000 
#    0.000    0.000    0.000    0.000    0.000    0.000 
#
# Total GULP energy -89142.788599 kJ/mol
# GULP energy per Si atom -5571.424287 kJ/mol
# Density = 2.102843 g / cm^3
# Si number density = 21.076401 Si / 1000 Ang^3
#
#
#
# Elastic Constant Matrix: (Units=GPa)
#
#
# Indices 1 2 3 4 5 6 
#
# 1 74.7735 19.0520 17.0193 0.0000 -17.9225 0.0000
# 2 19.0520 72.1472 42.8773 0.0000 -8.4116 0.0000
# 3 17.0193 42.8773 107.7046 0.0000 -22.7952 0.0000
# 4 0.0000 0.0000 0.0000 41.1656 0.0000 -1.9993
# 5 -17.9225 -8.4116 -22.7952 0.0000 25.5026 0.0000
# 6 0.0000 0.0000 0.0000 -1.9993 0.0000 12.0587
#
#
#
# Elastic Compliance Matrix: (Units=1/GPa)
#
#
# Indices 1 2 3 4 5 6 
#
# 1 0.016886 -0.003906 0.001388 0.000000 0.011820 0.000000
# 2 -0.003906 0.019067 -0.007675 0.000000 -0.003317 0.000000
# 3 0.001388 -0.007675 0.014543 0.000000 0.011443 0.000000
# 4 0.000000 0.000000 0.000000 0.024489 0.000000 0.004060
# 5 0.011820 -0.003317 0.011443 0.000000 0.056652 0.000000
# 6 0.000000 0.000000 0.000000 0.004060 0.000000 0.083601
#
#
# Mechanical properties :
#
#
# Convention : Reuss Voigt Hill
#
# Bulk Modulus (GPa) = 33.21233 45.83583 39.52408
# Shear Modulus (GPa) = 20.35328 27.45715 23.90521
#
# Velocity S-wave (km/s) = 3.11093 3.61327 3.37147
# Velocity P-wave (km/s) = 5.35687 6.26117 5.82659
#
# Compressibility (1/GPa) = 0.03010930
#
# Stress axis : x y z
#
# Youngs Moduli (GPa) = 59.22043 52.44724 68.76341
#
# Poissons Ratio (x) = 0.20487 -0.09547
# Poissons Ratio (y) = 0.23133 0.52777
# Poissons Ratio (z) = -0.08222 0.40254
#
# Static dielectric constant tensor:
#      x y z
#    x 1.768150 0.000000 0.006110 
#    y 0.000000 1.816660 0.000000 
#    z 0.006110 0.000000 1.814180 
# 
# From -- ./inp_files/4971.got.cif
#   From: 2010.05.17/outbox.cif.g08.bks.cpg/sg4_3_cif.got.tgz:4971.got - 2010.06.03 18:43:04.
