data_PCOD9115793
_publ_section_title
;
Structure prediction by ZEFSAII (Michael W. Deem and Ramdas Pophale) SiO2 
 PCOD9115793
Probable space group: P 21
;
_chemical_formula_sum "Si O2"
_cell_formula_units_Z 16
_cell_length_a 23.753491
_cell_length_b 5.453862
_cell_length_c 12.494533
_cell_angle_alpha 90.000000
_cell_angle_beta 27.674317
_cell_angle_gamma 90.000000
_cell_volume 751.771785
_symmetry_space_group_name_H-M "P 21"
_symmetry_group_IT_number 4
_symmetry_cell_setting 'monoclinic'
loop_
_space_group_symop_operation_xyz
x,y,z
-x,1/2+y,-z
loop_
_atom_site_type_symbol
_atom_site_label
_atom_site_fract_x
_atom_site_fract_y
_atom_site_fract_z
Si Si1 0.146197 0.377800 0.433507
Si Si2 0.129336 0.774127 0.103854
Si Si3 0.453587 0.879530 0.219720
Si Si4 0.344968 0.139739 0.230143
Si Si5 0.796634 0.770697 0.897865
Si Si6 0.664828 0.249848 0.940670
Si Si7 0.635044 0.263320 0.414358
Si Si8 0.434585 0.578904 0.694334
O O1 0.232978 0.310810 0.386989
O O2 0.163894 0.232366 0.291625
O O3 0.008223 0.332542 0.695416
O O4 0.201047 0.638193 0.301615
O O5 0.142841 0.517880 0.149201
O O6 0.171290 0.022852 0.094242
O O7 0.223065 0.751219 0.847380
O O8 0.406244 0.708966 0.395546
O O9 0.343329 0.023124 0.349987
O O10 0.562335 0.047374 0.082406
O O11 0.521571 0.755038 0.005977
O O12 0.345498 0.960820 0.127152
O O13 0.655535 0.849907 0.131410
O O14 0.628054 0.287084 0.126198
O O15 0.571788 0.528130 0.498584
O O16 0.577604 0.118517 0.411129
#
# Coordination Sequence:
#
# PCOD9115793 Si02
#       8
#     2   2   2   2   2   2   2   2
#     4  10  23  35  61  89 119 166 212 256 307 364
#     4  11  23  40  60  91 134 168 209 243 317 379
#     4  10  21  39  58  93 113 160 205 260 323 361
#     4  11  21  37  65  82 123 153 212 268 306 366
#     4  10  22  38  61  92 128 170 203 262 307 373
#     4   9  20  36  58  88 116 153 203 257 313 365
#     4  10  21  35  59  89 131 158 205 248 318 388
#     4   9  19  34  56  94 124 162 197 250 319 378
#
# _framework density 21.283052999999999
#
# number of rings (size 3 to 8) (size 9 to 14) (size 15 to 20)
#    0.000    2.000    1.250    2.250    8.750    0.000 
#    2.250    0.000    2.750    0.000    0.000    0.000 
#    0.000    0.000    0.000    0.000    0.000    0.000 
#
# Total GULP energy -89117.430989 kJ/mol
# GULP energy per Si atom -5569.839437 kJ/mol
# Density = 2.123461 g / cm^3
# Si number density = 21.283053 Si / 1000 Ang^3
#
#
#
# Elastic Constant Matrix: (Units=GPa)
#
#
# Indices 1 2 3 4 5 6 
#
# 1 82.8124 13.1566 33.2296 0.0000 -4.0407 0.0000
# 2 13.1566 57.0942 -6.0223 0.0000 -3.5280 0.0000
# 3 33.2296 -6.0223 121.2357 0.0000 -17.3102 0.0000
# 4 0.0000 0.0000 0.0000 13.1363 0.0000 0.9577
# 5 -4.0407 -3.5280 -17.3102 0.0000 21.0214 0.0000
# 6 0.0000 0.0000 0.0000 0.9577 0.0000 39.3579
#
#
#
# Elastic Compliance Matrix: (Units=1/GPa)
#
#
# Indices 1 2 3 4 5 6 
#
# 1 0.014356 -0.003855 -0.004334 0.000000 -0.001457 0.000000
# 2 -0.003855 0.018970 0.002661 0.000000 0.004634 0.000000
# 3 -0.004334 0.002661 0.010781 0.000000 0.008491 0.000000
# 4 0.000000 0.000000 0.000000 0.076260 0.000000 -0.001856
# 5 -0.001457 0.004634 0.008491 0.000000 0.055060 0.000000
# 6 0.000000 0.000000 0.000000 -0.001856 0.000000 0.025453
#
#
# Mechanical properties :
#
#
# Convention : Reuss Voigt Hill
#
# Bulk Modulus (GPa) = 30.25792 37.98556 34.12174
# Shear Modulus (GPa) = 22.42596 29.42166 25.92381
#
# Velocity S-wave (km/s) = 3.24960 3.72210 3.49384
# Velocity P-wave (km/s) = 5.32237 6.02980 5.68710
#
# Compressibility (1/GPa) = 0.03304920
#
# Stress axis : x y z
#
# Youngs Moduli (GPa) = 69.65655 52.71391 92.75625
#
# Poissons Ratio (x) = 0.20323 0.40204
# Poissons Ratio (y) = 0.26855 -0.24679
# Poissons Ratio (z) = 0.30192 -0.14025
#
# Static dielectric constant tensor:
#      x y z
#    x 1.806710 0.000000 0.005250 
#    y 0.000000 1.928950 0.000000 
#    z 0.005250 0.000000 1.806590 
# 
# From -- ./inp_files/11681.got.cif
#   From: 2010.05.17/outbox.cif.g08.bks.cpg/sg4_6_cif.got.tgz:11681.got - 2010.06.03 18:43:04.
