data_PCOD9116535
_publ_section_title
;
Structure prediction by ZEFSAII (Michael W. Deem and Ramdas Pophale) SiO2 
 PCOD9116535
Probable space group: P 21
;
_chemical_formula_sum "Si O2"
_cell_formula_units_Z 14
_cell_length_a 10.794551
_cell_length_b 9.674015
_cell_length_c 7.267556
_cell_angle_alpha 90.000000
_cell_angle_beta 41.668624
_cell_angle_gamma 90.000000
_cell_volume 504.550576
_symmetry_space_group_name_H-M "P 21"
_symmetry_group_IT_number 4
_symmetry_cell_setting 'monoclinic'
loop_
_space_group_symop_operation_xyz
x,y,z
-x,1/2+y,-z
loop_
_atom_site_type_symbol
_atom_site_label
_atom_site_fract_x
_atom_site_fract_y
_atom_site_fract_z
Si Si1 0.098508 0.290540 0.773609
Si Si2 0.950592 0.637701 0.505073
Si Si3 0.865608 0.153981 0.330559
Si Si4 0.266995 0.768539 0.942056
Si Si5 0.602557 0.656031 0.361359
Si Si6 0.312513 0.948836 0.401266
Si Si7 0.470939 0.491682 0.180896
O O1 0.166378 0.242746 0.496143
O O2 0.268305 0.288430 0.728811
O O3 0.975218 0.166275 0.016503
O O4 0.904534 0.368311 0.939585
O O5 0.861440 0.496956 0.534018
O O6 0.974961 0.659048 0.690897
O O7 0.158102 0.666353 0.198608
O O8 0.739399 0.290191 0.507759
O O9 0.740092 0.018312 0.513261
O O10 0.391712 0.688675 0.656894
O O11 0.423071 0.854827 0.873471
O O12 0.662813 0.533957 0.436809
O O13 0.585287 0.607651 0.170449
O O14 0.490685 0.988313 0.078240
#
# Coordination Sequence:
#
# PCOD9116535 Si02
#       7
#     2   2   2   2   2   2   2
#     4   9  21  43  66  93 134 173 227 282 331 417
#     4   9  21  44  62  96 140 174 229 286 333 414
#     4  12  22  44  69 102 136 182 234 281 362 411
#     4  10  21  47  61 103 139 173 233 283 340 409
#     4  11  23  44  70 100 135 186 232 279 359 407
#     4  11  24  42  72  97 139 184 231 292 342 417
#     4  12  24  42  72 101 145 180 228 301 339 423
#
# _framework density 27.747467
#
# number of rings (size 3 to 8) (size 9 to 14) (size 15 to 20)
#    0.857    0.571    2.857    2.571    0.000    0.000 
#   18.000    2.857    0.000    0.000    0.000    0.000 
#    0.000    0.000    0.000    0.000    0.000    0.000 
#
# Total GULP energy -78043.247922 kJ/mol
# GULP energy per Si atom -5574.517709 kJ/mol
# Density = 2.768431 g / cm^3
# Si number density = 27.747467 Si / 1000 Ang^3
#
#
#
# Elastic Constant Matrix: (Units=GPa)
#
#
# Indices 1 2 3 4 5 6 
#
# 1 82.3814 -15.0623 -33.0707 0.0000 14.5185 0.0000
# 2 -15.0623 39.1915 -44.1853 0.0000 19.9104 0.0000
# 3 -33.0707 -44.1853 50.5313 0.0000 -12.3481 0.0000
# 4 0.0000 0.0000 0.0000 25.7050 0.0000 -6.2098
# 5 14.5185 19.9104 -12.3481 0.0000 65.3522 0.0000
# 6 0.0000 0.0000 0.0000 -6.2098 0.0000 41.8957
#
#
#
# Elastic Compliance Matrix: (Units=1/GPa)
#
#
# Indices 1 2 3 4 5 6 
#
# 1 0.000376 -0.021758 -0.018011 0.000000 0.003142 0.000000
# 2 -0.021758 -0.029097 -0.038094 0.000000 0.006501 0.000000
# 3 -0.018011 -0.038094 -0.022535 0.000000 0.011349 0.000000
# 4 0.000000 0.000000 0.000000 0.040348 0.000000 0.005980
# 5 0.003142 0.006501 0.011349 0.000000 0.014768 0.000000
# 6 0.000000 0.000000 0.000000 0.005980 0.000000 0.024755
#
#
# Mechanical properties :
#
#
# Convention : Reuss Voigt Hill
#
# Bulk Modulus (GPa) = -4.83132 -1.39251 -3.11191
# Shear Modulus (GPa) = 43.34713 44.21874 43.78293
#
# Velocity S-wave (km/s) = 3.95676 3.99634 3.97660
# Velocity P-wave (km/s) = 4.37374 4.55976 4.46772
#
# Compressibility (1/GPa) = -0.20698273
#
# Stress axis : x y z
#
# Youngs Moduli (GPa) = 2656.93073 -34.36758 -44.37595
#
# Poissons Ratio (x) = -0.74777 -0.79927
# Poissons Ratio (y) = 57.80954 -1.69047
# Poissons Ratio (z) = 47.85502 -1.30921
#
# Static dielectric constant tensor:
#      x y z
#    x 2.305650 0.000000 -0.042720 
#    y 0.000000 2.373770 0.000000 
#    z -0.042720 0.000000 2.200370 
# 
# From -- ./inp_files/8283.got.cif
#   From: 2010.05.17/outbox.cif.g08.bks.cpg/sg4_5_cif.got.tgz:8283.got - 2010.06.03 18:43:04.
