data_PCOD9116287
_publ_section_title
;
Structure prediction by ZEFSAII (Michael W. Deem and Ramdas Pophale) SiO2 
 PCOD9116287
Probable space group: P 21
;
_chemical_formula_sum "Si O2"
_cell_formula_units_Z 16
_cell_length_a 17.409978
_cell_length_b 9.860374
_cell_length_c 5.500115
_cell_angle_alpha 90.000000
_cell_angle_beta 40.984691
_cell_angle_gamma 90.000000
_cell_volume 619.259635
_symmetry_space_group_name_H-M "P 21"
_symmetry_group_IT_number 4
_symmetry_cell_setting 'monoclinic'
loop_
_space_group_symop_operation_xyz
x,y,z
-x,1/2+y,-z
loop_
_atom_site_type_symbol
_atom_site_label
_atom_site_fract_x
_atom_site_fract_y
_atom_site_fract_z
Si Si1 0.088657 0.656810 0.878339
Si Si2 0.473782 0.501691 0.622656
Si Si3 0.503685 0.451741 0.053328
Si Si4 0.332707 0.750576 0.100378
Si Si5 0.944221 0.452336 0.959854
Si Si6 0.775944 0.917121 0.257606
Si Si7 0.796746 0.484701 0.817080
Si Si8 0.725473 0.786301 0.883431
O O1 0.216781 0.716899 0.522048
O O2 0.125474 0.532479 0.963058
O O3 0.020088 0.791339 0.128744
O O4 0.035665 0.577198 0.772347
O O5 0.533651 0.530876 0.224940
O O6 0.545153 0.510182 0.701110
O O7 0.374038 0.613571 0.881171
O O8 0.406320 0.354912 0.791663
O O9 0.362395 0.457455 0.392107
O O10 0.566784 0.309769 0.962482
O O11 0.294535 0.860687 0.992241
O O12 0.878342 0.468713 0.380173
O O13 0.865340 0.475245 0.908492
O O14 0.779943 0.822850 0.489675
O O15 0.787855 0.855056 0.964613
O O16 0.739838 0.630530 0.913979
#
# Coordination Sequence:
#
# PCOD9116287 Si02
#       8
#     2   2   2   2   2   2   2   2
#     4  11  26  51  76 110 146 198 251 314 375 440
#     4  10  23  43  68 103 140 199 242 294 362 442
#     4  10  23  40  67 107 138 187 240 292 358 443
#     4  11  25  47  77 108 153 198 250 310 371 445
#     4  11  29  46  75 107 145 193 254 312 376 442
#     4  10  22  42  73 102 140 195 241 298 369 443
#     4  11  27  46  69 114 146 190 250 319 366 447
#     4  10  21  41  71  99 148 192 236 303 371 434
#
# _framework density 25.837308
#
# number of rings (size 3 to 8) (size 9 to 14) (size 15 to 20)
#    0.000    1.500    2.500    0.750    7.000   10.000 
#    0.000    0.000    0.000    0.000    0.000    0.000 
#    0.000    0.000    0.000    0.000    0.000    0.000 
#
# Total GULP energy -89369.778945 kJ/mol
# GULP energy per Si atom -5585.611184 kJ/mol
# Density = 2.577850 g / cm^3
# Si number density = 25.837308 Si / 1000 Ang^3
#
#
#
# Elastic Constant Matrix: (Units=GPa)
#
#
# Indices 1 2 3 4 5 6 
#
# 1 192.9322 67.6845 44.2522 0.0000 26.6274 0.0000
# 2 67.6845 129.3688 1.0559 0.0000 -1.7653 0.0000
# 3 44.2522 1.0559 84.4161 0.0000 30.5185 0.0000
# 4 0.0000 0.0000 0.0000 11.5014 0.0000 -1.6183
# 5 26.6274 -1.7653 30.5185 0.0000 47.0470 0.0000
# 6 0.0000 0.0000 0.0000 -1.6183 0.0000 46.1303
#
#
#
# Elastic Compliance Matrix: (Units=1/GPa)
#
#
# Indices 1 2 3 4 5 6 
#
# 1 0.007630 -0.004001 -0.003049 0.000000 -0.002490 0.000000
# 2 -0.004001 0.009836 0.001335 0.000000 0.001767 0.000000
# 3 -0.003049 0.001335 0.016703 0.000000 -0.009059 0.000000
# 4 0.000000 0.000000 0.000000 0.087377 0.000000 0.003065
# 5 -0.002490 0.001767 -0.009059 0.000000 0.028608 0.000000
# 6 0.000000 0.000000 0.000000 0.003065 0.000000 0.021785
#
#
# Mechanical properties :
#
#
# Convention : Reuss Voigt Hill
#
# Bulk Modulus (GPa) = 43.97656 70.30025 57.13840
# Shear Modulus (GPa) = 26.18500 40.51737 33.35119
#
# Velocity S-wave (km/s) = 3.18694 3.96431 3.59669
# Velocity P-wave (km/s) = 5.53169 6.94422 6.27781
#
# Compressibility (1/GPa) = 0.02273939
#
# Stress axis : x y z
#
# Youngs Moduli (GPa) = 131.06283 101.66379 59.86987
#
# Poissons Ratio (x) = 0.40676 0.18256
# Poissons Ratio (y) = 0.52438 -0.07995
# Poissons Ratio (z) = 0.39965 -0.13577
#
# Static dielectric constant tensor:
#      x y z
#    x 2.102310 0.000000 -0.072560 
#    y 0.000000 2.121570 0.000000 
#    z -0.072560 0.000000 2.138360 
# 
# From -- ./inp_files/4095.got.cif
#   From: 2010.05.17/outbox.cif.g08.bks.cpg/sg4_3_cif.got.tgz:4095.got - 2010.06.03 18:43:04.
