data_PCOD9116976
_publ_section_title
;
Structure prediction by ZEFSAII (Michael W. Deem and Ramdas Pophale) SiO2 
 PCOD9116976
Probable space group: P 21
;
_chemical_formula_sum "Si O2"
_cell_formula_units_Z 16
_cell_length_a 11.427623
_cell_length_b 10.689643
_cell_length_c 5.455861
_cell_angle_alpha 90.000000
_cell_angle_beta 100.729293
_cell_angle_gamma 90.000000
_cell_volume 654.821312
_symmetry_space_group_name_H-M "P 21"
_symmetry_group_IT_number 4
_symmetry_cell_setting 'monoclinic'
loop_
_space_group_symop_operation_xyz
x,y,z
-x,1/2+y,-z
loop_
_atom_site_type_symbol
_atom_site_label
_atom_site_fract_x
_atom_site_fract_y
_atom_site_fract_z
Si Si1 0.012479 0.988930 0.064215
Si Si2 0.245623 0.881337 0.043547
Si Si3 0.182157 0.116395 0.477487
Si Si4 0.193704 0.278955 0.974474
Si Si5 0.174475 0.644028 0.267186
Si Si6 0.602788 0.429298 0.497251
Si Si7 0.618570 0.988908 0.919888
Si Si8 0.660062 0.182185 0.297846
O O1 0.917425 0.876429 0.044732
O O2 0.128798 0.958677 0.945388
O O3 0.064866 0.039589 0.342336
O O4 0.946022 0.098405 0.892944
O O5 0.189176 0.791328 0.233495
O O6 0.360489 0.946022 0.204488
O O7 0.293957 0.788743 0.864314
O O8 0.175719 0.203000 0.714241
O O9 0.288238 0.015254 0.565319
O O10 0.203705 0.200683 0.235420
O O11 0.316656 0.358675 0.994141
O O12 0.277238 0.571470 0.160947
O O13 0.217512 0.619075 0.557948
O O14 0.485335 0.475310 0.317553
O O15 0.596170 0.275934 0.463892
O O16 0.585823 0.074193 0.141076
#
# Coordination Sequence:
#
# PCOD9116976 Si02
#       8
#     2   2   2   2   2   2   2   2
#     4  10  22  46  66 100 142 190 234 296 364 428
#     4   9  20  42  61  95 133 177 234 285 352 431
#     4  11  27  48  71 109 150 191 245 305 367 437
#     4  11  27  48  71 109 150 191 245 305 367 437
#     4   9  20  42  61  95 133 177 234 285 352 431
#     4  10  24  43  71 102 142 190 236 304 368 437
#     4  10  24  43  71 102 142 190 236 304 368 437
#     4  10  22  42  68 100 136 184 244 296 362 440
#
# _framework density 24.434146999999999
#
# number of rings (size 3 to 8) (size 9 to 14) (size 15 to 20)
#    0.000    2.000    0.000    0.750    8.750    5.000 
#   31.500    0.000    0.000    0.000    0.000    0.000 
#    0.000    0.000    0.000    0.000    0.000    0.000 
#
# Total GULP energy -89227.884762 kJ/mol
# GULP energy per Si atom -5576.742798 kJ/mol
# Density = 2.437853 g / cm^3
# Si number density = 24.434147 Si / 1000 Ang^3
#
#
#
# Elastic Constant Matrix: (Units=GPa)
#
#
# Indices 1 2 3 4 5 6 
#
# 1 86.6887 41.9409 47.0013 0.0000 41.6820 0.0000
# 2 41.9409 119.6109 43.6350 0.0000 12.2046 0.0000
# 3 47.0013 43.6350 104.7979 0.0000 23.1213 0.0000
# 4 0.0000 0.0000 0.0000 54.8979 0.0000 14.6036
# 5 41.6820 12.2046 23.1213 0.0000 46.9100 0.0000
# 6 0.0000 0.0000 0.0000 14.6036 0.0000 21.5612
#
#
#
# Elastic Compliance Matrix: (Units=1/GPa)
#
#
# Indices 1 2 3 4 5 6 
#
# 1 0.026293 -0.005306 -0.005310 0.000000 -0.019365 0.000000
# 2 -0.005306 0.010944 -0.002905 0.000000 0.003299 0.000000
# 3 -0.005310 -0.002905 0.013381 0.000000 -0.001121 0.000000
# 4 0.000000 0.000000 0.000000 0.022219 0.000000 -0.015049
# 5 -0.019365 0.003299 -0.001121 0.000000 0.038218 0.000000
# 6 0.000000 0.000000 0.000000 -0.015049 0.000000 0.056572
#
#
# Mechanical properties :
#
#
# Convention : Reuss Voigt Hill
#
# Bulk Modulus (GPa) = 42.41881 64.02797 53.22339
# Shear Modulus (GPa) = 24.68785 36.57519 30.63152
#
# Velocity S-wave (km/s) = 3.18210 3.87316 3.54451
# Velocity P-wave (km/s) = 5.55870 6.80169 6.21137
#
# Compressibility (1/GPa) = 0.02357445
#
# Stress axis : x y z
#
# Youngs Moduli (GPa) = 38.03290 91.37297 74.73451
#
# Poissons Ratio (x) = 0.48485 0.39688
# Poissons Ratio (y) = 0.20181 0.21710
# Poissons Ratio (z) = 0.20197 0.26543
#
# Static dielectric constant tensor:
#      x y z
#    x 2.030190 0.000000 -0.090330 
#    y 0.000000 2.012210 0.000000 
#    z -0.090330 0.000000 2.094170 
# 
# From -- ./inp_files/2774.got.cif
#   From: 2010.05.17/outbox.cif.g08.bks.cpg/sg4_2_cif.got.tgz:2774.got - 2010.06.03 18:43:04.
