data_PCOD9116704
_publ_section_title
;
Structure prediction by ZEFSAII (Michael W. Deem and Ramdas Pophale) SiO2 
 PCOD9116704
Probable space group: P 21
;
_chemical_formula_sum "Si O2"
_cell_formula_units_Z 12
_cell_length_a 17.265512
_cell_length_b 4.815791
_cell_length_c 5.556736
_cell_angle_alpha 90.000000
_cell_angle_beta 67.621353
_cell_angle_gamma 90.000000
_cell_volume 427.230325
_symmetry_space_group_name_H-M "P 21"
_symmetry_group_IT_number 4
_symmetry_cell_setting 'monoclinic'
loop_
_space_group_symop_operation_xyz
x,y,z
-x,1/2+y,-z
loop_
_atom_site_type_symbol
_atom_site_label
_atom_site_fract_x
_atom_site_fract_y
_atom_site_fract_z
Si Si1 0.856950 0.405850 0.507019
Si Si2 0.653222 0.021675 0.239036
Si Si3 0.813576 0.397180 0.046743
Si Si4 0.448674 0.812683 0.981182
Si Si5 0.703596 0.003561 0.681943
Si Si6 0.978139 0.062287 0.872674
O O1 0.830096 0.557425 0.781123
O O2 0.797641 0.129384 0.565853
O O3 0.958096 0.410230 0.384997
O O4 0.833399 0.537043 0.276853
O O5 0.668393 0.873984 0.475481
O O6 0.723768 0.261260 0.165231
O O7 0.568034 0.178470 0.263523
O O8 0.679445 0.858838 0.964041
O O9 0.883441 0.150213 0.933849
O O10 0.359088 0.771009 0.215970
O O11 0.512234 0.612145 0.048172
O O12 0.017707 0.355839 0.905423
#
# Coordination Sequence:
#
# PCOD9116704 Si02
#       6
#     2   2   2   2   2   2
#     4   9  18  36  61  85 123 159 204 248 302 356
#     4   8  17  36  61  87 122 158 199 247 305 362
#     4   9  18  36  61  85 123 159 204 248 302 356
#     4  10  22  40  64  92 122 158 202 254 308 370
#     4   8  17  36  61  87 122 158 199 247 305 362
#     4  10  22  40  62  92 124 164 212 256 300 358
#
# _framework density 28.087896000000001
#
# number of rings (size 3 to 8) (size 9 to 14) (size 15 to 20)
#    1.000    2.000    0.000    0.000    0.000    6.667 
#    0.000   10.000    3.667    0.000    0.000    0.000 
#    0.000    0.000    0.000    0.000    0.000    0.000 
#
# Total GULP energy -66928.071023 kJ/mol
# GULP energy per Si atom -5577.339252 kJ/mol
# Density = 2.802397 g / cm^3
# Si number density = 28.087896 Si / 1000 Ang^3
#
#
#
# Elastic Constant Matrix: (Units=GPa)
#
#
# Indices 1 2 3 4 5 6 
#
# 1 130.6602 40.9013 6.0924 0.0000 14.4929 0.0000
# 2 40.9013 99.4945 13.1135 0.0000 -0.5037 0.0000
# 3 6.0924 13.1135 185.2234 0.0000 46.6922 0.0000
# 4 0.0000 0.0000 0.0000 1.9466 0.0000 -8.9747
# 5 14.4929 -0.5037 46.6922 0.0000 53.6736 0.0000
# 6 0.0000 0.0000 0.0000 -8.9747 0.0000 48.3923
#
#
#
# Elastic Compliance Matrix: (Units=1/GPa)
#
#
# Indices 1 2 3 4 5 6 
#
# 1 0.009192 -0.003898 0.000779 0.000000 -0.003197 0.000000
# 2 -0.003898 0.011834 -0.001285 0.000000 0.002281 0.000000
# 3 0.000779 -0.001285 0.007071 0.000000 -0.006374 0.000000
# 4 0.000000 0.000000 0.000000 3.543847 0.000000 0.657233
# 5 -0.003197 0.002281 -0.006374 0.000000 0.025060 0.000000
# 6 0.000000 0.000000 0.000000 0.657233 0.000000 0.142553
#
#
# Mechanical properties :
#
#
# Convention : Reuss Voigt Hill
#
# Bulk Modulus (GPa) = 51.83757 59.51028 55.67393
# Shear Modulus (GPa) = 1.33163 44.48723 22.90943
#
# Velocity S-wave (km/s) = 0.68929 3.98409 2.85903
# Velocity P-wave (km/s) = 4.37368 6.51131 5.54645
#
# Compressibility (1/GPa) = 0.01929103
#
# Stress axis : x y z
#
# Youngs Moduli (GPa) = 108.79347 84.50294 141.42430
#
# Poissons Ratio (x) = 0.32935 -0.11023
# Poissons Ratio (y) = 0.42403 0.18168
# Poissons Ratio (z) = -0.08479 0.10855
#
# Static dielectric constant tensor:
#      x y z
#    x 2.235510 0.000000 0.060410 
#    y 0.000000 2.050180 0.000000 
#    z 0.060410 0.000000 2.371920 
# 
# From -- ./inp_files/3871.got.cif
#   From: 2010.05.17/outbox.cif.g08.bks.cpg/sg4_2_cif.got.tgz:3871.got - 2010.06.03 18:43:04.
