data_PCOD9116920
_publ_section_title
;
Structure prediction by ZEFSAII (Michael W. Deem and Ramdas Pophale) SiO2 
 PCOD9116920
Probable space group: P 21
;
_chemical_formula_sum "Si O2"
_cell_formula_units_Z 16
_cell_length_a 16.900035
_cell_length_b 7.270392
_cell_length_c 10.695801
_cell_angle_alpha 90.000000
_cell_angle_beta 34.960780
_cell_angle_gamma 90.000000
_cell_volume 753.052360
_symmetry_space_group_name_H-M "P 21"
_symmetry_group_IT_number 4
_symmetry_cell_setting 'monoclinic'
loop_
_space_group_symop_operation_xyz
x,y,z
-x,1/2+y,-z
loop_
_atom_site_type_symbol
_atom_site_label
_atom_site_fract_x
_atom_site_fract_y
_atom_site_fract_z
Si Si1 0.724354 0.880610 0.009236
Si Si2 0.058193 0.918417 0.026441
Si Si3 0.869084 0.229913 0.819790
Si Si4 0.857981 0.586252 0.660460
Si Si5 0.240351 0.513645 0.535518
Si Si6 0.831214 0.790129 0.143890
Si Si7 0.554315 0.333967 0.751110
Si Si8 0.622975 0.689346 0.791275
O O1 0.816176 0.767235 0.792099
O O2 0.740153 0.097059 0.963773
O O3 0.790070 0.844245 0.058875
O O4 0.568114 0.813023 0.191746
O O5 0.925532 0.013489 0.268041
O O6 0.985224 0.837895 0.997550
O O7 0.113028 0.773736 0.056193
O O8 0.170850 0.069695 0.846558
O O9 0.861288 0.417627 0.751927
O O10 0.001695 0.121108 0.595758
O O11 0.736059 0.568223 0.718573
O O12 0.259927 0.404395 0.640745
O O13 0.312192 0.710480 0.449030
O O14 0.306831 0.376582 0.348267
O O15 0.576212 0.550458 0.744251
O O16 0.492708 0.250462 0.960403
#
# Coordination Sequence:
#
# PCOD9116920 Si02
#       8
#     2   2   2   2   2   2   2   2
#     4  11  25  41  63  98 135 175 226 276 332 394
#     4  10  22  41  72  97 132 173 223 278 339 400
#     4  12  22  39  65 101 139 172 215 278 346 398
#     4  11  23  37  64 100 135 171 217 276 343 394
#     4  10  24  44  69  97 128 176 225 269 334 399
#     4  10  22  45  67  96 135 170 224 279 332 402
#     4  11  25  43  68  96 132 178 226 274 326 400
#     4  11  23  42  68  95 128 177 224 276 330 393
#
# _framework density 21.246863000000001
#
# number of rings (size 3 to 8) (size 9 to 14) (size 15 to 20)
#    0.750    0.500    5.000    0.750    1.750    3.000 
#    2.250    0.000    0.000    0.000    0.000    0.000 
#    0.000    0.000    0.000    0.000    0.000    0.000 
#
# Total GULP energy -89294.000230 kJ/mol
# GULP energy per Si atom -5580.875014 kJ/mol
# Density = 2.119850 g / cm^3
# Si number density = 21.246863 Si / 1000 Ang^3
#
#
#
# Elastic Constant Matrix: (Units=GPa)
#
#
# Indices 1 2 3 4 5 6 
#
# 1 77.2696 19.5483 1.5954 0.0000 14.0037 0.0000
# 2 19.5483 85.9164 -1.0095 0.0000 -4.8033 0.0000
# 3 1.5954 -1.0095 28.7233 0.0000 -1.2897 0.0000
# 4 0.0000 0.0000 0.0000 35.2386 0.0000 2.6415
# 5 14.0037 -4.8033 -1.2897 0.0000 23.7748 0.0000
# 6 0.0000 0.0000 0.0000 2.6415 0.0000 30.4411
#
#
#
# Elastic Compliance Matrix: (Units=1/GPa)
#
#
# Indices 1 2 3 4 5 6 
#
# 1 0.015905 -0.004212 -0.001494 0.000000 -0.010300 0.000000
# 2 -0.004212 0.012896 0.000918 0.000000 0.005136 0.000000
# 3 -0.001494 0.000918 0.035063 0.000000 0.002967 0.000000
# 4 0.000000 0.000000 0.000000 0.028564 0.000000 -0.002479
# 5 -0.010300 0.005136 0.002967 0.000000 0.049327 0.000000
# 6 0.000000 0.000000 0.000000 -0.002479 0.000000 0.033065
#
#
# Mechanical properties :
#
#
# Convention : Reuss Voigt Hill
#
# Bulk Modulus (GPa) = 18.42056 25.79752 22.10904
# Shear Modulus (GPa) = 24.69229 29.34259 27.01744
#
# Velocity S-wave (km/s) = 3.41275 3.72025 3.56981
# Velocity P-wave (km/s) = 4.92115 5.53370 5.23639
#
# Compressibility (1/GPa) = 0.05428717
#
# Stress axis : x y z
#
# Youngs Moduli (GPa) = 62.87365 77.54612 28.51979
#
# Poissons Ratio (x) = 0.32664 0.04261
# Poissons Ratio (y) = 0.26484 -0.02618
# Poissons Ratio (z) = 0.09393 -0.07117
#
# Static dielectric constant tensor:
#      x y z
#    x 1.765970 0.000000 0.012480 
#    y 0.000000 1.781040 0.000000 
#    z 0.012480 0.000000 1.775010 
# 
# From -- ./inp_files/12455.got.cif
#   From: 2010.05.17/outbox.cif.g08.bks.cpg/sg4_7_cif.got.tgz:12455.got - 2010.06.03 18:43:04.
