data_PCOD9116255
_publ_section_title
;
Structure prediction by ZEFSAII (Michael W. Deem and Ramdas Pophale) SiO2 
 PCOD9116255
Probable space group: P 21
;
_chemical_formula_sum "Si O2"
_cell_formula_units_Z 14
_cell_length_a 12.938159
_cell_length_b 9.751135
_cell_length_c 9.288440
_cell_angle_alpha 90.000000
_cell_angle_beta 36.285346
_cell_angle_gamma 90.000000
_cell_volume 693.506533
_symmetry_space_group_name_H-M "P 21"
_symmetry_group_IT_number 4
_symmetry_cell_setting 'monoclinic'
loop_
_space_group_symop_operation_xyz
x,y,z
-x,1/2+y,-z
loop_
_atom_site_type_symbol
_atom_site_label
_atom_site_fract_x
_atom_site_fract_y
_atom_site_fract_z
Si Si1 0.151757 0.279370 0.741795
Si Si2 0.555051 0.229130 0.675164
Si Si3 0.784411 0.608443 0.051398
Si Si4 0.850205 0.038838 0.453970
Si Si5 0.751984 0.295486 0.160591
Si Si6 0.584951 0.946926 0.950992
Si Si7 0.497292 0.229109 0.186844
O O1 0.190212 0.232195 0.862215
O O2 0.162656 0.437036 0.671338
O O3 0.308421 0.213210 0.474353
O O4 0.950286 0.238339 0.939438
O O5 0.393628 0.128104 0.833479
O O6 0.711996 0.159623 0.585963
O O7 0.640072 0.258359 0.425453
O O8 0.467657 0.358395 0.851496
O O9 0.769675 0.460417 0.143143
O O10 0.955387 0.596222 0.760587
O O11 0.785524 0.958907 0.669303
O O12 0.645618 0.243934 0.141383
O O13 0.499660 0.865695 0.913535
O O14 0.523150 0.098630 0.057012
#
# Coordination Sequence:
#
# PCOD9116255 Si02
#       7
#     2   2   2   2   2   2   2
#     4  10  21  41  67  97 134 169 218 284 332 383
#     4  12  23  41  71  96 129 180 221 273 339 401
#     4  11  22  41  66  99 133 173 219 280 339 386
#     4  10  23  44  62  96 140 168 224 278 324 411
#     4  11  24  40  69  99 132 173 225 283 326 399
#     4  11  24  45  70  95 137 182 221 271 349 397
#     4  11  23  46  67  98 137 177 224 281 333 403
#
# _framework density 20.187263999999999
#
# number of rings (size 3 to 8) (size 9 to 14) (size 15 to 20)
#    0.000    1.143    4.286    2.571    0.000    0.000 
#    7.714    1.429    0.000    0.000    0.000    0.000 
#    0.000    0.000    0.000    0.000    0.000    0.000 
#
# Total GULP energy -78067.666139 kJ/mol
# GULP energy per Si atom -5576.261867 kJ/mol
# Density = 2.014132 g / cm^3
# Si number density = 20.187264 Si / 1000 Ang^3
#
#
#
# Elastic Constant Matrix: (Units=GPa)
#
#
# Indices 1 2 3 4 5 6 
#
# 1 45.8598 4.0239 36.8068 0.0000 -3.8280 0.0000
# 2 4.0239 58.6397 34.6234 0.0000 1.9652 0.0000
# 3 36.8068 34.6234 134.8201 0.0000 -10.0670 0.0000
# 4 0.0000 0.0000 0.0000 36.6104 0.0000 5.9960
# 5 -3.8280 1.9652 -10.0670 0.0000 32.4029 0.0000
# 6 0.0000 0.0000 0.0000 5.9960 0.0000 23.3506
#
#
#
# Elastic Compliance Matrix: (Units=1/GPa)
#
#
# Indices 1 2 3 4 5 6 
#
# 1 0.028403 0.003051 -0.008498 0.000000 0.000530 0.000000
# 2 0.003051 0.020697 -0.006363 0.000000 -0.002872 0.000000
# 3 -0.008498 -0.006363 0.011594 0.000000 0.002984 0.000000
# 4 0.000000 0.000000 0.000000 0.028514 0.000000 -0.007322
# 5 0.000530 -0.002872 0.002984 0.000000 0.032025 0.000000
# 6 0.000000 0.000000 0.000000 -0.007322 0.000000 0.044706
#
#
# Mechanical properties :
#
#
# Convention : Reuss Voigt Hill
#
# Bulk Modulus (GPa) = 26.97299 43.35866 35.16582
# Shear Modulus (GPa) = 24.76282 29.39716 27.07999
#
# Velocity S-wave (km/s) = 3.50616 3.82019 3.66654
# Velocity P-wave (km/s) = 5.45723 6.40182 5.94830
#
# Compressibility (1/GPa) = 0.03707412
#
# Stress axis : x y z
#
# Youngs Moduli (GPa) = 35.20808 48.31649 86.25092
#
# Poissons Ratio (x) = -0.14740 0.73296
# Poissons Ratio (y) = -0.10741 0.54877
# Poissons Ratio (z) = 0.29920 0.30741
#
# Static dielectric constant tensor:
#      x y z
#    x 1.722390 0.000000 0.025960 
#    y 0.000000 1.753810 0.000000 
#    z 0.025960 0.000000 1.725890 
# 
# From -- ./inp_files/7485.got.cif
#   From: 2010.05.17/outbox.cif.g08.bks.cpg/sg4_4_cif.got.tgz:7485.got - 2010.06.03 18:43:04.
