data_PCOD9116217
_publ_section_title
;
Structure prediction by ZEFSAII (Michael W. Deem and Ramdas Pophale) SiO2 
 PCOD9116217
Probable space group: P 21
;
_chemical_formula_sum "Si O2"
_cell_formula_units_Z 16
_cell_length_a 12.609160
_cell_length_b 7.647493
_cell_length_c 17.396667
_cell_angle_alpha 90.000000
_cell_angle_beta 159.257853
_cell_angle_gamma 90.000000
_cell_volume 594.120196
_symmetry_space_group_name_H-M "P 21"
_symmetry_group_IT_number 4
_symmetry_cell_setting 'monoclinic'
loop_
_space_group_symop_operation_xyz
x,y,z
-x,1/2+y,-z
loop_
_atom_site_type_symbol
_atom_site_label
_atom_site_fract_x
_atom_site_fract_y
_atom_site_fract_z
Si Si1 0.758696 0.550390 0.529336
Si Si2 0.677948 0.550026 0.802533
Si Si3 0.281006 0.098909 0.334214
Si Si4 0.855529 0.704274 0.183192
Si Si5 0.802872 0.377981 0.034165
Si Si6 0.233461 0.435567 0.087629
Si Si7 0.814929 0.185329 0.287906
Si Si8 0.232232 0.267493 0.713462
O O1 0.539993 0.534840 0.308433
O O2 0.585872 0.597271 0.490904
O O3 0.909260 0.363424 0.650854
O O4 0.994265 0.695964 0.661472
O O5 0.461061 0.059725 0.377754
O O6 0.608530 0.426611 0.826183
O O7 0.016999 0.502027 0.008939
O O8 0.679159 0.738510 0.840388
O O9 0.103851 0.282100 0.210288
O O10 0.996538 0.964904 0.137177
O O11 0.880650 0.548147 0.138146
O O12 0.850800 0.646285 0.270120
O O13 0.512669 0.769375 0.937543
O O14 0.577474 0.245712 0.923873
O O15 0.998159 0.243627 0.486416
O O16 0.775005 0.973767 0.268418
#
# Coordination Sequence:
#
# PCOD9116217 Si02
#       8
#     2   2   2   2   2   2   2   2
#     4  11  23  41  66  96 126 177 213 266 331 388
#     4  10  21  44  65  94 133 169 210 273 325 380
#     4  10  21  41  64  94 131 169 212 269 320 383
#     4  10  24  42  62  94 134 167 221 274 324 390
#     4  11  21  41  69  93 128 178 215 263 339 383
#     4  10  22  43  65  93 133 169 219 266 325 387
#     4  10  23  40  62  92 129 166 219 270 330 383
#     4  10  23  40  63  94 126 169 219 271 324 396
#
# _framework density 26.930577
#
# number of rings (size 3 to 8) (size 9 to 14) (size 15 to 20)
#    0.750    1.000    1.250    2.250    0.000   11.000 
#    4.500    2.500    0.000    0.000    0.000    0.000 
#    0.000    0.000    0.000    0.000    0.000    0.000 
#
# Total GULP energy -89359.440783 kJ/mol
# GULP energy per Si atom -5584.965049 kJ/mol
# Density = 2.686928 g / cm^3
# Si number density = 26.930577 Si / 1000 Ang^3
#
#
#
# Elastic Constant Matrix: (Units=GPa)
#
#
# Indices 1 2 3 4 5 6 
#
# 1 91.9960 11.6987 20.2985 0.0000 -36.3658 0.0000
# 2 11.6987 66.6303 0.6999 0.0000 -7.0704 0.0000
# 3 20.2985 0.6999 105.2637 0.0000 -30.9755 0.0000
# 4 0.0000 0.0000 0.0000 95.9608 0.0000 -28.9489
# 5 -36.3658 -7.0704 -30.9755 0.0000 32.5629 0.0000
# 6 0.0000 0.0000 0.0000 -28.9489 0.0000 29.1210
#
#
#
# Elastic Compliance Matrix: (Units=1/GPa)
#
#
# Indices 1 2 3 4 5 6 
#
# 1 0.020586 -0.000849 0.003815 0.000000 0.026434 0.000000
# 2 -0.000849 0.015511 0.001073 0.000000 0.003440 0.000000
# 3 0.003815 0.001073 0.013998 0.000000 0.017808 0.000000
# 4 0.000000 0.000000 0.000000 0.014885 0.000000 0.014797
# 5 0.026434 0.003440 0.017808 0.000000 0.077918 0.000000
# 6 0.000000 0.000000 0.000000 0.014797 0.000000 0.049049
#
#
# Mechanical properties :
#
#
# Convention : Reuss Voigt Hill
#
# Bulk Modulus (GPa) = 17.19082 36.58713 26.88897
# Shear Modulus (GPa) = 24.59909 46.94180 35.77044
#
# Velocity S-wave (km/s) = 3.02557 4.17953 3.64847
# Velocity P-wave (km/s) = 4.31308 6.07508 5.26827
#
# Compressibility (1/GPa) = 0.05817060
#
# Stress axis : x y z
#
# Youngs Moduli (GPa) = 48.57755 64.47001 71.44088
#
# Poissons Ratio (x) = 0.05476 -0.27252
# Poissons Ratio (y) = 0.04126 -0.07665
# Poissons Ratio (z) = -0.18530 -0.06917
#
# Static dielectric constant tensor:
#      x y z
#    x 2.193310 0.000000 0.001200 
#    y 0.000000 2.108930 0.000000 
#    z 0.001200 0.000000 2.058800 
# 
# From -- ./inp_files/15266.got.cif
#   From: 2010.05.17/outbox.cif.g08.bks.cpg/sg4_8_cif.got.tgz:15266.got - 2010.06.03 18:43:04.
