data_PCOD9116273
_publ_section_title
;
Structure prediction by ZEFSAII (Michael W. Deem and Ramdas Pophale) SiO2 
 PCOD9116273
Probable space group: P 21
;
_chemical_formula_sum "Si O2"
_cell_formula_units_Z 16
_cell_length_a 15.728438
_cell_length_b 10.251146
_cell_length_c 11.930418
_cell_angle_alpha 90.000000
_cell_angle_beta 153.655211
_cell_angle_gamma 90.000000
_cell_volume 853.637384
_symmetry_space_group_name_H-M "P 21"
_symmetry_group_IT_number 4
_symmetry_cell_setting 'monoclinic'
loop_
_space_group_symop_operation_xyz
x,y,z
-x,1/2+y,-z
loop_
_atom_site_type_symbol
_atom_site_label
_atom_site_fract_x
_atom_site_fract_y
_atom_site_fract_z
Si Si1 0.754193 0.694990 0.903432
Si Si2 0.371370 0.668635 0.335263
Si Si3 0.391442 0.575823 0.108194
Si Si4 0.113708 0.910478 0.976621
Si Si5 0.188794 0.019108 0.476950
Si Si6 0.918235 0.940267 0.963674
Si Si7 0.040494 0.757304 0.677503
Si Si8 0.912991 0.841550 0.284134
O O1 0.529339 0.683357 0.617116
O O2 0.821106 0.822694 0.915934
O O3 0.835306 0.560901 0.952130
O O4 0.835455 0.718311 0.123065
O O5 0.438691 0.607893 0.294916
O O6 0.211339 0.568426 0.187936
O O7 0.284251 0.810281 0.206220
O O8 0.586620 0.548965 0.271317
O O9 0.251943 0.695140 0.906701
O O10 0.251507 0.450963 0.929739
O O11 0.053907 0.875284 0.780705
O O12 0.955752 0.887987 0.884420
O O13 0.108298 0.902176 0.461196
O O14 0.080294 0.145637 0.399538
O O15 0.106222 0.980963 0.256733
O O16 0.947763 0.802740 0.452694
#
# Coordination Sequence:
#
# PCOD9116273 Si02
#       8
#     2   2   2   2   2   2   2   2
#     4  11  23  36  63  93 124 164 211 265 317 379
#     4  11  21  41  61  97 128 165 208 266 335 383
#     4  10  21  41  69  90 123 173 213 263 328 378
#     4  11  23  36  63  93 124 164 211 265 317 379
#     4  10  21  41  69  90 123 173 213 263 328 378
#     4  11  21  41  61  97 128 165 208 266 335 383
#     4  10  23  43  63  92 131 171 215 261 317 382
#     4  10  23  43  63  92 131 171 215 261 317 382
#
# _framework density 18.743321999999999
#
# number of rings (size 3 to 8) (size 9 to 14) (size 15 to 20)
#    0.000    1.500    5.000    2.250    7.000    1.000 
#    0.000    1.250    0.000    0.000    0.000    0.000 
#    0.000    0.000    0.000    0.000    0.000    0.000 
#
# Total GULP energy -89230.560862 kJ/mol
# GULP energy per Si atom -5576.910054 kJ/mol
# Density = 1.870066 g / cm^3
# Si number density = 18.743322 Si / 1000 Ang^3
#
#
#
# Elastic Constant Matrix: (Units=GPa)
#
#
# Indices 1 2 3 4 5 6 
#
# 1 71.5064 11.5111 50.6389 0.0000 -1.4650 0.0000
# 2 11.5111 60.4953 20.3658 0.0000 -0.0673 0.0000
# 3 50.6389 20.3658 77.4164 0.0000 4.2713 0.0000
# 4 0.0000 0.0000 0.0000 67.5120 0.0000 -23.8584
# 5 -1.4650 -0.0673 4.2713 0.0000 30.1474 0.0000
# 6 0.0000 0.0000 0.0000 -23.8584 0.0000 25.9510
#
#
#
# Elastic Compliance Matrix: (Units=1/GPa)
#
#
# Indices 1 2 3 4 5 6 
#
# 1 0.026521 0.000953 -0.017809 0.000000 0.003814 0.000000
# 2 0.000953 0.018186 -0.005455 0.000000 0.000860 0.000000
# 3 -0.017809 -0.005455 0.026255 0.000000 -0.004597 0.000000
# 4 0.000000 0.000000 0.000000 0.021941 0.000000 0.020171
# 5 0.003814 0.000860 -0.004597 0.000000 0.034009 0.000000
# 6 0.000000 0.000000 0.000000 0.020171 0.000000 0.057079
#
#
# Mechanical properties :
#
#
# Convention : Reuss Voigt Hill
#
# Bulk Modulus (GPa) = 37.96432 41.60554 39.78493
# Shear Modulus (GPa) = 21.06204 33.18222 27.12213
#
# Velocity S-wave (km/s) = 3.35581 4.21212 3.80811
# Velocity P-wave (km/s) = 5.94257 6.77507 6.37243
#
# Compressibility (1/GPa) = 0.02634052
#
# Stress axis : x y z
#
# Youngs Moduli (GPa) = 37.70538 54.98646 38.08790
#
# Poissons Ratio (x) = -0.05241 0.67831
# Poissons Ratio (y) = -0.03594 0.20778
# Poissons Ratio (z) = 0.67150 0.29996
#
# Static dielectric constant tensor:
#      x y z
#    x 1.662290 0.000000 0.000320 
#    y 0.000000 1.650980 0.000000 
#    z 0.000320 0.000000 1.627260 
# 
# From -- ./inp_files/12588.got.cif
#   From: 2010.05.17/outbox.cif.g08.bks.cpg/sg4_7_cif.got.tgz:12588.got - 2010.06.03 18:43:04.
