data_PCOD9116482
_publ_section_title
;
Structure prediction by ZEFSAII (Michael W. Deem and Ramdas Pophale) SiO2 
 PCOD9116482
Probable space group: P 21
;
_chemical_formula_sum "Si O2"
_cell_formula_units_Z 14
_cell_length_a 6.550291
_cell_length_b 12.692746
_cell_length_c 7.484854
_cell_angle_alpha 90.000000
_cell_angle_beta 62.654681
_cell_angle_gamma 90.000000
_cell_volume 552.760214
_symmetry_space_group_name_H-M "P 21"
_symmetry_group_IT_number 4
_symmetry_cell_setting 'monoclinic'
loop_
_space_group_symop_operation_xyz
x,y,z
-x,1/2+y,-z
loop_
_atom_site_type_symbol
_atom_site_label
_atom_site_fract_x
_atom_site_fract_y
_atom_site_fract_z
Si Si1 0.477662 0.564430 0.362736
Si Si2 0.213836 0.141926 0.479863
Si Si3 0.220462 0.448175 0.891813
Si Si4 0.641334 0.295921 0.725146
Si Si5 0.719663 0.787312 0.866914
Si Si6 0.062329 0.131146 0.930099
Si Si7 0.038534 0.444919 0.586949
O O1 0.559772 0.586078 0.531620
O O2 0.378910 0.678785 0.344750
O O3 0.717406 0.550108 0.161486
O O4 0.298440 0.470806 0.422433
O O5 0.264980 0.239465 0.333641
O O6 0.876449 0.352370 0.583401
O O7 0.080631 0.171797 0.717769
O O8 0.443932 0.379934 0.744204
O O9 0.051423 0.428217 0.794347
O O10 0.182182 0.399467 0.105967
O O11 0.174346 0.571517 0.942997
O O12 0.548873 0.284990 0.965436
O O13 0.914423 0.554032 0.584083
O O14 0.137257 0.212525 0.051550
#
# Coordination Sequence:
#
# PCOD9116482 Si02
#       7
#     2   2   2   2   2   2   2
#     4   9  23  45  71 104 152 192 246 308 360 450
#     4  10  21  44  71 105 145 196 240 297 381 421
#     4  10  21  44  71 110 147 184 260 299 360 455
#     4   9  23  45  71 106 148 197 248 302 367 440
#     4   9  20  45  72 101 149 197 240 300 374 430
#     4   9  20  45  69 108 145 193 246 300 362 445
#     4  12  22  44  75 108 148 197 244 310 368 433
#
# _framework density 25.327438000000001
#
# number of rings (size 3 to 8) (size 9 to 14) (size 15 to 20)
#    1.714    0.571    1.429    0.857    0.000    2.286 
#   12.857    1.429    3.143    0.000    0.000    0.000 
#    0.000    0.000    0.000    0.000    0.000    0.000 
#
# Total GULP energy -78006.421764 kJ/mol
# GULP energy per Si atom -5571.887269 kJ/mol
# Density = 2.526979 g / cm^3
# Si number density = 25.327438 Si / 1000 Ang^3
#
#
#
# Elastic Constant Matrix: (Units=GPa)
#
#
# Indices 1 2 3 4 5 6 
#
# 1 87.5260 32.1347 43.8608 0.0000 1.8242 0.0000
# 2 32.1347 81.3383 32.8667 0.0000 -17.4103 0.0000
# 3 43.8608 32.8667 70.2000 0.0000 -6.9718 0.0000
# 4 0.0000 0.0000 0.0000 44.9504 0.0000 -8.5881
# 5 1.8242 -17.4103 -6.9718 0.0000 40.2513 0.0000
# 6 0.0000 0.0000 0.0000 -8.5881 0.0000 51.1314
#
#
#
# Elastic Compliance Matrix: (Units=1/GPa)
#
#
# Indices 1 2 3 4 5 6 
#
# 1 0.017849 -0.004048 -0.009678 0.000000 -0.004236 0.000000
# 2 -0.004048 0.017341 -0.004911 0.000000 0.006833 0.000000
# 3 -0.009678 -0.004911 0.022816 0.000000 0.002266 0.000000
# 4 0.000000 0.000000 0.000000 0.022984 0.000000 0.003860
# 5 -0.004236 0.006833 0.002266 0.000000 0.028384 0.000000
# 6 0.000000 0.000000 0.000000 0.003860 0.000000 0.020206
#
#
# Mechanical properties :
#
#
# Convention : Reuss Voigt Hill
#
# Bulk Modulus (GPa) = 48.23284 50.75430 49.49357
# Shear Modulus (GPa) = 28.77462 35.94674 32.36068
#
# Velocity S-wave (km/s) = 3.37427 3.77142 3.57836
# Velocity P-wave (km/s) = 5.85372 6.24881 6.05449
#
# Compressibility (1/GPa) = 0.02073276
#
# Stress axis : x y z
#
# Youngs Moduli (GPa) = 56.02443 57.66807 43.82911
#
# Poissons Ratio (x) = 0.23344 0.42417
# Poissons Ratio (y) = 0.22679 0.21524
# Poissons Ratio (z) = 0.54219 0.28320
#
# Static dielectric constant tensor:
#      x y z
#    x 2.024120 0.000000 -0.026460 
#    y 0.000000 2.062140 0.000000 
#    z -0.026460 0.000000 2.097210 
# 
# From -- ./inp_files/6815.got.cif
#   From: 2010.05.17/outbox.cif.g08.bks.cpg/sg4_4_cif.got.tgz:6815.got - 2010.06.03 18:43:04.
