data_PCOD9116745
_publ_section_title
;
Structure prediction by ZEFSAII (Michael W. Deem and Ramdas Pophale) SiO2 
 PCOD9116745
Probable space group: P 21
;
_chemical_formula_sum "Si O2"
_cell_formula_units_Z 16
_cell_length_a 5.561592
_cell_length_b 22.452070
_cell_length_c 4.831502
_cell_angle_alpha 90.000000
_cell_angle_beta 92.208823
_cell_angle_gamma 90.000000
_cell_volume 602.857785
_symmetry_space_group_name_H-M "P 21"
_symmetry_group_IT_number 4
_symmetry_cell_setting 'monoclinic'
loop_
_space_group_symop_operation_xyz
x,y,z
-x,1/2+y,-z
loop_
_atom_site_type_symbol
_atom_site_label
_atom_site_fract_x
_atom_site_fract_y
_atom_site_fract_z
Si Si1 0.971666 0.630470 0.613947
Si Si2 0.767365 0.969272 0.301776
Si Si3 0.737358 0.365276 0.115037
Si Si4 0.381539 0.221837 0.549988
Si Si5 0.348746 0.688205 0.948999
Si Si6 0.268852 0.947327 0.393025
Si Si7 0.828750 0.069875 0.907729
Si Si8 0.773342 0.832178 0.126564
O O1 0.101386 0.687689 0.766949
O O2 0.944135 0.588663 0.882275
O O3 0.129394 0.593461 0.399082
O O4 0.763502 0.660209 0.426544
O O5 0.516627 0.982413 0.441952
O O6 0.023693 0.980324 0.457744
O O7 0.767995 0.004299 0.011102
O O8 0.772467 0.897862 0.265424
O O9 0.730355 0.386965 0.428397
O O10 0.483445 0.334499 0.041836
O O11 0.981457 0.331049 0.042761
O O12 0.740979 0.425443 0.925781
O O13 0.620708 0.216373 0.750370
O O14 0.241089 0.278820 0.654915
O O15 0.453908 0.217648 0.235473
O O16 0.369829 0.616570 0.982412
#
# Coordination Sequence:
#
# PCOD9116745 Si02
#       8
#     2   2   2   2   2   2   2   2
#     4  10  23  44  64 101 128 181 229 291 345 405
#     4  10  23  45  68 105 136 183 230 282 363 417
#     4  10  22  42  61  93 135 178 224 264 337 408
#     4  12  24  42  73  98 139 182 237 289 357 418
#     4  10  23  44  63 101 128 182 231 289 345 408
#     4  10  22  40  65  90 138 174 223 272 326 419
#     4  10  22  44  70  95 138 176 231 297 343 423
#     4  10  25  43  70 103 140 186 225 292 352 430
#
# _framework density 26.540253
#
# number of rings (size 3 to 8) (size 9 to 14) (size 15 to 20)
#    0.750    1.000    1.250    1.500    1.750   10.000 
#    2.250    1.250    0.000    0.000    0.000    0.000 
#    0.000    0.000    0.000    0.000    0.000    0.000 
#
# Total GULP energy -89293.790368 kJ/mol
# GULP energy per Si atom -5580.861898 kJ/mol
# Density = 2.647985 g / cm^3
# Si number density = 26.540253 Si / 1000 Ang^3
#
#
#
# Elastic Constant Matrix: (Units=GPa)
#
#
# Indices 1 2 3 4 5 6 
#
# 1 175.9209 6.3201 18.7825 0.0000 9.9565 0.0000
# 2 6.3201 75.8935 21.2323 0.0000 21.0981 0.0000
# 3 18.7825 21.2323 97.7180 0.0000 -3.4472 0.0000
# 4 0.0000 0.0000 0.0000 43.9867 0.0000 -5.7325
# 5 9.9565 21.0981 -3.4472 0.0000 7.0456 0.0000
# 6 0.0000 0.0000 0.0000 -5.7325 0.0000 23.6623
#
#
#
# Elastic Compliance Matrix: (Units=1/GPa)
#
#
# Indices 1 2 3 4 5 6 
#
# 1 -0.003837 -0.051131 0.017746 0.000000 0.167217 0.000000
# 2 -0.051131 -0.255147 0.096433 0.000000 0.883475 0.000000
# 3 0.017746 0.096433 -0.025645 0.000000 -0.326394 0.000000
# 4 0.000000 0.000000 0.000000 0.023475 0.000000 0.005687
# 5 0.167217 0.883475 -0.326394 0.000000 -2.899636 0.000000
# 6 0.000000 0.000000 0.000000 0.005687 0.000000 0.043639
#
#
# Mechanical properties :
#
#
# Convention : Reuss Voigt Hill
#
# Bulk Modulus (GPa) = -6.30787 49.13357 21.41285
# Shear Modulus (GPa) = -1.51695 35.15209 16.81757
#
# Velocity S-wave (km/s) = -0.75684 3.64329 2.52000
# Velocity P-wave (km/s) = 1.77359 6.02089 4.06851
#
# Compressibility (1/GPa) = -0.15853221
#
# Stress axis : x y z
#
# Youngs Moduli (GPa) = -260.59991 -3.91931 -38.99422
#
# Poissons Ratio (x) = -0.20040 0.69200
# Poissons Ratio (y) = -13.32472 3.76033
# Poissons Ratio (z) = 4.62468 0.37795
#
# Static dielectric constant tensor:
#      x y z
#    x 2.205400 0.000000 -0.006650 
#    y 0.000000 2.130590 0.000000 
#    z -0.006650 0.000000 2.053560 
# 
# From -- ./inp_files/796.got.cif
#   From: 2010.05.17/outbox.cif.g08.bks.cpg/sg4_1_cif.got.tgz:796.got - 2010.06.03 18:43:04.
