data_PCOD9116528
_publ_section_title
;
Structure prediction by ZEFSAII (Michael W. Deem and Ramdas Pophale) SiO2 
 PCOD9116528
Probable space group: P 21
;
_chemical_formula_sum "Si O2"
_cell_formula_units_Z 14
_cell_length_a 6.430292
_cell_length_b 5.025049
_cell_length_c 22.625320
_cell_angle_alpha 90.000000
_cell_angle_beta 129.605895
_cell_angle_gamma 90.000000
_cell_volume 563.259940
_symmetry_space_group_name_H-M "P 21"
_symmetry_group_IT_number 4
_symmetry_cell_setting 'monoclinic'
loop_
_space_group_symop_operation_xyz
x,y,z
-x,1/2+y,-z
loop_
_atom_site_type_symbol
_atom_site_label
_atom_site_fract_x
_atom_site_fract_y
_atom_site_fract_z
Si Si1 0.438422 0.417170 0.744070
Si Si2 0.860855 0.411462 0.613928
Si Si3 0.862432 0.209656 0.002863
Si Si4 0.699163 0.667382 0.156443
Si Si5 0.998784 0.187107 0.162484
Si Si6 0.682688 0.146329 0.470135
Si Si7 0.544950 0.655597 0.376896
O O1 0.416176 0.252104 0.800584
O O2 0.683672 0.623231 0.785213
O O3 0.469397 0.221056 0.694012
O O4 0.142169 0.541616 0.680856
O O5 0.868355 0.225481 0.557950
O O6 0.621171 0.618474 0.557710
O O7 0.745937 0.234386 0.647115
O O8 0.898224 0.259092 0.078645
O O9 0.564111 0.114759 0.931479
O O10 0.933116 0.478697 0.980654
O O11 0.898207 0.416187 0.188344
O O12 0.857004 0.916941 0.157801
O O13 0.643576 0.367295 0.412980
O O14 0.271050 0.366969 0.553068
#
# Coordination Sequence:
#
# PCOD9116528 Si02
#       7
#     2   2   2   2   2   2   2
#     4  12  28  49  76 115 156 205 258 317 395 471
#     4  10  22  48  74 104 148 197 248 330 374 456
#     4  12  24  50  86 114 147 203 264 310 378 471
#     4  12  28  52  78 111 161 204 250 327 386 454
#     4  12  28  52  75 116 156 203 260 314 394 466
#     4  10  21  46  73 101 147 190 256 313 384 448
#     4  10  23  45  68 107 143 192 250 317 375 462
#
# _framework density 24.855311
#
# number of rings (size 3 to 8) (size 9 to 14) (size 15 to 20)
#    0.857    0.000    2.857    3.429    0.000    4.571 
#    5.143    0.000    0.000    0.000    0.000    0.000 
#    0.000    0.000    0.000    0.000    0.000    0.000 
#
# Total GULP energy -78454.848890 kJ/mol
# GULP energy per Si atom -5603.917778 kJ/mol
# Density = 2.479874 g / cm^3
# Si number density = 24.855311 Si / 1000 Ang^3
#
#
#
# Elastic Constant Matrix: (Units=GPa)
#
#
# Indices 1 2 3 4 5 6 
#
# 1 129.2405 17.9884 57.2142 0.0000 2.9520 0.0000
# 2 17.9884 80.8222 0.3734 0.0000 3.5464 0.0000
# 3 57.2142 0.3734 128.6255 0.0000 9.1356 0.0000
# 4 0.0000 0.0000 0.0000 25.7775 0.0000 -4.8157
# 5 2.9520 3.5464 9.1356 0.0000 49.9385 0.0000
# 6 0.0000 0.0000 0.0000 -4.8157 0.0000 41.0641
#
#
#
# Elastic Compliance Matrix: (Units=1/GPa)
#
#
# Indices 1 2 3 4 5 6 
#
# 1 0.010021 -0.002227 -0.004478 0.000000 0.000385 0.000000
# 2 -0.002227 0.012906 0.001022 0.000000 -0.000972 0.000000
# 3 -0.004478 0.001022 0.009878 0.000000 -0.001615 0.000000
# 4 0.000000 0.000000 0.000000 0.039663 0.000000 0.004651
# 5 0.000385 -0.000972 -0.001615 0.000000 0.020366 0.000000
# 6 0.000000 0.000000 0.000000 0.004651 0.000000 0.024898
#
#
# Mechanical properties :
#
#
# Convention : Reuss Voigt Hill
#
# Bulk Modulus (GPa) = 46.64237 54.42668 50.53452
# Shear Modulus (GPa) = 36.69856 40.89682 38.79769
#
# Velocity S-wave (km/s) = 3.84668 4.06075 3.95516
# Velocity P-wave (km/s) = 6.20770 6.62806 6.42132
#
# Compressibility (1/GPa) = 0.02143974
#
# Stress axis : x y z
#
# Youngs Moduli (GPa) = 99.78829 77.48132 101.23190
#
# Poissons Ratio (x) = 0.17252 0.45336
# Poissons Ratio (y) = 0.22219 -0.10346
# Poissons Ratio (z) = 0.44690 -0.07918
#
# Static dielectric constant tensor:
#      x y z
#    x 2.029420 0.000000 0.052370 
#    y 0.000000 1.930720 0.000000 
#    z 0.052370 0.000000 1.947340 
# 
# From -- ./inp_files/15303.got.cif
#   From: 2010.05.17/outbox.cif.g08.bks.cpg/sg4_8_cif.got.tgz:15303.got - 2010.06.03 18:43:04.
