data_PCOD9116190
_publ_section_title
;
Structure prediction by ZEFSAII (Michael W. Deem and Ramdas Pophale) SiO2 
 PCOD9116190
Probable space group: P 21
;
_chemical_formula_sum "Si O2"
_cell_formula_units_Z 16
_cell_length_a 10.338238
_cell_length_b 9.072212
_cell_length_c 9.538003
_cell_angle_alpha 90.000000
_cell_angle_beta 120.525112
_cell_angle_gamma 90.000000
_cell_volume 770.593571
_symmetry_space_group_name_H-M "P 21"
_symmetry_group_IT_number 4
_symmetry_cell_setting 'monoclinic'
loop_
_space_group_symop_operation_xyz
x,y,z
-x,1/2+y,-z
loop_
_atom_site_type_symbol
_atom_site_label
_atom_site_fract_x
_atom_site_fract_y
_atom_site_fract_z
Si Si1 0.121510 0.649320 0.712408
Si Si2 0.178683 0.097451 0.862152
Si Si3 0.944143 0.817273 0.405815
Si Si4 0.742150 0.141232 0.918577
Si Si5 0.612173 0.119667 0.332659
Si Si6 0.853231 0.155316 0.687582
Si Si7 0.547263 0.379064 0.945482
Si Si8 0.359810 0.320219 0.125752
O O1 0.094690 0.486835 0.631663
O O2 0.279614 0.690107 0.726945
O O3 0.998425 0.761115 0.585855
O O4 0.141090 0.638470 0.888423
O O5 0.177875 0.201523 0.722614
O O6 0.003769 0.055099 0.783854
O O7 0.301068 0.969363 0.929163
O O8 0.227024 0.207919 0.013113
O O9 0.082330 0.785894 0.375127
O O10 0.804867 0.211714 0.812133
O O11 0.600311 0.228816 0.901942
O O12 0.700389 0.974864 0.855126
O O13 0.714885 0.089085 0.523982
O O14 0.538908 0.979478 0.215883
O O15 0.479885 0.236165 0.287563
O O16 0.443092 0.354472 0.022935
#
# Coordination Sequence:
#
# PCOD9116190 Si02
#       8
#     2   2   2   2   2   2   2   2
#     4  11  20  37  63  89 121 162 206 262 303 369
#     4   9  20  38  59  81 125 157 196 255 310 361
#     4   9  21  38  58  88 125 159 203 259 310 362
#     4  12  22  36  64  90 122 162 214 249 313 381
#     4  10  21  41  59  85 127 157 205 258 315 357
#     4   9  23  40  58  89 127 168 194 259 318 372
#     4  11  21  34  63  95 113 158 214 261 300 367
#     4  11  20  38  62  89 116 163 204 261 307 363
#
# _framework density 20.763217000000001
#
# number of rings (size 3 to 8) (size 9 to 14) (size 15 to 20)
#    0.750    1.000    3.750    0.750    1.750    3.000 
#    0.000    0.000    0.000    6.000    0.000    0.000 
#    0.000    0.000    0.000    0.000    0.000    0.000 
#
# Total GULP energy -89228.377754 kJ/mol
# GULP energy per Si atom -5576.773610 kJ/mol
# Density = 2.071596 g / cm^3
# Si number density = 20.763217 Si / 1000 Ang^3
#
#
#
# Elastic Constant Matrix: (Units=GPa)
#
#
# Indices 1 2 3 4 5 6 
#
# 1 30.9315 -2.1728 36.4889 0.0000 11.4854 0.0000
# 2 -2.1728 67.4752 20.7902 0.0000 14.6277 0.0000
# 3 36.4889 20.7902 124.2453 0.0000 24.6025 0.0000
# 4 0.0000 0.0000 0.0000 17.5791 0.0000 5.8393
# 5 11.4854 14.6277 24.6025 0.0000 38.3948 0.0000
# 6 0.0000 0.0000 0.0000 5.8393 0.0000 20.3244
#
#
#
# Elastic Compliance Matrix: (Units=1/GPa)
#
#
# Indices 1 2 3 4 5 6 
#
# 1 0.055093 0.008726 -0.015712 0.000000 -0.009737 0.000000
# 2 0.008726 0.017856 -0.004222 0.000000 -0.006708 0.000000
# 3 -0.015712 -0.004222 0.013882 0.000000 -0.002586 0.000000
# 4 0.000000 0.000000 0.000000 0.062887 0.000000 -0.018068
# 5 -0.009737 -0.006708 -0.002586 0.000000 0.033171 0.000000
# 6 0.000000 0.000000 0.000000 -0.018068 0.000000 0.054393
#
#
# Mechanical properties :
#
#
# Convention : Reuss Voigt Hill
#
# Bulk Modulus (GPa) = 15.52452 36.98497 26.25474
# Shear Modulus (GPa) = 17.78281 26.42937 22.10609
#
# Velocity S-wave (km/s) = 2.92970 3.57163 3.26648
# Velocity P-wave (km/s) = 4.35171 5.90425 5.18640
#
# Compressibility (1/GPa) = 0.06441424
#
# Stress axis : x y z
#
# Youngs Moduli (GPa) = 18.15112 56.00243 72.03759
#
# Poissons Ratio (x) = -0.48868 1.13186
# Poissons Ratio (y) = -0.15839 0.30417
# Poissons Ratio (z) = 0.28519 0.23647
#
# Static dielectric constant tensor:
#      x y z
#    x 1.747030 0.000000 0.050420 
#    y 0.000000 1.754490 0.000000 
#    z 0.050420 0.000000 1.776550 
# 
# From -- ./inp_files/7773.got.cif
#   From: 2010.05.17/outbox.cif.g08.bks.cpg/sg4_4_cif.got.tgz:7773.got - 2010.06.03 18:43:04.
