data_PCOD9116192
_publ_section_title
;
Structure prediction by ZEFSAII (Michael W. Deem and Ramdas Pophale) SiO2 
 PCOD9116192
Probable space group: P 21
;
_chemical_formula_sum "Si O2"
_cell_formula_units_Z 14
_cell_length_a 17.419611
_cell_length_b 9.867708
_cell_length_c 7.532746
_cell_angle_alpha 90.000000
_cell_angle_beta 147.550142
_cell_angle_gamma 90.000000
_cell_volume 694.748188
_symmetry_space_group_name_H-M "P 21"
_symmetry_group_IT_number 4
_symmetry_cell_setting 'monoclinic'
loop_
_space_group_symop_operation_xyz
x,y,z
-x,1/2+y,-z
loop_
_atom_site_type_symbol
_atom_site_label
_atom_site_fract_x
_atom_site_fract_y
_atom_site_fract_z
Si Si1 0.004187 0.851730 0.864881
Si Si2 0.175591 0.563990 0.688232
Si Si3 0.683917 0.436119 0.538146
Si Si4 0.185034 0.856055 0.551642
Si Si5 0.465161 0.435390 0.395291
Si Si6 0.349164 0.177356 0.304141
Si Si7 0.914557 0.614863 0.438797
O O1 0.947787 0.714500 0.667305
O O2 0.160552 0.888510 0.087006
O O3 0.043929 0.840974 0.149478
O O4 0.898247 0.973199 0.608666
O O5 0.214587 0.712960 0.696712
O O6 0.058570 0.581447 0.614165
O O7 0.315615 0.489466 0.030535
O O8 0.692178 0.397912 0.349224
O O9 0.558303 0.374973 0.412787
O O10 0.671294 0.596984 0.551489
O O11 0.154079 0.975748 0.626730
O O12 0.431517 0.318271 0.468767
O O13 0.557917 0.567014 0.626961
O O14 0.196943 0.188796 0.910277
#
# Coordination Sequence:
#
# PCOD9116192 Si02
#       7
#     2   2   2   2   2   2   2
#     4  10  21  41  59  92 131 161 213 267 319 378
#     4  12  22  38  69  98 121 170 223 260 321 388
#     4   8  22  42  61  83 138 163 204 267 328 365
#     4  10  24  40  64  89 135 168 206 277 322 373
#     4  10  23  40  65  97 126 168 218 265 319 389
#     4  10  22  41  66  90 132 166 214 270 315 389
#     4  12  22  38  68  95 123 172 222 262 318 384
#
# _framework density 20.151187
#
# number of rings (size 3 to 8) (size 9 to 14) (size 15 to 20)
#    1.714    0.000    2.857    1.714    4.000    0.000 
#    2.571    0.000    0.000    0.000    0.000    0.000 
#    0.000    0.000    0.000    0.000    0.000    0.000 
#
# Total GULP energy -78023.047507 kJ/mol
# GULP energy per Si atom -5573.074822 kJ/mol
# Density = 2.010532 g / cm^3
# Si number density = 20.151187 Si / 1000 Ang^3
#
#
#
# Elastic Constant Matrix: (Units=GPa)
#
#
# Indices 1 2 3 4 5 6 
#
# 1 41.2893 14.5735 9.4159 0.0000 8.2879 0.0000
# 2 14.5735 108.9592 6.6870 0.0000 3.6436 0.0000
# 3 9.4159 6.6870 49.3709 0.0000 21.2873 0.0000
# 4 0.0000 0.0000 0.0000 24.6274 0.0000 -11.1311
# 5 8.2879 3.6436 21.2873 0.0000 28.8564 0.0000
# 6 0.0000 0.0000 0.0000 -11.1311 0.0000 16.5318
#
#
#
# Elastic Compliance Matrix: (Units=1/GPa)
#
#
# Indices 1 2 3 4 5 6 
#
# 1 0.027036 -0.003287 -0.002261 0.000000 -0.005682 0.000000
# 2 -0.003287 0.009657 -0.000825 0.000000 0.000333 0.000000
# 3 -0.002261 -0.000825 0.030022 0.000000 -0.021394 0.000000
# 4 0.000000 0.000000 0.000000 0.058368 0.000000 0.039300
# 5 -0.005682 0.000333 -0.021394 0.000000 0.052026 0.000000
# 6 0.000000 0.000000 0.000000 0.039300 0.000000 0.086951
#
#
# Mechanical properties :
#
#
# Convention : Reuss Voigt Hill
#
# Bulk Modulus (GPa) = 18.52927 28.99689 23.76308
# Shear Modulus (GPa) = 16.96088 25.26599 21.11344
#
# Velocity S-wave (km/s) = 2.90432 3.54478 3.24041
# Velocity P-wave (km/s) = 4.52348 5.58344 5.08118
#
# Compressibility (1/GPa) = 0.05396867
#
# Stress axis : x y z
#
# Youngs Moduli (GPa) = 36.98805 103.55293 33.30887
#
# Poissons Ratio (x) = 0.34041 0.07531
# Poissons Ratio (y) = 0.12159 0.02747
# Poissons Ratio (z) = 0.08363 0.08540
#
# Static dielectric constant tensor:
#      x y z
#    x 1.705660 0.000000 -0.000190 
#    y 0.000000 1.702670 0.000000 
#    z -0.000190 0.000000 1.713650 
# 
# From -- ./inp_files/9922.got.cif
#   From: 2010.05.17/outbox.cif.g08.bks.cpg/sg4_5_cif.got.tgz:9922.got - 2010.06.03 18:43:04.
