data_PCOD9116523
_publ_section_title
;
Structure prediction by ZEFSAII (Michael W. Deem and Ramdas Pophale) SiO2 
 PCOD9116523
Probable space group: P 21
;
_chemical_formula_sum "Si O2"
_cell_formula_units_Z 12
_cell_length_a 7.504039
_cell_length_b 9.384403
_cell_length_c 7.057586
_cell_angle_alpha 90.000000
_cell_angle_beta 96.408641
_cell_angle_gamma 90.000000
_cell_volume 493.896026
_symmetry_space_group_name_H-M "P 21"
_symmetry_group_IT_number 4
_symmetry_cell_setting 'monoclinic'
loop_
_space_group_symop_operation_xyz
x,y,z
-x,1/2+y,-z
loop_
_atom_site_type_symbol
_atom_site_label
_atom_site_fract_x
_atom_site_fract_y
_atom_site_fract_z
Si Si1 0.352678 0.479490 0.365070
Si Si2 0.747686 0.050780 0.235911
Si Si3 0.696296 0.469601 0.158404
Si Si4 0.270540 0.736937 0.094098
Si Si5 0.118388 0.263446 0.829605
Si Si6 0.016250 0.287802 0.376983
O O1 0.359306 0.503734 0.591576
O O2 0.531490 0.439372 0.276953
O O3 0.313021 0.638435 0.277090
O O4 0.201546 0.356554 0.321615
O O5 0.931248 0.132284 0.321789
O O6 0.794030 0.914011 0.116272
O O7 0.652503 0.157064 0.081171
O O8 0.742959 0.635267 0.149327
O O9 0.866341 0.397237 0.283887
O O10 0.677237 0.398550 0.947391
O O11 0.053736 0.733533 0.063199
O O12 0.045196 0.284692 0.606575
#
# Coordination Sequence:
#
# PCOD9116523 Si02
#       6
#     2   2   2   2   2   2
#     4  11  24  47  68 105 144 181 250 295 349 436
#     4  10  23  39  72  97 135 190 233 286 366 408
#     4  11  25  43  72 103 144 189 242 293 358 424
#     4  11  23  45  64 103 139 182 239 291 350 427
#     4  11  20  42  70  99 137 188 229 296 348 421
#     4  10  21  46  70  99 137 190 233 291 357 418
#
# _framework density 24.296610999999999
#
# number of rings (size 3 to 8) (size 9 to 14) (size 15 to 20)
#    0.000    1.333    3.333    2.000    2.333    6.667 
#    6.000    0.000    0.000    0.000    0.000    0.000 
#    0.000    0.000    0.000    0.000    0.000    0.000 
#
# Total GULP energy -67061.345036 kJ/mol
# GULP energy per Si atom -5588.445420 kJ/mol
# Density = 2.424131 g / cm^3
# Si number density = 24.296611 Si / 1000 Ang^3
#
#
#
# Elastic Constant Matrix: (Units=GPa)
#
#
# Indices 1 2 3 4 5 6 
#
# 1 123.0648 21.9576 22.4986 0.0000 -36.9056 0.0000
# 2 21.9576 121.9276 1.2624 0.0000 -1.5725 0.0000
# 3 22.4986 1.2624 87.2162 0.0000 -16.2310 0.0000
# 4 0.0000 0.0000 0.0000 38.7124 0.0000 -14.0113
# 5 -36.9056 -1.5725 -16.2310 0.0000 41.8909 0.0000
# 6 0.0000 0.0000 0.0000 -14.0113 0.0000 18.8378
#
#
#
# Elastic Compliance Matrix: (Units=1/GPa)
#
#
# Indices 1 2 3 4 5 6 
#
# 1 0.011592 -0.001951 -0.001159 0.000000 0.009690 0.000000
# 2 -0.001951 0.008534 0.000129 0.000000 -0.001348 0.000000
# 3 -0.001159 0.000129 0.012473 0.000000 0.003817 0.000000
# 4 0.000000 0.000000 0.000000 0.035347 0.000000 0.026291
# 5 0.009690 -0.001348 0.003817 0.000000 0.033837 0.000000
# 6 0.000000 0.000000 0.000000 0.026291 0.000000 0.072639
#
#
# Mechanical properties :
#
#
# Convention : Reuss Voigt Hill
#
# Bulk Modulus (GPa) = 37.54047 47.07175 42.30611
# Shear Modulus (GPa) = 26.41843 38.98757 32.70300
#
# Velocity S-wave (km/s) = 3.30105 4.01015 3.67275
# Velocity P-wave (km/s) = 5.47847 6.39200 5.95278
#
# Compressibility (1/GPa) = 0.02663792
#
# Stress axis : x y z
#
# Youngs Moduli (GPa) = 86.26990 117.17658 80.17242
#
# Poissons Ratio (x) = 0.22855 0.09289
# Poissons Ratio (y) = 0.16827 -0.01032
# Poissons Ratio (z) = 0.09996 -0.01509
#
# Static dielectric constant tensor:
#      x y z
#    x 1.956890 0.000000 0.061440 
#    y 0.000000 1.988100 0.000000 
#    z 0.061440 0.000000 1.932030 
# 
# From -- ./inp_files/5531.got.cif
#   From: 2010.05.17/outbox.cif.g08.bks.cpg/sg4_3_cif.got.tgz:5531.got - 2010.06.03 18:43:04.
