data_PCOD9116490
_publ_section_title
;
Structure prediction by ZEFSAII (Michael W. Deem and Ramdas Pophale) SiO2 
 PCOD9116490
Probable space group: P 21
;
_chemical_formula_sum "Si O2"
_cell_formula_units_Z 14
_cell_length_a 9.359387
_cell_length_b 7.166067
_cell_length_c 10.216586
_cell_angle_alpha 90.000000
_cell_angle_beta 49.075529
_cell_angle_gamma 90.000000
_cell_volume 517.739062
_symmetry_space_group_name_H-M "P 21"
_symmetry_group_IT_number 4
_symmetry_cell_setting 'monoclinic'
loop_
_space_group_symop_operation_xyz
x,y,z
-x,1/2+y,-z
loop_
_atom_site_type_symbol
_atom_site_label
_atom_site_fract_x
_atom_site_fract_y
_atom_site_fract_z
Si Si1 0.850105 0.329430 0.683892
Si Si2 0.641262 0.269358 0.543852
Si Si3 0.299219 0.433429 0.120829
Si Si4 0.898673 0.322000 0.928204
Si Si5 0.071004 0.954273 0.809345
Si Si6 0.299920 0.350330 0.401908
Si Si7 0.562518 0.047028 0.218412
O O1 0.761777 0.362066 0.594065
O O2 0.765729 0.129151 0.775752
O O3 0.075254 0.331660 0.524446
O O4 0.836142 0.430914 0.834573
O O5 0.750623 0.341696 0.351649
O O6 0.437044 0.362272 0.691087
O O7 0.649149 0.048072 0.563502
O O8 0.366129 0.328406 0.209128
O O9 0.111690 0.368631 0.156263
O O10 0.458557 0.457424 0.915810
O O11 0.949504 0.441439 0.022357
O O12 0.738212 0.181183 0.079848
O O13 0.062008 0.176064 0.787330
O O14 0.417716 0.178360 0.385398
#
# Coordination Sequence:
#
# PCOD9116490 Si02
#       7
#     2   2   2   2   2   2   2
#     4   9  20  39  64  95 126 159 225 266 310 385
#     4  11  23  41  68  96 126 175 216 271 331 374
#     4   9  21  39  64  98 128 170 214 271 328 378
#     4  10  24  45  65  97 131 174 218 273 328 388
#     4  10  21  45  64  91 130 172 222 262 318 399
#     4  11  22  38  68  99 124 172 217 264 334 388
#     4  10  23  43  59  96 143 156 210 289 315 386
#
# _framework density 27.040648999999998
#
# number of rings (size 3 to 8) (size 9 to 14) (size 15 to 20)
#    0.000    2.286    1.429    1.714   10.000    0.000 
#    7.714    0.000    0.000    0.000    0.000    0.000 
#    0.000    0.000    0.000    0.000    0.000    0.000 
#
# Total GULP energy -78138.490765 kJ/mol
# GULP energy per Si atom -5581.320769 kJ/mol
# Density = 2.697910 g / cm^3
# Si number density = 27.040649 Si / 1000 Ang^3
#
#
#
# Elastic Constant Matrix: (Units=GPa)
#
#
# Indices 1 2 3 4 5 6 
#
# 1 89.8303 11.8901 14.8640 0.0000 23.7832 0.0000
# 2 11.8901 60.0662 19.2565 0.0000 -7.6709 0.0000
# 3 14.8640 19.2565 134.0580 0.0000 9.6814 0.0000
# 4 0.0000 0.0000 0.0000 33.2051 0.0000 4.9472
# 5 23.7832 -7.6709 9.6814 0.0000 50.1830 0.0000
# 6 0.0000 0.0000 0.0000 4.9472 0.0000 29.8142
#
#
#
# Elastic Compliance Matrix: (Units=1/GPa)
#
#
# Indices 1 2 3 4 5 6 
#
# 1 0.013462 -0.003366 -0.000518 0.000000 -0.006795 0.000000
# 2 -0.003366 0.018814 -0.002690 0.000000 0.004990 0.000000
# 3 -0.000518 -0.002690 0.008027 0.000000 -0.001714 0.000000
# 4 0.000000 0.000000 0.000000 0.030879 0.000000 -0.005124
# 5 -0.006795 0.004990 -0.001714 0.000000 0.024241 0.000000
# 6 0.000000 0.000000 0.000000 -0.005124 0.000000 0.034391
#
#
# Mechanical properties :
#
#
# Convention : Reuss Voigt Hill
#
# Bulk Modulus (GPa) = 36.82598 41.77508 39.30053
# Shear Modulus (GPa) = 32.89130 38.50338 35.69734
#
# Velocity S-wave (km/s) = 3.49143 3.77756 3.63731
# Velocity P-wave (km/s) = 5.46825 5.87445 5.67498
#
# Compressibility (1/GPa) = 0.02715474
#
# Stress axis : x y z
#
# Youngs Moduli (GPa) = 74.28071 53.15113 124.57836
#
# Poissons Ratio (x) = 0.17893 0.06458
# Poissons Ratio (y) = 0.25006 0.33507
# Poissons Ratio (z) = 0.03851 0.14296
#
# Static dielectric constant tensor:
#      x y z
#    x 2.345090 0.000000 0.018670 
#    y 0.000000 2.119960 0.000000 
#    z 0.018670 0.000000 2.136670 
# 
# From -- ./inp_files/12090.got.cif
#   From: 2010.05.17/outbox.cif.g08.bks.cpg/sg4_7_cif.got.tgz:12090.got - 2010.06.03 18:43:04.
