data_PCOD9116544
_publ_section_title
;
Structure prediction by ZEFSAII (Michael W. Deem and Ramdas Pophale) SiO2 
 PCOD9116544
Probable space group: P 21
;
_chemical_formula_sum "Si O2"
_cell_formula_units_Z 16
_cell_length_a 11.672621
_cell_length_b 8.788626
_cell_length_c 6.356308
_cell_angle_alpha 90.000000
_cell_angle_beta 101.558802
_cell_angle_gamma 90.000000
_cell_volume 638.845866
_symmetry_space_group_name_H-M "P 21"
_symmetry_group_IT_number 4
_symmetry_cell_setting 'monoclinic'
loop_
_space_group_symop_operation_xyz
x,y,z
-x,1/2+y,-z
loop_
_atom_site_type_symbol
_atom_site_label
_atom_site_fract_x
_atom_site_fract_y
_atom_site_fract_z
Si Si1 0.447173 0.777990 0.553129
Si Si2 0.341421 0.440899 0.514695
Si Si3 0.271568 0.259343 0.875406
Si Si4 0.889150 0.907964 0.826331
Si Si5 0.854075 0.541568 0.500348
Si Si6 0.056331 0.627268 0.818811
Si Si7 0.687850 0.505158 0.809048
Si Si8 0.262769 0.795413 0.805487
O O1 0.400694 0.606508 0.492378
O O2 0.583732 0.812645 0.583384
O O3 0.393392 0.801860 0.765319
O O4 0.397365 0.905304 0.370710
O O5 0.342769 0.375757 0.753783
O O6 0.208918 0.446848 0.381894
O O7 0.189495 0.162224 0.686188
O O8 0.186550 0.339204 0.008746
O O9 0.347935 0.133213 0.032494
O O10 0.987941 0.788108 0.795505
O O11 0.951950 0.052851 0.954642
O O12 0.783522 0.574731 0.688301
O O13 0.808627 0.381534 0.401304
O O14 0.987906 0.536266 0.614078
O O15 0.192181 0.642435 0.811764
O O16 0.747092 0.379838 0.978864
#
# Coordination Sequence:
#
# PCOD9116544 Si02
#       8
#     2   2   2   2   2   2   2   2
#     4  11  28  48  79 108 154 206 259 325 384 459
#     4  12  28  50  76 112 158 201 265 323 382 465
#     4  11  23  46  75 106 156 199 254 319 385 463
#     4  12  28  47  73 113 155 195 259 310 391 465
#     4  10  22  41  70 107 145 195 242 313 378 457
#     4  12  24  44  73 109 151 195 242 317 378 463
#     4  10  21  47  72 105 148 194 256 308 384 460
#     4  10  24  43  72 104 145 193 249 303 384 448
#
# _framework density 25.045165000000001
#
# number of rings (size 3 to 8) (size 9 to 14) (size 15 to 20)
#    0.000    1.000    2.500    2.250   10.500    3.000 
#    0.000    0.000    0.000    0.000    0.000    0.000 
#    0.000    0.000    0.000    0.000    0.000    0.000 
#
# Total GULP energy -89461.547706 kJ/mol
# GULP energy per Si atom -5591.346732 kJ/mol
# Density = 2.498816 g / cm^3
# Si number density = 25.045165 Si / 1000 Ang^3
#
#
#
# Elastic Constant Matrix: (Units=GPa)
#
#
# Indices 1 2 3 4 5 6 
#
# 1 96.2053 31.6415 22.9514 0.0000 -8.1269 0.0000
# 2 31.6415 96.6670 32.0559 0.0000 5.3675 0.0000
# 3 22.9514 32.0559 102.0625 0.0000 1.7557 0.0000
# 4 0.0000 0.0000 0.0000 40.2975 0.0000 2.8427
# 5 -8.1269 5.3675 1.7557 0.0000 36.1479 0.0000
# 6 0.0000 0.0000 0.0000 2.8427 0.0000 43.3961
#
#
#
# Elastic Compliance Matrix: (Units=1/GPa)
#
#
# Indices 1 2 3 4 5 6 
#
# 1 0.012281 -0.003653 -0.001673 0.000000 0.003385 0.000000
# 2 -0.003653 0.012720 -0.003130 0.000000 -0.002558 0.000000
# 3 -0.001673 -0.003130 0.011165 0.000000 -0.000454 0.000000
# 4 0.000000 0.000000 0.000000 0.024931 0.000000 -0.001633
# 5 0.003385 -0.002558 -0.000454 0.000000 0.028827 0.000000
# 6 0.000000 0.000000 0.000000 -0.001633 0.000000 0.023151
#
#
# Mechanical properties :
#
#
# Convention : Reuss Voigt Hill
#
# Bulk Modulus (GPa) = 51.93364 52.02582 51.97973
# Shear Modulus (GPa) = 36.65594 37.85403 37.25498
#
# Velocity S-wave (km/s) = 3.82984 3.89193 3.86101
# Velocity P-wave (km/s) = 6.35122 6.40422 6.37777
#
# Compressibility (1/GPa) = 0.01925534
#
# Stress axis : x y z
#
# Youngs Moduli (GPa) = 81.42740 78.61348 89.56705
#
# Poissons Ratio (x) = 0.28719 0.14980
# Poissons Ratio (y) = 0.29747 0.28032
# Poissons Ratio (z) = 0.13619 0.24604
#
# Static dielectric constant tensor:
#      x y z
#    x 2.004860 0.000000 -0.003870 
#    y 0.000000 2.044520 0.000000 
#    z -0.003870 0.000000 1.954960 
# 
# From -- ./inp_files/2670.got.cif
#   From: 2010.05.17/outbox.cif.g08.bks.cpg/sg4_2_cif.got.tgz:2670.got - 2010.06.03 18:43:04.
