data_PCOD9116096
_publ_section_title
;
Structure prediction by ZEFSAII (Michael W. Deem and Ramdas Pophale) SiO2 
 PCOD9116096
Probable space group: P 21
;
_chemical_formula_sum "Si O2"
_cell_formula_units_Z 16
_cell_length_a 14.434861
_cell_length_b 8.327283
_cell_length_c 17.350738
_cell_angle_alpha 90.000000
_cell_angle_beta 158.596301
_cell_angle_gamma 90.000000
_cell_volume 761.117402
_symmetry_space_group_name_H-M "P 21"
_symmetry_group_IT_number 4
_symmetry_cell_setting 'monoclinic'
loop_
_space_group_symop_operation_xyz
x,y,z
-x,1/2+y,-z
loop_
_atom_site_type_symbol
_atom_site_label
_atom_site_fract_x
_atom_site_fract_y
_atom_site_fract_z
Si Si1 0.519624 0.566340 0.331752
Si Si2 0.636146 0.624370 0.761841
Si Si3 0.223219 0.796904 0.363636
Si Si4 0.484403 0.693032 0.951797
Si Si5 0.857681 0.299499 0.878719
Si Si6 0.369648 0.308364 0.093511
Si Si7 0.061257 0.190180 0.441726
Si Si8 0.197259 0.386713 0.696973
O O1 0.654524 0.442441 0.493953
O O2 0.292103 0.654993 0.197604
O O3 0.416504 0.471103 0.177105
O O4 0.735965 0.686829 0.468753
O O5 0.388174 0.643486 0.517306
O O6 0.780787 0.457816 0.865337
O O7 0.563377 0.669692 0.792780
O O8 0.845168 0.756440 0.896111
O O9 0.233116 0.819874 0.279738
O O10 0.927417 0.787134 0.155099
O O11 0.482846 0.794217 0.871861
O O12 0.436326 0.509880 0.888107
O O13 0.230732 0.728085 0.805007
O O14 0.732384 0.741803 0.190916
O O15 0.144609 0.309310 0.574056
O O16 0.025909 0.005962 0.446609
#
# Coordination Sequence:
#
# PCOD9116096 Si02
#       8
#     2   2   2   2   2   2   2   2
#     4  11  23  39  67  92 124 168 211 258 323 383
#     4  10  22  39  60  90 120 162 208 256 321 375
#     4  10  21  40  61  91 119 168 202 259 320 381
#     4  10  24  42  65  95 132 173 215 273 322 391
#     4  11  22  39  63  88 127 157 212 262 313 380
#     4  10  22  41  64  89 129 164 205 259 326 371
#     4  10  24  41  65  96 130 176 220 267 326 392
#     4  10  24  39  67  89 135 170 223 264 331 377
#
# _framework density 21.021723999999999
#
# number of rings (size 3 to 8) (size 9 to 14) (size 15 to 20)
#    0.750    1.000    0.000    4.500    5.250    2.000 
#    2.250    0.000    0.000    0.000    0.000    0.000 
#    0.000    0.000    0.000    0.000    0.000    0.000 
#
# Total GULP energy -89267.664589 kJ/mol
# GULP energy per Si atom -5579.229037 kJ/mol
# Density = 2.097388 g / cm^3
# Si number density = 21.021724 Si / 1000 Ang^3
#
#
#
# Elastic Constant Matrix: (Units=GPa)
#
#
# Indices 1 2 3 4 5 6 
#
# 1 49.2956 -19.5317 0.6304 0.0000 15.5608 0.0000
# 2 -19.5317 38.0061 13.5147 0.0000 0.1349 0.0000
# 3 0.6304 13.5147 66.5714 0.0000 2.4059 0.0000
# 4 0.0000 0.0000 0.0000 24.6015 0.0000 -1.6404
# 5 15.5608 0.1349 2.4059 0.0000 20.3519 0.0000
# 6 0.0000 0.0000 0.0000 -1.6404 0.0000 29.1871
#
#
#
# Elastic Compliance Matrix: (Units=1/GPa)
#
#
# Indices 1 2 3 4 5 6 
#
# 1 0.037434 0.020586 -0.003509 0.000000 -0.028343 0.000000
# 2 0.020586 0.039685 -0.007706 0.000000 -0.015092 0.000000
# 3 -0.003509 -0.007706 0.016591 0.000000 0.000773 0.000000
# 4 0.000000 0.000000 0.000000 0.040801 0.000000 0.002293
# 5 -0.028343 -0.015092 0.000773 0.000000 0.070815 0.000000
# 6 0.000000 0.000000 0.000000 0.002293 0.000000 0.034391
#
#
# Mechanical properties :
#
#
# Convention : Reuss Voigt Hill
#
# Bulk Modulus (GPa) = 8.89270 15.90000 12.39635
# Shear Modulus (GPa) = 19.34548 25.44542 22.39545
#
# Velocity S-wave (km/s) = 3.03687 3.48290 3.26751
# Velocity P-wave (km/s) = 4.06647 4.87383 4.48834
#
# Compressibility (1/GPa) = 0.11245179
#
# Stress axis : x y z
#
# Youngs Moduli (GPa) = 26.71360 25.19857 60.27309
#
# Poissons Ratio (x) = -0.51874 0.21152
# Poissons Ratio (y) = -0.54993 0.46446
# Poissons Ratio (z) = 0.09375 0.19418
#
# Static dielectric constant tensor:
#      x y z
#    x 1.734370 0.000000 0.009660 
#    y 0.000000 1.806220 0.000000 
#    z 0.009660 0.000000 1.758730 
# 
# From -- ./inp_files/13276.got.cif
#   From: 2010.05.17/outbox.cif.g08.bks.cpg/sg4_7_cif.got.tgz:13276.got - 2010.06.03 18:43:04.
