data_PCOD9116909
_publ_section_title
;
Structure prediction by ZEFSAII (Michael W. Deem and Ramdas Pophale) SiO2 
 PCOD9116909
Probable space group: P 21
;
_chemical_formula_sum "Si O2"
_cell_formula_units_Z 16
_cell_length_a 12.516144
_cell_length_b 5.753246
_cell_length_c 13.056537
_cell_angle_alpha 90.000000
_cell_angle_beta 45.695077
_cell_angle_gamma 90.000000
_cell_volume 672.824332
_symmetry_space_group_name_H-M "P 21"
_symmetry_group_IT_number 4
_symmetry_cell_setting 'monoclinic'
loop_
_space_group_symop_operation_xyz
x,y,z
-x,1/2+y,-z
loop_
_atom_site_type_symbol
_atom_site_label
_atom_site_fract_x
_atom_site_fract_y
_atom_site_fract_z
Si Si1 0.876911 0.457630 0.944898
Si Si2 0.398527 0.752900 0.803008
Si Si3 0.000957 0.978975 0.362939
Si Si4 0.668564 0.981713 0.670539
Si Si5 0.696275 0.488234 0.346516
Si Si6 0.949070 0.958507 0.898662
Si Si7 0.470634 0.330280 0.669484
Si Si8 0.853915 0.981241 0.730365
O O1 0.968784 0.470895 0.778757
O O2 0.904648 0.708622 0.974555
O O3 0.920206 0.211996 0.967940
O O4 0.699811 0.408964 0.055738
O O5 0.370170 0.482157 0.812741
O O6 0.572397 0.752241 0.716189
O O7 0.362022 0.835648 0.711277
O O8 0.077581 0.225531 0.344976
O O9 0.828602 0.986969 0.509087
O O10 0.062759 0.724209 0.355220
O O11 0.559768 0.155900 0.683362
O O12 0.701415 0.006095 0.768835
O O13 0.601816 0.437883 0.511044
O O14 0.645045 0.736998 0.338366
O O15 0.872109 0.455073 0.242899
O O16 0.861476 0.974851 0.848096
#
# Coordination Sequence:
#
# PCOD9116909 Si02
#       8
#     2   2   2   2   2   2   2   2
#     4  10  24  45  66 101 137 184 231 287 344 419
#     4  11  27  43  67  97 143 180 235 289 349 426
#     4  10  22  41  69  99 141 180 228 285 348 417
#     4  11  25  40  71 104 136 183 229 291 356 417
#     4  11  24  42  70 100 136 189 234 291 357 417
#     4  10  24  43  74  95 142 181 236 283 351 413
#     4  11  24  42  67 103 143 182 235 291 358 422
#     4  10  22  42  68 109 134 177 230 293 345 415
#
# _framework density 23.780352000000001
#
# number of rings (size 3 to 8) (size 9 to 14) (size 15 to 20)
#    0.000    1.500    1.250    2.250   12.250    1.000 
#    0.000    5.000    0.000    0.000    0.000    0.000 
#    0.000    0.000    0.000    0.000    0.000    0.000 
#
# Total GULP energy -89115.341214 kJ/mol
# GULP energy per Si atom -5569.708826 kJ/mol
# Density = 2.372623 g / cm^3
# Si number density = 23.780352 Si / 1000 Ang^3
#
#
#
# Elastic Constant Matrix: (Units=GPa)
#
#
# Indices 1 2 3 4 5 6 
#
# 1 141.1882 16.8323 29.5722 0.0000 4.0271 0.0000
# 2 16.8323 164.5078 25.0519 0.0000 -18.6610 0.0000
# 3 29.5722 25.0519 71.2314 0.0000 -14.7001 0.0000
# 4 0.0000 0.0000 0.0000 72.1238 0.0000 -10.1816
# 5 4.0271 -18.6610 -14.7001 0.0000 27.5805 0.0000
# 6 0.0000 0.0000 0.0000 -10.1816 0.0000 1.1902
#
#
#
# Elastic Compliance Matrix: (Units=1/GPa)
#
#
# Indices 1 2 3 4 5 6 
#
# 1 0.008080 -0.000654 -0.003887 0.000000 -0.003694 0.000000
# 2 -0.000654 0.006797 -0.001292 0.000000 0.004005 0.000000
# 3 -0.003887 -0.001292 0.018026 0.000000 0.009301 0.000000
# 4 0.000000 0.000000 0.000000 -0.066789 0.000000 -0.571331
# 5 -0.003694 0.004005 0.009301 0.000000 0.044464 0.000000
# 6 0.000000 0.000000 0.000000 -0.571331 0.000000 -4.047164
#
#
# Mechanical properties :
#
#
# Convention : Reuss Voigt Hill
#
# Bulk Modulus (GPa) = 47.08733 57.76002 52.42368
# Shear Modulus (GPa) = -1.24445 40.54365 19.64960
#
# Velocity S-wave (km/s) = -0.72419 4.13355 2.87765
# Velocity P-wave (km/s) = 4.37546 6.86464 5.75621
#
# Compressibility (1/GPa) = 0.02123713
#
# Stress axis : x y z
#
# Youngs Moduli (GPa) = 123.75965 147.12806 55.47419
#
# Poissons Ratio (x) = 0.09620 0.21562
# Poissons Ratio (y) = 0.08092 0.07169
# Poissons Ratio (z) = 0.48104 0.19014
#
# Static dielectric constant tensor:
#      x y z
#    x 1.881810 0.000000 -0.030720 
#    y 0.000000 2.120750 0.000000 
#    z -0.030720 0.000000 1.945190 
# 
# From -- ./inp_files/13835.got.cif
#   From: 2010.05.17/outbox.cif.g08.bks.cpg/sg4_7_cif.got.tgz:13835.got - 2010.06.03 18:43:04.
