data_PCOD9116892
_publ_section_title
;
Structure prediction by ZEFSAII (Michael W. Deem and Ramdas Pophale) SiO2 
 PCOD9116892
Probable space group: P 21
;
_chemical_formula_sum "Si O2"
_cell_formula_units_Z 16
_cell_length_a 15.879048
_cell_length_b 4.974257
_cell_length_c 27.608506
_cell_angle_alpha 90.000000
_cell_angle_beta 18.859608
_cell_angle_gamma 90.000000
_cell_volume 704.911542
_symmetry_space_group_name_H-M "P 21"
_symmetry_group_IT_number 4
_symmetry_cell_setting 'monoclinic'
loop_
_space_group_symop_operation_xyz
x,y,z
-x,1/2+y,-z
loop_
_atom_site_type_symbol
_atom_site_label
_atom_site_fract_x
_atom_site_fract_y
_atom_site_fract_z
Si Si1 0.256176 0.957540 0.031700
Si Si2 0.081329 0.942557 0.238050
Si Si3 0.813416 0.921446 0.759399
Si Si4 0.010583 0.963347 0.864211
Si Si5 0.341648 0.411078 0.330239
Si Si6 0.107913 0.912983 0.504113
Si Si7 0.488973 0.595283 0.472755
Si Si8 0.923023 0.208593 0.013362
O O1 0.154814 0.968496 0.142003
O O2 0.209300 0.658408 0.038366
O O3 0.090083 0.162007 0.089327
O O4 0.559813 0.024297 0.868898
O O5 0.108974 0.644813 0.243716
O O6 0.252270 0.148309 0.176483
O O7 0.784211 0.039883 0.404158
O O8 0.034373 0.865508 0.599473
O O9 0.270030 0.021330 0.692417
O O10 0.041180 0.059154 0.902456
O O11 0.310186 0.706196 0.369813
O O12 0.632984 0.318654 0.161070
O O13 0.155019 0.386996 0.385089
O O14 0.217935 0.209666 0.436794
O O15 0.498020 0.397559 0.514412
O O16 0.079476 0.472012 0.945228
#
# Coordination Sequence:
#
# PCOD9116892 Si02
#       8
#     2   2   2   2   2   2   2   2
#     4  12  24  44  69  97 140 177 232 272 340 418
#     4  12  24  41  66  98 138 179 217 286 338 394
#     4  12  25  40  64 103 137 172 221 280 349 401
#     4  12  25  45  73  99 129 191 232 277 344 407
#     4  10  22  43  68  93 131 177 227 278 340 403
#     4  10  22  41  68  95 128 178 226 278 336 412
#     4  12  23  45  69  93 132 175 237 278 319 404
#     4  12  27  45  69 102 141 175 226 293 350 405
#
# _framework density 22.697882
#
# number of rings (size 3 to 8) (size 9 to 14) (size 15 to 20)
#    0.000    0.500    2.500    6.000    0.000    6.000 
#    0.000    0.000    0.000    0.000    0.000    0.000 
#    0.000    0.000    0.000    0.000    0.000    0.000 
#
# Total GULP energy -89621.703531 kJ/mol
# GULP energy per Si atom -5601.356471 kJ/mol
# Density = 2.264622 g / cm^3
# Si number density = 22.697882 Si / 1000 Ang^3
#
#
#
# Elastic Constant Matrix: (Units=GPa)
#
#
# Indices 1 2 3 4 5 6 
#
# 1 37.6325 9.2414 21.7204 0.0000 18.9348 0.0000
# 2 9.2414 82.0634 -7.7811 0.0000 1.7605 0.0000
# 3 21.7204 -7.7811 78.4699 0.0000 -4.6862 0.0000
# 4 0.0000 0.0000 0.0000 25.4056 0.0000 -3.6862
# 5 18.9348 1.7605 -4.6862 0.0000 27.7207 0.0000
# 6 0.0000 0.0000 0.0000 -3.6862 0.0000 40.9487
#
#
#
# Elastic Compliance Matrix: (Units=1/GPa)
#
#
# Indices 1 2 3 4 5 6 
#
# 1 0.065097 -0.008366 -0.021691 0.000000 -0.047601 0.000000
# 2 -0.008366 0.013386 0.003974 0.000000 0.005536 0.000000
# 3 -0.021691 0.003974 0.020216 0.000000 0.017981 0.000000
# 4 0.000000 0.000000 0.000000 0.039882 0.000000 0.003590
# 5 -0.047601 0.005536 0.017981 0.000000 0.071276 0.000000
# 6 0.000000 0.000000 0.000000 0.003590 0.000000 0.024744
#
#
# Mechanical properties :
#
#
# Convention : Reuss Voigt Hill
#
# Bulk Modulus (GPa) = 21.49087 27.16971 24.33029
# Shear Modulus (GPa) = 16.54097 30.48068 23.51083
#
# Velocity S-wave (km/s) = 2.70246 3.66852 3.22190
# Velocity P-wave (km/s) = 4.38480 5.47176 4.95816
#
# Compressibility (1/GPa) = 0.04653138
#
# Stress axis : x y z
#
# Youngs Moduli (GPa) = 15.36161 74.70563 49.46643
#
# Poissons Ratio (x) = 0.62501 1.07299
# Poissons Ratio (y) = 0.12852 -0.19657
# Poissons Ratio (z) = 0.33321 -0.29686
#
# Static dielectric constant tensor:
#      x y z
#    x 1.831620 0.000000 -0.007230 
#    y 0.000000 1.778610 0.000000 
#    z -0.007230 0.000000 1.835700 
# 
# From -- ./inp_files/11644.got.cif
#   From: 2010.05.17/outbox.cif.g08.bks.cpg/sg4_6_cif.got.tgz:11644.got - 2010.06.03 18:43:04.
