data_PCOD9116784
_publ_section_title
;
Structure prediction by ZEFSAII (Michael W. Deem and Ramdas Pophale) SiO2 
 PCOD9116784
Probable space group: P 21
;
_chemical_formula_sum "Si O2"
_cell_formula_units_Z 16
_cell_length_a 10.976356
_cell_length_b 8.898522
_cell_length_c 9.382135
_cell_angle_alpha 90.000000
_cell_angle_beta 122.414236
_cell_angle_gamma 90.000000
_cell_volume 773.607008
_symmetry_space_group_name_H-M "P 21"
_symmetry_group_IT_number 4
_symmetry_cell_setting 'monoclinic'
loop_
_space_group_symop_operation_xyz
x,y,z
-x,1/2+y,-z
loop_
_atom_site_type_symbol
_atom_site_label
_atom_site_fract_x
_atom_site_fract_y
_atom_site_fract_z
Si Si1 0.608469 0.347800 0.397939
Si Si2 0.726023 0.851274 0.752527
Si Si3 0.391031 0.321324 0.814081
Si Si4 0.069033 0.592376 0.637273
Si Si5 0.244727 0.167794 0.484352
Si Si6 0.851197 0.117920 0.641961
Si Si7 0.134882 0.298165 0.854231
Si Si8 0.369725 0.671933 0.878904
O O1 0.447127 0.366787 0.354965
O O2 0.683628 0.509110 0.434972
O O3 0.720661 0.239385 0.551516
O O4 0.589055 0.270915 0.231641
O O5 0.758599 0.699089 0.685371
O O6 0.799775 0.983094 0.708383
O O7 0.793325 0.846576 0.952122
O O8 0.337987 0.295820 0.621071
O O9 0.268735 0.246103 0.839054
O O10 0.398973 0.496034 0.863546
O O11 0.538494 0.234073 0.933816
O O12 0.114697 0.572771 0.501263
O O13 0.067515 0.436545 0.721932
O O14 0.198384 0.686328 0.789224
O O15 0.916072 0.669824 0.555078
O O16 0.002347 0.185758 0.791879
#
# Coordination Sequence:
#
# PCOD9116784 Si02
#       8
#     2   2   2   2   2   2   2   2
#     4  11  23  45  68  95 137 180 224 276 342 404
#     4  12  27  43  64 100 138 180 220 280 343 408
#     4  11  22  43  68 102 133 175 227 281 335 398
#     4  10  23  43  69  98 127 172 230 279 332 393
#     4  12  24  42  72  97 133 176 230 279 340 406
#     4  11  24  44  73  96 133 181 227 276 340 406
#     4  11  23  44  67  95 142 167 223 281 333 402
#     4  10  22  40  69 101 135 171 225 284 329 397
#
# _framework density 20.682334999999998
#
# number of rings (size 3 to 8) (size 9 to 14) (size 15 to 20)
#    0.000    1.000    3.750    3.750    3.500    0.000 
#    2.250    0.000    0.000    0.000    0.000    0.000 
#    0.000    0.000    0.000    0.000    0.000    0.000 
#
# Total GULP energy -89433.325087 kJ/mol
# GULP energy per Si atom -5589.582818 kJ/mol
# Density = 2.063526 g / cm^3
# Si number density = 20.682335 Si / 1000 Ang^3
#
#
#
# Elastic Constant Matrix: (Units=GPa)
#
#
# Indices 1 2 3 4 5 6 
#
# 1 120.7962 35.3505 40.4416 0.0000 19.2994 0.0000
# 2 35.3505 72.6881 29.6471 0.0000 13.4293 0.0000
# 3 40.4416 29.6471 102.6551 0.0000 15.5143 0.0000
# 4 0.0000 0.0000 0.0000 31.6865 0.0000 2.6527
# 5 19.2994 13.4293 15.5143 0.0000 27.0926 0.0000
# 6 0.0000 0.0000 0.0000 2.6527 0.0000 33.9037
#
#
#
# Elastic Compliance Matrix: (Units=1/GPa)
#
#
# Indices 1 2 3 4 5 6 
#
# 1 0.010873 -0.003375 -0.002618 0.000000 -0.004573 0.000000
# 2 -0.003375 0.017471 -0.003033 0.000000 -0.004519 0.000000
# 3 -0.002618 -0.003033 0.012195 0.000000 -0.003615 0.000000
# 4 0.000000 0.000000 0.000000 0.031767 0.000000 -0.002486
# 5 -0.004573 -0.004519 -0.003615 0.000000 0.044478 0.000000
# 6 0.000000 0.000000 0.000000 -0.002486 0.000000 0.029690
#
#
# Mechanical properties :
#
#
# Convention : Reuss Voigt Hill
#
# Bulk Modulus (GPa) = 44.46992 56.33530 50.40261
# Shear Modulus (GPa) = 29.06604 31.24991 30.15797
#
# Velocity S-wave (km/s) = 3.75287 3.89131 3.82272
# Velocity P-wave (km/s) = 6.35034 6.89110 6.62624
#
# Compressibility (1/GPa) = 0.02248711
#
# Stress axis : x y z
#
# Youngs Moduli (GPa) = 91.96891 57.23814 82.00171
#
# Poissons Ratio (x) = 0.19320 0.21464
# Poissons Ratio (y) = 0.31043 0.24871
# Poissons Ratio (z) = 0.24073 0.17360
#
# Static dielectric constant tensor:
#      x y z
#    x 1.734860 0.000000 0.010410 
#    y 0.000000 1.746160 0.000000 
#    z 0.010410 0.000000 1.729500 
# 
# From -- ./inp_files/7789.got.cif
#   From: 2010.05.17/outbox.cif.g08.bks.cpg/sg4_4_cif.got.tgz:7789.got - 2010.06.03 18:43:04.
