data_PCOD9116428
_publ_section_title
;
Structure prediction by ZEFSAII (Michael W. Deem and Ramdas Pophale) SiO2 
 PCOD9116428
Probable space group: P 21
;
_chemical_formula_sum "Si O2"
_cell_formula_units_Z 16
_cell_length_a 10.634984
_cell_length_b 10.796722
_cell_length_c 9.003211
_cell_angle_alpha 90.000000
_cell_angle_beta 139.382019
_cell_angle_gamma 90.000000
_cell_volume 673.000664
_symmetry_space_group_name_H-M "P 21"
_symmetry_group_IT_number 4
_symmetry_cell_setting 'monoclinic'
loop_
_space_group_symop_operation_xyz
x,y,z
-x,1/2+y,-z
loop_
_atom_site_type_symbol
_atom_site_label
_atom_site_fract_x
_atom_site_fract_y
_atom_site_fract_z
Si Si1 0.935956 0.044430 0.376653
Si Si2 0.982579 0.245941 0.193631
Si Si3 0.512659 0.998457 0.921020
Si Si4 0.255196 0.894394 0.468947
Si Si5 0.450359 0.992721 0.342578
Si Si6 0.814516 0.507736 0.124912
Si Si7 0.563578 0.732709 0.361084
Si Si8 0.754840 0.157475 0.707505
O O1 0.912614 0.178202 0.280400
O O2 0.726802 0.982577 0.174447
O O3 0.089161 0.969640 0.408536
O O4 0.016309 0.056503 0.614793
O O5 0.907950 0.385918 0.132843
O O6 0.211173 0.238160 0.408384
O O7 0.896554 0.171184 0.974882
O O8 0.487709 0.129561 0.808598
O O9 0.443375 0.894696 0.742537
O O10 0.354484 0.994431 0.905960
O O11 0.186741 0.758892 0.360206
O O12 0.334366 0.958104 0.388861
O O13 0.674791 0.030275 0.570640
O O14 0.479062 0.869325 0.266540
O O15 0.300641 0.075622 0.111825
O O16 0.454337 0.694757 0.412997
#
# Coordination Sequence:
#
# PCOD9116428 Si02
#       8
#     2   2   2   2   2   2   2   2
#     4  11  23  45  71  96 138 194 223 291 353 420
#     4  12  22  44  72  99 136 190 235 287 358 418
#     4  11  22  47  71  98 139 189 232 284 357 420
#     4  10  21  43  70 102 137 178 239 285 349 424
#     4  11  22  46  69 106 141 185 233 294 355 414
#     4  11  25  43  68 107 139 179 247 285 346 436
#     4  11  22  43  74  96 140 187 224 289 361 412
#     4  11  23  43  69 106 144 178 233 299 345 424
#
# _framework density 23.774124
#
# number of rings (size 3 to 8) (size 9 to 14) (size 15 to 20)
#    0.000    1.000    7.500    0.000    1.750    3.000 
#   13.500    0.000    0.000    0.000    0.000    0.000 
#    0.000    0.000    0.000    0.000    0.000    0.000 
#
# Total GULP energy -89255.139111 kJ/mol
# GULP energy per Si atom -5578.446194 kJ/mol
# Density = 2.372001 g / cm^3
# Si number density = 23.774124 Si / 1000 Ang^3
#
#
#
# Elastic Constant Matrix: (Units=GPa)
#
#
# Indices 1 2 3 4 5 6 
#
# 1 92.7936 9.4624 47.8905 0.0000 11.9964 0.0000
# 2 9.4624 37.4752 -5.2571 0.0000 0.6816 0.0000
# 3 47.8905 -5.2571 182.1608 0.0000 17.5607 0.0000
# 4 0.0000 0.0000 0.0000 21.0960 0.0000 7.8002
# 5 11.9964 0.6816 17.5607 0.0000 45.8195 0.0000
# 6 0.0000 0.0000 0.0000 7.8002 0.0000 19.9153
#
#
#
# Elastic Compliance Matrix: (Units=1/GPa)
#
#
# Indices 1 2 3 4 5 6 
#
# 1 0.013170 -0.003760 -0.003368 0.000000 -0.002101 0.000000
# 2 -0.003760 0.027889 0.001805 0.000000 -0.000122 0.000000
# 3 -0.003368 0.001805 0.006588 0.000000 -0.001670 0.000000
# 4 0.000000 0.000000 0.000000 0.055430 0.000000 -0.021710
# 5 -0.002101 -0.000122 -0.001670 0.000000 0.023017 0.000000
# 6 0.000000 0.000000 0.000000 -0.021710 0.000000 0.058716
#
#
# Mechanical properties :
#
#
# Convention : Reuss Voigt Hill
#
# Bulk Modulus (GPa) = 27.02598 46.29124 36.65861
# Shear Modulus (GPa) = 24.06284 34.72175 29.39229
#
# Velocity S-wave (km/s) = 3.18487 3.82577 3.51994
# Velocity P-wave (km/s) = 4.99170 6.24732 5.65447
#
# Compressibility (1/GPa) = 0.03700144
#
# Stress axis : x y z
#
# Youngs Moduli (GPa) = 75.92986 35.85637 151.78445
#
# Poissons Ratio (x) = 0.13481 0.51127
# Poissons Ratio (y) = 0.28547 -0.27398
# Poissons Ratio (z) = 0.25576 -0.06472
#
# Static dielectric constant tensor:
#      x y z
#    x 1.891070 0.000000 -0.027080 
#    y 0.000000 2.197650 0.000000 
#    z -0.027080 0.000000 2.036440 
# 
# From -- ./inp_files/8484.got.cif
#   From: 2010.05.17/outbox.cif.g08.bks.cpg/sg4_5_cif.got.tgz:8484.got - 2010.06.03 18:43:04.
