data_PCOD9116731
_publ_section_title
;
Structure prediction by ZEFSAII (Michael W. Deem and Ramdas Pophale) SiO2 
 PCOD9116731
Probable space group: P 21
;
_chemical_formula_sum "Si O2"
_cell_formula_units_Z 16
_cell_length_a 8.463483
_cell_length_b 7.941713
_cell_length_c 9.343824
_cell_angle_alpha 90.000000
_cell_angle_beta 82.628315
_cell_angle_gamma 90.000000
_cell_volume 622.850000
_symmetry_space_group_name_H-M "P 21"
_symmetry_group_IT_number 4
_symmetry_cell_setting 'monoclinic'
loop_
_space_group_symop_operation_xyz
x,y,z
-x,1/2+y,-z
loop_
_atom_site_type_symbol
_atom_site_label
_atom_site_fract_x
_atom_site_fract_y
_atom_site_fract_z
Si Si1 0.640996 0.947000 0.449125
Si Si2 0.650646 0.136760 0.165974
Si Si3 0.497282 0.826102 0.048274
Si Si4 0.003240 0.839724 0.451424
Si Si5 0.154506 0.976187 0.170402
Si Si6 0.566040 0.608134 0.296467
Si Si7 0.985377 0.189530 0.990825
Si Si8 0.932281 0.507620 0.289965
O O1 0.627177 0.095559 0.333646
O O2 0.824517 0.903707 0.450039
O O3 0.563636 0.785024 0.382791
O O4 0.556904 0.992628 0.605901
O O5 0.626115 0.961322 0.082583
O O6 0.526174 0.267265 0.111406
O O7 0.826269 0.196831 0.103825
O O8 0.327429 0.902562 0.118014
O O9 0.525275 0.658867 0.139917
O O10 0.005365 0.654502 0.383064
O O11 0.120227 0.957945 0.342514
O O12 0.045487 0.845813 0.613435
O O13 0.022164 0.850853 0.113095
O O14 0.125984 0.147966 0.086154
O O15 0.745199 0.539122 0.286388
O O16 0.986749 0.038760 0.872138
#
# Coordination Sequence:
#
# PCOD9116731 Si02
#       8
#     2   2   2   2   2   2   2   2
#     4  10  22  42  63  89 126 163 206 257 308 366
#     4  10  22  42  61  94 122 166 204 261 310 364
#     4  10  24  40  64  91 126 164 206 254 312 372
#     4  10  22  41  63  90 123 165 208 255 303 366
#     4  10  22  40  64  91 124 162 209 254 309 366
#     4  10  24  42  63  90 126 166 203 257 311 366
#     4  10  22  42  63  90 123 162 209 260 308 359
#     4  10  24  41  63  93 124 164 209 256 309 365
#
# _framework density 25.688369000000002
#
# number of rings (size 3 to 8) (size 9 to 14) (size 15 to 20)
#    0.000    2.000    1.250    0.000   12.250    2.000 
#    4.500    0.000    0.000    0.000    0.000    0.000 
#    0.000    0.000    0.000    0.000    0.000    0.000 
#
# Total GULP energy -89635.566383 kJ/mol
# GULP energy per Si atom -5602.222899 kJ/mol
# Density = 2.562990 g / cm^3
# Si number density = 25.688369 Si / 1000 Ang^3
#
#
#
# Elastic Constant Matrix: (Units=GPa)
#
#
# Indices 1 2 3 4 5 6 
#
# 1 33.8463 3.3185 11.0215 0.0000 3.7595 0.0000
# 2 3.3185 50.8952 12.1378 0.0000 -3.6338 0.0000
# 3 11.0215 12.1378 129.6183 0.0000 -4.7136 0.0000
# 4 0.0000 0.0000 0.0000 57.6186 0.0000 7.1208
# 5 3.7595 -3.6338 -4.7136 0.0000 34.1491 0.0000
# 6 0.0000 0.0000 0.0000 7.1208 0.0000 37.6462
#
#
#
# Elastic Compliance Matrix: (Units=1/GPa)
#
#
# Indices 1 2 3 4 5 6 
#
# 1 0.031003 -0.001678 -0.002623 0.000000 -0.003954 0.000000
# 2 -0.001678 0.020310 -0.001682 0.000000 0.002114 0.000000
# 3 -0.002623 -0.001682 0.008140 0.000000 0.001233 0.000000
# 4 0.000000 0.000000 0.000000 0.017771 0.000000 -0.003361
# 5 -0.003954 0.002114 0.001233 0.000000 0.030114 0.000000
# 6 0.000000 0.000000 0.000000 -0.003361 0.000000 0.027199
#
#
# Mechanical properties :
#
#
# Convention : Reuss Voigt Hill
#
# Bulk Modulus (GPa) = 21.05864 29.70172 25.38018
# Shear Modulus (GPa) = 30.80097 38.40824 34.60460
#
# Velocity S-wave (km/s) = 3.46645 3.87093 3.67426
# Velocity P-wave (km/s) = 4.92313 5.61838 5.28221
#
# Compressibility (1/GPa) = 0.04748644
#
# Stress axis : x y z
#
# Youngs Moduli (GPa) = 32.25479 49.23741 122.84466
#
# Poissons Ratio (x) = 0.08264 0.32220
# Poissons Ratio (y) = 0.05413 0.20666
# Poissons Ratio (z) = 0.08460 0.08283
#
# Static dielectric constant tensor:
#      x y z
#    x 1.930860 0.000000 0.034690 
#    y 0.000000 2.159280 0.000000 
#    z 0.034690 0.000000 1.958970 
# 
# From -- ./inp_files/5596.got.cif
#   From: 2010.05.17/outbox.cif.g08.bks.cpg/sg4_3_cif.got.tgz:5596.got - 2010.06.03 18:43:04.
