data_PCOD9116591
_publ_section_title
;
Structure prediction by ZEFSAII (Michael W. Deem and Ramdas Pophale) SiO2 
 PCOD9116591
Probable space group: P 21
;
_chemical_formula_sum "Si O2"
_cell_formula_units_Z 14
_cell_length_a 5.148784
_cell_length_b 14.575197
_cell_length_c 7.421623
_cell_angle_alpha 90.000000
_cell_angle_beta 90.278263
_cell_angle_gamma 90.000000
_cell_volume 556.945724
_symmetry_space_group_name_H-M "P 21"
_symmetry_group_IT_number 4
_symmetry_cell_setting 'monoclinic'
loop_
_space_group_symop_operation_xyz
x,y,z
-x,1/2+y,-z
loop_
_atom_site_type_symbol
_atom_site_label
_atom_site_fract_x
_atom_site_fract_y
_atom_site_fract_z
Si Si1 0.469417 0.965330 0.974256
Si Si2 0.593758 0.194981 0.501519
Si Si3 0.755713 0.276033 0.872365
Si Si4 0.542833 0.876532 0.605244
Si Si5 0.083894 0.091838 0.517233
Si Si6 0.028634 0.580916 0.053807
Si Si7 0.965641 0.405346 0.615692
O O1 0.485202 0.946203 0.761640
O O2 0.742494 0.013930 0.013452
O O3 0.402280 0.862255 0.044045
O O4 0.242244 0.038241 0.017664
O O5 0.586508 0.230395 0.709895
O O6 0.513525 0.270667 0.356464
O O7 0.893864 0.174935 0.471369
O O8 0.384535 0.114778 0.494379
O O9 0.881777 0.187582 0.973916
O O10 0.988296 0.334387 0.777771
O O11 0.332673 0.898613 0.450343
O O12 0.834224 0.878032 0.537992
O O13 0.009883 0.072409 0.726631
O O14 0.993493 0.013145 0.381365
#
# Coordination Sequence:
#
# PCOD9116591 Si02
#       7
#     2   2   2   2   2   2   2
#     4  12  24  43  68  95 131 175 221 266 327 390
#     4  10  22  37  66  92 131 163 214 262 330 380
#     4  10  26  45  66  98 134 177 217 275 326 390
#     4  11  20  40  62  95 123 166 208 270 319 383
#     4  11  19  39  65  97 119 171 215 263 318 395
#     4  11  23  42  69  91 132 181 215 258 340 397
#     4  11  22  40  66  94 128 163 220 270 322 383
#
# _framework density 25.137098000000002
#
# number of rings (size 3 to 8) (size 9 to 14) (size 15 to 20)
#    0.000    1.143    2.857    5.143    0.000    6.857 
#    5.143    0.000    0.000    0.000    0.000    0.000 
#    0.000    0.000    0.000    0.000    0.000    0.000 
#
# Total GULP energy -78135.030391 kJ/mol
# GULP energy per Si atom -5581.073599 kJ/mol
# Density = 2.507988 g / cm^3
# Si number density = 25.137098 Si / 1000 Ang^3
#
#
#
# Elastic Constant Matrix: (Units=GPa)
#
#
# Indices 1 2 3 4 5 6 
#
# 1 83.5077 43.8779 9.0247 0.0000 -11.0231 0.0000
# 2 43.8779 128.1470 24.9551 0.0000 -11.9130 0.0000
# 3 9.0247 24.9551 43.8003 0.0000 -7.5751 0.0000
# 4 0.0000 0.0000 0.0000 47.8016 0.0000 -12.2087
# 5 -11.0231 -11.9130 -7.5751 0.0000 26.5500 0.0000
# 6 0.0000 0.0000 0.0000 -12.2087 0.0000 39.3747
#
#
#
# Elastic Compliance Matrix: (Units=1/GPa)
#
#
# Indices 1 2 3 4 5 6 
#
# 1 0.015023 -0.004829 0.000379 0.000000 0.004179 0.000000
# 2 -0.004829 0.010510 -0.004759 0.000000 0.001353 0.000000
# 3 0.000379 -0.004759 0.026426 0.000000 0.005562 0.000000
# 4 0.000000 0.000000 0.000000 0.022719 0.000000 0.007044
# 5 0.004179 0.001353 0.005562 0.000000 0.041594 0.000000
# 6 0.000000 0.000000 0.000000 0.007044 0.000000 0.027581
#
#
# Mechanical properties :
#
#
# Convention : Reuss Voigt Hill
#
# Bulk Modulus (GPa) = 29.81508 45.68557 37.75032
# Shear Modulus (GPa) = 28.82659 34.58508 31.70584
#
# Velocity S-wave (km/s) = 3.39008 3.71328 3.55535
# Velocity P-wave (km/s) = 5.21635 6.04968 5.64840
#
# Compressibility (1/GPa) = 0.03354008
#
# Stress axis : x y z
#
# Youngs Moduli (GPa) = 66.56447 95.15140 37.84143
#
# Poissons Ratio (x) = 0.45951 -0.01433
# Poissons Ratio (y) = 0.32146 0.18008
# Poissons Ratio (z) = -0.02521 0.45281
#
# Static dielectric constant tensor:
#      x y z
#    x 1.927130 0.000000 0.021140 
#    y 0.000000 2.111260 0.000000 
#    z 0.021140 0.000000 2.125640 
# 
# From -- ./inp_files/4822.got.cif
#   From: 2010.05.17/outbox.cif.g08.bks.cpg/sg4_3_cif.got.tgz:4822.got - 2010.06.03 18:43:04.
