data_PCOD9117247
_publ_section_title
;
Structure prediction by ZEFSAII (Michael W. Deem and Ramdas Pophale) SiO2 
 PCOD9117247
Probable space group: P 21
;
_chemical_formula_sum "Si O2"
_cell_formula_units_Z 16
_cell_length_a 8.569218
_cell_length_b 13.337544
_cell_length_c 6.842962
_cell_angle_alpha 90.000000
_cell_angle_beta 57.088555
_cell_angle_gamma 90.000000
_cell_volume 656.580160
_symmetry_space_group_name_H-M "P 21"
_symmetry_group_IT_number 4
_symmetry_cell_setting 'monoclinic'
loop_
_space_group_symop_operation_xyz
x,y,z
-x,1/2+y,-z
loop_
_atom_site_type_symbol
_atom_site_label
_atom_site_fract_x
_atom_site_fract_y
_atom_site_fract_z
Si Si1 0.651500 0.038900 0.205860
Si Si2 0.345294 0.027558 0.086435
Si Si3 0.162417 0.349776 0.089382
Si Si4 0.153172 0.656301 0.189331
Si Si5 0.488416 0.169294 0.645422
Si Si6 0.460690 0.800825 0.044876
Si Si7 0.065361 0.478890 0.501391
Si Si8 0.838952 0.791961 0.311776
O O1 0.601204 0.090296 0.440648
O O2 0.476252 0.058768 0.179663
O O3 0.696326 0.923021 0.129881
O O4 0.846155 0.087144 0.001938
O O5 0.411499 0.912431 0.011595
O O6 0.129330 0.019076 0.287277
O O7 0.382767 0.099724 0.877848
O O8 0.315898 0.289877 0.112554
O O9 0.069104 0.296198 0.970285
O O10 0.038178 0.410781 0.324354
O O11 0.322238 0.729778 0.024052
O O12 0.180756 0.574234 0.342105
O O13 0.973980 0.721810 0.345958
O O14 0.588712 0.257077 0.703660
O O15 0.350207 0.232092 0.598930
O O16 0.158556 0.401654 0.589982
#
# Coordination Sequence:
#
# PCOD9117247 Si02
#       8
#     2   2   2   2   2   2   2   2
#     4  10  23  43  70 103 139 180 238 291 343 422
#     4  11  23  46  69 103 143 185 233 289 357 425
#     4   9  24  43  68 102 139 181 235 287 349 415
#     4  11  23  45  69 103 141 187 233 289 360 416
#     4  11  25  45  73 102 138 186 237 293 352 418
#     4  10  22  45  66 101 135 185 235 281 354 417
#     4  11  25  43  72 100 146 186 230 294 359 418
#     4  11  25  44  67 106 141 184 237 290 354 421
#
# _framework density 24.368696
#
# number of rings (size 3 to 8) (size 9 to 14) (size 15 to 20)
#    0.000    1.500    2.500    0.750    3.500    6.000 
#    4.500    0.000    0.000    0.000    0.000    0.000 
#    0.000    0.000    0.000    0.000    0.000    0.000 
#
# Total GULP energy -89181.331176 kJ/mol
# GULP energy per Si atom -5573.833198 kJ/mol
# Density = 2.431323 g / cm^3
# Si number density = 24.368696 Si / 1000 Ang^3
#
#
#
# Elastic Constant Matrix: (Units=GPa)
#
#
# Indices 1 2 3 4 5 6 
#
# 1 43.7160 28.7424 17.7118 0.0000 6.6572 0.0000
# 2 28.7424 117.4717 15.0929 0.0000 -8.7956 0.0000
# 3 17.7118 15.0929 98.1756 0.0000 -7.3913 0.0000
# 4 0.0000 0.0000 0.0000 43.3486 0.0000 -0.0203
# 5 6.6572 -8.7956 -7.3913 0.0000 21.0739 0.0000
# 6 0.0000 0.0000 0.0000 -0.0203 0.0000 38.6702
#
#
#
# Elastic Compliance Matrix: (Units=1/GPa)
#
#
# Indices 1 2 3 4 5 6 
#
# 1 0.033425 -0.008633 -0.005926 0.000000 -0.016240 0.000000
# 2 -0.008633 0.011135 0.000412 0.000000 0.007519 0.000000
# 3 -0.005926 0.000412 0.011653 0.000000 0.006131 0.000000
# 4 0.000000 0.000000 0.000000 0.023069 0.000000 0.000012
# 5 -0.016240 0.007519 0.006131 0.000000 0.057871 0.000000
# 6 0.000000 0.000000 0.000000 0.000012 0.000000 0.025860
#
#
# Mechanical properties :
#
#
# Convention : Reuss Voigt Hill
#
# Bulk Modulus (GPa) = 35.81749 42.49527 39.15638
# Shear Modulus (GPa) = 24.92370 33.80628 29.36499
#
# Velocity S-wave (km/s) = 3.20156 3.72867 3.47512
# Velocity P-wave (km/s) = 5.32885 6.00113 5.67496
#
# Compressibility (1/GPa) = 0.02791932
#
# Stress axis : x y z
#
# Youngs Moduli (GPa) = 29.91796 89.80683 85.81375
#
# Poissons Ratio (x) = 0.77529 0.50850
# Poissons Ratio (y) = 0.25828 -0.03533
# Poissons Ratio (z) = 0.17728 -0.03697
#
# Static dielectric constant tensor:
#      x y z
#    x 2.010610 0.000000 0.074070 
#    y 0.000000 1.992700 0.000000 
#    z 0.074070 0.000000 1.977440 
# 
# From -- ./inp_files/1830.got.cif
#   From: 2010.05.17/outbox.cif.g08.bks.cpg/sg4_1_cif.got.tgz:1830.got - 2010.06.03 18:43:04.
