data_PCOD9117018
_publ_section_title
;
Structure prediction by ZEFSAII (Michael W. Deem and Ramdas Pophale) SiO2 
 PCOD9117018
Probable space group: P 21
;
_chemical_formula_sum "Si O2"
_cell_formula_units_Z 14
_cell_length_a 12.308067
_cell_length_b 5.124654
_cell_length_c 19.805090
_cell_angle_alpha 90.000000
_cell_angle_beta 24.220311
_cell_angle_gamma 90.000000
_cell_volume 512.478848
_symmetry_space_group_name_H-M "P 21"
_symmetry_group_IT_number 4
_symmetry_cell_setting 'monoclinic'
loop_
_space_group_symop_operation_xyz
x,y,z
-x,1/2+y,-z
loop_
_atom_site_type_symbol
_atom_site_label
_atom_site_fract_x
_atom_site_fract_y
_atom_site_fract_z
Si Si1 0.881340 0.656740 0.814962
Si Si2 0.040797 0.818960 0.856226
Si Si3 0.596181 0.913556 0.853552
Si Si4 0.853358 0.591941 0.085425
Si Si5 0.894270 0.743316 0.408956
Si Si6 0.835278 0.715768 0.586964
Si Si7 0.489356 0.470040 0.553354
O O1 0.967906 0.877671 0.820124
O O2 0.075867 0.469637 0.662730
O O3 0.685171 0.755518 0.868782
O O4 0.703934 0.485018 0.965517
O O5 0.227027 0.565356 0.741088
O O6 0.797304 0.746165 0.046284
O O7 0.227263 0.023092 0.791767
O O8 0.810415 0.151531 0.736021
O O9 0.641840 0.761759 0.758485
O O10 0.907113 0.294617 0.032929
O O11 0.750698 0.812749 0.560738
O O12 0.732458 0.505820 0.467792
O O13 0.922681 0.415122 0.532792
O O14 0.477856 0.201001 0.520707
#
# Coordination Sequence:
#
# PCOD9117018 Si02
#       7
#     2   2   2   2   2   2   2
#     4  12  22  43  69 101 134 177 230 282 340 393
#     4  10  23  42  68  95 140 174 226 275 335 403
#     4  11  24  42  67 104 134 177 228 285 338 406
#     4   8  20  41  66  95 133 170 220 273 330 398
#     4  11  24  44  68  98 135 182 224 280 340 406
#     4  10  22  42  70  95 140 175 224 276 339 408
#     4  12  27  42  68 100 136 177 224 277 334 398
#
# _framework density 27.318200999999998
#
# number of rings (size 3 to 8) (size 9 to 14) (size 15 to 20)
#    0.857    0.571    4.286    0.857    2.000    2.286 
#    0.000    5.714    0.000    0.000    0.000    0.000 
#    0.000    0.000    0.000    0.000    0.000    0.000 
#
# Total GULP energy -78017.510162 kJ/mol
# GULP energy per Si atom -5572.679297 kJ/mol
# Density = 2.725602 g / cm^3
# Si number density = 27.318201 Si / 1000 Ang^3
#
#
#
# Elastic Constant Matrix: (Units=GPa)
#
#
# Indices 1 2 3 4 5 6 
#
# 1 142.5598 14.4910 56.6089 0.0000 42.3275 0.0000
# 2 14.4910 97.9205 16.2055 0.0000 4.5933 0.0000
# 3 56.6089 16.2055 82.1992 0.0000 42.4978 0.0000
# 4 0.0000 0.0000 0.0000 30.3339 0.0000 5.2469
# 5 42.3275 4.5933 42.4978 0.0000 65.5201 0.0000
# 6 0.0000 0.0000 0.0000 5.2469 0.0000 39.6256
#
#
#
# Elastic Compliance Matrix: (Units=1/GPa)
#
#
# Indices 1 2 3 4 5 6 
#
# 1 0.010056 -0.000476 -0.005251 0.000000 -0.003057 0.000000
# 2 -0.000476 0.010616 -0.002316 0.000000 0.001065 0.000000
# 3 -0.005251 -0.002316 0.021666 0.000000 -0.010499 0.000000
# 4 0.000000 0.000000 0.000000 0.033739 0.000000 -0.004467
# 5 -0.003057 0.001065 -0.010499 0.000000 0.023972 0.000000
# 6 0.000000 0.000000 0.000000 -0.004467 0.000000 0.025828
#
#
# Mechanical properties :
#
#
# Convention : Reuss Voigt Hill
#
# Bulk Modulus (GPa) = 38.09138 55.25447 46.67292
# Shear Modulus (GPa) = 33.17549 42.78752 37.98151
#
# Velocity S-wave (km/s) = 3.48862 3.96190 3.73277
# Velocity P-wave (km/s) = 5.49556 6.41865 5.97495
#
# Compressibility (1/GPa) = 0.02625266
#
# Stress axis : x y z
#
# Youngs Moduli (GPa) = 99.44642 94.19646 46.15471
#
# Poissons Ratio (x) = 0.04481 0.24235
# Poissons Ratio (y) = 0.04731 0.10690
# Poissons Ratio (z) = 0.52217 0.21817
#
# Static dielectric constant tensor:
#      x y z
#    x 2.187020 0.000000 -0.015190 
#    y 0.000000 2.115500 0.000000 
#    z -0.015190 0.000000 2.263440 
# 
# From -- ./inp_files/12775.got.cif
#   From: 2010.05.17/outbox.cif.g08.bks.cpg/sg4_7_cif.got.tgz:12775.got - 2010.06.03 18:43:04.
