data_PCOD9117320
_publ_section_title
;
Structure prediction by ZEFSAII (Michael W. Deem and Ramdas Pophale) SiO2 
 PCOD9117320
Probable space group: P 21
;
_chemical_formula_sum "Si O2"
_cell_formula_units_Z 14
_cell_length_a 7.756436
_cell_length_b 9.278504
_cell_length_c 8.710202
_cell_angle_alpha 90.000000
_cell_angle_beta 70.141937
_cell_angle_gamma 90.000000
_cell_volume 589.582101
_symmetry_space_group_name_H-M "P 21"
_symmetry_group_IT_number 4
_symmetry_cell_setting 'monoclinic'
loop_
_space_group_symop_operation_xyz
x,y,z
-x,1/2+y,-z
loop_
_atom_site_type_symbol
_atom_site_label
_atom_site_fract_x
_atom_site_fract_y
_atom_site_fract_z
Si Si1 0.586212 0.391720 0.491131
Si Si2 0.111894 0.121382 0.500517
Si Si3 0.033567 0.156056 0.866563
Si Si4 0.778376 0.930326 0.591964
Si Si5 0.582724 0.798771 0.160671
Si Si6 0.212613 0.860629 0.873831
Si Si7 0.456841 0.526112 0.057592
O O1 0.709482 0.526371 0.510291
O O2 0.390096 0.433963 0.477027
O O3 0.542559 0.292618 0.649925
O O4 0.700521 0.321665 0.317384
O O5 0.028612 0.178351 0.686167
O O6 0.166694 0.264141 0.393919
O O7 0.955167 0.018317 0.480551
O O8 0.218608 0.239074 0.860121
O O9 0.062942 0.986646 0.889011
O O10 0.871993 0.228625 0.009492
O O11 0.704804 0.992898 0.774322
O O12 0.504766 0.692942 0.054265
O O13 0.581402 0.959163 0.095490
O O14 0.368213 0.943101 0.923390
#
# Coordination Sequence:
#
# PCOD9117320 Si02
#       7
#     2   2   2   2   2   2   2
#     4  10  24  49  77 104 148 194 248 302 369 444
#     4  11  26  46  75 111 148 193 245 307 374 437
#     4  10  22  46  68 104 141 183 241 297 360 442
#     4  11  26  48  73 110 148 193 249 307 368 445
#     4  11  24  47  72 103 147 188 244 304 369 437
#     4   9  22  45  69 103 140 186 242 293 368 427
#     4  10  26  43  70 103 146 187 243 302 366 440
#
# _framework density 23.745633000000002
#
# number of rings (size 3 to 8) (size 9 to 14) (size 15 to 20)
#    0.000    1.714    1.429    0.857   10.000    0.000 
#    7.714    0.000    0.000    0.000    0.000    0.000 
#    0.000    0.000    0.000    0.000    0.000    0.000 
#
# Total GULP energy -78393.044048 kJ/mol
# GULP energy per Si atom -5599.503146 kJ/mol
# Density = 2.369159 g / cm^3
# Si number density = 23.745633 Si / 1000 Ang^3
#
#
#
# Elastic Constant Matrix: (Units=GPa)
#
#
# Indices 1 2 3 4 5 6 
#
# 1 98.6313 40.0696 28.7852 0.0000 -24.8935 0.0000
# 2 40.0696 65.1688 27.6354 0.0000 -17.7248 0.0000
# 3 28.7852 27.6354 45.9520 0.0000 -7.3872 0.0000
# 4 0.0000 0.0000 0.0000 39.5638 0.0000 3.4788
# 5 -24.8935 -17.7248 -7.3872 0.0000 27.4788 0.0000
# 6 0.0000 0.0000 0.0000 3.4788 0.0000 29.1467
#
#
#
# Elastic Compliance Matrix: (Units=1/GPa)
#
#
# Indices 1 2 3 4 5 6 
#
# 1 0.016331 -0.004887 -0.005664 0.000000 0.010120 0.000000
# 2 -0.004887 0.025364 -0.010738 0.000000 0.009046 0.000000
# 3 -0.005664 -0.010738 0.031177 0.000000 -0.003677 0.000000
# 4 0.000000 0.000000 0.000000 0.025544 0.000000 -0.003049
# 5 0.010120 0.009046 -0.003677 0.000000 0.050406 0.000000
# 6 0.000000 0.000000 0.000000 -0.003049 0.000000 0.034673
#
#
# Mechanical properties :
#
#
# Convention : Reuss Voigt Hill
#
# Bulk Modulus (GPa) = 33.01087 44.74806 38.87947
# Shear Modulus (GPa) = 21.17106 26.78867 23.97986
#
# Velocity S-wave (km/s) = 2.98917 3.36244 3.18128
# Velocity P-wave (km/s) = 5.08385 5.82755 5.46836
#
# Compressibility (1/GPa) = 0.03029305
#
# Stress axis : x y z
#
# Youngs Moduli (GPa) = 61.23168 39.42653 32.07508
#
# Poissons Ratio (x) = 0.19268 0.18169
# Poissons Ratio (y) = 0.29924 0.34442
# Poissons Ratio (z) = 0.34684 0.42336
#
# Static dielectric constant tensor:
#      x y z
#    x 1.936750 0.000000 0.001360 
#    y 0.000000 1.882170 0.000000 
#    z 0.001360 0.000000 1.861080 
# 
# From -- ./inp_files/5244.got.cif
#   From: 2010.05.17/outbox.cif.g08.bks.cpg/sg4_3_cif.got.tgz:5244.got - 2010.06.03 18:43:04.
