data_PCOD9117355
_publ_section_title
;
Structure prediction by ZEFSAII (Michael W. Deem and Ramdas Pophale) SiO2 
 PCOD9117355
Probable space group: P 21
;
_chemical_formula_sum "Si O2"
_cell_formula_units_Z 14
_cell_length_a 12.211753
_cell_length_b 11.496026
_cell_length_c 5.213168
_cell_angle_alpha 90.000000
_cell_angle_beta 129.545036
_cell_angle_gamma 90.000000
_cell_volume 564.354378
_symmetry_space_group_name_H-M "P 21"
_symmetry_group_IT_number 4
_symmetry_cell_setting 'monoclinic'
loop_
_space_group_symop_operation_xyz
x,y,z
-x,1/2+y,-z
loop_
_atom_site_type_symbol
_atom_site_label
_atom_site_fract_x
_atom_site_fract_y
_atom_site_fract_z
Si Si1 0.864073 0.198580 0.151048
Si Si2 0.424238 0.817141 0.308824
Si Si3 0.870114 0.042207 0.657274
Si Si4 0.560469 0.452456 0.173945
Si Si5 0.589249 0.642685 0.870115
Si Si6 0.804984 0.556908 0.820249
Si Si7 0.177729 0.279695 0.485888
O O1 0.836541 0.129189 0.373548
O O2 0.023674 0.251140 0.381602
O O3 0.744465 0.295609 0.928266
O O4 0.850198 0.107686 0.896031
O O5 0.493203 0.696593 0.506112
O O6 0.485207 0.904805 0.617931
O O7 0.456773 0.855668 0.069790
O O8 0.801879 0.914950 0.543378
O O9 0.038705 0.016589 0.888565
O O10 0.725900 0.486312 0.478087
O O11 0.504118 0.571061 0.959590
O O12 0.698906 0.554313 0.899697
O O13 0.694556 0.736368 0.147526
O O14 0.815756 0.692131 0.747042
#
# Coordination Sequence:
#
# PCOD9117355 Si02
#       7
#     2   2   2   2   2   2   2
#     4  11  25  44  63 104 134 174 233 283 333 412
#     4  12  27  44  71 100 138 183 226 284 346 405
#     4  11  24  42  71  99 140 174 228 290 343 394
#     4  11  25  45  70  97 134 187 222 273 346 411
#     4  11  25  46  71 102 140 174 240 278 335 423
#     4  10  22  47  68 105 132 184 232 276 341 425
#     4  10  24  40  72  95 136 180 227 282 340 404
#
# _framework density 24.807110999999999
#
# number of rings (size 3 to 8) (size 9 to 14) (size 15 to 20)
#    0.000    1.143    2.857    1.714    6.000    3.429 
#    0.000    0.000    0.000    0.000    0.000    0.000 
#    0.000    0.000    0.000    0.000    0.000    0.000 
#
# Total GULP energy -78356.470692 kJ/mol
# GULP energy per Si atom -5596.890764 kJ/mol
# Density = 2.475065 g / cm^3
# Si number density = 24.807111 Si / 1000 Ang^3
#
#
#
# Elastic Constant Matrix: (Units=GPa)
#
#
# Indices 1 2 3 4 5 6 
#
# 1 69.0303 6.7116 37.5151 0.0000 1.3115 0.0000
# 2 6.7116 106.7253 48.5024 0.0000 0.7925 0.0000
# 3 37.5151 48.5024 108.2303 0.0000 -23.2754 0.0000
# 4 0.0000 0.0000 0.0000 61.4324 0.0000 -1.6044
# 5 1.3115 0.7925 -23.2754 0.0000 34.3762 0.0000
# 6 0.0000 0.0000 0.0000 -1.6044 0.0000 28.9771
#
#
#
# Elastic Compliance Matrix: (Units=1/GPa)
#
#
# Indices 1 2 3 4 5 6 
#
# 1 0.019720 0.003344 -0.009963 0.000000 -0.007575 0.000000
# 2 0.003344 0.012958 -0.008261 0.000000 -0.006020 0.000000
# 3 -0.009963 -0.008261 0.019333 0.000000 0.013660 0.000000
# 4 0.000000 0.000000 0.000000 0.016302 0.000000 0.000903
# 5 -0.007575 -0.006020 0.013660 0.000000 0.038767 0.000000
# 6 0.000000 0.000000 0.000000 0.000903 0.000000 0.034560
#
#
# Mechanical properties :
#
#
# Convention : Reuss Voigt Hill
#
# Bulk Modulus (GPa) = 44.94160 52.16046 48.55103
# Shear Modulus (GPa) = 27.96180 37.70760 32.83470
#
# Velocity S-wave (km/s) = 3.36098 3.90299 3.64208
# Velocity P-wave (km/s) = 5.76344 6.43297 6.10739
#
# Compressibility (1/GPa) = 0.02225110
#
# Stress axis : x y z
#
# Youngs Moduli (GPa) = 50.71109 77.16964 51.72616
#
# Poissons Ratio (x) = -0.25804 0.51534
# Poissons Ratio (y) = -0.16957 0.42730
# Poissons Ratio (z) = 0.50522 0.63748
#
# Static dielectric constant tensor:
#      x y z
#    x 1.971150 0.000000 0.008880 
#    y 0.000000 2.048210 0.000000 
#    z 0.008880 0.000000 1.935380 
# 
# From -- ./inp_files/2694.got.cif
#   From: 2010.05.17/outbox.cif.g08.bks.cpg/sg4_2_cif.got.tgz:2694.got - 2010.06.03 18:43:04.
