data_PCOD9117892
_publ_section_title
;
Structure prediction by ZEFSAII (Michael W. Deem and Ramdas Pophale) SiO2 
 PCOD9117892
Probable space group: P 21
;
_chemical_formula_sum "Si O2"
_cell_formula_units_Z 16
_cell_length_a 8.747849
_cell_length_b 16.866276
_cell_length_c 5.996966
_cell_angle_alpha 90.000000
_cell_angle_beta 124.031518
_cell_angle_gamma 90.000000
_cell_volume 733.271902
_symmetry_space_group_name_H-M "P 21"
_symmetry_group_IT_number 4
_symmetry_cell_setting 'monoclinic'
loop_
_space_group_symop_operation_xyz
x,y,z
-x,1/2+y,-z
loop_
_atom_site_type_symbol
_atom_site_label
_atom_site_fract_x
_atom_site_fract_y
_atom_site_fract_z
Si Si1 0.060585 0.456080 0.664025
Si Si2 0.424514 0.165950 0.605210
Si Si3 0.319507 0.730870 0.546262
Si Si4 0.241011 0.319857 0.527002
Si Si5 0.346452 0.592919 0.857290
Si Si6 0.065901 0.848527 0.061813
Si Si7 0.614084 0.360737 0.032065
Si Si8 0.306620 0.022427 0.734001
O O1 0.123401 0.373840 0.600848
O O2 0.229838 0.516174 0.823966
O O3 0.966469 0.426019 0.814087
O O4 0.906908 0.505738 0.403475
O O5 0.499091 0.210111 0.449602
O O6 0.282283 0.227110 0.605113
O O7 0.333541 0.078865 0.540339
O O8 0.613714 0.148229 0.896160
O O9 0.257851 0.646204 0.594602
O O10 0.164763 0.779113 0.284927
O O11 0.377811 0.785297 0.801501
O O12 0.443275 0.357756 0.722802
O O13 0.130754 0.325701 0.205954
O O14 0.559301 0.566914 0.979560
O O15 0.206001 0.864553 0.974163
O O16 0.608501 0.434780 0.195461
#
# Coordination Sequence:
#
# PCOD9117892 Si02
#       8
#     2   2   2   2   2   2   2   2
#     4  12  26  46  76 110 145 192 244 306 369 432
#     4  10  25  45  72 105 143 196 239 295 373 435
#     4  12  23  49  76 103 147 199 240 301 363 433
#     4  12  24  46  73 112 143 194 248 296 365 444
#     4  10  25  46  70 106 151 189 239 306 365 436
#     4  12  27  42  78 112 141 193 251 299 362 438
#     4  12  23  49  76 102 156 190 247 299 365 441
#     4  10  23  49  69 104 148 189 238 308 366 427
#
# _framework density 21.820008999999999
#
# number of rings (size 3 to 8) (size 9 to 14) (size 15 to 20)
#    0.750    0.000    6.250    0.000    1.750    6.000 
#    4.500    0.000    2.750    0.000    0.000    0.000 
#    0.000    0.000    0.000    0.000    0.000    0.000 
#
# Total GULP energy -89086.336732 kJ/mol
# GULP energy per Si atom -5567.896046 kJ/mol
# Density = 2.177035 g / cm^3
# Si number density = 21.820009 Si / 1000 Ang^3
#
#
#
# Elastic Constant Matrix: (Units=GPa)
#
#
# Indices 1 2 3 4 5 6 
#
# 1 92.8886 66.3189 50.2884 0.0000 6.8659 0.0000
# 2 66.3189 140.7411 43.6451 0.0000 -7.4561 0.0000
# 3 50.2884 43.6451 96.0589 0.0000 24.6012 0.0000
# 4 0.0000 0.0000 0.0000 26.0388 0.0000 2.7887
# 5 6.8659 -7.4561 24.6012 0.0000 37.2378 0.0000
# 6 0.0000 0.0000 0.0000 2.7887 0.0000 41.5124
#
#
#
# Elastic Compliance Matrix: (Units=1/GPa)
#
#
# Indices 1 2 3 4 5 6 
#
# 1 0.019640 -0.007135 -0.006917 0.000000 -0.000480 0.000000
# 2 -0.007135 0.011709 -0.003036 0.000000 0.005666 0.000000
# 3 -0.006917 -0.003036 0.018343 0.000000 -0.011451 0.000000
# 4 0.000000 0.000000 0.000000 0.038682 0.000000 -0.002599
# 5 -0.000480 0.005666 -0.011451 0.000000 0.035643 0.000000
# 6 0.000000 0.000000 0.000000 -0.002599 0.000000 0.024264
#
#
# Mechanical properties :
#
#
# Convention : Reuss Voigt Hill
#
# Bulk Modulus (GPa) = 64.44632 72.24371 68.34501
# Shear Modulus (GPa) = 26.64835 32.25355 29.45095
#
# Velocity S-wave (km/s) = 3.49847 3.84886 3.67784
# Velocity P-wave (km/s) = 6.77633 7.27547 7.03033
#
# Compressibility (1/GPa) = 0.01551679
#
# Stress axis : x y z
#
# Youngs Moduli (GPa) = 50.91662 85.40522 54.51532
#
# Poissons Ratio (x) = 0.60936 0.37709
# Poissons Ratio (y) = 0.36329 0.16549
# Poissons Ratio (z) = 0.35219 0.25927
#
# Static dielectric constant tensor:
#      x y z
#    x 1.818590 0.000000 -0.013550 
#    y 0.000000 1.818300 0.000000 
#    z -0.013550 0.000000 1.844750 
# 
# From -- ./inp_files/2076.got.cif
#   From: 2010.05.17/outbox.cif.g08.bks.cpg/sg4_2_cif.got.tgz:2076.got - 2010.06.03 18:43:04.
