data_PCOD9117799
_publ_section_title
;
Structure prediction by ZEFSAII (Michael W. Deem and Ramdas Pophale) SiO2 
 PCOD9117799
Probable space group: P 21
;
_chemical_formula_sum "Si O2"
_cell_formula_units_Z 16
_cell_length_a 5.292478
_cell_length_b 9.094586
_cell_length_c 18.456160
_cell_angle_alpha 90.000000
_cell_angle_beta 132.123877
_cell_angle_gamma 90.000000
_cell_volume 658.884826
_symmetry_space_group_name_H-M "P 21"
_symmetry_group_IT_number 4
_symmetry_cell_setting 'monoclinic'
loop_
_space_group_symop_operation_xyz
x,y,z
-x,1/2+y,-z
loop_
_atom_site_type_symbol
_atom_site_label
_atom_site_fract_x
_atom_site_fract_y
_atom_site_fract_z
Si Si1 0.273953 0.981410 0.302784
Si Si2 0.461705 0.970627 0.608279
Si Si3 0.956120 0.596139 0.881255
Si Si4 0.017662 0.271338 0.332612
Si Si5 0.858183 0.778801 0.476251
Si Si6 0.060700 0.661920 0.058997
Si Si7 0.675864 0.881766 0.809741
Si Si8 0.317395 0.342585 0.887697
O O1 0.569656 0.898256 0.401788
O O2 0.948372 0.873767 0.229715
O O3 0.325321 0.024701 0.227376
O O4 0.197316 0.136325 0.326336
O O5 0.816696 0.935730 0.638031
O O6 0.558861 0.925466 0.707792
O O7 0.206344 0.857116 0.518971
O O8 0.285487 0.126655 0.580767
O O9 0.985142 0.767084 0.865407
O O10 0.286218 0.497809 0.925477
O O11 0.881345 0.602481 0.951611
O O12 0.050983 0.238063 0.423608
O O13 0.648343 0.288675 0.226525
O O14 0.249425 0.521703 0.128602
O O15 0.340620 0.777241 0.080906
O O16 0.844090 0.733255 0.082583
#
# Coordination Sequence:
#
# PCOD9117799 Si02
#       8
#     2   2   2   2   2   2   2   2
#     4  10  23  46  67 106 142 194 243 313 371 454
#     4  11  23  45  65 101 140 185 240 307 370 447
#     4  10  25  47  73 103 151 199 249 311 383 451
#     4  11  24  43  69 102 139 190 244 300 383 444
#     4  11  24  41  71  98 142 186 245 302 373 453
#     4  12  26  49  76 114 150 199 258 315 380 452
#     4  11  26  44  73 103 147 195 244 315 374 457
#     4  10  27  47  74 111 151 198 251 315 376 450
#
# _framework density 24.283453999999999
#
# number of rings (size 3 to 8) (size 9 to 14) (size 15 to 20)
#    0.750    0.500    1.250    3.000    7.000    5.000 
#    4.500    0.000    0.000    0.000    0.000    0.000 
#    0.000    0.000    0.000    0.000    0.000    0.000 
#
# Total GULP energy -89278.982116 kJ/mol
# GULP energy per Si atom -5579.936382 kJ/mol
# Density = 2.422818 g / cm^3
# Si number density = 24.283454 Si / 1000 Ang^3
#
#
#
# Elastic Constant Matrix: (Units=GPa)
#
#
# Indices 1 2 3 4 5 6 
#
# 1 55.1450 27.5130 2.2657 0.0000 -0.1087 0.0000
# 2 27.5130 154.2969 38.6835 0.0000 10.0913 0.0000
# 3 2.2657 38.6835 93.6314 0.0000 1.0589 0.0000
# 4 0.0000 0.0000 0.0000 53.7966 0.0000 1.1738
# 5 -0.1087 10.0913 1.0589 0.0000 17.7442 0.0000
# 6 0.0000 0.0000 0.0000 1.1738 0.0000 30.0513
#
#
#
# Elastic Compliance Matrix: (Units=1/GPa)
#
#
# Indices 1 2 3 4 5 6 
#
# 1 0.020100 -0.004026 0.001150 0.000000 0.002344 0.000000
# 2 -0.004026 0.008322 -0.003289 0.000000 -0.004561 0.000000
# 3 0.001150 -0.003289 0.011998 0.000000 0.001162 0.000000
# 4 0.000000 0.000000 0.000000 0.018604 0.000000 -0.000727
# 5 0.002344 -0.004561 0.001162 0.000000 0.058895 0.000000
# 6 0.000000 0.000000 0.000000 -0.000727 0.000000 0.033305
#
#
# Mechanical properties :
#
#
# Convention : Reuss Voigt Hill
#
# Bulk Modulus (GPa) = 35.59897 48.88862 42.24379
# Shear Modulus (GPa) = 28.91561 35.95915 32.43738
#
# Velocity S-wave (km/s) = 3.45447 3.85230 3.65880
# Velocity P-wave (km/s) = 5.53198 6.32164 5.93995
#
# Compressibility (1/GPa) = 0.02809070
#
# Stress axis : x y z
#
# Youngs Moduli (GPa) = 49.75155 120.16694 83.34660
#
# Poissons Ratio (x) = 0.48376 -0.09588
# Poissons Ratio (y) = 0.20029 0.27414
# Poissons Ratio (z) = -0.05723 0.39524
#
# Static dielectric constant tensor:
#      x y z
#    x 2.084550 0.000000 0.021810 
#    y 0.000000 1.955780 0.000000 
#    z 0.021810 0.000000 1.920220 
# 
# From -- ./inp_files/14724.got.cif
#   From: 2010.05.17/outbox.cif.g08.bks.cpg/sg4_8_cif.got.tgz:14724.got - 2010.06.03 18:43:04.
