data_PCOD9117039
_publ_section_title
;
Structure prediction by ZEFSAII (Michael W. Deem and Ramdas Pophale) SiO2 
 PCOD9117039
Probable space group: P 21
;
_chemical_formula_sum "Si O2"
_cell_formula_units_Z 16
_cell_length_a 9.235901
_cell_length_b 8.580767
_cell_length_c 10.146493
_cell_angle_alpha 90.000000
_cell_angle_beta 95.814824
_cell_angle_gamma 90.000000
_cell_volume 799.983298
_symmetry_space_group_name_H-M "P 21"
_symmetry_group_IT_number 4
_symmetry_cell_setting 'monoclinic'
loop_
_space_group_symop_operation_xyz
x,y,z
-x,1/2+y,-z
loop_
_atom_site_type_symbol
_atom_site_label
_atom_site_fract_x
_atom_site_fract_y
_atom_site_fract_z
Si Si1 0.725970 0.217020 0.337994
Si Si2 0.858434 0.120745 0.623084
Si Si3 0.644184 0.516345 0.024828
Si Si4 0.135418 0.330446 0.240419
Si Si5 0.933613 0.065499 0.152445
Si Si6 0.863611 0.286369 0.896790
Si Si7 0.871817 0.529313 0.244651
Si Si8 0.452498 0.279129 0.168109
O O1 0.780157 0.183232 0.488835
O O2 0.798977 0.095641 0.240002
O O3 0.790829 0.386784 0.306986
O O4 0.553179 0.228335 0.300144
O O5 0.812258 0.202557 0.756459
O O6 0.833462 0.933280 0.627013
O O7 0.035397 0.133690 0.646599
O O8 0.760481 0.601560 0.131724
O O9 0.536507 0.417632 0.104676
O O10 0.740156 0.400299 0.943856
O O11 0.555032 0.634751 0.930502
O O12 0.286825 0.323719 0.180763
O O13 0.066488 0.159980 0.235945
O O14 0.001364 0.438756 0.176662
O O15 0.898322 0.160834 0.014777
O O16 0.996264 0.894449 0.127374
#
# Coordination Sequence:
#
# PCOD9117039 Si02
#       8
#     2   2   2   2   2   2   2   2
#     4  10  22  43  59  93 128 165 199 261 309 389
#     4  10  23  38  67  90 124 163 216 248 316 374
#     4  11  22  40  60  93 126 157 214 257 316 371
#     4   9  19  38  61  85 117 167 202 254 308 362
#     4  11  21  38  67  89 128 158 213 263 308 358
#     4  12  21  37  61  99 118 163 207 263 303 371
#     4   8  19  41  63  87 119 156 211 262 298 360
#     4  11  23  39  64  88 132 165 196 264 324 373
#
# _framework density 20.000416999999999
#
# number of rings (size 3 to 8) (size 9 to 14) (size 15 to 20)
#    0.750    1.000    5.000    1.500    3.500    1.000 
#    2.250    0.000    2.750    0.000    0.000    0.000 
#    0.000    0.000    0.000    0.000    0.000    0.000 
#
# Total GULP energy -89075.564747 kJ/mol
# GULP energy per Si atom -5567.222797 kJ/mol
# Density = 1.995489 g / cm^3
# Si number density = 20.000417 Si / 1000 Ang^3
#
#
#
# Elastic Constant Matrix: (Units=GPa)
#
#
# Indices 1 2 3 4 5 6 
#
# 1 75.2754 6.3738 12.3425 0.0000 15.0814 0.0000
# 2 6.3738 28.1694 28.1044 0.0000 11.9430 0.0000
# 3 12.3425 28.1044 115.0783 0.0000 29.5508 0.0000
# 4 0.0000 0.0000 0.0000 23.5642 0.0000 4.8564
# 5 15.0814 11.9430 29.5508 0.0000 29.7396 0.0000
# 6 0.0000 0.0000 0.0000 4.8564 0.0000 12.6715
#
#
#
# Elastic Compliance Matrix: (Units=1/GPa)
#
#
# Indices 1 2 3 4 5 6 
#
# 1 0.014812 -0.000597 0.000570 0.000000 -0.007838 0.000000
# 2 -0.000597 0.049291 -0.009356 0.000000 -0.010196 0.000000
# 3 0.000570 -0.009356 0.013456 0.000000 -0.009903 0.000000
# 4 0.000000 0.000000 0.000000 0.046077 0.000000 -0.017659
# 5 -0.007838 -0.010196 -0.009903 0.000000 0.051534 0.000000
# 6 0.000000 0.000000 0.000000 -0.017659 0.000000 0.085685
#
#
# Mechanical properties :
#
#
# Convention : Reuss Voigt Hill
#
# Bulk Modulus (GPa) = 17.00858 34.68495 25.84676
# Shear Modulus (GPa) = 16.71013 24.64189 20.67601
#
# Velocity S-wave (km/s) = 2.89362 3.51389 3.21873
# Velocity P-wave (km/s) = 4.43696 5.81747 5.17347
#
# Compressibility (1/GPa) = 0.05879385
#
# Stress axis : x y z
#
# Youngs Moduli (GPa) = 67.51292 20.28755 74.31407
#
# Poissons Ratio (x) = 0.01211 -0.04235
# Poissons Ratio (y) = 0.04030 0.69527
# Poissons Ratio (z) = -0.03847 0.18981
#
# Static dielectric constant tensor:
#      x y z
#    x 1.732560 0.000000 0.006500 
#    y 0.000000 1.767860 0.000000 
#    z 0.006500 0.000000 1.734600 
# 
# From -- ./inp_files/5732.got.cif
#   From: 2010.05.17/outbox.cif.g08.bks.cpg/sg4_3_cif.got.tgz:5732.got - 2010.06.03 18:43:04.
