data_PCOD9117207
_publ_section_title
;
Structure prediction by ZEFSAII (Michael W. Deem and Ramdas Pophale) SiO2 
 PCOD9117207
Probable space group: P 21
;
_chemical_formula_sum "Si O2"
_cell_formula_units_Z 12
_cell_length_a 17.746669
_cell_length_b 4.862401
_cell_length_c 13.803858
_cell_angle_alpha 90.000000
_cell_angle_beta 157.130579
_cell_angle_gamma 90.000000
_cell_volume 462.921068
_symmetry_space_group_name_H-M "P 21"
_symmetry_group_IT_number 4
_symmetry_cell_setting 'monoclinic'
loop_
_space_group_symop_operation_xyz
x,y,z
-x,1/2+y,-z
loop_
_atom_site_type_symbol
_atom_site_label
_atom_site_fract_x
_atom_site_fract_y
_atom_site_fract_z
Si Si1 0.051849 0.820520 0.501592
Si Si2 0.330187 0.363856 0.585909
Si Si3 0.681700 0.983869 0.968515
Si Si4 0.511016 0.271743 0.451118
Si Si5 0.380014 0.875179 0.755716
Si Si6 0.897466 0.576579 0.847160
O O1 0.273023 0.790411 0.726272
O O2 0.968532 0.524507 0.431837
O O3 0.910922 0.961426 0.254370
O O4 0.294387 0.677787 0.569338
O O5 0.166713 0.240722 0.323860
O O6 0.544810 0.261175 0.802464
O O7 0.323830 0.192534 0.677570
O O8 0.598848 0.859976 0.973545
O O9 0.623437 0.826905 0.801005
O O10 0.537996 0.958211 0.513618
O O11 0.716209 0.401337 0.667629
O O12 0.047913 0.325518 0.015722
#
# Coordination Sequence:
#
# PCOD9117207 Si02
#       6
#     2   2   2   2   2   2
#     4  12  28  45  72 109 136 175 238 287 354 420
#     4   9  21  41  67  89 132 185 223 264 356 395
#     4   9  26  45  73  94 150 181 228 287 345 406
#     4  11  25  42  67 103 139 185 231 280 344 402
#     4  10  22  44  71  96 134 182 224 284 350 414
#     4  11  22  37  62  95 135 174 232 286 321 399
#
# _framework density 25.922348
#
# number of rings (size 3 to 8) (size 9 to 14) (size 15 to 20)
#    1.000    0.667    0.000    3.000    7.000    5.333 
#    0.000    0.000    0.000    0.000    0.000    0.000 
#    0.000    0.000    0.000    0.000    0.000    0.000 
#
# Total GULP energy -66871.642743 kJ/mol
# GULP energy per Si atom -5572.636895 kJ/mol
# Density = 2.586335 g / cm^3
# Si number density = 25.922348 Si / 1000 Ang^3
#
#
#
# Elastic Constant Matrix: (Units=GPa)
#
#
# Indices 1 2 3 4 5 6 
#
# 1 85.7097 6.9174 13.0642 0.0000 1.6337 0.0000
# 2 6.9174 96.7694 6.2255 0.0000 -16.3948 0.0000
# 3 13.0642 6.2255 104.3907 0.0000 -15.7141 0.0000
# 4 0.0000 0.0000 0.0000 12.9574 0.0000 -16.2822
# 5 1.6337 -16.3948 -15.7141 0.0000 17.2919 0.0000
# 6 0.0000 0.0000 0.0000 -16.2822 0.0000 47.1695
#
#
#
# Elastic Compliance Matrix: (Units=1/GPa)
#
#
# Indices 1 2 3 4 5 6 
#
# 1 0.012196 -0.001497 -0.002113 0.000000 -0.004492 0.000000
# 2 -0.001497 0.012623 0.001457 0.000000 0.013433 0.000000
# 3 -0.002113 0.001457 0.011579 0.000000 0.012103 0.000000
# 4 0.000000 0.000000 0.000000 0.136295 0.000000 0.047047
# 5 -0.004492 0.013433 0.012103 0.000000 0.081990 0.000000
# 6 0.000000 0.000000 0.000000 0.047047 0.000000 0.037440
#
#
# Mechanical properties :
#
#
# Convention : Reuss Voigt Hill
#
# Bulk Modulus (GPa) = 31.16132 37.69820 34.42976
# Shear Modulus (GPa) = 16.27991 32.86128 24.57059
#
# Velocity S-wave (km/s) = 2.50876 3.56431 3.08206
# Velocity P-wave (km/s) = 4.52095 5.61368 5.09669
#
# Compressibility (1/GPa) = 0.03209107
#
# Stress axis : x y z
#
# Youngs Moduli (GPa) = 81.99541 79.22036 86.36410
#
# Poissons Ratio (x) = 0.11858 0.18250
# Poissons Ratio (y) = 0.12273 -0.12580
# Poissons Ratio (z) = 0.17327 -0.11540
#
# Static dielectric constant tensor:
#      x y z
#    x 2.102240 0.000000 0.028730 
#    y 0.000000 2.006940 0.000000 
#    z 0.028730 0.000000 2.064030 
# 
# From -- ./inp_files/14442.got.cif
#   From: 2010.05.17/outbox.cif.g08.bks.cpg/sg4_8_cif.got.tgz:14442.got - 2010.06.03 18:43:04.
