data_PCOD9117552
_publ_section_title
;
Structure prediction by ZEFSAII (Michael W. Deem and Ramdas Pophale) SiO2 
 PCOD9117552
Probable space group: P 21
;
_chemical_formula_sum "Si O2"
_cell_formula_units_Z 14
_cell_length_a 7.195642
_cell_length_b 16.271298
_cell_length_c 7.631780
_cell_angle_alpha 90.000000
_cell_angle_beta 142.031750
_cell_angle_gamma 90.000000
_cell_volume 549.732433
_symmetry_space_group_name_H-M "P 21"
_symmetry_group_IT_number 4
_symmetry_cell_setting 'monoclinic'
loop_
_space_group_symop_operation_xyz
x,y,z
-x,1/2+y,-z
loop_
_atom_site_type_symbol
_atom_site_label
_atom_site_fract_x
_atom_site_fract_y
_atom_site_fract_z
Si Si1 0.222171 0.447890 0.164335
Si Si2 0.028722 0.589255 0.413124
Si Si3 0.900186 0.474384 0.590404
Si Si4 0.612119 0.498240 0.873633
Si Si5 0.003940 0.772998 0.920209
Si Si6 0.392074 0.741388 0.555008
Si Si7 0.686819 0.344335 0.161360
O O1 0.567612 0.474666 0.427425
O O2 0.175334 0.360113 0.219271
O O3 0.152971 0.441164 0.906539
O O4 0.924167 0.497986 0.998255
O O5 0.305796 0.529027 0.559493
O O6 0.150644 0.676347 0.448193
O O7 0.987947 0.563642 0.584316
O O8 0.707772 0.564723 0.091962
O O9 0.886658 0.410703 0.418130
O O10 0.562792 0.407894 0.920152
O O11 0.725993 0.710551 0.745989
O O12 0.171003 0.773657 0.858052
O O13 0.228306 0.774229 0.254895
O O14 0.452515 0.797812 0.772886
#
# Coordination Sequence:
#
# PCOD9117552 Si02
#       7
#     2   2   2   2   2   2   2
#     4  11  20  39  68 101 123 170 230 280 326 396
#     4  11  24  43  62  97 136 186 215 285 343 405
#     4  11  21  39  69  98 131 172 227 276 333 390
#     4  10  23  42  68  95 135 175 235 277 335 400
#     4  11  24  41  69 102 127 177 226 280 344 399
#     4  12  25  45  67  96 146 175 223 280 353 398
#     4  10  23  43  73  99 130 175 228 286 322 406
#
# _framework density 25.466934999999999
#
# number of rings (size 3 to 8) (size 9 to 14) (size 15 to 20)
#    0.000    1.143    2.857    3.429    0.000    8.000 
#    7.714    0.000    0.000    0.000    0.000    0.000 
#    0.000    0.000    0.000    0.000    0.000    0.000 
#
# Total GULP energy -78063.079572 kJ/mol
# GULP energy per Si atom -5575.934255 kJ/mol
# Density = 2.540897 g / cm^3
# Si number density = 25.466935 Si / 1000 Ang^3
#
#
#
# Elastic Constant Matrix: (Units=GPa)
#
#
# Indices 1 2 3 4 5 6 
#
# 1 128.0174 9.7672 41.0564 0.0000 6.8240 0.0000
# 2 9.7672 19.9399 -0.5114 0.0000 -2.2389 0.0000
# 3 41.0564 -0.5114 151.3345 0.0000 14.3787 0.0000
# 4 0.0000 0.0000 0.0000 15.8946 0.0000 6.7909
# 5 6.8240 -2.2389 14.3787 0.0000 37.1672 0.0000
# 6 0.0000 0.0000 0.0000 6.7909 0.0000 19.2720
#
#
#
# Elastic Compliance Matrix: (Units=1/GPa)
#
#
# Indices 1 2 3 4 5 6 
#
# 1 0.008968 -0.004567 -0.002352 0.000000 -0.001012 0.000000
# 2 -0.004567 0.052820 0.001075 0.000000 0.003604 0.000000
# 3 -0.002352 0.001075 0.007477 0.000000 -0.002396 0.000000
# 4 0.000000 0.000000 0.000000 0.074065 0.000000 -0.026098
# 5 -0.001012 0.003604 -0.002396 0.000000 0.028235 0.000000
# 6 0.000000 0.000000 0.000000 -0.026098 0.000000 0.061085
#
#
# Mechanical properties :
#
#
# Convention : Reuss Voigt Hill
#
# Bulk Modulus (GPa) = 17.36805 44.43516 30.90160
# Shear Modulus (GPa) = 18.97311 31.06541 25.01926
#
# Velocity S-wave (km/s) = 2.73245 3.49640 3.13776
# Velocity P-wave (km/s) = 4.09752 5.81256 5.02869
#
# Compressibility (1/GPa) = 0.05757700
#
# Stress axis : x y z
#
# Youngs Moduli (GPa) = 111.50486 18.93228 133.73721
#
# Poissons Ratio (x) = 0.08646 0.31460
# Poissons Ratio (y) = 0.50922 -0.14377
# Poissons Ratio (z) = 0.26230 -0.02035
#
# Static dielectric constant tensor:
#      x y z
#    x 2.165050 0.000000 -0.035860 
#    y 0.000000 2.160330 0.000000 
#    z -0.035860 0.000000 1.977330 
# 
# From -- ./inp_files/6952.got.cif
#   From: 2010.05.17/outbox.cif.g08.bks.cpg/sg4_4_cif.got.tgz:6952.got - 2010.06.03 18:43:04.
