data_PCOD9117359
_publ_section_title
;
Structure prediction by ZEFSAII (Michael W. Deem and Ramdas Pophale) SiO2 
 PCOD9117359
Probable space group: P 21
;
_chemical_formula_sum "Si O2"
_cell_formula_units_Z 16
_cell_length_a 5.773347
_cell_length_b 8.360512
_cell_length_c 14.108416
_cell_angle_alpha 90.000000
_cell_angle_beta 116.307605
_cell_angle_gamma 90.000000
_cell_volume 610.455510
_symmetry_space_group_name_H-M "P 21"
_symmetry_group_IT_number 4
_symmetry_cell_setting 'monoclinic'
loop_
_space_group_symop_operation_xyz
x,y,z
-x,1/2+y,-z
loop_
_atom_site_type_symbol
_atom_site_label
_atom_site_fract_x
_atom_site_fract_y
_atom_site_fract_z
Si Si1 0.100733 0.518290 0.802497
Si Si2 0.992156 0.868700 0.011175
Si Si3 0.804136 0.682200 0.264127
Si Si4 0.503713 0.733936 0.676964
Si Si5 0.018280 0.939795 0.556625
Si Si6 0.762111 0.040418 0.791628
Si Si7 0.374582 0.086116 0.099940
Si Si8 0.770545 0.643558 0.571809
O O1 0.006611 0.437037 0.882081
O O2 0.190588 0.370917 0.752728
O O3 0.339479 0.622876 0.884275
O O4 0.922539 0.619174 0.700058
O O5 0.853273 0.699902 0.977548
O O6 0.293113 0.910229 0.046760
O O7 0.826158 0.963313 0.904050
O O8 0.969120 0.598919 0.377577
O O9 0.504616 0.638232 0.236309
O O10 0.976876 0.615238 0.206106
O O11 0.226692 0.816173 0.640354
O O12 0.576735 0.625833 0.780126
O O13 0.493142 0.643356 0.574160
O O14 0.681364 0.893213 0.709114
O O15 0.784017 0.813425 0.518777
O O16 0.132624 0.003068 0.478204
#
# Coordination Sequence:
#
# PCOD9117359 Si02
#       8
#     2   2   2   2   2   2   2   2
#     4  12  27  43  71 107 153 192 252 313 376 448
#     4  11  26  42  71 103 143 202 248 307 371 451
#     4  11  25  48  73 111 147 196 249 316 373 447
#     4  10  22  47  71 104 150 191 241 317 377 442
#     4  11  25  47  76 107 140 196 247 312 378 458
#     4  10  24  45  77 106 150 193 253 306 379 440
#     4  11  25  46  68 105 144 195 255 305 376 445
#     4  12  24  48  73 105 145 193 251 308 388 445
#
# _framework density 26.209935000000002
#
# number of rings (size 3 to 8) (size 9 to 14) (size 15 to 20)
#    0.000    1.000    3.750    1.500    7.000    1.000 
#    6.750    0.000    0.000    0.000    0.000    0.000 
#    0.000    0.000    0.000    0.000    0.000    0.000 
#
# Total GULP energy -89113.417608 kJ/mol
# GULP energy per Si atom -5569.588600 kJ/mol
# Density = 2.615028 g / cm^3
# Si number density = 26.209935 Si / 1000 Ang^3
#
#
#
# Elastic Constant Matrix: (Units=GPa)
#
#
# Indices 1 2 3 4 5 6 
#
# 1 33.7765 28.2726 18.8763 0.0000 -14.4375 0.0000
# 2 28.2726 89.8300 22.1611 0.0000 -14.6958 0.0000
# 3 18.8763 22.1611 92.6996 0.0000 -15.0008 0.0000
# 4 0.0000 0.0000 0.0000 29.7736 0.0000 -5.2464
# 5 -14.4375 -14.6958 -15.0008 0.0000 38.4387 0.0000
# 6 0.0000 0.0000 0.0000 -5.2464 0.0000 36.5312
#
#
#
# Elastic Compliance Matrix: (Units=1/GPa)
#
#
# Indices 1 2 3 4 5 6 
#
# 1 0.046993 -0.011732 -0.004946 0.000000 0.011235 0.000000
# 2 -0.011732 0.015259 -0.001097 0.000000 0.000999 0.000000
# 3 -0.004946 -0.001097 0.012476 0.000000 0.002592 0.000000
# 4 0.000000 0.000000 0.000000 0.034459 0.000000 0.004949
# 5 0.011235 0.000999 0.002592 0.000000 0.031629 0.000000
# 6 0.000000 0.000000 0.000000 0.004949 0.000000 0.028085
#
#
# Mechanical properties :
#
#
# Convention : Reuss Voigt Hill
#
# Bulk Modulus (GPa) = 25.52515 39.43625 32.48070
# Shear Modulus (GPa) = 22.98732 30.74843 26.86788
#
# Velocity S-wave (km/s) = 2.96471 3.42886 3.20520
# Velocity P-wave (km/s) = 4.63457 5.54572 5.11049
#
# Compressibility (1/GPa) = 0.03917704
#
# Stress axis : x y z
#
# Youngs Moduli (GPa) = 21.27958 65.53612 80.15111
#
# Poissons Ratio (x) = 0.76888 0.39646
# Poissons Ratio (y) = 0.24966 0.08794
# Poissons Ratio (z) = 0.10526 0.07190
#
# Static dielectric constant tensor:
#      x y z
#    x 2.724770 0.000000 0.015000 
#    y 0.000000 2.190480 0.000000 
#    z 0.015000 0.000000 2.029530 
# 
# From -- ./inp_files/2635.got.cif
#   From: 2010.05.17/outbox.cif.g08.bks.cpg/sg4_2_cif.got.tgz:2635.got - 2010.06.03 18:43:04.
