data_PCOD9117753
_publ_section_title
;
Structure prediction by ZEFSAII (Michael W. Deem and Ramdas Pophale) SiO2 
 PCOD9117753
Probable space group: P 21
;
_chemical_formula_sum "Si O2"
_cell_formula_units_Z 16
_cell_length_a 23.434822
_cell_length_b 5.002803
_cell_length_c 16.129564
_cell_angle_alpha 90.000000
_cell_angle_beta 161.353463
_cell_angle_gamma 90.000000
_cell_volume 604.616123
_symmetry_space_group_name_H-M "P 21"
_symmetry_group_IT_number 4
_symmetry_cell_setting 'monoclinic'
loop_
_space_group_symop_operation_xyz
x,y,z
-x,1/2+y,-z
loop_
_atom_site_type_symbol
_atom_site_label
_atom_site_fract_x
_atom_site_fract_y
_atom_site_fract_z
Si Si1 0.960786 0.364240 0.729097
Si Si2 0.416696 0.455628 0.079561
Si Si3 0.231161 0.192018 0.981052
Si Si4 0.238489 0.191102 0.411143
Si Si5 0.415006 0.658031 0.837102
Si Si6 0.389636 0.809336 0.335482
Si Si7 0.895070 0.473393 0.937403
Si Si8 0.958705 0.926369 0.489800
O O1 0.852718 0.593786 0.628435
O O2 0.799458 0.188238 0.466608
O O3 0.110368 0.405229 0.865425
O O4 0.072907 0.216058 0.955406
O O5 0.552242 0.695132 0.285488
O O6 0.521505 0.243224 0.167649
O O7 0.343490 0.331014 0.063607
O O8 0.244044 0.525684 0.787356
O O9 0.083349 0.001858 0.735808
O O10 0.341285 0.988467 0.189507
O O11 0.100622 0.419029 0.195636
O O12 0.212400 0.002970 0.295321
O O13 0.494837 0.378032 0.977687
O O14 0.478539 0.525690 0.438257
O O15 0.221181 0.776567 0.164757
O O16 0.038475 0.112426 0.525613
#
# Coordination Sequence:
#
# PCOD9117753 Si02
#       8
#     2   2   2   2   2   2   2   2
#     4  10  24  44  67 100 138 193 231 298 365 428
#     4  10  24  46  74 109 139 191 244 297 357 437
#     4  10  23  47  72 105 147 186 242 300 368 421
#     4  11  23  45  70 100 145 189 245 292 364 433
#     4  11  26  46  69 102 142 185 239 296 353 427
#     4  11  27  47  73 111 150 190 243 301 365 430
#     4  11  24  44  72 100 146 195 241 299 364 434
#     4  10  23  45  69 103 143 185 233 295 360 422
#
# _framework density 26.463069000000001
#
# number of rings (size 3 to 8) (size 9 to 14) (size 15 to 20)
#    0.000    1.500    1.250    1.500    7.000    9.000 
#   13.500    0.000    0.000    0.000    0.000    0.000 
#    0.000    0.000    0.000    0.000    0.000    0.000 
#
# Total GULP energy -89506.389185 kJ/mol
# GULP energy per Si atom -5594.149324 kJ/mol
# Density = 2.640284 g / cm^3
# Si number density = 26.463069 Si / 1000 Ang^3
#
#
#
# Elastic Constant Matrix: (Units=GPa)
#
#
# Indices 1 2 3 4 5 6 
#
# 1 131.5695 7.4793 27.7867 0.0000 12.2969 0.0000
# 2 7.4793 76.1907 29.2601 0.0000 1.8168 0.0000
# 3 27.7867 29.2601 156.0125 0.0000 6.9046 0.0000
# 4 0.0000 0.0000 0.0000 31.9797 0.0000 -6.2991
# 5 12.2969 1.8168 6.9046 0.0000 50.2534 0.0000
# 6 0.0000 0.0000 0.0000 -6.2991 0.0000 15.7050
#
#
#
# Elastic Compliance Matrix: (Units=1/GPa)
#
#
# Indices 1 2 3 4 5 6 
#
# 1 0.008058 -0.000245 -0.001310 0.000000 -0.001783 0.000000
# 2 -0.000245 0.014152 -0.002606 0.000000 -0.000094 0.000000
# 3 -0.001310 -0.002606 0.007157 0.000000 -0.000569 0.000000
# 4 0.000000 0.000000 0.000000 0.033952 0.000000 0.013618
# 5 -0.001783 -0.000094 -0.000569 0.000000 0.020417 0.000000
# 6 0.000000 0.000000 0.000000 0.013618 0.000000 0.069136
#
#
# Mechanical properties :
#
#
# Convention : Reuss Voigt Hill
#
# Bulk Modulus (GPa) = 47.52119 54.75833 51.13976
# Shear Modulus (GPa) = 29.72468 39.53740 34.63104
#
# Velocity S-wave (km/s) = 3.35513 3.86950 3.62146
# Velocity P-wave (km/s) = 5.74506 6.37976 6.07071
#
# Compressibility (1/GPa) = 0.02104324
#
# Stress axis : x y z
#
# Youngs Moduli (GPa) = 124.10285 70.66016 139.72146
#
# Poissons Ratio (x) = 0.01733 0.18307
# Poissons Ratio (y) = 0.03044 0.36417
# Poissons Ratio (z) = 0.16260 0.18417
#
# Static dielectric constant tensor:
#      x y z
#    x 2.117630 0.000000 0.006780 
#    y 0.000000 2.108820 0.000000 
#    z 0.006780 0.000000 2.127200 
# 
# From -- ./inp_files/8923.got.cif
#   From: 2010.05.17/outbox.cif.g08.bks.cpg/sg4_5_cif.got.tgz:8923.got - 2010.06.03 18:43:04.
