data_PCOD9117903
_publ_section_title
;
Structure prediction by ZEFSAII (Michael W. Deem and Ramdas Pophale) SiO2 
 PCOD9117903
Probable space group: P 21
;
_chemical_formula_sum "Si O2"
_cell_formula_units_Z 16
_cell_length_a 15.930165
_cell_length_b 6.839396
_cell_length_c 7.037541
_cell_angle_alpha 90.000000
_cell_angle_beta 123.752539
_cell_angle_gamma 90.000000
_cell_volume 637.518048
_symmetry_space_group_name_H-M "P 21"
_symmetry_group_IT_number 4
_symmetry_cell_setting 'monoclinic'
loop_
_space_group_symop_operation_xyz
x,y,z
-x,1/2+y,-z
loop_
_atom_site_type_symbol
_atom_site_label
_atom_site_fract_x
_atom_site_fract_y
_atom_site_fract_z
Si Si1 0.796203 0.986840 0.262766
Si Si2 0.291495 0.102602 0.967400
Si Si3 0.889874 0.964862 0.994433
Si Si4 0.510422 0.179756 0.356783
Si Si5 0.446177 0.237699 0.682365
Si Si6 0.090674 0.762930 0.312132
Si Si7 0.620160 0.250034 0.169003
Si Si8 0.773800 0.598464 0.692210
O O1 0.879117 0.107788 0.487063
O O2 0.812286 0.033053 0.059591
O O3 0.695404 0.071993 0.230369
O O4 0.842597 0.791560 0.807657
O O5 0.329913 0.922796 0.890752
O O6 0.216590 0.251234 0.764499
O O7 0.393963 0.218417 0.156622
O O8 0.245281 0.034367 0.111038
O O9 0.921400 0.137762 0.895400
O O10 0.986911 0.874674 0.222142
O O11 0.545583 0.969401 0.331171
O O12 0.511443 0.168455 0.583342
O O13 0.591373 0.310946 0.348069
O O14 0.331119 0.177008 0.523120
O O15 0.511173 0.190596 0.947922
O O16 0.174365 0.927397 0.364961
#
# Coordination Sequence:
#
# PCOD9117903 Si02
#       8
#     2   2   2   2   2   2   2   2
#     4  11  28  46  73 112 146 193 244 310 381 445
#     4   9  23  47  67 103 149 195 238 310 362 437
#     4  11  26  51  78 109 152 186 253 321 381 463
#     4  10  24  41  68 103 145 201 246 290 357 429
#     4  10  25  44  70 106 151 196 243 305 360 437
#     4  12  26  50  82 112 139 200 251 314 392 460
#     4  11  25  44  69 108 151 194 248 292 359 449
#     4  10  23  49  77 107 149 197 251 310 382 444
#
# _framework density 25.097325999999999
#
# number of rings (size 3 to 8) (size 9 to 14) (size 15 to 20)
#    0.000    1.500    1.250    0.750   10.500    7.000 
#    4.500    1.250    0.000    0.000    0.000    0.000 
#    0.000    0.000    0.000    0.000    0.000    0.000 
#
# Total GULP energy -89585.569102 kJ/mol
# GULP energy per Si atom -5599.098069 kJ/mol
# Density = 2.504020 g / cm^3
# Si number density = 25.097326 Si / 1000 Ang^3
#
#
#
# Elastic Constant Matrix: (Units=GPa)
#
#
# Indices 1 2 3 4 5 6 
#
# 1 81.9325 23.7137 15.0082 0.0000 -2.1979 0.0000
# 2 23.7137 83.0895 39.6171 0.0000 11.5409 0.0000
# 3 15.0082 39.6171 79.4390 0.0000 5.2050 0.0000
# 4 0.0000 0.0000 0.0000 41.0729 0.0000 7.5446
# 5 -2.1979 11.5409 5.2050 0.0000 53.7316 0.0000
# 6 0.0000 0.0000 0.0000 7.5446 0.0000 29.8447
#
#
#
# Elastic Compliance Matrix: (Units=1/GPa)
#
#
# Indices 1 2 3 4 5 6 
#
# 1 0.013447 -0.003645 -0.000815 0.000000 0.001412 0.000000
# 2 -0.003645 0.017161 -0.007667 0.000000 -0.003092 0.000000
# 3 -0.000815 -0.007667 0.016565 0.000000 0.000009 0.000000
# 4 0.000000 0.000000 0.000000 0.025533 0.000000 -0.006454
# 5 0.001412 -0.003092 0.000009 0.000000 0.019332 0.000000
# 6 0.000000 0.000000 0.000000 -0.006454 0.000000 0.035138
#
#
# Mechanical properties :
#
#
# Convention : Reuss Voigt Hill
#
# Bulk Modulus (GPa) = 43.63265 44.57100 44.10182
# Shear Modulus (GPa) = 31.43255 36.00466 33.71860
#
# Velocity S-wave (km/s) = 3.54280 3.79172 3.66937
# Velocity P-wave (km/s) = 5.84452 6.08008 5.96346
#
# Compressibility (1/GPa) = 0.02291862
#
# Stress axis : x y z
#
# Youngs Moduli (GPa) = 74.36363 58.27269 60.36728
#
# Poissons Ratio (x) = 0.21243 0.04921
# Poissons Ratio (y) = 0.27108 0.46283
# Poissons Ratio (z) = 0.06062 0.44677
#
# Static dielectric constant tensor:
#      x y z
#    x 2.010790 0.000000 -0.071470 
#    y 0.000000 2.028030 0.000000 
#    z -0.071470 0.000000 2.066140 
# 
# From -- ./inp_files/4111.got.cif
#   From: 2010.05.17/outbox.cif.g08.bks.cpg/sg4_3_cif.got.tgz:4111.got - 2010.06.03 18:43:04.
