data_PCOD9117268
_publ_section_title
;
Structure prediction by ZEFSAII (Michael W. Deem and Ramdas Pophale) SiO2 
 PCOD9117268
Probable space group: P 21
;
_chemical_formula_sum "Si O2"
_cell_formula_units_Z 14
_cell_length_a 9.239156
_cell_length_b 10.770977
_cell_length_c 5.873360
_cell_angle_alpha 90.000000
_cell_angle_beta 98.097460
_cell_angle_gamma 90.000000
_cell_volume 578.658494
_symmetry_space_group_name_H-M "P 21"
_symmetry_group_IT_number 4
_symmetry_cell_setting 'monoclinic'
loop_
_space_group_symop_operation_xyz
x,y,z
-x,1/2+y,-z
loop_
_atom_site_type_symbol
_atom_site_label
_atom_site_fract_x
_atom_site_fract_y
_atom_site_fract_z
Si Si1 0.310462 0.933200 0.034109
Si Si2 0.529114 0.840046 0.720651
Si Si3 0.833726 0.971499 0.337032
Si Si4 0.022510 0.819465 0.078522
Si Si5 0.905108 0.587026 0.337670
Si Si6 0.815664 0.758528 0.666055
Si Si7 0.539448 0.074509 0.396640
O O1 0.418904 0.851420 0.904586
O O2 0.203555 0.012944 0.847489
O O3 0.192553 0.849744 0.142246
O O4 0.413392 0.022432 0.203283
O O5 0.693289 0.796249 0.821622
O O6 0.481794 0.720663 0.556726
O O7 0.536234 0.975778 0.604387
O O8 0.776568 0.846278 0.444528
O O9 0.925342 0.938308 0.133347
O O10 0.694460 0.059448 0.299676
O O11 0.953080 0.016374 0.544222
O O12 0.969983 0.706711 0.223924
O O13 0.972806 0.781497 0.814191
O O14 0.820343 0.625637 0.549607
#
# Coordination Sequence:
#
# PCOD9117268 Si02
#       7
#     2   2   2   2   2   2   2
#     4  12  27  44  73 110 145 195 244 303 367 445
#     4  11  26  46  73 106 150 194 246 302 377 433
#     4  10  24  43  66 100 137 186 240 296 359 422
#     4  11  25  42  72 103 141 184 246 303 365 427
#     4  11  25  42  75 103 140 188 247 302 358 430
#     4  10  22  45  68  99 141 187 236 303 358 430
#     4  11  27  46  73 105 152 196 247 305 366 445
#
# _framework density 24.193888000000001
#
# number of rings (size 3 to 8) (size 9 to 14) (size 15 to 20)
#    0.000    1.143    1.429    2.571   10.000    3.429 
#    2.571    0.000    0.000    0.000    0.000    0.000 
#    0.000    0.000    0.000    0.000    0.000    0.000 
#
# Total GULP energy -78229.327472 kJ/mol
# GULP energy per Si atom -5587.809105 kJ/mol
# Density = 2.413882 g / cm^3
# Si number density = 24.193888 Si / 1000 Ang^3
#
#
#
# Elastic Constant Matrix: (Units=GPa)
#
#
# Indices 1 2 3 4 5 6 
#
# 1 140.4907 8.7965 13.6110 0.0000 -8.7556 0.0000
# 2 8.7965 64.3430 -2.1611 0.0000 -16.5657 0.0000
# 3 13.6110 -2.1611 46.7987 0.0000 5.5663 0.0000
# 4 0.0000 0.0000 0.0000 38.2868 0.0000 -10.3667
# 5 -8.7556 -16.5657 5.5663 0.0000 41.1550 0.0000
# 6 0.0000 0.0000 0.0000 -10.3667 0.0000 35.7865
#
#
#
# Elastic Compliance Matrix: (Units=1/GPa)
#
#
# Indices 1 2 3 4 5 6 
#
# 1 0.007496 -0.000682 -0.002408 0.000000 0.001646 0.000000
# 2 -0.000682 0.017401 0.000189 0.000000 0.006833 0.000000
# 3 -0.002408 0.000189 0.022491 0.000000 -0.003478 0.000000
# 4 0.000000 0.000000 0.000000 0.028342 0.000000 0.008210
# 5 0.001646 0.006833 -0.003478 0.000000 0.027870 0.000000
# 6 0.000000 0.000000 0.000000 0.008210 0.000000 0.030322
#
#
# Mechanical properties :
#
#
# Convention : Reuss Voigt Hill
#
# Bulk Modulus (GPa) = 24.04598 32.45837 28.25217
# Shear Modulus (GPa) = 32.55546 38.47137 35.51342
#
# Velocity S-wave (km/s) = 3.67223 3.99197 3.83543
# Velocity P-wave (km/s) = 5.28591 5.89006 5.59614
#
# Compressibility (1/GPa) = 0.04158700
#
# Stress axis : x y z
#
# Youngs Moduli (GPa) = 133.39676 57.46920 44.46272
#
# Poissons Ratio (x) = 0.03919 0.10705
# Poissons Ratio (y) = 0.09097 -0.00841
# Poissons Ratio (z) = 0.32116 -0.01087
#
# Static dielectric constant tensor:
#      x y z
#    x 1.973530 0.000000 -0.069310 
#    y 0.000000 2.003690 0.000000 
#    z -0.069310 0.000000 1.933690 
# 
# From -- ./inp_files/1179.got.cif
#   From: 2010.05.17/outbox.cif.g08.bks.cpg/sg4_1_cif.got.tgz:1179.got - 2010.06.03 18:43:04.
