data_PCOD9117291
_publ_section_title
;
Structure prediction by ZEFSAII (Michael W. Deem and Ramdas Pophale) SiO2 
 PCOD9117291
Probable space group: P 21
;
_chemical_formula_sum "Si O2"
_cell_formula_units_Z 16
_cell_length_a 7.285758
_cell_length_b 9.596777
_cell_length_c 8.736899
_cell_angle_alpha 90.000000
_cell_angle_beta 92.763807
_cell_angle_gamma 90.000000
_cell_volume 610.171605
_symmetry_space_group_name_H-M "P 21"
_symmetry_group_IT_number 4
_symmetry_cell_setting 'monoclinic'
loop_
_space_group_symop_operation_xyz
x,y,z
-x,1/2+y,-z
loop_
_atom_site_type_symbol
_atom_site_label
_atom_site_fract_x
_atom_site_fract_y
_atom_site_fract_z
Si Si1 0.792497 0.675620 0.557702
Si Si2 0.321251 0.040956 0.757799
Si Si3 0.464673 0.737447 0.031789
Si Si4 0.161062 0.697141 0.422348
Si Si5 0.268766 0.439053 0.254810
Si Si6 0.766684 0.444633 0.802514
Si Si7 0.144083 0.534107 0.951870
Si Si8 0.693711 0.226519 0.276550
O O1 0.746971 0.631402 0.385197
O O2 0.729366 0.818678 0.623092
O O3 0.727563 0.559302 0.673308
O O4 0.011395 0.698528 0.550568
O O5 0.531583 0.005190 0.731682
O O6 0.227318 0.886040 0.757195
O O7 0.364103 0.150653 0.896625
O O8 0.410965 0.882427 0.113511
O O9 0.261866 0.659996 0.038276
O O10 0.477186 0.739939 0.849577
O O11 0.140883 0.557212 0.326156
O O12 0.152203 0.821612 0.302028
O O13 0.336933 0.712463 0.543016
O O14 0.206690 0.415020 0.075377
O O15 0.928403 0.505442 0.918033
O O16 0.214558 0.582096 0.786131
#
# Coordination Sequence:
#
# PCOD9117291 Si02
#       8
#     2   2   2   2   2   2   2   2
#     4  12  27  38  72 108 133 186 238 294 362 413
#     4  11  24  48  67 101 144 188 228 293 356 430
#     4   9  23  47  66 101 137 187 233 286 359 421
#     4  12  23  46  70 102 140 182 240 299 345 424
#     4  11  27  47  68 105 144 183 242 286 365 430
#     4  12  22  44  72 100 137 186 236 291 356 419
#     4   9  22  43  68 100 139 183 229 293 351 417
#     4  10  22  45  71  95 142 181 238 290 350 422
#
# _framework density 26.222131999999998
#
# number of rings (size 3 to 8) (size 9 to 14) (size 15 to 20)
#    0.750    0.500    5.000    0.750    7.000    0.000 
#    9.000    0.000    0.000    0.000    0.000    0.000 
#    0.000    0.000    0.000    0.000    0.000    0.000 
#
# Total GULP energy -89082.602801 kJ/mol
# GULP energy per Si atom -5567.662675 kJ/mol
# Density = 2.616245 g / cm^3
# Si number density = 26.222132 Si / 1000 Ang^3
#
#
#
# Elastic Constant Matrix: (Units=GPa)
#
#
# Indices 1 2 3 4 5 6 
#
# 1 59.4428 21.0370 31.4779 0.0000 0.0994 0.0000
# 2 21.0370 119.3939 43.4196 0.0000 10.3337 0.0000
# 3 31.4779 43.4196 94.4806 0.0000 19.6909 0.0000
# 4 0.0000 0.0000 0.0000 53.7492 0.0000 -0.0132
# 5 0.0994 10.3337 19.6909 0.0000 49.8972 0.0000
# 6 0.0000 0.0000 0.0000 -0.0132 0.0000 26.5572
#
#
#
# Elastic Compliance Matrix: (Units=1/GPa)
#
#
# Indices 1 2 3 4 5 6 
#
# 1 0.021015 -0.001427 -0.006972 0.000000 0.003005 0.000000
# 2 -0.001427 0.010157 -0.004091 0.000000 -0.000486 0.000000
# 3 -0.006972 -0.004091 0.015917 0.000000 -0.005420 0.000000
# 4 0.000000 0.000000 0.000000 0.018605 0.000000 0.000009
# 5 0.003005 -0.000486 -0.005420 0.000000 0.022275 0.000000
# 6 0.000000 0.000000 0.000000 0.000009 0.000000 0.037655
#
#
# Mechanical properties :
#
#
# Convention : Reuss Voigt Hill
#
# Bulk Modulus (GPa) = 45.23183 51.68736 48.45960
# Shear Modulus (GPa) = 31.65112 37.86623 34.75867
#
# Velocity S-wave (km/s) = 3.47801 3.80420 3.64476
# Velocity P-wave (km/s) = 5.78063 6.24900 6.01937
#
# Compressibility (1/GPa) = 0.02210832
#
# Stress axis : x y z
#
# Youngs Moduli (GPa) = 47.58521 98.45487 62.82781
#
# Poissons Ratio (x) = 0.14054 0.43802
# Poissons Ratio (y) = 0.06793 0.25702
# Poissons Ratio (z) = 0.33175 0.40276
#
# Static dielectric constant tensor:
#      x y z
#    x 2.194160 0.000000 0.081660 
#    y 0.000000 2.169330 0.000000 
#    z 0.081660 0.000000 2.125400 
# 
# From -- ./inp_files/5655.got.cif
#   From: 2010.05.17/outbox.cif.g08.bks.cpg/sg4_3_cif.got.tgz:5655.got - 2010.06.03 18:43:04.
