data_PCOD9117496
_publ_section_title
;
Structure prediction by ZEFSAII (Michael W. Deem and Ramdas Pophale) SiO2 
 PCOD9117496
Probable space group: P 21
;
_chemical_formula_sum "Si O2"
_cell_formula_units_Z 12
_cell_length_a 10.753130
_cell_length_b 9.162252
_cell_length_c 4.993268
_cell_angle_alpha 90.000000
_cell_angle_beta 95.191337
_cell_angle_gamma 90.000000
_cell_volume 489.933239
_symmetry_space_group_name_H-M "P 21"
_symmetry_group_IT_number 4
_symmetry_cell_setting 'monoclinic'
loop_
_space_group_symop_operation_xyz
x,y,z
-x,1/2+y,-z
loop_
_atom_site_type_symbol
_atom_site_label
_atom_site_fract_x
_atom_site_fract_y
_atom_site_fract_z
Si Si1 0.374094 0.827800 0.748683
Si Si2 0.433803 0.535391 0.058970
Si Si3 0.193709 0.143261 0.289349
Si Si4 0.139017 0.863810 0.007377
Si Si5 0.602538 0.859656 0.460981
Si Si6 0.035924 0.141354 0.776001
O O1 0.458041 0.817670 0.497720
O O2 0.423373 0.983973 0.869122
O O3 0.424271 0.694417 0.939083
O O4 0.228365 0.821957 0.779597
O O5 0.370848 0.493496 0.327314
O O6 0.380910 0.423126 0.828024
O O7 0.211245 0.971749 0.227944
O O8 0.310510 0.226901 0.433055
O O9 0.080862 0.155182 0.481628
O O10 0.146282 0.201303 0.993505
O O11 0.033648 0.971837 0.864406
O O12 0.084491 0.729059 0.157383
#
# Coordination Sequence:
#
# PCOD9117496 Si02
#       6
#     2   2   2   2   2   2
#     4  10  24  44  67 103 135 175 219 273 334 397
#     4  10  24  40  64 104 132 176 214 267 332 401
#     4  10  23  44  68  95 136 173 216 278 327 393
#     4  10  25  46  70  97 135 173 231 271 333 387
#     4  10  23  41  69  99 138 169 216 267 342 389
#     4  10  25  43  70  98 130 182 220 276 326 385
#
# _framework density 24.493131999999999
#
# number of rings (size 3 to 8) (size 9 to 14) (size 15 to 20)
#    2.000    0.000    0.000    2.000    4.667    5.333 
#    0.000    0.000    0.000    0.000    0.000    0.000 
#    0.000    0.000    0.000    0.000    0.000    0.000 
#
# Total GULP energy -66944.678267 kJ/mol
# GULP energy per Si atom -5578.723189 kJ/mol
# Density = 2.443738 g / cm^3
# Si number density = 24.493132 Si / 1000 Ang^3
#
#
#
# Elastic Constant Matrix: (Units=GPa)
#
#
# Indices 1 2 3 4 5 6 
#
# 1 38.4008 6.8241 -26.0337 0.0000 -8.9248 0.0000
# 2 6.8241 76.1024 -24.4595 0.0000 8.0940 0.0000
# 3 -26.0337 -24.4595 68.6108 0.0000 8.2775 0.0000
# 4 0.0000 0.0000 0.0000 22.5958 0.0000 5.8489
# 5 -8.9248 8.0940 8.2775 0.0000 19.7473 0.0000
# 6 0.0000 0.0000 0.0000 5.8489 0.0000 43.5379
#
#
#
# Elastic Compliance Matrix: (Units=1/GPa)
#
#
# Indices 1 2 3 4 5 6 
#
# 1 0.037421 -0.000584 0.012556 0.000000 0.011888 0.000000
# 2 -0.000584 0.016436 0.006828 0.000000 -0.009863 0.000000
# 3 0.012556 0.006828 0.022568 0.000000 -0.006583 0.000000
# 4 0.000000 0.000000 0.000000 0.045850 0.000000 -0.006160
# 5 0.011888 -0.009863 -0.006583 0.000000 0.062815 0.000000
# 6 0.000000 0.000000 0.000000 -0.006160 0.000000 0.023796
#
#
# Mechanical properties :
#
#
# Convention : Reuss Voigt Hill
#
# Bulk Modulus (GPa) = 8.77014 10.64172 9.70593
# Shear Modulus (GPa) = 23.88986 32.29507 28.09247
#
# Velocity S-wave (km/s) = 3.12648 3.63510 3.39034
# Velocity P-wave (km/s) = 4.07696 4.68752 4.39286
#
# Compressibility (1/GPa) = 0.11402324
#
# Stress axis : x y z
#
# Youngs Moduli (GPa) = 26.72331 60.84230 44.31135
#
# Poissons Ratio (x) = 0.03555 -0.55639
# Poissons Ratio (y) = 0.01561 -0.30254
# Poissons Ratio (z) = -0.33555 -0.41540
#
# Static dielectric constant tensor:
#      x y z
#    x 1.970810 0.000000 0.077450 
#    y 0.000000 1.950570 0.000000 
#    z 0.077450 0.000000 1.966440 
# 
# From -- ./inp_files/2544.got.cif
#   From: 2010.05.17/outbox.cif.g08.bks.cpg/sg4_2_cif.got.tgz:2544.got - 2010.06.03 18:43:04.
