data_PCOD9117484
_publ_section_title
;
Structure prediction by ZEFSAII (Michael W. Deem and Ramdas Pophale) SiO2 
 PCOD9117484
Probable space group: P 21
;
_chemical_formula_sum "Si O2"
_cell_formula_units_Z 16
_cell_length_a 6.751891
_cell_length_b 9.597998
_cell_length_c 10.887359
_cell_angle_alpha 90.000000
_cell_angle_beta 72.545105
_cell_angle_gamma 90.000000
_cell_volume 673.063086
_symmetry_space_group_name_H-M "P 21"
_symmetry_group_IT_number 4
_symmetry_cell_setting 'monoclinic'
loop_
_space_group_symop_operation_xyz
x,y,z
-x,1/2+y,-z
loop_
_atom_site_type_symbol
_atom_site_label
_atom_site_fract_x
_atom_site_fract_y
_atom_site_fract_z
Si Si1 0.788910 0.104750 0.145114
Si Si2 0.172146 0.429974 0.392046
Si Si3 0.562197 0.618501 0.361160
Si Si4 0.809714 0.540586 0.085811
Si Si5 0.967726 0.820774 0.820265
Si Si6 0.464885 0.882424 0.245256
Si Si7 0.528148 0.710607 0.993134
Si Si8 0.196945 0.098203 0.429743
O O1 0.888843 0.188092 0.241525
O O2 0.690508 0.956824 0.199221
O O3 0.610856 0.176863 0.097033
O O4 0.987160 0.096955 0.019127
O O5 0.398331 0.497341 0.359544
O O6 0.074340 0.434903 0.274748
O O7 0.174961 0.263380 0.412209
O O8 0.017900 0.519524 0.503984
O O9 0.741336 0.615112 0.224007
O O10 0.455962 0.768649 0.356457
O O11 0.655266 0.592639 0.477313
O O12 0.611121 0.565081 0.036587
O O13 0.883428 0.388312 0.106350
O O14 0.740693 0.783715 0.911163
O O15 0.431600 0.798511 0.124003
O O16 0.307708 0.008275 0.302719
#
# Coordination Sequence:
#
# PCOD9117484 Si02
#       8
#     2   2   2   2   2   2   2   2
#     4  11  25  44  70 105 153 184 245 297 362 451
#     4  12  28  48  74 106 144 191 248 306 367 437
#     4  11  26  48  74 100 143 191 248 304 370 429
#     4  10  23  41  68 102 136 186 236 289 360 430
#     4  11  24  43  69 105 144 189 238 294 366 432
#     4  11  25  44  72 107 139 191 244 299 364 435
#     4  10  24  42  68 106 146 193 231 298 365 434
#     4  12  27  48  73 105 141 195 246 307 366 434
#
# _framework density 23.771917999999999
#
# number of rings (size 3 to 8) (size 9 to 14) (size 15 to 20)
#    0.000    1.000    2.500    2.250    8.750    4.000 
#    0.000    3.750    0.000    0.000    0.000    0.000 
#    0.000    0.000    0.000    0.000    0.000    0.000 
#
# Total GULP energy -89408.803868 kJ/mol
# GULP energy per Si atom -5588.050242 kJ/mol
# Density = 2.371781 g / cm^3
# Si number density = 23.771918 Si / 1000 Ang^3
#
#
#
# Elastic Constant Matrix: (Units=GPa)
#
#
# Indices 1 2 3 4 5 6 
#
# 1 71.6960 46.1199 22.7454 0.0000 4.3756 0.0000
# 2 46.1199 127.0661 18.1376 0.0000 -7.4084 0.0000
# 3 22.7454 18.1376 50.4927 0.0000 -7.4829 0.0000
# 4 0.0000 0.0000 0.0000 36.6570 0.0000 11.7047
# 5 4.3756 -7.4084 -7.4829 0.0000 36.6342 0.0000
# 6 0.0000 0.0000 0.0000 11.7047 0.0000 33.2684
#
#
#
# Elastic Compliance Matrix: (Units=1/GPa)
#
#
# Indices 1 2 3 4 5 6 
#
# 1 0.021235 -0.006902 -0.007909 0.000000 -0.005548 0.000000
# 2 -0.006902 0.010582 -0.000261 0.000000 0.002911 0.000000
# 3 -0.007909 -0.000261 0.024330 0.000000 0.005861 0.000000
# 4 0.000000 0.000000 0.000000 0.030732 0.000000 -0.010812
# 5 -0.005548 0.002911 0.005861 0.000000 0.029745 0.000000
# 6 0.000000 0.000000 0.000000 -0.010812 0.000000 0.033863
#
#
# Mechanical properties :
#
#
# Convention : Reuss Voigt Hill
#
# Bulk Modulus (GPa) = 38.45513 47.02894 42.74203
# Shear Modulus (GPa) = 26.41333 32.12871 29.27102
#
# Velocity S-wave (km/s) = 3.33696 3.68032 3.51283
# Velocity P-wave (km/s) = 5.57305 6.15516 5.87132
#
# Compressibility (1/GPa) = 0.02600434
#
# Stress axis : x y z
#
# Youngs Moduli (GPa) = 47.09146 94.49979 41.10202
#
# Poissons Ratio (x) = 0.65225 0.32506
# Poissons Ratio (y) = 0.32503 0.01071
# Poissons Ratio (z) = 0.37243 0.02462
#
# Static dielectric constant tensor:
#      x y z
#    x 1.907140 0.000000 0.010570 
#    y 0.000000 2.042250 0.000000 
#    z 0.010570 0.000000 1.955000 
# 
# From -- ./inp_files/10321.got.cif
#   From: 2010.05.17/outbox.cif.g08.bks.cpg/sg4_6_cif.got.tgz:10321.got - 2010.06.03 18:43:04.
