data_PCOD9117897
_publ_section_title
;
Structure prediction by ZEFSAII (Michael W. Deem and Ramdas Pophale) SiO2 
 PCOD9117897
Probable space group: P 21
;
_chemical_formula_sum "Si O2"
_cell_formula_units_Z 10
_cell_length_a 7.764715
_cell_length_b 5.231691
_cell_length_c 12.241703
_cell_angle_alpha 90.000000
_cell_angle_beta 124.935321
_cell_angle_gamma 90.000000
_cell_volume 407.677585
_symmetry_space_group_name_H-M "P 21"
_symmetry_group_IT_number 4
_symmetry_cell_setting 'monoclinic'
loop_
_space_group_symop_operation_xyz
x,y,z
-x,1/2+y,-z
loop_
_atom_site_type_symbol
_atom_site_label
_atom_site_fract_x
_atom_site_fract_y
_atom_site_fract_z
Si Si1 0.002088 0.347760 0.147101
Si Si2 0.663708 0.766734 0.336974
Si Si3 0.450872 0.623155 0.044649
Si Si4 0.216677 0.855479 0.252957
Si Si5 0.000019 0.102666 0.369122
O O1 0.165223 0.123860 0.175952
O O2 0.989653 0.327648 0.275945
O O3 0.775759 0.256671 0.025739
O O4 0.908050 0.122531 0.846623
O O5 0.569674 0.608820 0.202311
O O6 0.852909 0.649436 0.474524
O O7 0.464689 0.815035 0.342293
O O8 0.770463 0.016664 0.322678
O O9 0.431156 0.341577 0.985199
O O10 0.117128 0.890627 0.336957
#
# Coordination Sequence:
#
# PCOD9117897 Si02
#       5
#     2   2   2   2   2
#     4  10  23  49  71  98 159 176 244 315 358 423
#     4  12  27  45  81 106 148 206 244 297 397 425
#     4  12  25  47  73 111 144 194 247 309 361 450
#     4  10  26  48  72 109 145 191 242 318 356 445
#     4  10  27  45  69 110 146 187 251 303 352 457
#
# _framework density 24.529187
#
# number of rings (size 3 to 8) (size 9 to 14) (size 15 to 20)
#    1.200    0.000    2.000    2.400    8.400    4.800 
#    0.000    0.000    0.000    0.000    0.000    0.000 
#    0.000    0.000    0.000    0.000    0.000    0.000 
#
# Total GULP energy -55923.120991 kJ/mol
# GULP energy per Si atom -5592.312099 kJ/mol
# Density = 2.447336 g / cm^3
# Si number density = 24.529187 Si / 1000 Ang^3
#
#
#
# Elastic Constant Matrix: (Units=GPa)
#
#
# Indices 1 2 3 4 5 6 
#
# 1 85.5329 23.1409 5.4079 0.0000 19.3943 0.0000
# 2 23.1409 84.4652 -3.6942 0.0000 -18.7279 0.0000
# 3 5.4079 -3.6942 130.0014 0.0000 -7.9886 0.0000
# 4 0.0000 0.0000 0.0000 23.8104 0.0000 21.1371
# 5 19.3943 -18.7279 -7.9886 0.0000 35.7015 0.0000
# 6 0.0000 0.0000 0.0000 21.1371 0.0000 17.7843
#
#
#
# Elastic Compliance Matrix: (Units=1/GPa)
#
#
# Indices 1 2 3 4 5 6 
#
# 1 0.017022 -0.007785 -0.001773 0.000000 -0.013728 0.000000
# 2 -0.007785 0.017045 0.001640 0.000000 0.013537 0.000000
# 3 -0.001773 0.001640 0.008035 0.000000 0.003621 0.000000
# 4 0.000000 0.000000 0.000000 -0.762375 0.000000 0.906106
# 5 -0.013728 0.013537 0.003621 0.000000 0.043379 0.000000
# 6 0.000000 0.000000 0.000000 0.906106 0.000000 -1.020704
#
#
# Mechanical properties :
#
#
# Convention : Reuss Voigt Hill
#
# Bulk Modulus (GPa) = 38.06992 38.85652 38.46322
# Shear Modulus (GPa) = -2.98863 33.80223 15.40680
#
# Velocity S-wave (km/s) = -1.10501 3.71622 2.50891
# Velocity P-wave (km/s) = 3.73174 5.85569 4.90994
#
# Compressibility (1/GPa) = 0.02626746
#
# Stress axis : x y z
#
# Youngs Moduli (GPa) = 58.74622 58.66710 124.45377
#
# Poissons Ratio (x) = 0.45672 0.22064
# Poissons Ratio (y) = 0.45733 -0.20411
# Poissons Ratio (z) = 0.10415 -0.09622
#
# Static dielectric constant tensor:
#      x y z
#    x 2.014890 0.000000 -0.078070 
#    y 0.000000 1.956110 0.000000 
#    z -0.078070 0.000000 1.925400 
# 
# From -- ./inp_files/10686.got.cif
#   From: 2010.05.17/outbox.cif.g08.bks.cpg/sg4_6_cif.got.tgz:10686.got - 2010.06.03 18:43:04.
