data_PCOD9117922
_publ_section_title
;
Structure prediction by ZEFSAII (Michael W. Deem and Ramdas Pophale) SiO2 
 PCOD9117922
Probable space group: P 21
;
_chemical_formula_sum "Si O2"
_cell_formula_units_Z 16
_cell_length_a 13.534826
_cell_length_b 5.338859
_cell_length_c 13.282809
_cell_angle_alpha 90.000000
_cell_angle_beta 47.623453
_cell_angle_gamma 90.000000
_cell_volume 709.051127
_symmetry_space_group_name_H-M "P 21"
_symmetry_group_IT_number 4
_symmetry_cell_setting 'monoclinic'
loop_
_space_group_symop_operation_xyz
x,y,z
-x,1/2+y,-z
loop_
_atom_site_type_symbol
_atom_site_label
_atom_site_fract_x
_atom_site_fract_y
_atom_site_fract_z
Si Si1 0.337580 0.220650 0.158014
Si Si2 0.455804 0.630054 0.382675
Si Si3 0.213243 0.618529 0.696148
Si Si4 0.875004 0.608010 0.349822
Si Si5 0.730738 0.367530 0.628788
Si Si6 0.624946 0.138100 0.230626
Si Si7 0.365554 0.829347 0.001325
Si Si8 0.139901 0.598694 0.298007
O O1 0.193727 0.327100 0.291106
O O2 0.357843 0.002644 0.227592
O O3 0.317161 0.111079 0.059818
O O4 0.479828 0.352705 0.071373
O O5 0.361350 0.646538 0.544760
O O6 0.351350 0.636357 0.361314
O O7 0.539931 0.377653 0.327308
O O8 0.545754 0.877505 0.302958
O O9 0.155482 0.360927 0.690048
O O10 0.240357 0.616405 0.796115
O O11 0.131273 0.861369 0.716117
O O12 0.766136 0.545680 0.511518
O O13 0.012338 0.623697 0.316953
O O14 0.858235 0.264415 0.602480
O O15 0.647994 0.213112 0.098977
O O16 0.269779 0.670946 0.140637
#
# Coordination Sequence:
#
# PCOD9117922 Si02
#       8
#     2   2   2   2   2   2   2   2
#     4  11  22  41  64 101 139 174 220 288 350 420
#     4  11  22  39  68 104 137 171 220 287 357 413
#     4  11  25  46  65 100 136 182 233 294 332 405
#     4  11  27  46  68  96 140 182 232 281 341 409
#     4  10  24  38  68 101 136 174 220 281 352 427
#     4  12  24  41  71  99 135 183 229 280 353 413
#     4  11  24  39  66  99 136 177 223 284 348 419
#     4  11  26  42  66  96 137 185 227 281 345 422
#
# _framework density 22.565366999999998
#
# number of rings (size 3 to 8) (size 9 to 14) (size 15 to 20)
#    0.000    1.000    2.500    3.750   12.250    0.000 
#    0.000    1.250    0.000    0.000    0.000    0.000 
#    0.000    0.000    0.000    0.000    0.000    0.000 
#
# Total GULP energy -89315.224789 kJ/mol
# GULP energy per Si atom -5582.201549 kJ/mol
# Density = 2.251401 g / cm^3
# Si number density = 22.565367 Si / 1000 Ang^3
#
#
#
# Elastic Constant Matrix: (Units=GPa)
#
#
# Indices 1 2 3 4 5 6 
#
# 1 155.4258 51.3836 9.8691 0.0000 4.8043 0.0000
# 2 51.3836 120.5291 3.8663 0.0000 -1.1687 0.0000
# 3 9.8691 3.8663 20.0166 0.0000 3.0318 0.0000
# 4 0.0000 0.0000 0.0000 12.7021 0.0000 3.2366
# 5 4.8043 -1.1687 3.0318 0.0000 24.9541 0.0000
# 6 0.0000 0.0000 0.0000 3.2366 0.0000 31.6030
#
#
#
# Elastic Compliance Matrix: (Units=1/GPa)
#
#
# Indices 1 2 3 4 5 6 
#
# 1 0.007725 -0.003209 -0.002996 0.000000 -0.001274 0.000000
# 2 -0.003209 0.009691 -0.000460 0.000000 0.001128 0.000000
# 3 -0.002996 -0.000460 0.052405 0.000000 -0.005812 0.000000
# 4 0.000000 0.000000 0.000000 0.080836 0.000000 -0.008279
# 5 -0.001274 0.001128 -0.005812 0.000000 0.041078 0.000000
# 6 0.000000 0.000000 0.000000 -0.008279 0.000000 0.032490
#
#
# Mechanical properties :
#
#
# Convention : Reuss Voigt Hill
#
# Bulk Modulus (GPa) = 17.70247 47.35661 32.52954
# Shear Modulus (GPa) = 19.50193 29.24203 24.37198
#
# Velocity S-wave (km/s) = 2.94299 3.60374 3.28999
# Velocity P-wave (km/s) = 4.40571 6.19257 5.37392
#
# Compressibility (1/GPa) = 0.05648930
#
# Stress axis : x y z
#
# Youngs Moduli (GPa) = 129.45777 103.19229 19.08222
#
# Poissons Ratio (x) = 0.33118 0.05717
# Poissons Ratio (y) = 0.41547 0.00878
# Poissons Ratio (z) = 0.38782 0.04750
#
# Static dielectric constant tensor:
#      x y z
#    x 1.852750 0.000000 0.006550 
#    y 0.000000 2.317450 0.000000 
#    z 0.006550 0.000000 1.862980 
# 
# From -- ./inp_files/13848.got.cif
#   From: 2010.05.17/outbox.cif.g08.bks.cpg/sg4_7_cif.got.tgz:13848.got - 2010.06.03 18:43:04.
