data_PCOD9117465
_publ_section_title
;
Structure prediction by ZEFSAII (Michael W. Deem and Ramdas Pophale) SiO2 
 PCOD9117465
Probable space group: P 21
;
_chemical_formula_sum "Si O2"
_cell_formula_units_Z 16
_cell_length_a 14.200763
_cell_length_b 5.095056
_cell_length_c 25.503797
_cell_angle_alpha 90.000000
_cell_angle_beta 159.434632
_cell_angle_gamma 90.000000
_cell_volume 648.206980
_symmetry_space_group_name_H-M "P 21"
_symmetry_group_IT_number 4
_symmetry_cell_setting 'monoclinic'
loop_
_space_group_symop_operation_xyz
x,y,z
-x,1/2+y,-z
loop_
_atom_site_type_symbol
_atom_site_label
_atom_site_fract_x
_atom_site_fract_y
_atom_site_fract_z
Si Si1 0.657413 0.407420 0.568380
Si Si2 0.656388 0.047706 0.466903
Si Si3 0.794406 0.340285 0.222999
Si Si4 0.728120 0.411817 0.402924
Si Si5 0.711222 0.460577 0.060756
Si Si6 0.354398 0.422927 0.699248
Si Si7 0.084109 0.835388 0.198175
Si Si8 0.586121 0.097924 0.908459
O O1 0.501611 0.678878 0.482671
O O2 0.699240 0.256056 0.536768
O O3 0.894698 0.470135 0.732401
O O4 0.680206 0.243995 0.430213
O O5 0.366486 0.908906 0.319073
O O6 0.890628 0.831124 0.597817
O O7 0.797292 0.470550 0.165995
O O8 0.687710 0.445979 0.223860
O O9 0.566736 0.121639 0.092710
O O10 0.591468 0.219558 0.288987
O O11 0.047019 0.412709 0.558824
O O12 0.630184 0.708054 0.340180
O O13 0.624434 0.191632 0.988772
O O14 0.956538 0.560158 0.151422
O O15 0.539316 0.322173 0.842430
O O16 0.855405 0.940177 0.040288
#
# Coordination Sequence:
#
# PCOD9117465 Si02
#       8
#     2   2   2   2   2   2   2   2
#     4  10  23  41  64  98 142 185 221 266 334 412
#     4  11  23  45  67 101 137 183 229 286 343 412
#     4  11  22  40  63 100 137 180 234 276 337 414
#     4  10  23  43  69 101 133 170 239 292 340 410
#     4  11  23  41  63  99 145 180 232 278 340 419
#     4  10  23  44  69  99 133 177 229 296 352 393
#     4  10  25  41  64  98 141 182 220 272 349 420
#     4  11  24  43  67  96 134 187 220 290 347 408
#
# _framework density 24.683471000000001
#
# number of rings (size 3 to 8) (size 9 to 14) (size 15 to 20)
#    0.000    1.500    3.750    0.000    7.000    3.000 
#    4.500    1.250    0.000    0.000    0.000    0.000 
#    0.000    0.000    0.000    0.000    0.000    0.000 
#
# Total GULP energy -89183.625020 kJ/mol
# GULP energy per Si atom -5573.976564 kJ/mol
# Density = 2.462729 g / cm^3
# Si number density = 24.683471 Si / 1000 Ang^3
#
#
#
# Elastic Constant Matrix: (Units=GPa)
#
#
# Indices 1 2 3 4 5 6 
#
# 1 72.3604 -0.9865 21.0767 0.0000 8.7874 0.0000
# 2 -0.9865 70.2062 12.5786 0.0000 12.5731 0.0000
# 3 21.0767 12.5786 98.2004 0.0000 10.8253 0.0000
# 4 0.0000 0.0000 0.0000 23.8028 0.0000 -2.6937
# 5 8.7874 12.5731 10.8253 0.0000 32.7337 0.0000
# 6 0.0000 0.0000 0.0000 -2.6937 0.0000 28.2131
#
#
#
# Elastic Compliance Matrix: (Units=1/GPa)
#
#
# Indices 1 2 3 4 5 6 
#
# 1 0.015161 0.001403 -0.003036 0.000000 -0.003605 0.000000
# 2 0.001403 0.015603 -0.001658 0.000000 -0.005821 0.000000
# 3 -0.003036 -0.001658 0.011299 0.000000 -0.002285 0.000000
# 4 0.000000 0.000000 0.000000 0.042471 0.000000 0.004055
# 5 -0.003605 -0.005821 -0.002285 0.000000 0.034509 0.000000
# 6 0.000000 0.000000 0.000000 0.004055 0.000000 0.035832
#
#
# Mechanical properties :
#
#
# Convention : Reuss Voigt Hill
#
# Bulk Modulus (GPa) = 28.18497 34.01164 31.09831
# Shear Modulus (GPa) = 28.85429 30.82312 29.83871
#
# Velocity S-wave (km/s) = 3.42273 3.53758 3.48063
# Velocity P-wave (km/s) = 5.20226 5.52223 5.36463
#
# Compressibility (1/GPa) = 0.03547990
#
# Stress axis : x y z
#
# Youngs Moduli (GPa) = 65.95886 64.09007 88.50209
#
# Poissons Ratio (x) = -0.08989 0.26872
# Poissons Ratio (y) = -0.09251 0.14673
# Poissons Ratio (z) = 0.20027 0.10626
#
# Static dielectric constant tensor:
#      x y z
#    x 2.021980 0.000000 0.061540 
#    y 0.000000 2.067550 0.000000 
#    z 0.061540 0.000000 2.172880 
# 
# From -- ./inp_files/16417.got.cif
#   From: 2010.05.17/outbox.cif.g08.bks.cpg/sg4_9_cif.got.tgz:16417.got - 2010.06.03 18:43:04.
