data_PCOD9118131
_publ_section_title
;
Structure prediction by ZEFSAII (Michael W. Deem and Ramdas Pophale) SiO2 
 PCOD9118131
Probable space group: P 21
;
_chemical_formula_sum "Si O2"
_cell_formula_units_Z 16
_cell_length_a 10.278201
_cell_length_b 9.589729
_cell_length_c 13.502983
_cell_angle_alpha 90.000000
_cell_angle_beta 149.673301
_cell_angle_gamma 90.000000
_cell_volume 672.023174
_symmetry_space_group_name_H-M "P 21"
_symmetry_group_IT_number 4
_symmetry_cell_setting 'monoclinic'
loop_
_space_group_symop_operation_xyz
x,y,z
-x,1/2+y,-z
loop_
_atom_site_type_symbol
_atom_site_label
_atom_site_fract_x
_atom_site_fract_y
_atom_site_fract_z
Si Si1 0.405134 0.519870 0.334070
Si Si2 0.080193 0.086922 0.271850
Si Si3 0.825368 0.871362 0.981097
Si Si4 0.740484 0.014254 0.223737
Si Si5 0.253618 0.216513 0.873411
Si Si6 0.854558 0.011229 0.531738
Si Si7 0.636757 0.330339 0.777056
Si Si8 0.976084 0.384498 0.174061
O O1 0.660441 0.499564 0.564738
O O2 0.435102 0.672520 0.302458
O O3 0.148580 0.501725 0.232202
O O4 0.390165 0.400050 0.241409
O O5 0.129465 0.240390 0.265425
O O6 0.975926 0.078076 0.314392
O O7 0.861171 0.016483 0.062428
O O8 0.779938 0.756950 0.033405
O O9 0.091116 0.850537 0.098194
O O10 0.695640 0.858230 0.153187
O O11 0.827854 0.011218 0.395915
O O12 0.492779 0.109490 0.033811
O O13 0.985755 0.155303 0.653084
O O14 0.579810 0.946847 0.386262
O O15 0.043727 0.912032 0.721932
O O16 0.713466 0.356880 0.942639
#
# Coordination Sequence:
#
# PCOD9118131 Si02
#       8
#     2   2   2   2   2   2   2   2
#     4  11  23  43  71 108 145 201 247 310 384 455
#     4  11  24  45  70 106 146 197 249 318 373 453
#     4  10  24  46  69 108 149 190 249 312 385 451
#     4  11  30  49  78 105 154 198 262 315 378 449
#     4  11  28  51  74 109 147 203 257 318 375 457
#     4  12  26  45  73 109 144 198 253 308 385 446
#     4  11  23  43  73 109 149 194 244 314 383 453
#     4  11  24  44  72 106 152 193 251 315 379 454
#
# _framework density 23.808700999999999
#
# number of rings (size 3 to 8) (size 9 to 14) (size 15 to 20)
#    0.000    1.000    2.500    2.250    5.250    5.000 
#    6.750    0.000    0.000    0.000    0.000    0.000 
#    0.000    0.000    0.000    0.000    0.000    0.000 
#
# Total GULP energy -89312.647464 kJ/mol
# GULP energy per Si atom -5582.040467 kJ/mol
# Density = 2.375451 g / cm^3
# Si number density = 23.808701 Si / 1000 Ang^3
#
#
#
# Elastic Constant Matrix: (Units=GPa)
#
#
# Indices 1 2 3 4 5 6 
#
# 1 99.9138 47.1670 32.0746 0.0000 -10.1946 0.0000
# 2 47.1670 123.8362 56.6017 0.0000 5.6201 0.0000
# 3 32.0746 56.6017 131.0500 0.0000 -18.1341 0.0000
# 4 0.0000 0.0000 0.0000 47.4057 0.0000 1.1842
# 5 -10.1946 5.6201 -18.1341 0.0000 39.2348 0.0000
# 6 0.0000 0.0000 0.0000 1.1842 0.0000 33.7977
#
#
#
# Elastic Compliance Matrix: (Units=1/GPa)
#
#
# Indices 1 2 3 4 5 6 
#
# 1 0.012841 -0.004815 -0.000541 0.000000 0.003776 0.000000
# 2 -0.004815 0.012392 -0.004906 0.000000 -0.005294 0.000000
# 3 -0.000541 -0.004906 0.010640 0.000000 0.005480 0.000000
# 4 0.000000 0.000000 0.000000 0.021113 0.000000 -0.000740
# 5 0.003776 -0.005294 0.005480 0.000000 0.029760 0.000000
# 6 0.000000 0.000000 0.000000 -0.000740 0.000000 0.029614
#
#
# Mechanical properties :
#
#
# Convention : Reuss Voigt Hill
#
# Bulk Modulus (GPa) = 65.15003 69.60963 67.37983
# Shear Modulus (GPa) = 35.21138 38.68473 36.94806
#
# Velocity S-wave (km/s) = 3.84986 4.03527 3.94365
# Velocity P-wave (km/s) = 6.86915 7.14225 7.00703
#
# Compressibility (1/GPa) = 0.01534919
#
# Stress axis : x y z
#
# Youngs Moduli (GPa) = 77.87831 80.69801 93.98205
#
# Poissons Ratio (x) = 0.38857 0.05080
# Poissons Ratio (y) = 0.37499 0.46110
# Poissons Ratio (z) = 0.04209 0.39592
#
# Static dielectric constant tensor:
#      x y z
#    x 1.949440 0.000000 -0.019390 
#    y 0.000000 1.941630 0.000000 
#    z -0.019390 0.000000 1.907040 
# 
# From -- ./inp_files/13972.got.cif
#   From: 2010.05.17/outbox.cif.g08.bks.cpg/sg4_7_cif.got.tgz:13972.got - 2010.06.03 18:43:04.
