data_PCOD9118438
_publ_section_title
;
Structure prediction by ZEFSAII (Michael W. Deem and Ramdas Pophale) SiO2 
 PCOD9118438
Probable space group: P 21
;
_chemical_formula_sum "Si O2"
_cell_formula_units_Z 16
_cell_length_a 4.902625
_cell_length_b 11.626327
_cell_length_c 10.489765
_cell_angle_alpha 90.000000
_cell_angle_beta 82.914832
_cell_angle_gamma 90.000000
_cell_volume 593.345873
_symmetry_space_group_name_H-M "P 21"
_symmetry_group_IT_number 4
_symmetry_cell_setting 'monoclinic'
loop_
_space_group_symop_operation_xyz
x,y,z
-x,1/2+y,-z
loop_
_atom_site_type_symbol
_atom_site_label
_atom_site_fract_x
_atom_site_fract_y
_atom_site_fract_z
Si Si1 0.302683 0.613240 0.974350
Si Si2 0.161292 0.474570 0.602296
Si Si3 0.837301 0.491978 0.846131
Si Si4 0.139085 0.087554 0.812268
Si Si5 0.353182 0.834900 0.801602
Si Si6 0.906067 0.814372 0.623793
Si Si7 0.590743 0.644512 0.457818
Si Si8 0.507390 0.793558 0.243618
O O1 0.102533 0.521924 0.914067
O O2 0.289277 0.738855 0.910825
O O3 0.690154 0.701753 0.154254
O O4 0.169930 0.607130 0.122523
O O5 0.925325 0.532643 0.699797
O O6 0.048970 0.412524 0.484267
O O7 0.400407 0.556217 0.540972
O O8 0.291316 0.382967 0.694691
O O9 0.707935 0.366430 0.825551
O O10 0.600922 0.567669 0.922607
O O11 0.201039 0.091441 0.658374
O O12 0.248188 0.961748 0.845041
O O13 0.671749 0.844060 0.742769
O O14 0.183458 0.795915 0.685875
O O15 0.766384 0.717911 0.545253
O O16 0.400208 0.722466 0.373179
#
# Coordination Sequence:
#
# PCOD9118438 Si02
#       8
#     2   2   2   2   2   2   2   2
#     4  12  29  51  79 112 156 215 269 321 387 474
#     4  11  22  46  81 112 162 194 257 323 399 481
#     4  12  26  50  77 112 154 208 260 322 393 471
#     4  10  26  53  78 115 155 213 264 330 380 472
#     4  12  27  51  75 115 157 204 261 321 400 457
#     4  11  25  46  76 113 154 196 252 326 391 475
#     4   9  22  48  75 119 154 202 254 326 397 474
#     4   9  23  49  75 118 150 208 259 313 403 462
#
# _framework density 26.965724000000002
#
# number of rings (size 3 to 8) (size 9 to 14) (size 15 to 20)
#    0.750    0.500    2.500    1.500    7.000    1.000 
#   11.250    0.000    0.000    0.000    0.000    0.000 
#    0.000    0.000    0.000    0.000    0.000    0.000 
#
# Total GULP energy -89679.305443 kJ/mol
# GULP energy per Si atom -5604.956590 kJ/mol
# Density = 2.690435 g / cm^3
# Si number density = 26.965724 Si / 1000 Ang^3
#
#
#
# Elastic Constant Matrix: (Units=GPa)
#
#
# Indices 1 2 3 4 5 6 
#
# 1 117.6903 14.8843 61.8531 0.0000 -32.0217 0.0000
# 2 14.8843 117.7682 83.2059 0.0000 -12.7870 0.0000
# 3 61.8531 83.2059 127.1271 0.0000 -29.1357 0.0000
# 4 0.0000 0.0000 0.0000 46.9875 0.0000 0.7861
# 5 -32.0217 -12.7870 -29.1357 0.0000 61.8089 0.0000
# 6 0.0000 0.0000 0.0000 0.7861 0.0000 41.8508
#
#
#
# Elastic Compliance Matrix: (Units=1/GPa)
#
#
# Indices 1 2 3 4 5 6 
#
# 1 0.013709 0.005161 -0.009166 0.000000 0.003849 0.000000
# 2 0.005161 0.017919 -0.014325 0.000000 -0.000371 0.000000
# 3 -0.009166 -0.014325 0.022348 0.000000 0.002823 0.000000
# 4 0.000000 0.000000 0.000000 0.021289 0.000000 -0.000400
# 5 0.003849 -0.000371 0.002823 0.000000 0.019427 0.000000
# 6 0.000000 0.000000 0.000000 -0.000400 0.000000 0.023902
#
#
# Mechanical properties :
#
#
# Convention : Reuss Voigt Hill
#
# Bulk Modulus (GPa) = 57.74428 75.83024 66.78726
# Shear Modulus (GPa) = 31.05122 43.63894 37.34508
#
# Velocity S-wave (km/s) = 3.39707 4.02719 3.72547
# Velocity P-wave (km/s) = 6.07019 7.05736 6.58231
#
# Compressibility (1/GPa) = 0.01731773
#
# Stress axis : x y z
#
# Youngs Moduli (GPa) = 72.94717 55.80588 44.74654
#
# Poissons Ratio (x) = -0.28802 0.41013
# Poissons Ratio (y) = -0.37649 0.64097
# Poissons Ratio (z) = 0.66861 0.79939
#
# Static dielectric constant tensor:
#      x y z
#    x 2.075750 0.000000 0.024450 
#    y 0.000000 2.173140 0.000000 
#    z 0.024450 0.000000 2.125420 
# 
# From -- ./inp_files/4651.got.cif
#   From: 2010.05.17/outbox.cif.g08.bks.cpg/sg4_3_cif.got.tgz:4651.got - 2010.06.03 18:43:04.
