data_PCOD9118090
_publ_section_title
;
Structure prediction by ZEFSAII (Michael W. Deem and Ramdas Pophale) SiO2 
 PCOD9118090
Probable space group: P 21
;
_chemical_formula_sum "Si O2"
_cell_formula_units_Z 16
_cell_length_a 8.909705
_cell_length_b 8.227802
_cell_length_c 10.427387
_cell_angle_alpha 90.000000
_cell_angle_beta 61.935013
_cell_angle_gamma 90.000000
_cell_volume 674.520730
_symmetry_space_group_name_H-M "P 21"
_symmetry_group_IT_number 4
_symmetry_cell_setting 'monoclinic'
loop_
_space_group_symop_operation_xyz
x,y,z
-x,1/2+y,-z
loop_
_atom_site_type_symbol
_atom_site_label
_atom_site_fract_x
_atom_site_fract_y
_atom_site_fract_z
Si Si1 0.944819 0.036890 0.669825
Si Si2 0.727898 0.707797 0.365910
Si Si3 0.753112 0.277185 0.083639
Si Si4 0.017876 0.069271 0.109980
Si Si5 0.576032 0.363925 0.422158
Si Si6 0.870467 0.186591 0.424259
Si Si7 0.338703 0.246782 0.908583
Si Si8 0.405728 0.554023 0.038553
O O1 0.904479 0.106437 0.546102
O O2 0.770807 0.028434 0.817406
O O3 0.077969 0.161450 0.683686
O O4 0.029470 0.858992 0.626809
O O5 0.629925 0.542207 0.441954
O O6 0.625616 0.839165 0.490334
O O7 0.693661 0.747041 0.230441
O O8 0.882118 0.410872 0.976169
O O9 0.616118 0.215891 0.038036
O O10 0.661897 0.336229 0.249465
O O11 0.866075 0.119984 0.076805
O O12 0.940542 0.071012 0.282743
O O13 0.155367 0.214236 0.045373
O O14 0.676080 0.239221 0.475495
O O15 0.451745 0.095386 0.913819
O O16 0.426136 0.408224 0.928803
#
# Coordination Sequence:
#
# PCOD9118090 Si02
#       8
#     2   2   2   2   2   2   2   2
#     4  11  25  48  70 104 138 189 233 289 347 421
#     4  11  25  46  74 100 143 184 235 286 350 420
#     4  11  24  43  73 104 141 184 234 287 352 422
#     4  11  22  45  72 104 141 183 231 290 348 422
#     4  10  24  45  68 103 140 183 232 287 346 415
#     4  10  24  45  70 103 143 180 236 285 350 415
#     4  12  25  45  71 102 144 182 234 293 352 414
#     4  12  27  45  70 104 142 183 237 291 355 417
#
# _framework density 23.720547
#
# number of rings (size 3 to 8) (size 9 to 14) (size 15 to 20)
#    0.000    1.000    2.500    3.000    5.250    3.000 
#    2.250    0.000    0.000    0.000    0.000    0.000 
#    0.000    0.000    0.000    0.000    0.000    0.000 
#
# Total GULP energy -89617.219652 kJ/mol
# GULP energy per Si atom -5601.076228 kJ/mol
# Density = 2.366656 g / cm^3
# Si number density = 23.720547 Si / 1000 Ang^3
#
#
#
# Elastic Constant Matrix: (Units=GPa)
#
#
# Indices 1 2 3 4 5 6 
#
# 1 106.0789 13.6372 37.3366 0.0000 14.7751 0.0000
# 2 13.6372 77.9987 29.6818 0.0000 14.5072 0.0000
# 3 37.3366 29.6818 92.1541 0.0000 19.9033 0.0000
# 4 0.0000 0.0000 0.0000 38.8889 0.0000 -0.5182
# 5 14.7751 14.5072 19.9033 0.0000 43.3245 0.0000
# 6 0.0000 0.0000 0.0000 -0.5182 0.0000 38.9806
#
#
#
# Elastic Compliance Matrix: (Units=1/GPa)
#
#
# Indices 1 2 3 4 5 6 
#
# 1 0.011136 -0.000037 -0.004088 0.000000 -0.001907 0.000000
# 2 -0.000037 0.014979 -0.004140 0.000000 -0.003101 0.000000
# 3 -0.004088 -0.004140 0.014699 0.000000 -0.003972 0.000000
# 4 0.000000 0.000000 0.000000 0.025719 0.000000 0.000342
# 5 -0.001907 -0.003101 -0.003972 0.000000 0.026596 0.000000
# 6 0.000000 0.000000 0.000000 0.000342 0.000000 0.025658
#
#
# Mechanical properties :
#
#
# Convention : Reuss Voigt Hill
#
# Bulk Modulus (GPa) = 41.17721 48.61586 44.89654
# Shear Modulus (GPa) = 34.86458 37.27722 36.07090
#
# Velocity S-wave (km/s) = 3.83796 3.96854 3.90380
# Velocity P-wave (km/s) = 6.08580 6.44506 6.26800
#
# Compressibility (1/GPa) = 0.02428528
#
# Stress axis : x y z
#
# Youngs Moduli (GPa) = 89.79701 66.75821 68.03131
#
# Poissons Ratio (x) = 0.00244 0.27812
# Poissons Ratio (y) = 0.00328 0.28165
# Poissons Ratio (z) = 0.36710 0.27638
#
# Static dielectric constant tensor:
#      x y z
#    x 1.893700 0.000000 0.008960 
#    y 0.000000 1.960630 0.000000 
#    z 0.008960 0.000000 1.837780 
# 
# From -- ./inp_files/5431.got.cif
#   From: 2010.05.17/outbox.cif.g08.bks.cpg/sg4_3_cif.got.tgz:5431.got - 2010.06.03 18:43:04.
