data_PCOD9118264
_publ_section_title
;
Structure prediction by ZEFSAII (Michael W. Deem and Ramdas Pophale) SiO2 
 PCOD9118264
Probable space group: P 21
;
_chemical_formula_sum "Si O2"
_cell_formula_units_Z 16
_cell_length_a 7.019704
_cell_length_b 8.350124
_cell_length_c 17.108409
_cell_angle_alpha 90.000000
_cell_angle_beta 43.950401
_cell_angle_gamma 90.000000
_cell_volume 695.989957
_symmetry_space_group_name_H-M "P 21"
_symmetry_group_IT_number 4
_symmetry_cell_setting 'monoclinic'
loop_
_space_group_symop_operation_xyz
x,y,z
-x,1/2+y,-z
loop_
_atom_site_type_symbol
_atom_site_label
_atom_site_fract_x
_atom_site_fract_y
_atom_site_fract_z
Si Si1 0.503611 0.914880 0.253085
Si Si2 0.809025 0.833549 0.758421
Si Si3 0.825404 0.697466 0.584181
Si Si4 0.471001 0.713930 0.400594
Si Si5 0.567292 0.356688 0.423422
Si Si6 0.587423 0.186599 0.860912
Si Si7 0.302329 0.711405 0.994746
Si Si8 0.988440 0.522927 0.980635
O O1 0.613255 0.783763 0.281961
O O2 0.384345 0.820517 0.213890
O O3 0.277393 0.020883 0.362907
O O4 0.752734 0.029494 0.153875
O O5 0.765888 0.803053 0.679020
O O6 0.606799 0.721470 0.868468
O O7 0.125190 0.793080 0.681265
O O8 0.739371 0.019211 0.796324
O O9 0.654365 0.764016 0.562565
O O10 0.149244 0.696327 0.474817
O O11 0.569624 0.541581 0.398940
O O12 0.497642 0.832751 0.466088
O O13 0.680808 0.241103 0.918689
O O14 0.264283 0.141275 0.959011
O O15 0.131260 0.553693 0.022198
O O16 0.143878 0.850634 0.995030
#
# Coordination Sequence:
#
# PCOD9118264 Si02
#       8
#     2   2   2   2   2   2   2   2
#     4  12  25  46  73 101 145 191 233 297 364 412
#     4  10  25  42  68 100 137 182 231 292 356 415
#     4  11  24  46  71 103 139 183 237 299 354 427
#     4  11  26  47  70 109 140 187 239 298 354 429
#     4  11  25  47  74 101 144 182 239 293 362 430
#     4  11  27  45  68 105 144 188 241 292 352 440
#     4  11  25  46  70 103 144 182 240 295 355 430
#     4  11  25  45  68 102 143 187 234 298 347 423
#
# _framework density 22.988837
#
# number of rings (size 3 to 8) (size 9 to 14) (size 15 to 20)
#    0.000    1.000    2.500    2.250    7.000    6.000 
#    2.250    0.000    0.000    0.000    0.000    0.000 
#    0.000    0.000    0.000    0.000    0.000    0.000 
#
# Total GULP energy -89576.145356 kJ/mol
# GULP energy per Si atom -5598.509085 kJ/mol
# Density = 2.293651 g / cm^3
# Si number density = 22.988837 Si / 1000 Ang^3
#
#
#
# Elastic Constant Matrix: (Units=GPa)
#
#
# Indices 1 2 3 4 5 6 
#
# 1 146.1694 24.5390 37.1314 0.0000 12.3220 0.0000
# 2 24.5390 59.3887 0.8700 0.0000 12.1601 0.0000
# 3 37.1314 0.8700 48.5307 0.0000 4.9238 0.0000
# 4 0.0000 0.0000 0.0000 37.6778 0.0000 12.6039
# 5 12.3220 12.1601 4.9238 0.0000 28.8921 0.0000
# 6 0.0000 0.0000 0.0000 12.6039 0.0000 32.9771
#
#
#
# Elastic Compliance Matrix: (Units=1/GPa)
#
#
# Indices 1 2 3 4 5 6 
#
# 1 0.009291 -0.003466 -0.006912 0.000000 -0.001326 0.000000
# 2 -0.003466 0.019730 0.003044 0.000000 -0.007344 0.000000
# 3 -0.006912 0.003044 0.026122 0.000000 -0.002785 0.000000
# 4 0.000000 0.000000 0.000000 0.030432 0.000000 -0.011631
# 5 -0.001326 -0.007344 -0.002785 0.000000 0.038743 0.000000
# 6 0.000000 0.000000 0.000000 -0.011631 0.000000 0.034769
#
#
# Mechanical properties :
#
#
# Convention : Reuss Voigt Hill
#
# Bulk Modulus (GPa) = 24.70779 42.12994 33.41887
# Shear Modulus (GPa) = 26.70278 32.67930 29.69104
#
# Velocity S-wave (km/s) = 3.41186 3.77441 3.59770
# Velocity P-wave (km/s) = 5.12758 6.11236 5.64150
#
# Compressibility (1/GPa) = 0.04047307
#
# Stress axis : x y z
#
# Youngs Moduli (GPa) = 107.63246 50.68516 38.28205
#
# Poissons Ratio (x) = 0.17569 0.26460
# Poissons Ratio (y) = 0.37308 -0.11651
# Poissons Ratio (z) = 0.74395 -0.15426
#
# Static dielectric constant tensor:
#      x y z
#    x 1.820520 0.000000 -0.022440 
#    y 0.000000 1.903310 0.000000 
#    z -0.022440 0.000000 1.839290 
# 
# From -- ./inp_files/2622.got.cif
#   From: 2010.05.17/outbox.cif.g08.bks.cpg/sg4_2_cif.got.tgz:2622.got - 2010.06.03 18:43:04.
