data_PCOD9118899
_publ_section_title
;
Structure prediction by ZEFSAII (Michael W. Deem and Ramdas Pophale) SiO2 
 PCOD9118899
Probable space group: P 21
;
_chemical_formula_sum "Si O2"
_cell_formula_units_Z 14
_cell_length_a 8.938106
_cell_length_b 5.663395
_cell_length_c 17.314461
_cell_angle_alpha 90.000000
_cell_angle_beta 39.942955
_cell_angle_gamma 90.000000
_cell_volume 562.707883
_symmetry_space_group_name_H-M "P 21"
_symmetry_group_IT_number 4
_symmetry_cell_setting 'monoclinic'
loop_
_space_group_symop_operation_xyz
x,y,z
-x,1/2+y,-z
loop_
_atom_site_type_symbol
_atom_site_label
_atom_site_fract_x
_atom_site_fract_y
_atom_site_fract_z
Si Si1 0.087591 0.486020 0.334499
Si Si2 0.422139 0.094459 0.434105
Si Si3 0.276204 0.719171 0.109602
Si Si4 0.090585 0.604118 0.690380
Si Si5 0.430825 0.590057 0.336995
Si Si6 0.200379 0.310036 0.074299
Si Si7 0.868328 0.592791 0.050047
O O1 0.251650 0.567476 0.199434
O O2 0.211004 0.548889 0.365890
O O3 0.835114 0.609246 0.427597
O O4 0.014891 0.212299 0.346579
O O5 0.635264 0.064586 0.410435
O O6 0.448426 0.345012 0.378976
O O7 0.419905 0.847220 0.384801
O O8 0.197298 0.589798 0.061882
O O9 0.538716 0.801188 0.994086
O O10 0.085750 0.911604 0.207352
O O11 0.027640 0.793220 0.782302
O O12 0.659253 0.601589 0.193074
O O13 0.215188 0.115132 0.004764
O O14 0.996978 0.343906 0.003967
#
# Coordination Sequence:
#
# PCOD9118899 Si02
#       7
#     2   2   2   2   2   2   2
#     4  11  28  48  77 106 146 205 258 309 376 460
#     4  12  30  50  78 110 157 195 260 323 379 446
#     4  11  24  43  74 103 143 191 250 307 381 447
#     4  11  27  45  75 108 146 194 252 315 381 444
#     4  12  27  52  75 114 150 209 252 310 386 465
#     4  11  23  44  69 105 143 188 240 310 370 455
#     4  12  27  44  74 108 151 196 244 306 383 461
#
# _framework density 24.879695000000002
#
# number of rings (size 3 to 8) (size 9 to 14) (size 15 to 20)
#    0.000    0.571    2.857    3.429   14.000    1.143 
#    0.000    0.000    0.000    0.000    0.000    0.000 
#    0.000    0.000    0.000    0.000    0.000    0.000 
#
# Total GULP energy -78031.845600 kJ/mol
# GULP energy per Si atom -5573.703257 kJ/mol
# Density = 2.482307 g / cm^3
# Si number density = 24.879695 Si / 1000 Ang^3
#
#
#
# Elastic Constant Matrix: (Units=GPa)
#
#
# Indices 1 2 3 4 5 6 
#
# 1 102.1015 51.4898 24.8446 0.0000 -25.4538 0.0000
# 2 51.4898 125.2118 21.3507 0.0000 2.4378 0.0000
# 3 24.8446 21.3507 137.4767 0.0000 -17.9177 0.0000
# 4 0.0000 0.0000 0.0000 46.4482 0.0000 7.8094
# 5 -25.4538 2.4378 -17.9177 0.0000 42.4128 0.0000
# 6 0.0000 0.0000 0.0000 7.8094 0.0000 37.1612
#
#
#
# Elastic Compliance Matrix: (Units=1/GPa)
#
#
# Indices 1 2 3 4 5 6 
#
# 1 0.015567 -0.006489 -0.000571 0.000000 0.009474 0.000000
# 2 -0.006489 0.010954 -0.001183 0.000000 -0.005024 0.000000
# 3 -0.000571 -0.001183 0.007964 0.000000 0.003090 0.000000
# 4 0.000000 0.000000 0.000000 0.022318 0.000000 -0.004690
# 5 0.009474 -0.005024 0.003090 0.000000 0.030858 0.000000
# 6 0.000000 0.000000 0.000000 -0.004690 0.000000 0.027895
#
#
# Mechanical properties :
#
#
# Convention : Reuss Voigt Hill
#
# Bulk Modulus (GPa) = 55.55704 62.24002 58.89853
# Shear Modulus (GPa) = 36.22085 43.01143 39.61614
#
# Velocity S-wave (km/s) = 3.81969 4.16237 3.99470
# Velocity P-wave (km/s) = 6.46777 6.94054 6.70832
#
# Compressibility (1/GPa) = 0.01799952
#
# Stress axis : x y z
#
# Youngs Moduli (GPa) = 64.23725 91.28774 125.57156
#
# Poissons Ratio (x) = 0.59234 0.07167
# Poissons Ratio (y) = 0.41682 0.14860
# Poissons Ratio (z) = 0.03666 0.10803
#
# Static dielectric constant tensor:
#      x y z
#    x 2.300660 0.000000 -0.011110 
#    y 0.000000 2.236940 0.000000 
#    z -0.011110 0.000000 1.932920 
# 
# From -- ./inp_files/7242.got.cif
#   From: 2010.05.17/outbox.cif.g08.bks.cpg/sg4_4_cif.got.tgz:7242.got - 2010.06.03 18:43:04.
