data_PCOD9118886
_publ_section_title
;
Structure prediction by ZEFSAII (Michael W. Deem and Ramdas Pophale) SiO2 
 PCOD9118886
Probable space group: P 21
;
_chemical_formula_sum "Si O2"
_cell_formula_units_Z 12
_cell_length_a 9.074812
_cell_length_b 5.142126
_cell_length_c 15.275600
_cell_angle_alpha 90.000000
_cell_angle_beta 134.510837
_cell_angle_gamma 90.000000
_cell_volume 508.323216
_symmetry_space_group_name_H-M "P 21"
_symmetry_group_IT_number 4
_symmetry_cell_setting 'monoclinic'
loop_
_space_group_symop_operation_xyz
x,y,z
-x,1/2+y,-z
loop_
_atom_site_type_symbol
_atom_site_label
_atom_site_fract_x
_atom_site_fract_y
_atom_site_fract_z
Si Si1 0.766227 0.123550 0.789921
Si Si2 0.486209 0.594309 0.051049
Si Si3 0.132305 0.744070 0.540319
Si Si4 0.196553 0.277552 0.048282
Si Si5 0.451499 0.403321 0.773766
Si Si6 0.359340 0.738200 0.448853
O O1 0.549850 0.243576 0.734004
O O2 0.777297 0.154527 0.691593
O O3 0.776536 0.838845 0.837386
O O4 0.964448 0.244627 0.920758
O O5 0.557741 0.327181 0.035122
O O6 0.291676 0.505223 0.028488
O O7 0.637776 0.718730 0.187321
O O8 0.299452 0.624001 0.676778
O O9 0.234714 0.749833 0.487178
O O10 0.050039 0.028649 0.531126
O O11 0.350173 0.039495 0.098913
O O12 0.536033 0.516521 0.526761
#
# Coordination Sequence:
#
# PCOD9118886 Si02
#       6
#     2   2   2   2   2   2
#     4  11  24  43  77 112 145 188 257 312 380 449
#     4  11  24  44  69 103 147 195 240 289 385 456
#     4  12  29  51  76 111 150 206 257 309 388 446
#     4  11  23  43  75 112 148 191 238 319 385 440
#     4  11  24  48  75 101 157 191 249 318 373 448
#     4  12  26  51  82 109 149 203 263 319 369 447
#
# _framework density 23.607028
#
# number of rings (size 3 to 8) (size 9 to 14) (size 15 to 20)
#    0.000    0.667    5.000    2.000    4.667    1.333 
#    3.000    0.000    0.000    0.000    0.000    0.000 
#    0.000    0.000    0.000    0.000    0.000    0.000 
#
# Total GULP energy -67101.367065 kJ/mol
# GULP energy per Si atom -5591.780589 kJ/mol
# Density = 2.355330 g / cm^3
# Si number density = 23.607028 Si / 1000 Ang^3
#
#
#
# Elastic Constant Matrix: (Units=GPa)
#
#
# Indices 1 2 3 4 5 6 
#
# 1 116.5212 24.2001 15.2160 0.0000 -25.8938 0.0000
# 2 24.2001 89.0491 -3.6402 0.0000 -8.8832 0.0000
# 3 15.2160 -3.6402 70.8000 0.0000 -3.0516 0.0000
# 4 0.0000 0.0000 0.0000 42.4197 0.0000 1.3692
# 5 -25.8938 -8.8832 -3.0516 0.0000 36.0269 0.0000
# 6 0.0000 0.0000 0.0000 1.3692 0.0000 41.6776
#
#
#
# Elastic Compliance Matrix: (Units=1/GPa)
#
#
# Indices 1 2 3 4 5 6 
#
# 1 0.010929 -0.002351 -0.002164 0.000000 0.007092 0.000000
# 2 -0.002351 0.012055 0.001185 0.000000 0.001383 0.000000
# 3 -0.002164 0.001185 0.014649 0.000000 -0.000022 0.000000
# 4 0.000000 0.000000 0.000000 0.023599 0.000000 -0.000775
# 5 0.007092 0.001383 -0.000022 0.000000 0.033194 0.000000
# 6 0.000000 0.000000 0.000000 -0.000775 0.000000 0.024019
#
#
# Mechanical properties :
#
#
# Convention : Reuss Voigt Hill
#
# Bulk Modulus (GPa) = 32.28649 38.65798 35.47223
# Shear Modulus (GPa) = 36.91940 40.06445 38.49193
#
# Velocity S-wave (km/s) = 3.95893 4.12411 4.04236
# Velocity P-wave (km/s) = 5.88250 6.25211 6.07012
#
# Compressibility (1/GPa) = 0.03097271
#
# Stress axis : x y z
#
# Youngs Moduli (GPa) = 91.49930 82.95260 68.26252
#
# Poissons Ratio (x) = 0.19503 0.14772
# Poissons Ratio (y) = 0.21512 -0.08087
# Poissons Ratio (z) = 0.19801 -0.09827
#
# Static dielectric constant tensor:
#      x y z
#    x 1.917810 0.000000 0.005490 
#    y 0.000000 1.996100 0.000000 
#    z 0.005490 0.000000 1.921690 
# 
# From -- ./inp_files/13019.got.cif
#   From: 2010.05.17/outbox.cif.g08.bks.cpg/sg4_7_cif.got.tgz:13019.got - 2010.06.03 18:43:04.
