data_PCOD9118407
_publ_section_title
;
Structure prediction by ZEFSAII (Michael W. Deem and Ramdas Pophale) SiO2 
 PCOD9118407
Probable space group: P 21
;
_chemical_formula_sum "Si O2"
_cell_formula_units_Z 14
_cell_length_a 8.133430
_cell_length_b 7.762162
_cell_length_c 9.741680
_cell_angle_alpha 90.000000
_cell_angle_beta 62.855398
_cell_angle_gamma 90.000000
_cell_volume 547.281746
_symmetry_space_group_name_H-M "P 21"
_symmetry_group_IT_number 4
_symmetry_cell_setting 'monoclinic'
loop_
_space_group_symop_operation_xyz
x,y,z
-x,1/2+y,-z
loop_
_atom_site_type_symbol
_atom_site_label
_atom_site_fract_x
_atom_site_fract_y
_atom_site_fract_z
Si Si1 0.007139 0.650070 0.936574
Si Si2 0.801297 0.311441 0.377320
Si Si3 0.333961 0.065037 0.118923
Si Si4 0.175671 0.339551 0.762600
Si Si5 0.654015 0.958044 0.796566
Si Si6 0.477910 0.091533 0.588319
Si Si7 0.894389 0.279806 0.646932
O O1 0.076248 0.796675 0.805147
O O2 0.161031 0.505044 0.864280
O O3 0.821632 0.571328 0.941366
O O4 0.959311 0.710391 0.104144
O O5 0.651330 0.155237 0.435233
O O6 0.682176 0.484622 0.423995
O O7 0.910166 0.286504 0.477189
O O8 0.324856 0.254024 0.189586
O O9 0.266935 0.912554 0.244595
O O10 0.526783 0.025093 0.971143
O O11 0.377666 0.264459 0.677174
O O12 0.078401 0.348116 0.651589
O O13 0.545864 0.987307 0.694514
O O14 0.828166 0.088247 0.715783
#
# Coordination Sequence:
#
# PCOD9118407 Si02
#       7
#     2   2   2   2   2   2   2
#     4  11  25  44  69 106 140 183 235 294 352 421
#     4  11  26  47  67 101 144 184 232 287 366 416
#     4  11  23  43  70 106 138 183 236 293 350 416
#     4  11  24  45  75 102 138 180 245 286 349 424
#     4  11  23  42  71 101 140 179 237 290 349 416
#     4  11  25  46  70 104 137 188 235 291 356 425
#     4  10  26  45  68 102 139 189 230 289 354 426
#
# _framework density 25.580973
#
# number of rings (size 3 to 8) (size 9 to 14) (size 15 to 20)
#    0.000    1.143    2.857    1.714    8.000    2.286 
#    5.143    0.000    0.000    0.000    0.000    0.000 
#    0.000    0.000    0.000    0.000    0.000    0.000 
#
# Total GULP energy -78474.650916 kJ/mol
# GULP energy per Si atom -5605.332208 kJ/mol
# Density = 2.552275 g / cm^3
# Si number density = 25.580973 Si / 1000 Ang^3
#
#
#
# Elastic Constant Matrix: (Units=GPa)
#
#
# Indices 1 2 3 4 5 6 
#
# 1 45.9141 -6.5200 27.2866 0.0000 4.2149 0.0000
# 2 -6.5200 109.3045 8.6714 0.0000 -13.9168 0.0000
# 3 27.2866 8.6714 86.4298 0.0000 -16.4984 0.0000
# 4 0.0000 0.0000 0.0000 34.0689 0.0000 -7.0895
# 5 4.2149 -13.9168 -16.4984 0.0000 33.9527 0.0000
# 6 0.0000 0.0000 0.0000 -7.0895 0.0000 44.8108
#
#
#
# Elastic Compliance Matrix: (Units=1/GPa)
#
#
# Indices 1 2 3 4 5 6 
#
# 1 0.029305 0.001558 -0.011001 0.000000 -0.008345 0.000000
# 2 0.001558 0.009740 -0.000820 0.000000 0.003400 0.000000
# 3 -0.011001 -0.000820 0.016889 0.000000 0.009236 0.000000
# 4 0.000000 0.000000 0.000000 0.030351 0.000000 0.004802
# 5 -0.008345 0.003400 0.009236 0.000000 0.036370 0.000000
# 6 0.000000 0.000000 0.000000 0.004802 0.000000 0.023076
#
#
# Mechanical properties :
#
#
# Convention : Reuss Voigt Hill
#
# Bulk Modulus (GPa) = 28.24259 33.39160 30.81710
# Shear Modulus (GPa) = 28.08052 36.71385 32.39718
#
# Velocity S-wave (km/s) = 3.31677 3.79252 3.56259
# Velocity P-wave (km/s) = 5.07271 5.67972 5.38477
#
# Compressibility (1/GPa) = 0.03540751
#
# Stress axis : x y z
#
# Youngs Moduli (GPa) = 34.12372 102.67271 59.21159
#
# Poissons Ratio (x) = -0.16000 0.65140
# Poissons Ratio (y) = -0.05318 0.04856
# Poissons Ratio (z) = 0.37540 0.08420
#
# Static dielectric constant tensor:
#      x y z
#    x 1.964820 0.000000 -0.025530 
#    y 0.000000 2.106780 0.000000 
#    z -0.025530 0.000000 1.942960 
# 
# From -- ./inp_files/5238.got.cif
#   From: 2010.05.17/outbox.cif.g08.bks.cpg/sg4_3_cif.got.tgz:5238.got - 2010.06.03 18:43:04.
