data_PCOD9118540
_publ_section_title
;
Structure prediction by ZEFSAII (Michael W. Deem and Ramdas Pophale) SiO2 
 PCOD9118540
Probable space group: P 21
;
_chemical_formula_sum "Si O2"
_cell_formula_units_Z 16
_cell_length_a 7.746557
_cell_length_b 5.258923
_cell_length_c 19.970056
_cell_angle_alpha 90.000000
_cell_angle_beta 45.919390
_cell_angle_gamma 90.000000
_cell_volume 584.423977
_symmetry_space_group_name_H-M "P 21"
_symmetry_group_IT_number 4
_symmetry_cell_setting 'monoclinic'
loop_
_space_group_symop_operation_xyz
x,y,z
-x,1/2+y,-z
loop_
_atom_site_type_symbol
_atom_site_label
_atom_site_fract_x
_atom_site_fract_y
_atom_site_fract_z
Si Si1 0.213672 0.510660 0.039133
Si Si2 0.912986 0.686639 0.664414
Si Si3 0.259419 0.193286 0.911359
Si Si4 0.079280 0.562039 0.438991
Si Si5 0.382018 0.553851 0.764794
Si Si6 0.359982 0.058474 0.700193
Si Si7 0.436566 0.554037 0.491148
Si Si8 0.355035 0.335016 0.139705
O O1 0.222586 0.494242 0.116870
O O2 0.984023 0.618315 0.060749
O O3 0.225389 0.235759 0.999761
O O4 0.453732 0.659489 0.950991
O O5 0.972120 0.973276 0.622572
O O6 0.671689 0.594005 0.690850
O O7 0.838791 0.691495 0.761904
O O8 0.149751 0.534925 0.578834
O O9 0.326807 0.450313 0.853760
O O10 0.486987 0.004243 0.850573
O O11 0.359426 0.610415 0.362550
O O12 0.964645 0.801306 0.506923
O O13 0.282214 0.825210 0.768003
O O14 0.269394 0.335725 0.746638
O O15 0.394139 0.958243 0.615648
O O16 0.520511 0.355812 0.524538
#
# Coordination Sequence:
#
# PCOD9118540 Si02
#       8
#     2   2   2   2   2   2   2   2
#     4  12  26  48  82 116 165 216 274 348 431 509
#     4  11  26  46  77 108 156 199 275 341 406 494
#     4  12  25  47  81 121 164 212 278 346 424 511
#     4  11  21  37  71 105 131 181 247 312 384 454
#     4  11  25  44  79 115 145 198 267 342 403 485
#     4  11  24  44  70 106 147 188 260 320 394 481
#     4  12  29  47  70 105 157 217 263 329 421 493
#     4  12  26  51  78 122 161 219 278 346 429 507
#
# _framework density 27.377382000000001
#
# number of rings (size 3 to 8) (size 9 to 14) (size 15 to 20)
#    0.000    0.500    5.000    3.750    1.750    3.000 
#    0.000    6.250    0.000    0.000    0.000    0.000 
#    0.000    0.000    0.000    0.000    0.000    0.000 
#
# Total GULP energy -89362.636076 kJ/mol
# GULP energy per Si atom -5585.164755 kJ/mol
# Density = 2.731507 g / cm^3
# Si number density = 27.377382 Si / 1000 Ang^3
#
#
#
# Elastic Constant Matrix: (Units=GPa)
#
#
# Indices 1 2 3 4 5 6 
#
# 1 136.0732 28.6433 44.3631 0.0000 -3.3335 0.0000
# 2 28.6433 123.1523 34.5604 0.0000 5.9765 0.0000
# 3 44.3631 34.5604 112.6712 0.0000 23.9868 0.0000
# 4 0.0000 0.0000 0.0000 20.2065 0.0000 3.6184
# 5 -3.3335 5.9765 23.9868 0.0000 48.9684 0.0000
# 6 0.0000 0.0000 0.0000 3.6184 0.0000 37.5363
#
#
#
# Elastic Compliance Matrix: (Units=1/GPa)
#
#
# Indices 1 2 3 4 5 6 
#
# 1 0.008851 -0.001151 -0.003673 0.000000 0.002542 0.000000
# 2 -0.001151 0.009038 -0.002308 0.000000 -0.000051 0.000000
# 3 -0.003673 -0.002308 0.012306 0.000000 -0.005996 0.000000
# 4 0.000000 0.000000 0.000000 0.050358 0.000000 -0.004854
# 5 0.002542 -0.000051 -0.005996 0.000000 0.023538 0.000000
# 6 0.000000 0.000000 0.000000 -0.004854 0.000000 0.027109
#
#
# Mechanical properties :
#
#
# Convention : Reuss Voigt Hill
#
# Bulk Modulus (GPa) = 62.77365 65.22562 63.99964
# Shear Modulus (GPa) = 33.16182 38.96422 36.06302
#
# Velocity S-wave (km/s) = 3.48413 3.77666 3.63334
# Velocity P-wave (km/s) = 6.25814 6.54934 6.40540
#
# Compressibility (1/GPa) = 0.01593025
#
# Stress axis : x y z
#
# Youngs Moduli (GPa) = 112.97988 110.64400 81.25942
#
# Poissons Ratio (x) = 0.12737 0.29848
# Poissons Ratio (y) = 0.13006 0.18756
# Poissons Ratio (z) = 0.41499 0.25539
#
# Static dielectric constant tensor:
#      x y z
#    x 2.344650 0.000000 0.211990 
#    y 0.000000 2.227120 0.000000 
#    z 0.211990 0.000000 2.408520 
# 
# From -- ./inp_files/15588.got.cif
#   From: 2010.05.17/outbox.cif.g08.bks.cpg/sg4_8_cif.got.tgz:15588.got - 2010.06.03 18:43:04.
