data_PCOD9118939
_publ_section_title
;
Structure prediction by ZEFSAII (Michael W. Deem and Ramdas Pophale) SiO2 
 PCOD9118939
Probable space group: P 21
;
_chemical_formula_sum "Si O2"
_cell_formula_units_Z 16
_cell_length_a 13.380765
_cell_length_b 6.074843
_cell_length_c 22.075155
_cell_angle_alpha 90.000000
_cell_angle_beta 158.462152
_cell_angle_gamma 90.000000
_cell_volume 658.753273
_symmetry_space_group_name_H-M "P 21"
_symmetry_group_IT_number 4
_symmetry_cell_setting 'monoclinic'
loop_
_space_group_symop_operation_xyz
x,y,z
-x,1/2+y,-z
loop_
_atom_site_type_symbol
_atom_site_label
_atom_site_fract_x
_atom_site_fract_y
_atom_site_fract_z
Si Si1 0.265639 0.347120 0.096852
Si Si2 0.759492 0.036151 0.381456
Si Si3 0.372897 0.268785 0.576217
Si Si4 0.535005 0.044256 0.988964
Si Si5 0.113019 0.474971 0.135983
Si Si6 0.643397 0.661452 0.242135
Si Si7 0.858210 0.514406 0.652749
Si Si8 0.435037 0.160982 0.396791
O O1 0.064169 0.383183 0.040672
O O2 0.374159 0.560358 0.122498
O O3 0.549942 0.232430 0.276128
O O4 0.102394 0.160548 0.967475
O O5 0.705797 0.865047 0.404670
O O6 0.667397 0.923261 0.266649
O O7 0.076107 0.088030 0.567067
O O8 0.592057 0.080724 0.708306
O O9 0.131650 0.167298 0.400614
O O10 0.524513 0.449863 0.621465
O O11 0.363893 0.081189 0.831010
O O12 0.526165 0.297132 0.015169
O O13 0.852823 0.009413 0.153454
O O14 0.185412 0.298768 0.227772
O O15 0.725184 0.284411 0.558674
O O16 0.638280 0.609171 0.575730
#
# Coordination Sequence:
#
# PCOD9118939 Si02
#       8
#     2   2   2   2   2   2   2   2
#     4  12  26  44  68 111 148 193 245 314 388 468
#     4  12  25  47  75 106 148 196 256 316 392 452
#     4  11  23  45  72 104 148 191 245 317 385 468
#     4  12  33  55  81 115 159 216 264 329 396 470
#     4  11  26  40  70 106 152 191 243 305 399 458
#     4  12  29  48  78 110 153 200 265 323 387 472
#     4  11  26  44  77 105 152 195 265 309 396 455
#     4  11  24  43  69 113 140 200 243 321 375 469
#
# _framework density 24.288304
#
# number of rings (size 3 to 8) (size 9 to 14) (size 15 to 20)
#    0.000    0.500    5.000    1.500    8.750    1.000 
#    0.000    0.000    0.000    0.000    0.000    0.000 
#    0.000    0.000    0.000    0.000    0.000    0.000 
#
# Total GULP energy -89366.290776 kJ/mol
# GULP energy per Si atom -5585.393173 kJ/mol
# Density = 2.423302 g / cm^3
# Si number density = 24.288304 Si / 1000 Ang^3
#
#
#
# Elastic Constant Matrix: (Units=GPa)
#
#
# Indices 1 2 3 4 5 6 
#
# 1 53.7728 23.8206 2.5523 0.0000 -7.1374 0.0000
# 2 23.8206 91.2759 21.9862 0.0000 -6.3782 0.0000
# 3 2.5523 21.9862 87.6248 0.0000 6.4454 0.0000
# 4 0.0000 0.0000 0.0000 38.2007 0.0000 6.9504
# 5 -7.1374 -6.3782 6.4454 0.0000 32.8919 0.0000
# 6 0.0000 0.0000 0.0000 6.9504 0.0000 37.7143
#
#
#
# Elastic Compliance Matrix: (Units=1/GPa)
#
#
# Indices 1 2 3 4 5 6 
#
# 1 0.021463 -0.005475 0.000491 0.000000 0.003500 0.000000
# 2 -0.005475 0.013332 -0.003336 0.000000 0.002051 0.000000
# 3 0.000491 -0.003336 0.012454 0.000000 -0.002981 0.000000
# 4 0.000000 0.000000 0.000000 0.027086 0.000000 -0.004992
# 5 0.003500 0.002051 -0.002981 0.000000 0.032144 0.000000
# 6 0.000000 0.000000 0.000000 -0.004992 0.000000 0.027435
#
#
# Mechanical properties :
#
#
# Convention : Reuss Voigt Hill
#
# Bulk Modulus (GPa) = 32.67057 36.59909 34.63483
# Shear Modulus (GPa) = 31.10268 34.04899 32.57584
#
# Velocity S-wave (km/s) = 3.58238 3.74821 3.66623
# Velocity P-wave (km/s) = 5.53097 5.81665 5.67561
#
# Compressibility (1/GPa) = 0.03060858
#
# Stress axis : x y z
#
# Youngs Moduli (GPa) = 46.59099 75.00943 80.29279
#
# Poissons Ratio (x) = 0.41069 -0.03944
# Poissons Ratio (y) = 0.25509 0.26789
# Poissons Ratio (z) = -0.02288 0.25027
#
# Static dielectric constant tensor:
#      x y z
#    x 1.931200 0.000000 -0.041660 
#    y 0.000000 2.044160 0.000000 
#    z -0.041660 0.000000 1.910090 
# 
# From -- ./inp_files/12457.got.cif
#   From: 2010.05.17/outbox.cif.g08.bks.cpg/sg4_7_cif.got.tgz:12457.got - 2010.06.03 18:43:04.
