data_PCOD9118841
_publ_section_title
;
Structure prediction by ZEFSAII (Michael W. Deem and Ramdas Pophale) SiO2 
 PCOD9118841
Probable space group: P 21
;
_chemical_formula_sum "Si O2"
_cell_formula_units_Z 16
_cell_length_a 11.873082
_cell_length_b 11.121132
_cell_length_c 5.127058
_cell_angle_alpha 90.000000
_cell_angle_beta 61.777610
_cell_angle_gamma 90.000000
_cell_volume 596.506420
_symmetry_space_group_name_H-M "P 21"
_symmetry_group_IT_number 4
_symmetry_cell_setting 'monoclinic'
loop_
_space_group_symop_operation_xyz
x,y,z
-x,1/2+y,-z
loop_
_atom_site_type_symbol
_atom_site_label
_atom_site_fract_x
_atom_site_fract_y
_atom_site_fract_z
Si Si1 0.787991 0.563220 0.665051
Si Si2 0.981650 0.407965 0.625114
Si Si3 0.482130 0.524125 0.427468
Si Si4 0.110409 0.238930 0.101249
Si Si5 0.621836 0.346017 0.638374
Si Si6 0.553240 0.677022 0.848266
Si Si7 0.845075 0.229033 0.091811
Si Si8 0.799910 0.977254 0.222269
O O1 0.927353 0.500797 0.468278
O O2 0.816644 0.616032 0.922567
O O3 0.699669 0.454533 0.677085
O O4 0.707389 0.675482 0.630507
O O5 0.048840 0.290632 0.433552
O O6 0.083366 0.471281 0.701194
O O7 0.858361 0.347401 0.899748
O O8 0.549077 0.405880 0.473019
O O9 0.541509 0.589667 0.114551
O O10 0.338963 0.490752 0.504400
O O11 0.489138 0.618681 0.663328
O O12 0.987015 0.224454 0.057413
O O13 0.196635 0.350147 0.924119
O O14 0.521881 0.290991 0.954283
O O15 0.731406 0.254432 0.421825
O O16 0.816608 0.095209 0.021513
#
# Coordination Sequence:
#
# PCOD9118841 Si02
#       8
#     2   2   2   2   2   2   2   2
#     4  11  24  47  73 104 147 191 256 310 380 462
#     4  11  25  41  72 103 143 194 241 314 378 448
#     4  11  26  46  74 107 149 194 254 312 377 461
#     4  11  25  44  67 106 144 193 247 311 389 450
#     4  11  24  47  74 107 148 201 248 319 386 458
#     4  11  26  47  73 108 144 200 252 314 377 457
#     4  11  23  42  70 105 141 191 252 302 384 457
#     4  11  25  44  69 106 146 190 246 314 373 459
#
# _framework density 26.822845000000001
#
# number of rings (size 3 to 8) (size 9 to 14) (size 15 to 20)
#    0.000    1.000    3.750    1.500    5.250    2.000 
#   13.500    0.000    0.000    0.000    0.000    0.000 
#    0.000    0.000    0.000    0.000    0.000    0.000 
#
# Total GULP energy -89417.447980 kJ/mol
# GULP energy per Si atom -5588.590499 kJ/mol
# Density = 2.676180 g / cm^3
# Si number density = 26.822845 Si / 1000 Ang^3
#
#
#
# Elastic Constant Matrix: (Units=GPa)
#
#
# Indices 1 2 3 4 5 6 
#
# 1 106.4697 20.5200 25.3408 0.0000 -14.6515 0.0000
# 2 20.5200 134.2517 40.3518 0.0000 -5.2308 0.0000
# 3 25.3408 40.3518 82.1937 0.0000 8.9550 0.0000
# 4 0.0000 0.0000 0.0000 42.1432 0.0000 6.9285
# 5 -14.6515 -5.2308 8.9550 0.0000 34.2727 0.0000
# 6 0.0000 0.0000 0.0000 6.9285 0.0000 40.3430
#
#
#
# Elastic Compliance Matrix: (Units=1/GPa)
#
#
# Indices 1 2 3 4 5 6 
#
# 1 0.011177 -0.000305 -0.003924 0.000000 0.005757 0.000000
# 2 -0.000305 0.008964 -0.004572 0.000000 0.002432 0.000000
# 3 -0.003924 -0.004572 0.016345 0.000000 -0.006646 0.000000
# 4 0.000000 0.000000 0.000000 0.024418 0.000000 -0.004194
# 5 0.005757 0.002432 -0.006646 0.000000 0.033746 0.000000
# 6 0.000000 0.000000 0.000000 -0.004194 0.000000 0.025508
#
#
# Mechanical properties :
#
#
# Convention : Reuss Voigt Hill
#
# Bulk Modulus (GPa) = 52.95080 55.03784 53.99432
# Shear Modulus (GPa) = 34.70926 39.13194 36.92060
#
# Velocity S-wave (km/s) = 3.60115 3.82370 3.71409
# Velocity P-wave (km/s) = 6.08891 6.32913 6.21018
#
# Compressibility (1/GPa) = 0.01888546
#
# Stress axis : x y z
#
# Youngs Moduli (GPa) = 89.46831 111.55457 61.18233
#
# Poissons Ratio (x) = 0.03400 0.24005
# Poissons Ratio (y) = 0.02727 0.27972
# Poissons Ratio (z) = 0.35103 0.51002
#
# Static dielectric constant tensor:
#      x y z
#    x 2.063420 0.000000 -0.029760 
#    y 0.000000 2.183990 0.000000 
#    z -0.029760 0.000000 2.150900 
# 
# From -- ./inp_files/3026.got.cif
#   From: 2010.05.17/outbox.cif.g08.bks.cpg/sg4_2_cif.got.tgz:3026.got - 2010.06.03 18:43:04.
