data_PCOD9118167
_publ_section_title
;
Structure prediction by ZEFSAII (Michael W. Deem and Ramdas Pophale) SiO2 
 PCOD9118167
Probable space group: P 21
;
_chemical_formula_sum "Si O2"
_cell_formula_units_Z 14
_cell_length_a 5.390875
_cell_length_b 9.915131
_cell_length_c 13.053347
_cell_angle_alpha 90.000000
_cell_angle_beta 129.471729
_cell_angle_gamma 90.000000
_cell_volume 538.594874
_symmetry_space_group_name_H-M "P 21"
_symmetry_group_IT_number 4
_symmetry_cell_setting 'monoclinic'
loop_
_space_group_symop_operation_xyz
x,y,z
-x,1/2+y,-z
loop_
_atom_site_type_symbol
_atom_site_label
_atom_site_fract_x
_atom_site_fract_y
_atom_site_fract_z
Si Si1 0.098205 0.880560 0.054440
Si Si2 0.155705 0.061424 0.364619
Si Si3 0.327026 0.467083 0.352396
Si Si4 0.221657 0.309721 0.700090
Si Si5 0.826006 0.646675 0.119950
Si Si6 0.119281 0.639407 0.914878
Si Si7 0.091944 0.799262 0.595907
O O1 0.450075 0.885670 0.194125
O O2 0.899502 0.785322 0.079988
O O3 0.108986 0.791355 0.954268
O O4 0.971657 0.031773 0.021805
O O5 0.483362 0.063258 0.515869
O O6 0.120641 0.118554 0.241979
O O7 0.889011 0.146742 0.357818
O O8 0.063523 0.905185 0.335739
O O9 0.593710 0.375098 0.364322
O O10 0.131919 0.552464 0.217926
O O11 0.080719 0.380912 0.357596
O O12 0.247934 0.181327 0.779712
O O13 0.149084 0.287855 0.563309
O O14 0.486449 0.599357 0.984259
#
# Coordination Sequence:
#
# PCOD9118167 Si02
#       7
#     2   2   2   2   2   2   2
#     4  11  25  48  77 104 153 204 259 312 391 464
#     4  11  25  49  77 108 155 194 265 309 382 460
#     4  11  28  48  77 114 157 199 247 322 389 453
#     4  10  24  46  75 106 146 205 244 310 391 464
#     4  11  26  49  74 104 154 197 253 310 396 456
#     4  11  27  48  75 112 149 207 258 321 383 464
#     4  11  27  46  77 118 152 194 260 320 378 457
#
# _framework density 25.993561
#
# number of rings (size 3 to 8) (size 9 to 14) (size 15 to 20)
#    0.000    1.143    1.429    1.714   16.000    3.429 
#    0.000    0.000    0.000    0.000    0.000    0.000 
#    0.000    0.000    0.000    0.000    0.000    0.000 
#
# Total GULP energy -78403.453294 kJ/mol
# GULP energy per Si atom -5600.246664 kJ/mol
# Density = 2.593440 g / cm^3
# Si number density = 25.993561 Si / 1000 Ang^3
#
#
#
# Elastic Constant Matrix: (Units=GPa)
#
#
# Indices 1 2 3 4 5 6 
#
# 1 91.6921 12.0638 38.7043 0.0000 3.9017 0.0000
# 2 12.0638 81.1398 47.7842 0.0000 2.5202 0.0000
# 3 38.7043 47.7842 120.6372 0.0000 -7.1409 0.0000
# 4 0.0000 0.0000 0.0000 38.5087 0.0000 -6.2365
# 5 3.9017 2.5202 -7.1409 0.0000 43.4001 0.0000
# 6 0.0000 0.0000 0.0000 -6.2365 0.0000 44.1535
#
#
#
# Elastic Compliance Matrix: (Units=1/GPa)
#
#
# Indices 1 2 3 4 5 6 
#
# 1 0.012801 0.000840 -0.004555 0.000000 -0.001949 0.000000
# 2 0.000840 0.016303 -0.006854 0.000000 -0.002150 0.000000
# 3 -0.004555 -0.006854 0.012637 0.000000 0.002887 0.000000
# 4 0.000000 0.000000 0.000000 0.026576 0.000000 0.003754
# 5 -0.001949 -0.002150 0.002887 0.000000 0.023816 0.000000
# 6 0.000000 0.000000 0.000000 0.003754 0.000000 0.023178
#
#
# Mechanical properties :
#
#
# Convention : Reuss Voigt Hill
#
# Bulk Modulus (GPa) = 48.53979 54.50817 51.52398
# Shear Modulus (GPa) = 34.88749 38.20692 36.54720
#
# Velocity S-wave (km/s) = 3.66752 3.83804 3.75375
# Velocity P-wave (km/s) = 6.05381 6.37621 6.21710
#
# Compressibility (1/GPa) = 0.02060166
#
# Stress axis : x y z
#
# Youngs Moduli (GPa) = 78.11731 61.33898 79.13556
#
# Poissons Ratio (x) = -0.05151 0.36047
# Poissons Ratio (y) = -0.06560 0.54241
# Poissons Ratio (z) = 0.35583 0.42043
#
# Static dielectric constant tensor:
#      x y z
#    x 2.090010 0.000000 -0.011190 
#    y 0.000000 2.039830 0.000000 
#    z -0.011190 0.000000 1.999350 
# 
# From -- ./inp_files/13358.got.cif
#   From: 2010.05.17/outbox.cif.g08.bks.cpg/sg4_7_cif.got.tgz:13358.got - 2010.06.03 18:43:04.
