data_PCOD9118667
_publ_section_title
;
Structure prediction by ZEFSAII (Michael W. Deem and Ramdas Pophale) SiO2 
 PCOD9118667
Probable space group: P 21
;
_chemical_formula_sum "Si O2"
_cell_formula_units_Z 14
_cell_length_a 14.512936
_cell_length_b 5.709350
_cell_length_c 7.585774
_cell_angle_alpha 90.000000
_cell_angle_beta 107.897850
_cell_angle_gamma 90.000000
_cell_volume 598.134689
_symmetry_space_group_name_H-M "P 21"
_symmetry_group_IT_number 4
_symmetry_cell_setting 'monoclinic'
loop_
_space_group_symop_operation_xyz
x,y,z
-x,1/2+y,-z
loop_
_atom_site_type_symbol
_atom_site_label
_atom_site_fract_x
_atom_site_fract_y
_atom_site_fract_z
Si Si1 0.553260 0.830520 0.859049
Si Si2 0.351578 0.031059 0.831163
Si Si3 0.115454 0.467189 0.981688
Si Si4 0.146036 0.145173 0.684445
Si Si5 0.979043 0.793526 0.711956
Si Si6 0.543030 0.481329 0.583244
Si Si7 0.695260 0.233126 0.848015
O O1 0.531270 0.569159 0.776872
O O2 0.446451 0.936955 0.790234
O O3 0.628478 0.999262 0.803183
O O4 0.609088 0.778324 0.071842
O O5 0.249874 0.059735 0.675571
O O6 0.324094 0.856922 0.975718
O O7 0.071787 0.380801 0.139435
O O8 0.193091 0.663512 0.082611
O O9 0.167293 0.285050 0.879750
O O10 0.027948 0.553216 0.805765
O O11 0.094557 0.277977 0.493302
O O12 0.068980 0.950600 0.700136
O O13 0.482396 0.241762 0.511981
O O14 0.654913 0.393945 0.664002
#
# Coordination Sequence:
#
# PCOD9118667 Si02
#       7
#     2   2   2   2   2   2   2
#     4  11  22  41  72 106 151 203 255 316 396 476
#     4  11  23  41  72 108 147 200 259 317 397 481
#     4  12  25  47  76 111 151 204 259 322 411 481
#     4  12  25  46  77 112 157 200 264 332 399 475
#     4  12  26  47  78 109 152 202 259 331 402 476
#     4  11  24  47  69 100 151 205 254 325 386 456
#     4  11  23  43  74 104 149 206 256 321 403 479
#
# _framework density 23.406099000000001
#
# number of rings (size 3 to 8) (size 9 to 14) (size 15 to 20)
#    0.000    0.571    8.571    0.000    0.000    0.000 
#    5.143    1.429    0.000    0.000    0.000    0.000 
#    0.000    0.000    0.000    0.000    0.000    0.000 
#
# Total GULP energy -77974.204032 kJ/mol
# GULP energy per Si atom -5569.586002 kJ/mol
# Density = 2.335283 g / cm^3
# Si number density = 23.406099 Si / 1000 Ang^3
#
#
#
# Elastic Constant Matrix: (Units=GPa)
#
#
# Indices 1 2 3 4 5 6 
#
# 1 102.4837 24.7630 38.5908 0.0000 19.1005 0.0000
# 2 24.7630 73.1109 39.0901 0.0000 7.3586 0.0000
# 3 38.5908 39.0901 108.0702 0.0000 25.0772 0.0000
# 4 0.0000 0.0000 0.0000 59.1732 0.0000 -2.7200
# 5 19.1005 7.3586 25.0772 0.0000 41.3151 0.0000
# 6 0.0000 0.0000 0.0000 -2.7200 0.0000 41.0559
#
#
#
# Elastic Compliance Matrix: (Units=1/GPa)
#
#
# Indices 1 2 3 4 5 6 
#
# 1 0.011956 -0.002293 -0.002621 0.000000 -0.003528 0.000000
# 2 -0.002293 0.017421 -0.005830 0.000000 0.001496 0.000000
# 3 -0.002621 -0.005830 0.013706 0.000000 -0.006069 0.000000
# 4 0.000000 0.000000 0.000000 0.016951 0.000000 0.001123
# 5 -0.003528 0.001496 -0.006069 0.000000 0.029253 0.000000
# 6 0.000000 0.000000 0.000000 0.001123 0.000000 0.024431
#
#
# Mechanical properties :
#
#
# Convention : Reuss Voigt Hill
#
# Bulk Modulus (GPa) = 46.30592 54.28364 50.29478
# Shear Modulus (GPa) = 35.11106 40.39021 37.75064
#
# Velocity S-wave (km/s) = 3.87729 4.15857 4.02039
# Velocity P-wave (km/s) = 6.31436 6.80447 6.56399
#
# Compressibility (1/GPa) = 0.02159551
#
# Stress axis : x y z
#
# Youngs Moduli (GPa) = 83.63752 57.40254 72.95929
#
# Poissons Ratio (x) = 0.13162 0.19126
# Poissons Ratio (y) = 0.19178 0.42532
# Poissons Ratio (z) = 0.21925 0.33463
#
# Static dielectric constant tensor:
#      x y z
#    x 1.909190 0.000000 -0.043120 
#    y 0.000000 1.963510 0.000000 
#    z -0.043120 0.000000 2.056610 
# 
# From -- ./inp_files/8941.got.cif
#   From: 2010.05.17/outbox.cif.g08.bks.cpg/sg4_5_cif.got.tgz:8941.got - 2010.06.03 18:43:04.
