data_PCOD9118459
_publ_section_title
;
Structure prediction by ZEFSAII (Michael W. Deem and Ramdas Pophale) SiO2 
 PCOD9118459
Probable space group: P 21
;
_chemical_formula_sum "Si O2"
_cell_formula_units_Z 16
_cell_length_a 8.564449
_cell_length_b 11.600434
_cell_length_c 8.674365
_cell_angle_alpha 90.000000
_cell_angle_beta 50.870551
_cell_angle_gamma 90.000000
_cell_volume 668.524841
_symmetry_space_group_name_H-M "P 21"
_symmetry_group_IT_number 4
_symmetry_cell_setting 'monoclinic'
loop_
_space_group_symop_operation_xyz
x,y,z
-x,1/2+y,-z
loop_
_atom_site_type_symbol
_atom_site_label
_atom_site_fract_x
_atom_site_fract_y
_atom_site_fract_z
Si Si1 0.850393 0.190470 0.135041
Si Si2 0.575091 0.610252 0.465995
Si Si3 0.232081 0.801470 0.135057
Si Si4 0.814558 0.976634 0.637368
Si Si5 0.176400 0.232240 0.424232
Si Si6 0.416507 0.705493 0.271956
Si Si7 0.175085 0.891299 0.630652
Si Si8 0.902358 0.551786 0.801293
O O1 0.650004 0.132355 0.331633
O O2 0.902605 0.313960 0.180544
O O3 0.025373 0.105910 0.083935
O O4 0.803747 0.220246 0.988640
O O5 0.711789 0.674160 0.504668
O O6 0.580275 0.665069 0.292617
O O7 0.655040 0.480145 0.420199
O O8 0.434517 0.777825 0.105689
O O9 0.043053 0.767395 0.367421
O O10 0.227945 0.937018 0.099243
O O11 0.718249 0.851899 0.684129
O O12 0.998069 0.957512 0.646182
O O13 0.674349 0.086676 0.742389
O O14 0.906097 0.003298 0.411998
O O15 0.167692 0.148647 0.280187
O O16 0.280673 0.793377 0.459595
#
# Coordination Sequence:
#
# PCOD9118459 Si02
#       8
#     2   2   2   2   2   2   2   2
#     4  11  25  42  62 106 140 165 214 289 345 374
#     4  11  23  37  66  94 127 171 227 266 328 397
#     4  11  23  41  67  95 135 174 221 280 331 383
#     4  11  17  35  67  91 118 168 230 261 300 387
#     4  11  20  38  69  94 120 178 231 258 318 405
#     4  11  21  36  61  91 129 171 219 260 324 397
#     4  11  20  38  66  91 125 175 226 265 317 402
#     4  11  19  41  66  94 124 180 224 265 315 409
#
# _framework density 23.933292999999999
#
# number of rings (size 3 to 8) (size 9 to 14) (size 15 to 20)
#    0.000    1.000    8.750    0.000    3.500    2.000 
#    0.000    3.750    0.000    0.000    0.000    0.000 
#    0.000    0.000    0.000    0.000    0.000    0.000 
#
# Total GULP energy -89267.769661 kJ/mol
# GULP energy per Si atom -5579.235604 kJ/mol
# Density = 2.387882 g / cm^3
# Si number density = 23.933293 Si / 1000 Ang^3
#
#
#
# Elastic Constant Matrix: (Units=GPa)
#
#
# Indices 1 2 3 4 5 6 
#
# 1 93.6186 41.1816 9.4345 0.0000 40.8801 0.0000
# 2 41.1816 140.2576 -7.7837 0.0000 14.1614 0.0000
# 3 9.4345 -7.7837 38.9460 0.0000 8.1728 0.0000
# 4 0.0000 0.0000 0.0000 23.9302 0.0000 14.6225
# 5 40.8801 14.1614 8.1728 0.0000 42.5815 0.0000
# 6 0.0000 0.0000 0.0000 14.6225 0.0000 36.9866
#
#
#
# Elastic Compliance Matrix: (Units=1/GPa)
#
#
# Indices 1 2 3 4 5 6 
#
# 1 0.020670 -0.004370 -0.002106 0.000000 -0.017987 0.000000
# 2 -0.004370 0.008465 0.002564 0.000000 0.000888 0.000000
# 3 -0.002106 0.002564 0.027564 0.000000 -0.004121 0.000000
# 4 0.000000 0.000000 0.000000 0.055099 0.000000 -0.021783
# 5 -0.017987 0.000888 -0.004121 0.000000 0.041248 0.000000
# 6 0.000000 0.000000 0.000000 -0.021783 0.000000 0.035649
#
#
# Mechanical properties :
#
#
# Convention : Reuss Voigt Hill
#
# Bulk Modulus (GPa) = 20.45985 39.83189 30.14587
# Shear Modulus (GPa) = 23.49496 36.03232 29.76364
#
# Velocity S-wave (km/s) = 3.13658 3.88433 3.53031
# Velocity P-wave (km/s) = 4.65669 6.06600 5.40746
#
# Compressibility (1/GPa) = 0.04887622
#
# Stress axis : x y z
#
# Youngs Moduli (GPa) = 48.37822 118.12687 36.27911
#
# Poissons Ratio (x) = 0.51621 0.07641
# Poissons Ratio (y) = 0.21141 -0.09303
# Poissons Ratio (z) = 0.10189 -0.30290
#
# Static dielectric constant tensor:
#      x y z
#    x 2.001060 0.000000 -0.060820 
#    y 0.000000 2.032320 0.000000 
#    z -0.060820 0.000000 1.966720 
# 
# From -- ./inp_files/6051.got.cif
#   From: 2010.05.17/outbox.cif.g08.bks.cpg/sg4_4_cif.got.tgz:6051.got - 2010.06.03 18:43:04.
