data_PCOD9118938
_publ_section_title
;
Structure prediction by ZEFSAII (Michael W. Deem and Ramdas Pophale) SiO2 
 PCOD9118938
Probable space group: P 21
;
_chemical_formula_sum "Si O2"
_cell_formula_units_Z 14
_cell_length_a 15.382618
_cell_length_b 7.827676
_cell_length_c 6.968427
_cell_angle_alpha 90.000000
_cell_angle_beta 136.471617
_cell_angle_gamma 90.000000
_cell_volume 577.878653
_symmetry_space_group_name_H-M "P 21"
_symmetry_group_IT_number 4
_symmetry_cell_setting 'monoclinic'
loop_
_space_group_symop_operation_xyz
x,y,z
-x,1/2+y,-z
loop_
_atom_site_type_symbol
_atom_site_label
_atom_site_fract_x
_atom_site_fract_y
_atom_site_fract_z
Si Si1 0.738503 0.916970 0.925125
Si Si2 0.511021 0.885487 0.835877
Si Si3 0.736631 0.189842 0.626873
Si Si4 0.133472 0.036929 0.326141
Si Si5 0.040811 0.213694 0.525642
Si Si6 0.622557 0.740983 0.378602
Si Si7 0.924238 0.035904 0.671953
O O1 0.647317 0.900498 0.959174
O O2 0.655165 0.838245 0.622304
O O3 0.771418 0.103190 0.887480
O O4 0.854353 0.794069 0.163043
O O5 0.410836 0.741128 0.607263
O O6 0.448498 0.065453 0.692476
O O7 0.534995 0.848009 0.096748
O O8 0.808109 0.360279 0.663278
O O9 0.787888 0.052894 0.552406
O O10 0.084634 0.050043 0.467434
O O11 0.245883 0.174159 0.499249
O O12 0.021356 0.080994 0.998383
O O13 0.028985 0.357438 0.342985
O O14 0.932976 0.156861 0.500047
#
# Coordination Sequence:
#
# PCOD9118938 Si02
#       7
#     2   2   2   2   2   2   2
#     4  12  25  47  72 109 146 197 259 321 380 455
#     4  11  25  46  73 106 149 198 262 310 391 455
#     4  11  27  46  76 108 150 204 252 321 384 458
#     4  11  24  49  70 105 152 197 252 316 385 459
#     4  12  27  45  77 108 156 202 253 321 383 459
#     4  11  23  45  72 103 148 200 246 322 381 451
#     4  12  27  46  74 111 153 200 258 315 388 463
#
# _framework density 24.22654
#
# number of rings (size 3 to 8) (size 9 to 14) (size 15 to 20)
#    0.000    0.571    2.857    4.286    8.000    0.000 
#    0.000    0.000    0.000    0.000    0.000    0.000 
#    0.000    0.000    0.000    0.000    0.000    0.000 
#
# Total GULP energy -78265.161336 kJ/mol
# GULP energy per Si atom -5590.368667 kJ/mol
# Density = 2.417140 g / cm^3
# Si number density = 24.226540 Si / 1000 Ang^3
#
#
#
# Elastic Constant Matrix: (Units=GPa)
#
#
# Indices 1 2 3 4 5 6 
#
# 1 54.9684 15.0310 -21.8869 0.0000 -3.2402 0.0000
# 2 15.0310 114.6861 24.6785 0.0000 -7.6830 0.0000
# 3 -21.8869 24.6785 107.6939 0.0000 -18.3262 0.0000
# 4 0.0000 0.0000 0.0000 37.2624 0.0000 -8.9744
# 5 -3.2402 -7.6830 -18.3262 0.0000 28.0283 0.0000
# 6 0.0000 0.0000 0.0000 -8.9744 0.0000 36.0297
#
#
#
# Elastic Compliance Matrix: (Units=1/GPa)
#
#
# Indices 1 2 3 4 5 6 
#
# 1 0.022113 -0.003886 0.006344 0.000000 0.005639 0.000000
# 2 -0.003886 0.009896 -0.003007 0.000000 0.000297 0.000000
# 3 0.006344 -0.003007 0.012657 0.000000 0.008185 0.000000
# 4 0.000000 0.000000 0.000000 0.028549 0.000000 0.007111
# 5 0.005639 0.000297 0.008185 0.000000 0.041763 0.000000
# 6 0.000000 0.000000 0.000000 0.007111 0.000000 0.029526
#
#
# Mechanical properties :
#
#
# Convention : Reuss Voigt Hill
#
# Bulk Modulus (GPa) = 22.95184 34.77706 28.86445
# Shear Modulus (GPa) = 31.22583 37.56580 34.39582
#
# Velocity S-wave (km/s) = 3.59403 3.94204 3.77206
# Velocity P-wave (km/s) = 5.16887 5.92501 5.55981
#
# Compressibility (1/GPa) = 0.04356950
#
# Stress axis : x y z
#
# Youngs Moduli (GPa) = 45.22172 101.05488 79.00934
#
# Poissons Ratio (x) = 0.39266 -0.50125
# Poissons Ratio (y) = 0.17571 0.23756
# Poissons Ratio (z) = -0.28690 0.30384
#
# Static dielectric constant tensor:
#      x y z
#    x 1.921320 0.000000 0.011030 
#    y 0.000000 2.033550 0.000000 
#    z 0.011030 0.000000 1.906990 
# 
# From -- ./inp_files/2397.got.cif
#   From: 2010.05.17/outbox.cif.g08.bks.cpg/sg4_2_cif.got.tgz:2397.got - 2010.06.03 18:43:04.
