data_PCOD9118170
_publ_section_title
;
Structure prediction by ZEFSAII (Michael W. Deem and Ramdas Pophale) SiO2 
 PCOD9118170
Probable space group: P 21
;
_chemical_formula_sum "Si O2"
_cell_formula_units_Z 10
_cell_length_a 9.382031
_cell_length_b 9.360502
_cell_length_c 4.736169
_cell_angle_alpha 90.000000
_cell_angle_beta 64.746234
_cell_angle_gamma 90.000000
_cell_volume 376.180920
_symmetry_space_group_name_H-M "P 21"
_symmetry_group_IT_number 4
_symmetry_cell_setting 'monoclinic'
loop_
_space_group_symop_operation_xyz
x,y,z
-x,1/2+y,-z
loop_
_atom_site_type_symbol
_atom_site_label
_atom_site_fract_x
_atom_site_fract_y
_atom_site_fract_z
Si Si1 0.203934 0.305040 0.601705
Si Si2 0.442904 0.487271 0.693400
Si Si3 0.767049 0.515209 0.718422
Si Si4 0.115411 0.847984 0.833210
Si Si5 0.294330 0.603131 0.338528
O O1 0.347243 0.343176 0.696884
O O2 0.193879 0.459818 0.467378
O O3 0.238755 0.184567 0.340703
O O4 0.042616 0.282017 0.905040
O O5 0.603890 0.459864 0.716126
O O6 0.452353 0.566687 0.385325
O O7 0.342498 0.597441 0.973273
O O8 0.905783 0.467322 0.387532
O O9 0.796876 0.434938 0.987996
O O10 0.203279 0.727779 0.571972
#
# Coordination Sequence:
#
# PCOD9118170 Si02
#       5
#     2   2   2   2   2
#     4  10  28  48  77 110 159 202 263 321 397 467
#     4  10  25  47  76 107 153 203 259 323 382 467
#     4  12  28  46  79 116 155 203 271 320 399 472
#     4  12  27  47  76 114 157 205 259 329 392 476
#     4  10  24  46  76 101 156 201 252 317 394 452
#
# _framework density 26.582951000000001
#
# number of rings (size 3 to 8) (size 9 to 14) (size 15 to 20)
#    1.200    0.000    0.000    3.600    8.400    3.200 
#    0.000    0.000    0.000    0.000    0.000    0.000 
#    0.000    0.000    0.000    0.000    0.000    0.000 
#
# Total GULP energy -55835.023667 kJ/mol
# GULP energy per Si atom -5583.502367 kJ/mol
# Density = 2.652245 g / cm^3
# Si number density = 26.582951 Si / 1000 Ang^3
#
#
#
# Elastic Constant Matrix: (Units=GPa)
#
#
# Indices 1 2 3 4 5 6 
#
# 1 140.7543 58.1203 20.0123 0.0000 11.9489 0.0000
# 2 58.1203 193.1796 57.9003 0.0000 7.7218 0.0000
# 3 20.0123 57.9003 91.8152 0.0000 26.4480 0.0000
# 4 0.0000 0.0000 0.0000 61.7546 0.0000 -1.7131
# 5 11.9489 7.7218 26.4480 0.0000 43.7830 0.0000
# 6 0.0000 0.0000 0.0000 -1.7131 0.0000 18.7869
#
#
#
# Elastic Compliance Matrix: (Units=1/GPa)
#
#
# Indices 1 2 3 4 5 6 
#
# 1 0.008264 -0.002516 0.000372 0.000000 -0.002036 0.000000
# 2 -0.002516 0.007241 -0.004658 0.000000 0.002224 0.000000
# 3 0.000372 -0.004658 0.016393 0.000000 -0.009183 0.000000
# 4 0.000000 0.000000 0.000000 0.016234 0.000000 0.001480
# 5 -0.002036 0.002224 -0.009183 0.000000 0.028550 0.000000
# 6 0.000000 0.000000 0.000000 0.001480 0.000000 0.053364
#
#
# Mechanical properties :
#
#
# Convention : Reuss Voigt Hill
#
# Bulk Modulus (GPa) = 54.66657 77.53498 66.10077
# Shear Modulus (GPa) = 33.38943 44.17933 38.78438
#
# Velocity S-wave (km/s) = 3.54792 4.08112 3.82382
# Velocity P-wave (km/s) = 6.11497 7.17202 6.66448
#
# Compressibility (1/GPa) = 0.01829272
#
# Stress axis : x y z
#
# Youngs Moduli (GPa) = 121.01288 138.10378 61.00165
#
# Poissons Ratio (x) = 0.34752 -0.02271
# Poissons Ratio (y) = 0.30452 0.28416
# Poissons Ratio (z) = -0.04505 0.64333
#
# Static dielectric constant tensor:
#      x y z
#    x 2.151460 0.000000 -0.000790 
#    y 0.000000 2.219610 0.000000 
#    z -0.000790 0.000000 2.044040 
# 
# From -- ./inp_files/1001.got.cif
#   From: 2010.05.17/outbox.cif.g08.bks.cpg/sg4_1_cif.got.tgz:1001.got - 2010.06.03 18:43:04.
