data_PCOD9118468
_publ_section_title
;
Structure prediction by ZEFSAII (Michael W. Deem and Ramdas Pophale) SiO2 
 PCOD9118468
Probable space group: P 21
;
_chemical_formula_sum "Si O2"
_cell_formula_units_Z 16
_cell_length_a 7.222435
_cell_length_b 8.940281
_cell_length_c 11.937613
_cell_angle_alpha 90.000000
_cell_angle_beta 122.922929
_cell_angle_gamma 90.000000
_cell_volume 647.027183
_symmetry_space_group_name_H-M "P 21"
_symmetry_group_IT_number 4
_symmetry_cell_setting 'monoclinic'
loop_
_space_group_symop_operation_xyz
x,y,z
-x,1/2+y,-z
loop_
_atom_site_type_symbol
_atom_site_label
_atom_site_fract_x
_atom_site_fract_y
_atom_site_fract_z
Si Si1 0.228890 0.150320 0.506804
Si Si2 0.977632 0.060587 0.229352
Si Si3 0.534683 0.401072 0.327828
Si Si4 0.329752 0.551437 0.449250
Si Si5 0.211082 0.134853 0.981106
Si Si6 0.879134 0.731275 0.285730
Si Si7 0.545979 0.563265 0.735667
Si Si8 0.786483 0.988161 0.949785
O O1 0.032837 0.167500 0.352722
O O2 0.467363 0.157728 0.524784
O O3 0.217407 0.226543 0.622222
O O4 0.245623 0.973242 0.549874
O O5 0.211749 0.048726 0.240838
O O6 0.915330 0.900956 0.259679
O O7 0.807389 0.083091 0.071466
O O8 0.347193 0.424072 0.361339
O O9 0.547664 0.231044 0.300931
O O10 0.439584 0.494900 0.192856
O O11 0.108950 0.642864 0.372201
O O12 0.389230 0.489301 0.591185
O O13 0.241988 0.151719 0.859059
O O14 0.398710 0.046540 0.114643
O O15 0.186847 0.308635 0.016896
O O16 0.983143 0.050243 0.935994
#
# Coordination Sequence:
#
# PCOD9118468 Si02
#       8
#     2   2   2   2   2   2   2   2
#     4   9  20  36  50  82 111 145 186 234 280 335
#     4   9  19  34  55  84 113 148 188 241 281 340
#     4   9  17  33  54  81 107 148 187 227 290 333
#     4   9  19  33  55  80 105 148 186 231 285 333
#     4   9  17  30  54  82 111 146 189 236 283 346
#     4  11  19  36  57  82 111 149 193 230 290 343
#     4   9  17  33  57  80 113 148 188 240 284 339
#     4   9  16  31  54  81 111 146 191 231 289 343
#
# _framework density 24.728483000000001
#
# number of rings (size 3 to 8) (size 9 to 14) (size 15 to 20)
#    0.750    2.000    1.250    0.750    0.000    0.000 
#    4.500    1.250    0.000   16.500    0.000    0.000 
#    0.000    0.000    0.000    0.000    0.000    0.000 
#
# Total GULP energy -89175.630220 kJ/mol
# GULP energy per Si atom -5573.476889 kJ/mol
# Density = 2.467220 g / cm^3
# Si number density = 24.728483 Si / 1000 Ang^3
#
#
#
# Elastic Constant Matrix: (Units=GPa)
#
#
# Indices 1 2 3 4 5 6 
#
# 1 71.6541 37.0548 34.7178 0.0000 -22.1633 0.0000
# 2 37.0548 26.9397 16.0407 0.0000 -14.7132 0.0000
# 3 34.7178 16.0407 207.9509 0.0000 -25.1580 0.0000
# 4 0.0000 0.0000 0.0000 -0.6600 0.0000 8.6661
# 5 -22.1633 -14.7132 -25.1580 0.0000 27.9624 0.0000
# 6 0.0000 0.0000 0.0000 8.6661 0.0000 13.2146
#
#
#
# Elastic Compliance Matrix: (Units=1/GPa)
#
#
# Indices 1 2 3 4 5 6 
#
# 1 0.050410 -0.066236 -0.003018 0.000000 0.002388 0.000000
# 2 -0.066236 0.139235 0.003176 0.000000 0.023621 0.000000
# 3 -0.003018 0.003176 0.005589 0.000000 0.004307 0.000000
# 4 0.000000 0.000000 0.000000 -0.157649 0.000000 0.103386
# 5 0.002388 0.023621 0.004307 0.000000 0.053959 0.000000
# 6 0.000000 0.000000 0.000000 0.103386 0.000000 0.007874
#
#
# Mechanical properties :
#
#
# Convention : Reuss Voigt Hill
#
# Bulk Modulus (GPa) = 15.85350 53.57457 34.71404
# Shear Modulus (GPa) = 19.79419 22.68551 21.23985
#
# Velocity S-wave (km/s) = 2.83231 3.03212 2.93392
# Velocity P-wave (km/s) = 4.13774 5.82842 5.05428
#
# Compressibility (1/GPa) = 0.06307754
#
# Stress axis : x y z
#
# Youngs Moduli (GPa) = 19.83747 7.18208 178.92934
#
# Poissons Ratio (x) = 0.47571 0.53998
# Poissons Ratio (y) = 1.31395 -0.56822
# Poissons Ratio (z) = 0.05987 -0.02281
#
# Static dielectric constant tensor:
#      x y z
#    x 1.989430 0.000000 -0.054350 
#    y 0.000000 2.016780 0.000000 
#    z -0.054350 0.000000 2.047660 
# 
# From -- ./inp_files/11251.got.cif
#   From: 2010.05.17/outbox.cif.g08.bks.cpg/sg4_6_cif.got.tgz:11251.got - 2010.06.03 18:43:04.
