data_PCOD9118346
_publ_section_title
;
Structure prediction by ZEFSAII (Michael W. Deem and Ramdas Pophale) SiO2 
 PCOD9118346
Probable space group: P 21
;
_chemical_formula_sum "Si O2"
_cell_formula_units_Z 16
_cell_length_a 9.307266
_cell_length_b 8.602340
_cell_length_c 8.710216
_cell_angle_alpha 90.000000
_cell_angle_beta 118.140503
_cell_angle_gamma 90.000000
_cell_volume 614.942682
_symmetry_space_group_name_H-M "P 21"
_symmetry_group_IT_number 4
_symmetry_cell_setting 'monoclinic'
loop_
_space_group_symop_operation_xyz
x,y,z
-x,1/2+y,-z
loop_
_atom_site_type_symbol
_atom_site_label
_atom_site_fract_x
_atom_site_fract_y
_atom_site_fract_z
Si Si1 0.570930 0.591220 0.796593
Si Si2 0.727237 0.367042 0.096518
Si Si3 0.705510 0.818807 0.520900
Si Si4 0.327378 0.855394 0.393519
Si Si5 0.181504 0.325730 0.080594
Si Si6 0.223449 0.604736 0.642538
Si Si7 0.849226 0.535119 0.450480
Si Si8 0.873316 0.168396 0.922558
O O1 0.685509 0.509488 0.725568
O O2 0.649332 0.752649 0.888309
O O3 0.396120 0.635360 0.637325
O O4 0.580671 0.460361 0.937030
O O5 0.708588 0.201595 0.175709
O O6 0.810667 0.479434 0.260904
O O7 0.847333 0.310767 0.024983
O O8 0.523249 0.849433 0.489695
O O9 0.811275 0.829463 0.729303
O O10 0.713867 0.652958 0.443949
O O11 0.773752 0.926706 0.418215
O O12 0.260891 0.702994 0.272609
O O13 0.197506 0.885997 0.465644
O O14 0.145737 0.500535 0.013505
O O15 0.051371 0.203613 0.950825
O O16 0.025917 0.616680 0.554613
#
# Coordination Sequence:
#
# PCOD9118346 Si02
#       8
#     2   2   2   2   2   2   2   2
#     4  10  25  50  72 106 151 198 248 302 370 454
#     4  11  27  46  70 108 155 192 245 300 385 443
#     4  11  27  48  74 112 145 198 252 311 371 444
#     4  10  25  47  76 109 143 195 260 306 368 440
#     4  12  25  45  79 104 150 192 258 303 375 436
#     4  11  26  47  73 110 155 191 249 304 383 444
#     4  12  25  47  78 107 154 193 245 318 369 447
#     4  11  26  46  72 112 145 197 249 312 371 452
#
# _framework density 26.018685999999999
#
# number of rings (size 3 to 8) (size 9 to 14) (size 15 to 20)
#    0.000    1.000    1.250    3.750    7.000    5.000 
#    2.250    0.000    0.000    0.000    0.000    0.000 
#    0.000    0.000    0.000    0.000    0.000    0.000 
#
# Total GULP energy -89077.222392 kJ/mol
# GULP energy per Si atom -5567.326399 kJ/mol
# Density = 2.595947 g / cm^3
# Si number density = 26.018686 Si / 1000 Ang^3
#
#
#
# Elastic Constant Matrix: (Units=GPa)
#
#
# Indices 1 2 3 4 5 6 
#
# 1 115.2713 33.7683 50.5054 0.0000 15.4497 0.0000
# 2 33.7683 89.2921 25.0080 0.0000 2.2318 0.0000
# 3 50.5054 25.0080 98.5734 0.0000 6.6186 0.0000
# 4 0.0000 0.0000 0.0000 36.2191 0.0000 -7.0828
# 5 15.4497 2.2318 6.6186 0.0000 45.0536 0.0000
# 6 0.0000 0.0000 0.0000 -7.0828 0.0000 50.7463
#
#
#
# Elastic Compliance Matrix: (Units=1/GPa)
#
#
# Indices 1 2 3 4 5 6 
#
# 1 0.012359 -0.003100 -0.005324 0.000000 -0.003302 0.000000
# 2 -0.003100 0.012834 -0.001713 0.000000 0.000679 0.000000
# 3 -0.005324 -0.001713 0.013310 0.000000 -0.000045 0.000000
# 4 0.000000 0.000000 0.000000 0.028384 0.000000 0.003962
# 5 -0.003302 0.000679 -0.000045 0.000000 0.023301 0.000000
# 6 0.000000 0.000000 0.000000 0.003962 0.000000 0.020259
#
#
# Mechanical properties :
#
#
# Convention : Reuss Voigt Hill
#
# Bulk Modulus (GPa) = 54.85877 57.96669 56.41273
# Shear Modulus (GPa) = 36.55014 39.32748 37.93881
#
# Velocity S-wave (km/s) = 3.75209 3.89203 3.82270
# Velocity P-wave (km/s) = 6.31672 6.52108 6.41971
#
# Compressibility (1/GPa) = 0.01822863
#
# Stress axis : x y z
#
# Youngs Moduli (GPa) = 80.91545 77.91511 75.13076
#
# Poissons Ratio (x) = 0.24155 0.39998
# Poissons Ratio (y) = 0.25085 0.12872
# Poissons Ratio (z) = 0.43078 0.13349
#
# Static dielectric constant tensor:
#      x y z
#    x 2.181710 0.000000 -0.088750 
#    y 0.000000 2.160310 0.000000 
#    z -0.088750 0.000000 2.151260 
# 
# From -- ./inp_files/5854.got.cif
#   From: 2010.05.17/outbox.cif.g08.bks.cpg/sg4_3_cif.got.tgz:5854.got - 2010.06.03 18:43:04.
