data_PCOD9118600
_publ_section_title
;
Structure prediction by ZEFSAII (Michael W. Deem and Ramdas Pophale) SiO2 
 PCOD9118600
Probable space group: P 21
;
_chemical_formula_sum "Si O2"
_cell_formula_units_Z 16
_cell_length_a 12.157884
_cell_length_b 5.189190
_cell_length_c 9.523345
_cell_angle_alpha 90.000000
_cell_angle_beta 96.949404
_cell_angle_gamma 90.000000
_cell_volume 596.409720
_symmetry_space_group_name_H-M "P 21"
_symmetry_group_IT_number 4
_symmetry_cell_setting 'monoclinic'
loop_
_space_group_symop_operation_xyz
x,y,z
-x,1/2+y,-z
loop_
_atom_site_type_symbol
_atom_site_label
_atom_site_fract_x
_atom_site_fract_y
_atom_site_fract_z
Si Si1 0.964891 0.800390 0.667015
Si Si2 0.846238 0.662238 0.369839
Si Si3 0.739075 0.042554 0.714229
Si Si4 0.945372 0.580560 0.937673
Si Si5 0.259185 0.302197 0.918214
Si Si6 0.642179 0.364024 0.462572
Si Si7 0.454125 0.128607 0.283357
Si Si8 0.646892 0.314412 0.948683
O O1 0.929353 0.768255 0.500302
O O2 0.865147 0.966139 0.716982
O O3 0.956433 0.557604 0.770322
O O4 0.083049 0.935547 0.691768
O O5 0.798604 0.841353 0.240498
O O6 0.741006 0.549436 0.434688
O O7 0.650708 0.823005 0.748630
O O8 0.697571 0.128600 0.554577
O O9 0.727953 0.273470 0.824551
O O10 0.837858 0.725036 0.985780
O O11 0.963199 0.300395 0.007826
O O12 0.332424 0.544965 0.972991
O O13 0.328673 0.039678 0.938306
O O14 0.566374 0.283828 0.321570
O O15 0.565224 0.491251 0.570137
O O16 0.456435 0.921757 0.158066
#
# Coordination Sequence:
#
# PCOD9118600 Si02
#       8
#     2   2   2   2   2   2   2   2
#     4  12  26  46  72 115 165 214 256 315 399 478
#     4  12  29  45  73 119 172 212 258 337 410 477
#     4  11  22  42  76 112 152 199 270 327 382 469
#     4  12  26  45  74 107 148 213 272 306 365 468
#     4  12  26  48  74 112 157 210 267 331 392 476
#     4  11  24  43  74 118 158 198 267 336 413 476
#     4  11  21  44  80 118 145 207 270 344 387 480
#     4  11  24  45  79 111 147 199 276 332 388 468
#
# _framework density 26.827197000000002
#
# number of rings (size 3 to 8) (size 9 to 14) (size 15 to 20)
#    0.000    0.500    6.250    1.500    3.500    1.000 
#    0.000    0.000    2.750    0.000    0.000    0.000 
#    0.000    0.000    0.000    0.000    0.000    0.000 
#
# Total GULP energy -89624.876659 kJ/mol
# GULP energy per Si atom -5601.554791 kJ/mol
# Density = 2.676614 g / cm^3
# Si number density = 26.827197 Si / 1000 Ang^3
#
#
#
# Elastic Constant Matrix: (Units=GPa)
#
#
# Indices 1 2 3 4 5 6 
#
# 1 81.4290 26.5069 24.7517 0.0000 2.0406 0.0000
# 2 26.5069 142.9668 48.3528 0.0000 18.8346 0.0000
# 3 24.7517 48.3528 163.5171 0.0000 10.4492 0.0000
# 4 0.0000 0.0000 0.0000 46.3586 0.0000 17.6524
# 5 2.0406 18.8346 10.4492 0.0000 28.7126 0.0000
# 6 0.0000 0.0000 0.0000 17.6524 0.0000 28.9039
#
#
#
# Elastic Compliance Matrix: (Units=1/GPa)
#
#
# Indices 1 2 3 4 5 6 
#
# 1 0.013390 -0.002115 -0.001463 0.000000 0.000968 0.000000
# 2 -0.002115 0.008679 -0.001937 0.000000 -0.004838 0.000000
# 3 -0.001463 -0.001937 0.006984 0.000000 -0.001167 0.000000
# 4 0.000000 0.000000 0.000000 0.028107 0.000000 -0.017166
# 5 0.000968 -0.004838 -0.001167 0.000000 0.038357 0.000000
# 6 0.000000 0.000000 0.000000 -0.017166 0.000000 0.045081
#
#
# Mechanical properties :
#
#
# Convention : Reuss Voigt Hill
#
# Bulk Modulus (GPa) = 55.48692 65.23730 60.36211
# Shear Modulus (GPa) = 31.71823 40.01514 35.86668
#
# Velocity S-wave (km/s) = 3.44221 3.86630 3.66040
# Velocity P-wave (km/s) = 6.04371 6.65593 6.35719
#
# Compressibility (1/GPa) = 0.01802227
#
# Stress axis : x y z
#
# Youngs Moduli (GPa) = 74.68433 115.21597 143.17486
#
# Poissons Ratio (x) = 0.24371 0.20949
# Poissons Ratio (y) = 0.15798 0.27735
# Poissons Ratio (z) = 0.10928 0.22319
#
# Static dielectric constant tensor:
#      x y z
#    x 2.092650 0.000000 0.044140 
#    y 0.000000 2.131850 0.000000 
#    z 0.044140 0.000000 2.120690 
# 
# From -- ./inp_files/7421.got.cif
#   From: 2010.05.17/outbox.cif.g08.bks.cpg/sg4_4_cif.got.tgz:7421.got - 2010.06.03 18:43:04.
