data_PCOD9118001
_publ_section_title
;
Structure prediction by ZEFSAII (Michael W. Deem and Ramdas Pophale) SiO2 
 PCOD9118001
Probable space group: P 21
;
_chemical_formula_sum "Si O2"
_cell_formula_units_Z 16
_cell_length_a 12.322751
_cell_length_b 9.395744
_cell_length_c 9.516827
_cell_angle_alpha 90.000000
_cell_angle_beta 36.977557
_cell_angle_gamma 90.000000
_cell_volume 662.778185
_symmetry_space_group_name_H-M "P 21"
_symmetry_group_IT_number 4
_symmetry_cell_setting 'monoclinic'
loop_
_space_group_symop_operation_xyz
x,y,z
-x,1/2+y,-z
loop_
_atom_site_type_symbol
_atom_site_label
_atom_site_fract_x
_atom_site_fract_y
_atom_site_fract_z
Si Si1 0.193770 0.199390 0.508153
Si Si2 0.335785 0.953477 0.180845
Si Si3 0.171810 0.674806 0.238954
Si Si4 0.423924 0.829726 0.495625
Si Si5 0.268787 0.399599 0.217604
Si Si6 0.719283 0.073540 0.183202
Si Si7 0.304902 0.168107 0.961198
Si Si8 0.870316 0.567215 0.146953
O O1 0.225357 0.043503 0.409901
O O2 0.322709 0.311838 0.301796
O O3 0.184483 0.187358 0.682397
O O4 0.008055 0.250571 0.629886
O O5 0.279495 0.792188 0.212966
O O6 0.324434 0.036614 0.045577
O O7 0.539195 0.965196 0.022570
O O8 0.140948 0.535075 0.366011
O O9 0.244289 0.608762 0.017527
O O10 0.383372 0.711873 0.653743
O O11 0.501000 0.733003 0.287464
O O12 0.588187 0.940467 0.344609
O O13 0.243529 0.927537 0.687519
O O14 0.212983 0.290985 0.151969
O O15 0.914252 0.050535 0.055849
O O16 0.194482 0.119041 0.938561
#
# Coordination Sequence:
#
# PCOD9118001 Si02
#       8
#     2   2   2   2   2   2   2   2
#     4  10  24  43  67 101 137 188 232 291 366 423
#     4  11  24  43  70 101 139 185 242 291 361 434
#     4  11  22  43  68  97 140 181 238 300 351 431
#     4  12  24  45  71 104 150 193 241 304 374 435
#     4  11  23  42  72  98 136 186 241 292 352 432
#     4  11  27  44  74 107 150 199 242 313 373 443
#     4  11  24  45  70 104 143 189 240 303 361 444
#     4  11  26  45  74 108 149 189 250 302 376 440
#
# _framework density 24.140806999999999
#
# number of rings (size 3 to 8) (size 9 to 14) (size 15 to 20)
#    0.000    1.000    2.500    3.750    3.500    1.000 
#    0.000    5.000    0.000    0.000    0.000    0.000 
#    0.000    0.000    0.000    0.000    0.000    0.000 
#
# Total GULP energy -89421.556225 kJ/mol
# GULP energy per Si atom -5588.847264 kJ/mol
# Density = 2.408586 g / cm^3
# Si number density = 24.140807 Si / 1000 Ang^3
#
#
#
# Elastic Constant Matrix: (Units=GPa)
#
#
# Indices 1 2 3 4 5 6 
#
# 1 116.6804 24.1135 29.1653 0.0000 12.7640 0.0000
# 2 24.1135 130.0892 21.5871 0.0000 12.1999 0.0000
# 3 29.1653 21.5871 68.5882 0.0000 -0.3809 0.0000
# 4 0.0000 0.0000 0.0000 12.2599 0.0000 -4.3377
# 5 12.7640 12.1999 -0.3809 0.0000 43.2588 0.0000
# 6 0.0000 0.0000 0.0000 -4.3377 0.0000 22.1545
#
#
#
# Elastic Compliance Matrix: (Units=1/GPa)
#
#
# Indices 1 2 3 4 5 6 
#
# 1 0.010065 -0.000945 -0.003997 0.000000 -0.002738 0.000000
# 2 -0.000945 0.008437 -0.002265 0.000000 -0.002120 0.000000
# 3 -0.003997 -0.002265 0.017003 0.000000 0.001968 0.000000
# 4 0.000000 0.000000 0.000000 0.087638 0.000000 0.017159
# 5 -0.002738 -0.002120 0.001968 0.000000 0.024540 0.000000
# 6 0.000000 0.000000 0.000000 0.017159 0.000000 0.048497
#
#
# Mechanical properties :
#
#
# Convention : Reuss Voigt Hill
#
# Bulk Modulus (GPa) = 47.41799 51.67662 49.54731
# Shear Modulus (GPa) = 22.97523 31.56742 27.27132
#
# Velocity S-wave (km/s) = 3.08834 3.62005 3.36471
# Velocity P-wave (km/s) = 5.69228 6.23906 5.97193
#
# Compressibility (1/GPa) = 0.02108904
#
# Stress axis : x y z
#
# Youngs Moduli (GPa) = 99.35903 118.52520 58.81189
#
# Poissons Ratio (x) = 0.11206 0.23509
# Poissons Ratio (y) = 0.09394 0.13322
# Poissons Ratio (z) = 0.39717 0.26848
#
# Static dielectric constant tensor:
#      x y z
#    x 1.891440 0.000000 0.014740 
#    y 0.000000 1.973700 0.000000 
#    z 0.014740 0.000000 2.010710 
# 
# From -- ./inp_files/7948.got.cif
#   From: 2010.05.17/outbox.cif.g08.bks.cpg/sg4_4_cif.got.tgz:7948.got - 2010.06.03 18:43:04.
