data_PCOD9118527
_publ_section_title
;
Structure prediction by ZEFSAII (Michael W. Deem and Ramdas Pophale) SiO2 
 PCOD9118527
Probable space group: P 21
;
_chemical_formula_sum "Si O2"
_cell_formula_units_Z 16
_cell_length_a 10.293446
_cell_length_b 15.108866
_cell_length_c 9.738791
_cell_angle_alpha 90.000000
_cell_angle_beta 29.106516
_cell_angle_gamma 90.000000
_cell_volume 736.753650
_symmetry_space_group_name_H-M "P 21"
_symmetry_group_IT_number 4
_symmetry_cell_setting 'monoclinic'
loop_
_space_group_symop_operation_xyz
x,y,z
-x,1/2+y,-z
loop_
_atom_site_type_symbol
_atom_site_label
_atom_site_fract_x
_atom_site_fract_y
_atom_site_fract_z
Si Si1 0.781626 0.595790 0.603849
Si Si2 0.629850 0.635341 0.425153
Si Si3 0.153145 0.399475 0.930482
Si Si4 0.764072 0.342132 0.954737
Si Si5 0.406039 0.958959 0.667628
Si Si6 0.223240 0.295522 0.326526
Si Si7 0.702961 0.972357 0.917565
Si Si8 0.108662 0.736960 0.892276
O O1 0.680768 0.618924 0.540379
O O2 0.835424 0.689420 0.633796
O O3 0.044755 0.534905 0.349172
O O4 0.555727 0.531765 0.876584
O O5 0.502505 0.555102 0.458493
O O6 0.415130 0.711942 0.593646
O O7 0.916902 0.655142 0.094702
O O8 0.365288 0.397558 0.610074
O O9 0.292529 0.450910 0.924635
O O10 0.877632 0.447690 0.146229
O O11 0.039957 0.302483 0.075288
O O12 0.657107 0.434031 0.117577
O O13 0.500961 0.291801 0.151721
O O14 0.894320 0.291865 0.962885
O O15 0.981257 0.338122 0.636377
O O16 0.280871 0.373742 0.162928
#
# Coordination Sequence:
#
# PCOD9118527 Si02
#       8
#     2   2   2   2   2   2   2   2
#     4  12  23  43  67  99 125 170 234 267 312 395
#     4  12  20  37  62 100 122 160 216 265 316 393
#     4  11  21  39  58  92 126 165 202 262 332 382
#     4  11  21  40  59  94 124 164 208 263 328 378
#     4  11  22  35  63  90 130 157 201 270 327 382
#     4  12  25  42  69  94 130 175 223 269 321 380
#     4  12  25  44  67  95 131 176 221 272 321 381
#     4  11  21  34  61  92 128 153 203 268 323 377
#
# _framework density 21.716892999999999
#
# number of rings (size 3 to 8) (size 9 to 14) (size 15 to 20)
#    0.000    0.500    5.000    6.000    0.000    0.000 
#    0.000    3.750    0.000    1.500    0.000    0.000 
#    0.000    0.000    0.000    0.000    0.000    0.000 
#
# Total GULP energy -89204.817801 kJ/mol
# GULP energy per Si atom -5575.301113 kJ/mol
# Density = 2.166746 g / cm^3
# Si number density = 21.716893 Si / 1000 Ang^3
#
#
#
# Elastic Constant Matrix: (Units=GPa)
#
#
# Indices 1 2 3 4 5 6 
#
# 1 17.0494 20.5616 18.0994 0.0000 -5.3582 0.0000
# 2 20.5616 128.2175 19.2343 0.0000 -6.4218 0.0000
# 3 18.0994 19.2343 134.9455 0.0000 -8.3860 0.0000
# 4 0.0000 0.0000 0.0000 85.4699 0.0000 89.0903
# 5 -5.3582 -6.4218 -8.3860 0.0000 15.3693 0.0000
# 6 0.0000 0.0000 0.0000 89.0903 0.0000 246.8658
#
#
#
# Elastic Compliance Matrix: (Units=1/GPa)
#
#
# Indices 1 2 3 4 5 6 
#
# 1 0.089166 -0.011894 -0.008944 0.000000 0.021236 0.000000
# 2 -0.011894 0.009675 0.000217 0.000000 0.000014 0.000000
# 3 -0.008944 0.000217 0.008685 0.000000 0.001712 0.000000
# 4 0.000000 0.000000 0.000000 0.018755 0.000000 -0.006768
# 5 0.021236 0.000014 0.001712 0.000000 0.073408 0.000000
# 6 0.000000 0.000000 0.000000 -0.006768 0.000000 0.006493
#
#
# Mechanical properties :
#
#
# Convention : Reuss Voigt Hill
#
# Bulk Modulus (GPa) = 15.08656 44.00035 29.54345
# Shear Modulus (GPa) = 18.55157 84.36216 51.45686
#
# Velocity S-wave (km/s) = 2.92592 6.23944 4.87297
# Velocity P-wave (km/s) = 4.28680 8.49779 6.73012
#
# Compressibility (1/GPa) = 0.06628418
#
# Stress axis : x y z
#
# Youngs Moduli (GPa) = 11.21508 103.36217 115.13511
#
# Poissons Ratio (x) = 1.22935 1.02980
# Poissons Ratio (y) = 0.13339 -0.02500
# Poissons Ratio (z) = 0.10031 -0.02244
#
# Static dielectric constant tensor:
#      x y z
#    x 1.728910 0.000000 -0.110990 
#    y 0.000000 1.941860 0.000000 
#    z -0.110990 0.000000 1.425610 
# 
# From -- ./inp_files/12336.got.cif
#   From: 2010.05.17/outbox.cif.g08.bks.cpg/sg4_7_cif.got.tgz:12336.got - 2010.06.03 18:43:04.
