data_PCOD9119977
_publ_section_title
;
Structure prediction by ZEFSAII (Michael W. Deem and Ramdas Pophale) SiO2 
 PCOD9119977
Probable space group: C 2
;
_chemical_formula_sum "Si O2"
_cell_formula_units_Z 28
_cell_length_a 9.388859
_cell_length_b 15.727224
_cell_length_c 14.294526
_cell_angle_alpha 90.000000
_cell_angle_beta 39.574977
_cell_angle_gamma 90.000000
_cell_volume 1344.725615
_symmetry_space_group_name_H-M "C 2"
_symmetry_group_IT_number 5
_symmetry_cell_setting 'monoclinic'
loop_
_space_group_symop_operation_xyz
x,y,z
-x,y,-z
1/2+x,1/2+y,z
1/2-x,1/2+y,-z
loop_
_atom_site_type_symbol
_atom_site_label
_atom_site_fract_x
_atom_site_fract_y
_atom_site_fract_z
Si Si1 0.102689 0.060510 0.772404
Si Si2 0.779877 0.570745 0.171822
Si Si3 0.733022 0.037393 0.624130
Si Si4 0.500000 0.184907 0.500000
Si Si5 0.542788 0.924594 0.367068
Si Si6 0.666117 0.747299 0.328976
Si Si7 0.500000 0.666120 0.000000
Si Si8 0.511515 0.219125 0.290801
O O1 0.288758 0.123524 0.631197
O O2 0.972956 0.109691 0.920365
O O3 0.925411 0.034621 0.783824
O O4 0.240992 0.984781 0.749881
O O5 0.839889 0.516918 0.233313
O O6 0.702749 0.663744 0.249122
O O7 0.000000 0.581330 0.000000
O O8 0.600983 0.124443 0.663752
O O9 0.000000 0.045922 0.500000
O O10 0.656730 0.969111 0.587339
O O11 0.466264 0.238743 0.422383
O O12 0.500000 0.921096 0.500000
O O13 0.582200 0.828411 0.315192
O O14 0.500000 0.730033 0.500000
O O15 0.889833 0.772368 0.272413
O O16 0.727684 0.715782 0.864028
#
# Coordination Sequence:
#
# PCOD9119977 Si02
#       8
#     4   4   4   2   4   4   2   4
#     4  11  19  35  61  87 116 152 204 245 294 353
#     4  11  23  38  61  90 124 159 203 248 299 356
#     4  11  20  36  65  93 122 153 207 256 304 356
#     4  10  16  28  60  90 110 146 206 248 294 338
#     4  11  21  38  64  91 119 159 201 250 310 357
#     4  10  22  39  61  84 123 158 205 245 307 358
#     4  10  20  32  62  88 122 150 210 244 292 352
#     4  10  18  34  56  93 118 158 196 253 293 353
#
# _framework density 20.822092000000001
#
# number of rings (size 3 to 8) (size 9 to 14) (size 15 to 20)
#    0.000    1.429    3.571    6.000    0.000    0.000 
#    1.286    0.000   34.571    0.000    0.000    0.000 
#    0.000    0.000    0.000    0.000    0.000    0.000 
#
# Total GULP energy -78145.500646 kJ/mol
# GULP energy per Si atom -5581.821475 kJ/mol
# Density = 2.077470 g / cm^3
# Si number density = 20.822092 Si / 1000 Ang^3
#
#
#
# Elastic Constant Matrix: (Units=GPa)
#
#
# Indices 1 2 3 4 5 6 
#
# 1 116.5740 12.9439 27.1222 0.0007 -9.2953 0.0005
# 2 12.9439 39.6598 12.1970 0.0046 -10.0719 -0.0010
# 3 27.1222 12.1970 111.1744 0.0085 -0.2309 -0.0021
# 4 0.0007 0.0046 0.0085 5.0749 -0.0020 -2.5438
# 5 -9.2953 -10.0719 -0.2309 -0.0020 36.8737 0.0002
# 6 0.0005 -0.0010 -0.0021 -2.5438 0.0002 19.6008
#
#
#
# Elastic Compliance Matrix: (Units=1/GPa)
#
#
# Indices 1 2 3 4 5 6 
#
# 1 0.009427 -0.001974 -0.002079 0.000005 0.001824 0.000000
# 2 -0.001974 0.028516 -0.002632 -0.000019 0.007275 -0.000001
# 3 -0.002079 -0.002632 0.009788 -0.000015 -0.001182 -0.000001
# 4 0.000005 -0.000019 -0.000015 0.210760 0.000007 0.027353
# 5 0.001824 0.007275 -0.001182 0.000007 0.029559 0.000001
# 6 0.000000 -0.000001 -0.000001 0.027353 0.000001 0.054568
#
#
# Mechanical properties :
#
#
# Convention : Reuss Voigt Hill
#
# Bulk Modulus (GPa) = 29.10315 41.32603 35.21459
# Shear Modulus (GPa) = 13.60761 26.65289 20.13025
#
# Velocity S-wave (km/s) = 2.55917 3.58163 3.11267
# Velocity P-wave (km/s) = 4.76864 6.08230 5.46508
#
# Compressibility (1/GPa) = 0.03436054
#
# Stress axis : x y z
#
# Youngs Moduli (GPa) = 106.08213 35.06862 102.16124
#
# Poissons Ratio (x) = 0.06922 0.21243
# Poissons Ratio (y) = 0.20939 0.26887
# Poissons Ratio (z) = 0.22059 0.09229
#
# Static dielectric constant tensor:
#      x y z
#    x 1.813110 0.000000 -0.012010 
#    y 0.000000 1.764660 0.000000 
#    z -0.012010 0.000000 1.764150 
# 
# From -- ./inp_files/51354.got.cif
#   From: 2010.05.17/outbox.cif.g08.bks.cpg/sg5_26_cif.got.tgz:51354.got - 2010.06.03 18:56:24.
