data_PCOD9119243
_publ_section_title
;
Structure prediction by ZEFSAII (Michael W. Deem and Ramdas Pophale) SiO2 
 PCOD9119243
Probable space group: P 21
;
_chemical_formula_sum "Si O2"
_cell_formula_units_Z 10
_cell_length_a 5.110350
_cell_length_b 9.091034
_cell_length_c 8.945501
_cell_angle_alpha 90.000000
_cell_angle_beta 116.154178
_cell_angle_gamma 90.000000
_cell_volume 373.041240
_symmetry_space_group_name_H-M "P 21"
_symmetry_group_IT_number 4
_symmetry_cell_setting 'monoclinic'
loop_
_space_group_symop_operation_xyz
x,y,z
-x,1/2+y,-z
loop_
_atom_site_type_symbol
_atom_site_label
_atom_site_fract_x
_atom_site_fract_y
_atom_site_fract_z
Si Si1 0.514149 0.317180 0.712402
Si Si2 0.448478 0.015830 0.547382
Si Si3 0.004327 0.177923 0.050573
Si Si4 0.896578 0.403931 0.265388
Si Si5 0.676562 0.898255 0.028413
O O1 0.395887 0.186197 0.576530
O O2 0.592807 0.455831 0.629760
O O3 0.300749 0.366384 0.791329
O O4 0.774341 0.245690 0.873479
O O5 0.243367 0.920013 0.605986
O O6 0.794067 0.985938 0.661902
O O7 0.953278 0.247679 0.201093
O O8 0.922193 0.009619 0.036461
O O9 0.299005 0.248786 0.062007
O O10 0.634147 0.468089 0.096262
#
# Coordination Sequence:
#
# PCOD9119243 Si02
#       5
#     2   2   2   2   2
#     4  11  29  46  77 113 161 203 260 318 392 460
#     4  12  28  50  76 114 161 199 259 315 399 451
#     4  11  24  48  81 114 153 204 266 312 389 448
#     4  11  25  49  80 108 157 205 254 326 372 471
#     4  11  26  49  80 115 158 205 269 317 384 464
#
# _framework density 26.806688000000001
#
# number of rings (size 3 to 8) (size 9 to 14) (size 15 to 20)
#    0.000    0.800    4.000    0.000   11.200    3.200 
#    0.000    0.000    0.000    0.000    0.000    0.000 
#    0.000    0.000    0.000    0.000    0.000    0.000 
#
# Total GULP energy -56013.263740 kJ/mol
# GULP energy per Si atom -5601.326374 kJ/mol
# Density = 2.674567 g / cm^3
# Si number density = 26.806688 Si / 1000 Ang^3
#
#
#
# Elastic Constant Matrix: (Units=GPa)
#
#
# Indices 1 2 3 4 5 6 
#
# 1 161.6548 37.3732 64.0162 0.0000 -31.2506 0.0000
# 2 37.3732 103.4898 39.1304 0.0000 -9.2955 0.0000
# 3 64.0162 39.1304 123.5137 0.0000 -6.7945 0.0000
# 4 0.0000 0.0000 0.0000 42.6783 0.0000 -12.5745
# 5 -31.2506 -9.2955 -6.7945 0.0000 59.3885 0.0000
# 6 0.0000 0.0000 0.0000 -12.5745 0.0000 33.2830
#
#
#
# Elastic Compliance Matrix: (Units=1/GPa)
#
#
# Indices 1 2 3 4 5 6 
#
# 1 0.008822 -0.001343 -0.003928 0.000000 0.003983 0.000000
# 2 -0.001343 0.011287 -0.002839 0.000000 0.000735 0.000000
# 3 -0.003928 -0.002839 0.010962 0.000000 -0.001257 0.000000
# 4 0.000000 0.000000 0.000000 0.026366 0.000000 0.009961
# 5 0.003983 0.000735 -0.001257 0.000000 0.018905 0.000000
# 6 0.000000 0.000000 0.000000 0.009961 0.000000 0.033809
#
#
# Mechanical properties :
#
#
# Convention : Reuss Voigt Hill
#
# Bulk Modulus (GPa) = 67.33430 74.41087 70.87259
# Shear Modulus (GPa) = 38.07421 43.61252 40.84337
#
# Velocity S-wave (km/s) = 3.77281 4.03789 3.90760
# Velocity P-wave (km/s) = 6.64468 7.03975 6.84506
#
# Compressibility (1/GPa) = 0.01485127
#
# Stress axis : x y z
#
# Youngs Moduli (GPa) = 113.35564 88.59402 91.22087
#
# Poissons Ratio (x) = 0.11898 0.35829
# Poissons Ratio (y) = 0.15224 0.25902
# Poissons Ratio (z) = 0.44523 0.25156
#
# Static dielectric constant tensor:
#      x y z
#    x 2.131410 0.000000 0.024370 
#    y 0.000000 2.100760 0.000000 
#    z 0.024370 0.000000 2.096350 
# 
# From -- ./inp_files/957.got.cif
#   From: 2010.05.17/outbox.cif.g08.bks.cpg/sg4_1_cif.got.tgz:957.got - 2010.06.03 18:43:04.
