data_PCOD9119159
_publ_section_title
;
Structure prediction by ZEFSAII (Michael W. Deem and Ramdas Pophale) SiO2 
 PCOD9119159
Probable space group: P 21
;
_chemical_formula_sum "Si O2"
_cell_formula_units_Z 16
_cell_length_a 18.210944
_cell_length_b 6.973877
_cell_length_c 5.112188
_cell_angle_alpha 90.000000
_cell_angle_beta 94.961915
_cell_angle_gamma 90.000000
_cell_volume 646.819262
_symmetry_space_group_name_H-M "P 21"
_symmetry_group_IT_number 4
_symmetry_cell_setting 'monoclinic'
loop_
_space_group_symop_operation_xyz
x,y,z
-x,1/2+y,-z
loop_
_atom_site_type_symbol
_atom_site_label
_atom_site_fract_x
_atom_site_fract_y
_atom_site_fract_z
Si Si1 0.418221 0.430190 0.189572
Si Si2 0.046660 0.981417 0.716026
Si Si3 0.915462 0.721018 0.774832
Si Si4 0.439305 0.173597 0.698187
Si Si5 0.282347 0.650121 0.298128
Si Si6 0.217304 0.337919 0.587958
Si Si7 0.701812 0.453749 0.299370
Si Si8 0.171178 0.681852 0.888403
O O1 0.414626 0.265398 0.413149
O O2 0.481355 0.576416 0.302240
O O3 0.343357 0.554035 0.132893
O O4 0.439421 0.335322 0.921394
O O5 0.056913 0.063357 0.429440
O O6 0.100792 0.802845 0.790026
O O7 0.070486 0.139892 0.934087
O O8 0.964628 0.909167 0.744869
O O9 0.831995 0.759873 0.665500
O O10 0.381706 0.011427 0.783009
O O11 0.279886 0.483829 0.515824
O O12 0.302579 0.857018 0.414528
O O13 0.195403 0.660495 0.195470
O O14 0.254209 0.151617 0.718204
O O15 0.169618 0.471471 0.764493
O O16 0.755363 0.302779 0.172334
#
# Coordination Sequence:
#
# PCOD9119159 Si02
#       8
#     2   2   2   2   2   2   2   2
#     4  12  27  47  71 107 142 194 236 297 355 424
#     4  12  27  47  71 107 142 194 236 297 355 424
#     4  12  27  46  74 101 150 186 242 293 360 420
#     4  12  27  46  74 101 150 186 242 293 360 420
#     4  11  26  42  75 104 145 184 242 290 355 424
#     4  11  24  46  71 107 142 188 234 296 354 423
#     4  11  24  46  71 107 142 188 234 296 354 423
#     4  11  26  42  75 104 145 184 242 290 355 424
#
# _framework density 24.736435
#
# number of rings (size 3 to 8) (size 9 to 14) (size 15 to 20)
#    0.000    0.500    2.500    4.500   10.500    2.000 
#    0.000    0.000    0.000    0.000    0.000    0.000 
#    0.000    0.000    0.000    0.000    0.000    0.000 
#
# Total GULP energy -89492.580529 kJ/mol
# GULP energy per Si atom -5593.286283 kJ/mol
# Density = 2.468013 g / cm^3
# Si number density = 24.736435 Si / 1000 Ang^3
#
#
#
# Elastic Constant Matrix: (Units=GPa)
#
#
# Indices 1 2 3 4 5 6 
#
# 1 63.0133 10.4708 -1.3157 0.0000 8.8533 0.0000
# 2 10.4708 99.2667 7.2836 0.0000 -5.6262 0.0000
# 3 -1.3157 7.2836 53.8237 0.0000 4.7739 0.0000
# 4 0.0000 0.0000 0.0000 49.9466 0.0000 2.7883
# 5 8.8533 -5.6262 4.7739 0.0000 29.6997 0.0000
# 6 0.0000 0.0000 0.0000 2.7883 0.0000 64.7797
#
#
#
# Elastic Compliance Matrix: (Units=1/GPa)
#
#
# Indices 1 2 3 4 5 6 
#
# 1 0.017064 -0.002213 0.001222 0.000000 -0.005702 0.000000
# 2 -0.002213 0.010603 -0.001751 0.000000 0.002950 0.000000
# 3 0.001222 -0.001751 0.019181 0.000000 -0.003779 0.000000
# 4 0.000000 0.000000 0.000000 0.020070 0.000000 -0.000864
# 5 -0.005702 0.002950 -0.003779 0.000000 0.036536 0.000000
# 6 0.000000 0.000000 0.000000 -0.000864 0.000000 0.015474
#
#
# Mechanical properties :
#
#
# Convention : Reuss Voigt Hill
#
# Bulk Modulus (GPa) = 24.17440 27.66457 25.91949
# Shear Modulus (GPa) = 36.17972 42.19620 39.18796
#
# Velocity S-wave (km/s) = 3.82856 4.13465 3.98454
# Velocity P-wave (km/s) = 5.41644 5.83111 5.62759
#
# Compressibility (1/GPa) = 0.04136607
#
# Stress axis : x y z
#
# Youngs Moduli (GPa) = 58.60270 94.31375 52.13459
#
# Poissons Ratio (x) = 0.20870 -0.06373
# Poissons Ratio (y) = 0.12968 0.09126
# Poissons Ratio (z) = -0.07163 0.16510
#
# Static dielectric constant tensor:
#      x y z
#    x 1.930450 0.000000 -0.047550 
#    y 0.000000 1.927850 0.000000 
#    z -0.047550 0.000000 2.160340 
# 
# From -- ./inp_files/3992.got.cif
#   From: 2010.05.17/outbox.cif.g08.bks.cpg/sg4_2_cif.got.tgz:3992.got - 2010.06.03 18:43:04.
