data_PCOD9119523
_publ_section_title
;
Structure prediction by ZEFSAII (Michael W. Deem and Ramdas Pophale) SiO2 
 PCOD9119523
Probable space group: P 21
;
_chemical_formula_sum "Si O2"
_cell_formula_units_Z 16
_cell_length_a 9.066557
_cell_length_b 10.970440
_cell_length_c 12.881919
_cell_angle_alpha 90.000000
_cell_angle_beta 30.591769
_cell_angle_gamma 90.000000
_cell_volume 652.070589
_symmetry_space_group_name_H-M "P 21"
_symmetry_group_IT_number 4
_symmetry_cell_setting 'monoclinic'
loop_
_space_group_symop_operation_xyz
x,y,z
-x,1/2+y,-z
loop_
_atom_site_type_symbol
_atom_site_label
_atom_site_fract_x
_atom_site_fract_y
_atom_site_fract_z
Si Si1 0.746853 0.385370 0.079535
Si Si2 0.312442 0.517435 0.660104
Si Si3 0.742121 0.344859 0.327682
Si Si4 0.795716 0.996485 0.679182
Si Si5 0.659258 0.901868 0.984978
Si Si6 0.790257 0.121165 0.058884
Si Si7 0.813346 0.265856 0.620775
Si Si8 0.524888 0.666113 0.369510
O O1 0.762793 0.370072 0.193894
O O2 0.503462 0.484707 0.203701
O O3 0.673231 0.249029 0.085655
O O4 0.048157 0.427805 0.847365
O O5 0.635091 0.461671 0.458483
O O6 0.295466 0.605286 0.769263
O O7 0.298138 0.564199 0.549475
O O8 0.502345 0.250856 0.511463
O O9 0.062658 0.313530 0.170970
O O10 0.978920 0.877442 0.535711
O O11 0.930779 0.130519 0.578295
O O12 0.694799 0.974647 0.857669
O O13 0.377829 0.820181 0.169849
O O14 0.684795 0.003201 0.060386
O O15 0.140999 0.132048 0.846484
O O16 0.600377 0.239528 0.651849
#
# Coordination Sequence:
#
# PCOD9119523 Si02
#       8
#     2   2   2   2   2   2   2   2
#     4  12  27  46  71 116 151 196 264 321 388 470
#     4  12  23  42  75 109 153 189 254 323 388 462
#     4  12  23  44  76 111 146 199 253 324 396 460
#     4  12  32  51  78 110 159 216 260 316 397 463
#     4  12  28  49  78 111 153 205 263 319 397 460
#     4  12  25  43  77 113 152 195 259 323 394 463
#     4  12  30  54  78 111 163 206 270 323 385 476
#     4  12  24  45  77 113 151 202 257 325 401 456
#
# _framework density 24.537222
#
# number of rings (size 3 to 8) (size 9 to 14) (size 15 to 20)
#    0.000    0.000    6.250    3.000    5.250    3.000 
#    0.000    0.000    0.000    0.000    0.000    0.000 
#    0.000    0.000    0.000    0.000    0.000    0.000 
#
# Total GULP energy -89414.739525 kJ/mol
# GULP energy per Si atom -5588.421220 kJ/mol
# Density = 2.448137 g / cm^3
# Si number density = 24.537222 Si / 1000 Ang^3
#
#
#
# Elastic Constant Matrix: (Units=GPa)
#
#
# Indices 1 2 3 4 5 6 
#
# 1 49.6528 7.3383 17.8504 0.0000 17.9917 0.0000
# 2 7.3383 135.2549 48.3524 0.0000 1.3021 0.0000
# 3 17.8504 48.3524 138.3831 0.0000 23.8199 0.0000
# 4 0.0000 0.0000 0.0000 54.6738 0.0000 1.5412
# 5 17.9917 1.3021 23.8199 0.0000 33.2576 0.0000
# 6 0.0000 0.0000 0.0000 1.5412 0.0000 29.2085
#
#
#
# Elastic Compliance Matrix: (Units=1/GPa)
#
#
# Indices 1 2 3 4 5 6 
#
# 1 0.025299 -0.001018 -0.000637 0.000000 -0.013190 0.000000
# 2 -0.001018 0.008612 -0.003324 0.000000 0.002594 0.000000
# 3 -0.000637 -0.003324 0.009568 0.000000 -0.006378 0.000000
# 4 0.000000 0.000000 0.000000 0.018318 0.000000 -0.000967
# 5 -0.013190 0.002594 -0.006378 0.000000 0.041670 0.000000
# 6 0.000000 0.000000 0.000000 -0.000967 0.000000 0.034288
#
#
# Mechanical properties :
#
#
# Convention : Reuss Voigt Hill
#
# Bulk Modulus (GPa) = 29.83331 52.26365 41.04848
# Shear Modulus (GPa) = 31.46902 40.07795 35.77349
#
# Velocity S-wave (km/s) = 3.58509 4.04586 3.82242
# Velocity P-wave (km/s) = 5.41497 6.57049 6.02052
#
# Compressibility (1/GPa) = 0.03351958
#
# Stress axis : x y z
#
# Youngs Moduli (GPa) = 39.52774 116.11494 104.51562
#
# Poissons Ratio (x) = 0.11818 0.06662
# Poissons Ratio (y) = 0.04023 0.34746
# Poissons Ratio (z) = 0.02519 0.38602
#
# Static dielectric constant tensor:
#      x y z
#    x 1.957480 0.000000 0.003340 
#    y 0.000000 2.258020 0.000000 
#    z 0.003340 0.000000 1.910970 
# 
# From -- ./inp_files/11215.got.cif
#   From: 2010.05.17/outbox.cif.g08.bks.cpg/sg4_6_cif.got.tgz:11215.got - 2010.06.03 18:43:04.
