data_PCOD9119835
_publ_section_title
;
Structure prediction by ZEFSAII (Michael W. Deem and Ramdas Pophale) SiO2 
 PCOD9119835
Probable space group: P 21
;
_chemical_formula_sum "Si O2"
_cell_formula_units_Z 16
_cell_length_a 9.000000
_cell_length_b 9.000000
_cell_length_c 9.000000
_cell_angle_alpha 90.000000
_cell_angle_beta 70.000000
_cell_angle_gamma 90.000000
_cell_volume 685.035921
_symmetry_space_group_name_H-M "P 21"
_symmetry_group_IT_number 4
_symmetry_cell_setting 'monoclinic'
loop_
_space_group_symop_operation_xyz
x,y,z
-x,1/2+y,-z
loop_
_atom_site_type_symbol
_atom_site_label
_atom_site_fract_x
_atom_site_fract_y
_atom_site_fract_z
Si Si1 0.646051 0.493430 0.246121
Si Si2 0.931183 0.671272 0.059775
Si Si3 0.265303 0.964077 0.474768
Si Si4 0.444820 0.053803 0.133625
Si Si5 0.738039 0.153060 0.219517
Si Si6 0.327978 0.630024 0.427882
Si Si7 0.927662 0.030189 0.703304
Si Si8 0.317036 0.337711 0.022404
O O1 0.671357 0.554716 0.405781
O O2 0.664610 0.318077 0.252532
O O3 0.468366 0.551689 0.286857
O O4 0.803995 0.537036 0.102341
O O5 0.808266 0.807566 0.072440
O O6 0.077651 0.662681 0.893319
O O7 0.013854 0.648061 0.191758
O O8 0.353088 0.806322 0.429701
O O9 0.317572 0.042365 0.307670
O O10 0.080563 0.949207 0.579551
O O11 0.622660 0.082475 0.136872
O O12 0.367695 0.173617 0.055703
O O13 0.502406 0.903285 0.037901
O O14 0.704240 0.078819 0.391308
O O15 0.166839 0.609920 0.393608
O O16 0.801715 0.919536 0.823193
#
# Coordination Sequence:
#
# PCOD9119835 Si02
#       8
#     2   2   2   2   2   2   2   2
#     4  10  22  44  72 102 141 189 234 306 353 435
#     4  11  24  46  74  98 153 184 242 299 366 430
#     4  10  24  44  69 107 141 184 246 290 369 432
#     4  12  27  47  73 112 149 196 249 302 370 440
#     4  11  24  44  73 109 143 190 242 300 371 435
#     4  11  23  47  72 104 146 188 242 303 360 437
#     4  11  26  49  72 109 145 192 244 307 363 437
#     4  12  28  49  73 111 148 199 249 303 366 442
#
# _framework density 23.356439000000002
#
# number of rings (size 3 to 8) (size 9 to 14) (size 15 to 20)
#    0.000    1.000    2.500    3.750    8.750    0.000 
#    4.500    0.000    0.000    0.000    0.000    0.000 
#    0.000    0.000    0.000    0.000    0.000    0.000 
#
# Total GULP energy -89129.789966 kJ/mol
# GULP energy per Si atom -5570.611873 kJ/mol
# Density = 2.330328 g / cm^3
# Si number density = 23.356439 Si / 1000 Ang^3
#
#
#
# Elastic Constant Matrix: (Units=GPa)
#
#
# Indices 1 2 3 4 5 6 
#
# 1 73.0568 -4.9445 18.0836 0.0000 -7.9692 0.0000
# 2 -4.9445 11.2766 -14.2175 0.0000 0.9184 0.0000
# 3 18.0836 -14.2175 53.3807 0.0000 -27.6887 0.0000
# 4 0.0000 0.0000 0.0000 -1.4683 0.0000 -13.5668
# 5 -7.9692 0.9184 -27.6887 0.0000 48.7391 0.0000
# 6 0.0000 0.0000 0.0000 -13.5668 0.0000 34.6911
#
#
#
# Elastic Compliance Matrix: (Units=1/GPa)
#
#
# Indices 1 2 3 4 5 6 
#
# 1 0.014954 -0.000326 -0.005503 0.000000 -0.000675 0.000000
# 2 -0.000326 0.159311 0.058068 0.000000 0.029933 0.000000
# 3 -0.005503 0.058068 0.049664 0.000000 0.026220 0.000000
# 4 0.000000 0.000000 0.000000 -0.147625 0.000000 -0.057732
# 5 -0.000675 0.029933 0.026220 0.000000 0.034739 0.000000
# 6 0.000000 0.000000 0.000000 -0.057732 0.000000 0.006248
#
#
# Mechanical properties :
#
#
# Convention : Reuss Voigt Hill
#
# Bulk Modulus (GPa) = 3.04500 15.06192 9.05346
# Shear Modulus (GPa) = 40.88872 25.64521 33.26696
#
# Velocity S-wave (km/s) = 4.18860 3.31719 3.77811
# Velocity P-wave (km/s) = 4.96982 4.59722 4.78714
#
# Compressibility (1/GPa) = 0.32840754
#
# Stress axis : x y z
#
# Youngs Moduli (GPa) = 66.86981 6.27703 20.13529
#
# Poissons Ratio (x) = 0.00205 0.11081
# Poissons Ratio (y) = 0.02181 -1.16922
# Poissons Ratio (z) = 0.36799 -0.36450
#
# Static dielectric constant tensor:
#      x y z
#    x 1.906730 0.000000 -0.001700 
#    y 0.000000 2.150310 0.000000 
#    z -0.001700 0.000000 2.617940 
# 
# From -- ./inp_files/5394.got.cif
#   From: 2010.05.17/outbox.ucp.g08.bks.cvg/sg4_3_cif.got.tgz:5394.got - 2010.06.11 12:51:24.
