data_PCOD9119546
_publ_section_title
;
Structure prediction by ZEFSAII (Michael W. Deem and Ramdas Pophale) SiO2 
 PCOD9119546
Probable space group: P 21
;
_chemical_formula_sum "Si O2"
_cell_formula_units_Z 16
_cell_length_a 25.777016
_cell_length_b 5.739326
_cell_length_c 23.250890
_cell_angle_alpha 90.000000
_cell_angle_beta 169.297230
_cell_angle_gamma 90.000000
_cell_volume 638.819319
_symmetry_space_group_name_H-M "P 21"
_symmetry_group_IT_number 4
_symmetry_cell_setting 'monoclinic'
loop_
_space_group_symop_operation_xyz
x,y,z
-x,1/2+y,-z
loop_
_atom_site_type_symbol
_atom_site_label
_atom_site_fract_x
_atom_site_fract_y
_atom_site_fract_z
Si Si1 0.656336 0.093410 0.656218
Si Si2 0.420977 0.746847 0.247056
Si Si3 0.869599 0.716889 0.441699
Si Si4 0.631658 0.522097 0.064226
Si Si5 0.209553 0.871190 0.308989
Si Si6 0.092757 0.518157 0.277517
Si Si7 0.925039 0.991320 0.221696
Si Si8 0.440206 0.745402 0.743477
O O1 0.515857 0.342808 0.525842
O O2 0.737425 0.166874 0.679518
O O3 0.951775 0.029108 0.007272
O O4 0.504639 0.518662 0.374145
O O5 0.717880 0.841389 0.551285
O O6 0.250151 0.678702 0.003893
O O7 0.220886 0.930638 0.059755
O O8 0.722764 0.606429 0.226256
O O9 0.115026 0.876422 0.685300
O O10 0.997209 0.548756 0.628240
O O11 0.639835 0.867087 0.223736
O O12 0.552207 0.709847 0.929784
O O13 0.127986 0.758940 0.281319
O O14 0.246644 0.543380 0.506645
O O15 0.210933 0.948361 0.499208
O O16 0.701033 0.781921 0.985188
#
# Coordination Sequence:
#
# PCOD9119546 Si02
#       8
#     2   2   2   2   2   2   2   2
#     4  12  32  56  90 124 176 224 282 348 426 516
#     4  12  29  50  82 118 161 215 269 339 409 491
#     4  12  24  42  67 101 142 198 258 325 401 477
#     4  12  24  42  67 101 142 198 258 325 401 477
#     4  12  32  54  80 130 162 222 274 346 414 506
#     4  12  29  50  82 118 161 215 269 339 409 491
#     4  12  24  46  71 108 153 201 261 331 402 478
#     4  12  24  46  71 108 153 201 261 331 402 478
#
# _framework density 25.046202999999998
#
# number of rings (size 3 to 8) (size 9 to 14) (size 15 to 20)
#    0.000    0.000    1.250    7.500    8.750    0.000 
#    0.000    0.000    0.000    0.000    0.000    0.000 
#    0.000    0.000    0.000    0.000    0.000    0.000 
#
# Total GULP energy -89633.747754 kJ/mol
# GULP energy per Si atom -5602.109235 kJ/mol
# Density = 2.498920 g / cm^3
# Si number density = 25.046203 Si / 1000 Ang^3
#
#
#
# Elastic Constant Matrix: (Units=GPa)
#
#
# Indices 1 2 3 4 5 6 
#
# 1 81.7703 29.1567 37.8851 0.0000 -22.7427 0.0000
# 2 29.1567 92.8752 51.0412 0.0000 0.3458 0.0000
# 3 37.8851 51.0412 129.9100 0.0000 -8.3564 0.0000
# 4 0.0000 0.0000 0.0000 61.4723 0.0000 2.2549
# 5 -22.7427 0.3458 -8.3564 0.0000 39.7090 0.0000
# 6 0.0000 0.0000 0.0000 2.2549 0.0000 59.5615
#
#
#
# Elastic Compliance Matrix: (Units=1/GPa)
#
#
# Indices 1 2 3 4 5 6 
#
# 1 0.017669 -0.003937 -0.002993 0.000000 0.009524 0.000000
# 2 -0.003937 0.014673 -0.004836 0.000000 -0.003401 0.000000
# 3 -0.002993 -0.004836 0.010505 0.000000 0.000539 0.000000
# 4 0.000000 0.000000 0.000000 0.016290 0.000000 -0.000617
# 5 0.009524 -0.003401 0.000539 0.000000 0.030781 0.000000
# 6 0.000000 0.000000 0.000000 -0.000617 0.000000 0.016813
#
#
# Mechanical properties :
#
#
# Convention : Reuss Voigt Hill
#
# Bulk Modulus (GPa) = 51.77290 60.08016 55.92653
# Shear Modulus (GPa) = 36.57597 44.58006 40.57801
#
# Velocity S-wave (km/s) = 3.82558 4.22348 4.02945
# Velocity P-wave (km/s) = 6.34266 6.91545 6.63524
#
# Compressibility (1/GPa) = 0.01931512
#
# Stress axis : x y z
#
# Youngs Moduli (GPa) = 56.59630 68.15060 95.19251
#
# Poissons Ratio (x) = 0.26834 0.28492
# Poissons Ratio (y) = 0.22285 0.46031
# Poissons Ratio (z) = 0.16940 0.32955
#
# Static dielectric constant tensor:
#      x y z
#    x 2.050500 0.000000 -0.086180 
#    y 0.000000 2.063530 0.000000 
#    z -0.086180 0.000000 1.968840 
# 
# From -- ./inp_files/16231.got.cif
#   From: 2010.05.17/outbox.cif.g08.bks.cpg/sg4_9_cif.got.tgz:16231.got - 2010.06.03 18:43:04.
