data_PCOD9119902
_publ_section_title
;
Structure prediction by ZEFSAII (Michael W. Deem and Ramdas Pophale) SiO2 
 PCOD9119902
Probable space group: P 21
;
_chemical_formula_sum "Si O2"
_cell_formula_units_Z 16
_cell_length_a 24.000000
_cell_length_b 6.000000
_cell_length_c 27.000000
_cell_angle_alpha 90.000000
_cell_angle_beta 10.000000
_cell_angle_gamma 90.000000
_cell_volume 675.144115
_symmetry_space_group_name_H-M "P 21"
_symmetry_group_IT_number 4
_symmetry_cell_setting 'monoclinic'
loop_
_space_group_symop_operation_xyz
x,y,z
-x,1/2+y,-z
loop_
_atom_site_type_symbol
_atom_site_label
_atom_site_fract_x
_atom_site_fract_y
_atom_site_fract_z
Si Si1 0.835996 0.573700 0.852689
Si Si2 0.041988 0.991909 0.092568
Si Si3 0.193570 0.989185 0.668127
Si Si4 0.572261 0.192461 0.955182
Si Si5 0.136098 0.484600 0.864613
Si Si6 0.305970 0.225220 0.294736
Si Si7 0.650889 0.710942 0.568245
Si Si8 0.607779 0.365802 0.692905
O O1 0.032188 0.349342 0.695245
O O2 0.079801 0.723624 0.603526
O O3 0.511689 0.456403 0.116184
O O4 0.683404 0.705733 0.033459
O O5 0.923419 0.749018 0.218230
O O6 0.892290 0.003995 0.169257
O O7 0.414722 0.918300 0.762006
O O8 0.978923 0.243365 0.170658
O O9 0.506685 0.968026 0.427869
O O10 0.297615 0.031052 0.520348
O O11 0.938148 0.275923 0.628784
O O12 0.407692 0.435218 0.084643
O O13 0.411593 0.138568 0.148730
O O14 0.011321 0.733713 0.993035
O O15 0.359717 0.025247 0.287329
O O16 0.535134 0.553343 0.714705
#
# Coordination Sequence:
#
# PCOD9119902 Si02
#       8
#     2   2   2   2   2   2   2   2
#     4  12  29  51  85 118 171 228 286 352 429 500
#     4  12  29  49  80 110 157 208 268 342 429 513
#     4  12  29  49  80 110 157 208 268 342 429 513
#     4  12  29  52  88 132 178 229 286 352 418 494
#     4  12  24  50  76 112 150 206 264 340 426 516
#     4  12  28  54  80 128 170 232 286 350 418 504
#     4  12  31  50  72 128 156 211 282 354 422 520
#     4  12  29  51  85 118 171 228 286 352 429 500
#
# _framework density 23.698644000000002
#
# number of rings (size 3 to 8) (size 9 to 14) (size 15 to 20)
#    0.000    0.000    1.250    6.750   14.000    0.000 
#    0.000    0.000    0.000    0.000    0.000    0.000 
#    0.000    0.000    0.000    0.000    0.000    0.000 
#
# Total GULP energy -89149.160457 kJ/mol
# GULP energy per Si atom -5571.822529 kJ/mol
# Density = 2.364470 g / cm^3
# Si number density = 23.698644 Si / 1000 Ang^3
#
#
#
# Elastic Constant Matrix: (Units=GPa)
#
#
# Indices 1 2 3 4 5 6 
#
# 1 168.9144 59.0742 35.9425 0.0000 47.6674 0.0000
# 2 59.0742 210.6958 41.1834 0.0000 17.9795 0.0000
# 3 35.9425 41.1834 96.9227 0.0000 30.1124 0.0000
# 4 0.0000 0.0000 0.0000 73.6653 0.0000 44.6925
# 5 47.6674 17.9795 30.1124 0.0000 36.9772 0.0000
# 6 0.0000 0.0000 0.0000 44.6925 0.0000 48.4659
#
#
#
# Elastic Compliance Matrix: (Units=1/GPa)
#
#
# Indices 1 2 3 4 5 6 
#
# 1 0.009975 -0.001918 0.001099 0.000000 -0.012822 0.000000
# 2 -0.001918 0.005571 -0.002118 0.000000 0.001488 0.000000
# 3 0.001099 -0.002118 0.014632 0.000000 -0.012303 0.000000
# 4 0.000000 0.000000 0.000000 0.030814 0.000000 -0.028415
# 5 -0.012822 0.001488 -0.012303 0.000000 0.052867 0.000000
# 6 0.000000 0.000000 0.000000 -0.028415 0.000000 0.046836
#
#
# Mechanical properties :
#
#
# Convention : Reuss Voigt Hill
#
# Bulk Modulus (GPa) = 41.14429 83.21479 62.17954
# Shear Modulus (GPa) = 28.62519 54.51053 41.56786
#
# Velocity S-wave (km/s) = 3.47923 4.80120 4.19264
# Velocity P-wave (km/s) = 5.79130 8.11944 7.05211
#
# Compressibility (1/GPa) = 0.02430471
#
# Stress axis : x y z
#
# Youngs Moduli (GPa) = 100.24895 179.50481 68.34207
#
# Poissons Ratio (x) = 0.34420 -0.07512
# Poissons Ratio (y) = 0.19223 0.14478
# Poissons Ratio (z) = -0.11019 0.38027
#
# Static dielectric constant tensor:
#      x y z
#    x 1.965770 0.000000 -0.042660 
#    y 0.000000 1.934870 0.000000 
#    z -0.042660 0.000000 1.870390 
# 
# From -- ./inp_files/16237.got.cif
#   From: 2010.05.17/outbox.ucp.g08.bks.cvg/sg4_9_cif.got.tgz:16237.got - 2010.06.11 12:51:24.
