data_PCOD9119689
_publ_section_title
;
Structure prediction by ZEFSAII (Michael W. Deem and Ramdas Pophale) SiO2 
 PCOD9119689
Probable space group: P 21
;
_chemical_formula_sum "Si O2"
_cell_formula_units_Z 14
_cell_length_a 8.513891
_cell_length_b 8.455954
_cell_length_c 8.544438
_cell_angle_alpha 90.000000
_cell_angle_beta 124.479982
_cell_angle_gamma 90.000000
_cell_volume 507.074954
_symmetry_space_group_name_H-M "P 21"
_symmetry_group_IT_number 4
_symmetry_cell_setting 'monoclinic'
loop_
_space_group_symop_operation_xyz
x,y,z
-x,1/2+y,-z
loop_
_atom_site_type_symbol
_atom_site_label
_atom_site_fract_x
_atom_site_fract_y
_atom_site_fract_z
Si Si1 0.843803 0.899320 0.558252
Si Si2 0.487649 0.097113 0.304829
Si Si3 0.015256 0.385661 0.687008
Si Si4 0.060691 0.114749 0.936888
Si Si5 0.695242 0.571081 0.513532
Si Si6 0.419806 0.910582 0.835497
Si Si7 0.769305 0.151986 0.062873
O O1 0.770390 0.743068 0.600360
O O2 0.972159 0.841347 0.485142
O O3 0.661454 0.978665 0.367937
O O4 0.958487 0.001940 0.750055
O O5 0.498810 0.078815 0.500436
O O6 0.531274 0.267330 0.255556
O O7 0.267645 0.063841 0.125482
O O8 0.109638 0.269276 0.861940
O O9 0.801859 0.411909 0.626691
O O10 0.087974 0.565024 0.738093
O O11 0.899186 0.153049 0.978193
O O12 0.697044 0.542059 0.329440
O O13 0.320481 0.815154 0.921949
O O14 0.600688 0.021611 0.969317
#
# Coordination Sequence:
#
# PCOD9119689 Si02
#       7
#     2   2   2   2   2   2   2
#     4  12  29  54  80 127 171 220 287 356 438 517
#     4  12  25  52  85 122 172 222 294 352 428 517
#     4  12  27  53  76 121 165 221 278 355 435 506
#     4  12  28  55  92 125 171 227 292 363 434 514
#     4  12  28  49  79 119 171 228 277 355 436 509
#     4  12  29  52  82 126 175 230 290 360 435 516
#     4  12  28  55  82 128 169 226 292 355 430 521
#
# _framework density 27.609328999999999
#
# number of rings (size 3 to 8) (size 9 to 14) (size 15 to 20)
#    0.000    0.000    4.286    4.286    4.000    3.429 
#    5.143    0.000    0.000    0.000    0.000    0.000 
#    0.000    0.000    0.000    0.000    0.000    0.000 
#
# Total GULP energy -78155.665974 kJ/mol
# GULP energy per Si atom -5582.547570 kJ/mol
# Density = 2.754649 g / cm^3
# Si number density = 27.609329 Si / 1000 Ang^3
#
#
#
# Elastic Constant Matrix: (Units=GPa)
#
#
# Indices 1 2 3 4 5 6 
#
# 1 156.5028 64.2575 65.5460 0.0000 -25.1748 0.0000
# 2 64.2575 124.2836 74.5275 0.0000 -1.7204 0.0000
# 3 65.5460 74.5275 143.8888 0.0000 10.3351 0.0000
# 4 0.0000 0.0000 0.0000 71.8095 0.0000 -1.3332
# 5 -25.1748 -1.7204 10.3351 0.0000 62.0113 0.0000
# 6 0.0000 0.0000 0.0000 -1.3332 0.0000 56.5534
#
#
#
# Elastic Compliance Matrix: (Units=1/GPa)
#
#
# Indices 1 2 3 4 5 6 
#
# 1 0.009655 -0.003056 -0.003129 0.000000 0.004356 0.000000
# 2 -0.003056 0.012750 -0.005211 0.000000 -0.000018 0.000000
# 3 -0.003129 -0.005211 0.011311 0.000000 -0.003300 0.000000
# 4 0.000000 0.000000 0.000000 0.013932 0.000000 0.000328
# 5 0.004356 -0.000018 -0.003300 0.000000 0.018444 0.000000
# 6 0.000000 0.000000 0.000000 0.000328 0.000000 0.017690
#
#
# Mechanical properties :
#
#
# Convention : Reuss Voigt Hill
#
# Bulk Modulus (GPa) = 91.51974 92.59302 92.05638
# Shear Modulus (GPa) = 45.36584 52.76445 49.06514
#
# Velocity S-wave (km/s) = 4.05796 4.37637 4.22017
# Velocity P-wave (km/s) = 7.42806 7.69067 7.56051
#
# Compressibility (1/GPa) = 0.01092660
#
# Stress axis : x y z
#
# Youngs Moduli (GPa) = 103.56988 78.42866 88.41002
#
# Poissons Ratio (x) = 0.23965 0.27659
# Poissons Ratio (y) = 0.31648 0.46069
# Poissons Ratio (z) = 0.32402 0.40868
#
# Static dielectric constant tensor:
#      x y z
#    x 2.296150 0.000000 0.122230 
#    y 0.000000 2.119180 0.000000 
#    z 0.122230 0.000000 2.256280 
# 
# From -- ./inp_files/5845.got.cif
#   From: 2010.05.17/outbox.cif.g08.bks.cpg/sg4_3_cif.got.tgz:5845.got - 2010.06.03 18:43:04.
