data_PCOD9119995
_publ_section_title
;
Structure prediction by ZEFSAII (Michael W. Deem and Ramdas Pophale) SiO2 
 PCOD9119995
Probable space group: C 2
;
_chemical_formula_sum "Si O2"
_cell_formula_units_Z 32
_cell_length_a 20.741908
_cell_length_b 8.544567
_cell_length_c 11.417962
_cell_angle_alpha 90.000000
_cell_angle_beta 57.457809
_cell_angle_gamma 90.000000
_cell_volume 1705.896375
_symmetry_space_group_name_H-M "C 2"
_symmetry_group_IT_number 5
_symmetry_cell_setting 'monoclinic'
loop_
_space_group_symop_operation_xyz
x,y,z
-x,y,-z
1/2+x,1/2+y,z
1/2-x,1/2+y,-z
loop_
_atom_site_type_symbol
_atom_site_label
_atom_site_fract_x
_atom_site_fract_y
_atom_site_fract_z
Si Si1 0.602651 0.424480 0.148580
Si Si2 0.459318 0.529801 0.162436
Si Si3 0.276145 0.244985 0.089869
Si Si4 0.680537 0.730286 0.965700
Si Si5 0.573858 0.875502 0.877653
Si Si6 0.288548 0.033655 0.394861
Si Si7 0.207132 0.927165 0.256454
Si Si8 0.709521 0.387891 0.675651
O O1 0.514445 0.458290 0.207867
O O2 0.647535 0.562913 0.034474
O O3 0.628848 0.432164 0.258838
O O4 0.641448 0.271288 0.051871
O O5 0.453315 0.718834 0.164425
O O6 0.373225 0.467948 0.249674
O O7 0.500000 0.484569 0.000000
O O8 0.212809 0.295326 0.056745
O O9 0.270695 0.349916 0.210126
O O10 0.258106 0.066875 0.145909
O O11 0.616352 0.815522 0.953201
O O12 0.753466 0.759964 0.809840
O O13 0.634642 0.964786 0.738524
O O14 0.500000 0.965157 0.000000
O O15 0.218266 0.969264 0.381417
O O16 0.271566 0.984060 0.542922
O O17 0.292970 0.218308 0.381274
#
# Coordination Sequence:
#
# PCOD9119995 Si02
#       8
#     4   4   4   4   4   4   4   4
#     4  10  16  30  50  78 107 133 165 209 258 307
#     4  11  19  31  53  84 110 136 166 207 265 310
#     4   9  17  29  49  74 104 132 170 211 248 299
#     4   9  15  28  49  75 106 130 164 207 252 304
#     4  10  18  33  54  84 107 132 167 209 262 312
#     4  10  22  37  54  75 101 139 181 216 255 306
#     4   8  18  31  49  75 102 134 172 212 254 299
#     4  11  21  36  52  76 103 139 179 215 257 307
#
# _framework density 18.758465999999999
#
# number of rings (size 3 to 8) (size 9 to 14) (size 15 to 20)
#    0.000    2.250    3.750    0.750    0.000    1.500 
#    2.250    0.625    0.000    0.750    3.250    0.000 
#    0.000    0.000    0.000    0.000    0.000    0.000 
#
# Total GULP energy -89074.930197 kJ/mol
# GULP energy per Si atom -5567.183137 kJ/mol
# Density = 1.871577 g / cm^3
# Si number density = 18.758466 Si / 1000 Ang^3
#
#
#
# Elastic Constant Matrix: (Units=GPa)
#
#
# Indices 1 2 3 4 5 6 
#
# 1 63.8460 -4.9165 7.7168 0.0000 -7.1425 0.0000
# 2 -4.9165 23.4900 17.3042 0.0000 -1.0911 0.0000
# 3 7.7168 17.3042 65.2917 0.0000 -5.0863 0.0000
# 4 0.0000 0.0000 0.0000 21.1379 0.0000 -4.3299
# 5 -7.1425 -1.0911 -5.0863 0.0000 19.0176 0.0000
# 6 0.0000 0.0000 0.0000 -4.3299 0.0000 20.7070
#
#
#
# Elastic Compliance Matrix: (Units=1/GPa)
#
#
# Indices 1 2 3 4 5 6 
#
# 1 0.017200 0.006253 -0.003226 0.000000 0.005956 0.000000
# 2 0.006253 0.055183 -0.015252 0.000000 0.001435 0.000000
# 3 -0.003226 -0.015252 0.019994 0.000000 0.003261 0.000000
# 4 0.000000 0.000000 0.000000 0.049425 0.000000 0.010335
# 5 0.005956 0.001435 0.003261 0.000000 0.055774 0.000000
# 6 0.000000 0.000000 0.000000 0.010335 0.000000 0.050454
#
#
# Mechanical properties :
#
#
# Convention : Reuss Voigt Hill
#
# Bulk Modulus (GPa) = 14.72183 21.42629 18.07406
# Shear Modulus (GPa) = 16.94212 21.00739 18.97475
#
# Velocity S-wave (km/s) = 3.00854 3.35010 3.18391
# Velocity P-wave (km/s) = 4.46470 5.13919 4.81377
#
# Compressibility (1/GPa) = 0.06792634
#
# Stress axis : x y z
#
# Youngs Moduli (GPa) = 58.13793 18.12164 50.01620
#
# Poissons Ratio (x) = -0.11332 0.16137
# Poissons Ratio (y) = -0.36356 0.76286
# Poissons Ratio (z) = 0.18757 0.27640
#
# Static dielectric constant tensor:
#      x y z
#    x 1.693970 0.000000 0.005130 
#    y 0.000000 1.699610 0.000000 
#    z 0.005130 0.000000 1.656810 
# 
# From -- ./inp_files/46031.got.cif
#   From: 2010.05.17/outbox.cif.g08.bks.cpg/sg5_24_cif.got.tgz:46031.got - 2010.06.03 18:56:24.
