data_PCOD9119479
_publ_section_title
;
Structure prediction by ZEFSAII (Michael W. Deem and Ramdas Pophale) SiO2 
 PCOD9119479
Probable space group: P 21
;
_chemical_formula_sum "Si O2"
_cell_formula_units_Z 16
_cell_length_a 14.205208
_cell_length_b 9.778923
_cell_length_c 5.921224
_cell_angle_alpha 90.000000
_cell_angle_beta 52.184297
_cell_angle_gamma 90.000000
_cell_volume 649.785568
_symmetry_space_group_name_H-M "P 21"
_symmetry_group_IT_number 4
_symmetry_cell_setting 'monoclinic'
loop_
_space_group_symop_operation_xyz
x,y,z
-x,1/2+y,-z
loop_
_atom_site_type_symbol
_atom_site_label
_atom_site_fract_x
_atom_site_fract_y
_atom_site_fract_z
Si Si1 0.130511 0.401600 0.720654
Si Si2 0.296052 0.057472 0.788352
Si Si3 0.860239 0.167643 0.623129
Si Si4 0.124676 0.909310 0.694421
Si Si5 0.694067 0.037286 0.208117
Si Si6 0.477126 0.949316 0.834566
Si Si7 0.489459 0.142553 0.200393
Si Si8 0.881702 0.667946 0.591345
O O1 0.135314 0.530102 0.538014
O O2 0.209594 0.431769 0.826015
O O3 0.169182 0.271386 0.518804
O O4 0.995458 0.371506 0.996130
O O5 0.213788 0.982409 0.732165
O O6 0.376891 0.944075 0.791152
O O7 0.393773 0.157423 0.539219
O O8 0.213669 0.139235 0.078327
O O9 0.813161 0.284257 0.525074
O O10 0.993726 0.216173 0.486902
O O11 0.788155 0.147206 0.962468
O O12 0.088729 0.023533 0.566238
O O13 0.595829 0.021644 0.555279
O O14 0.600470 0.052638 0.134178
O O15 0.488372 0.796441 0.909066
O O16 0.433005 0.051976 0.089344
#
# Coordination Sequence:
#
# PCOD9119479 Si02
#       8
#     2   2   2   2   2   2   2   2
#     4  12  27  47  78 115 161 208 256 317 396 468
#     4  11  28  50  78 114 158 205 264 324 392 469
#     4  12  27  47  78 115 161 208 256 317 396 468
#     4  12  27  48  76 119 158 208 258 319 392 474
#     4  11  28  50  74 116 160 203 256 324 390 461
#     4  11  28  53  82 113 153 208 268 328 395 464
#     4  11  28  53  82 113 153 208 268 328 395 464
#     4  12  27  48  76 119 158 208 258 319 392 474
#
# _framework density 24.623508000000001
#
# number of rings (size 3 to 8) (size 9 to 14) (size 15 to 20)
#    0.000    0.500    2.500    3.000   10.500    4.000 
#    0.000    0.000    0.000    0.000    0.000    0.000 
#    0.000    0.000    0.000    0.000    0.000    0.000 
#
# Total GULP energy -89434.052890 kJ/mol
# GULP energy per Si atom -5589.628306 kJ/mol
# Density = 2.456746 g / cm^3
# Si number density = 24.623508 Si / 1000 Ang^3
#
#
#
# Elastic Constant Matrix: (Units=GPa)
#
#
# Indices 1 2 3 4 5 6 
#
# 1 84.0671 18.4948 32.4813 0.0000 -21.0777 0.0000
# 2 18.4948 129.1661 42.5314 0.0000 22.6842 0.0000
# 3 32.4813 42.5314 90.3589 0.0000 -8.5415 0.0000
# 4 0.0000 0.0000 0.0000 32.0197 0.0000 23.3474
# 5 -21.0777 22.6842 -8.5415 0.0000 30.9999 0.0000
# 6 0.0000 0.0000 0.0000 23.3474 0.0000 20.4006
#
#
#
# Elastic Compliance Matrix: (Units=1/GPa)
#
#
# Indices 1 2 3 4 5 6 
#
# 1 0.017430 -0.003899 -0.003122 0.000000 0.013845 0.000000
# 2 -0.003899 0.012564 -0.005783 0.000000 -0.013439 0.000000
# 3 -0.003122 -0.005783 0.015514 0.000000 0.006384 0.000000
# 4 0.000000 0.000000 0.000000 0.188685 0.000000 -0.215940
# 5 0.013845 -0.013439 0.006384 0.000000 0.053264 0.000000
# 6 0.000000 0.000000 0.000000 -0.215940 0.000000 0.296150
#
#
# Mechanical properties :
#
#
# Convention : Reuss Voigt Hill
#
# Bulk Modulus (GPa) = 50.24592 54.51190 52.37891
# Shear Modulus (GPa) = 8.11886 30.68968 19.40427
#
# Velocity S-wave (km/s) = 1.81779 3.53421 2.81025
# Velocity P-wave (km/s) = 4.98556 6.23221 5.64341
#
# Compressibility (1/GPa) = 0.01990211
#
# Stress axis : x y z
#
# Youngs Moduli (GPa) = 57.37101 79.58937 64.45610
#
# Poissons Ratio (x) = 0.31034 0.20121
# Poissons Ratio (y) = 0.22371 0.37273
# Poissons Ratio (z) = 0.17909 0.46024
#
# Static dielectric constant tensor:
#      x y z
#    x 1.964910 0.000000 0.017970 
#    y 0.000000 1.967990 0.000000 
#    z 0.017970 0.000000 1.944370 
# 
# From -- ./inp_files/3681.got.cif
#   From: 2010.05.17/outbox.cif.g08.bks.cpg/sg4_2_cif.got.tgz:3681.got - 2010.06.03 18:43:04.
