data_PCOD9119627
_publ_section_title
;
Structure prediction by ZEFSAII (Michael W. Deem and Ramdas Pophale) SiO2 
 PCOD9119627
Probable space group: P 21
;
_chemical_formula_sum "Si O2"
_cell_formula_units_Z 12
_cell_length_a 15.151991
_cell_length_b 4.846081
_cell_length_c 6.227788
_cell_angle_alpha 90.000000
_cell_angle_beta 101.959454
_cell_angle_gamma 90.000000
_cell_volume 447.366849
_symmetry_space_group_name_H-M "P 21"
_symmetry_group_IT_number 4
_symmetry_cell_setting 'monoclinic'
loop_
_space_group_symop_operation_xyz
x,y,z
-x,1/2+y,-z
loop_
_atom_site_type_symbol
_atom_site_label
_atom_site_fract_x
_atom_site_fract_y
_atom_site_fract_z
Si Si1 0.987303 0.994690 0.284263
Si Si2 0.886758 0.688889 0.910565
Si Si3 0.322570 0.547459 0.765876
Si Si4 0.859062 0.169335 0.579630
Si Si5 0.310957 0.025932 0.053907
Si Si6 0.442842 0.874642 0.484339
O O1 0.099428 0.959725 0.311423
O O2 0.950404 0.120228 0.484656
O O3 0.913860 0.781796 0.170671
O O4 0.999051 0.227986 0.108327
O O5 0.791948 0.534644 0.925167
O O6 0.848569 0.959840 0.764637
O O7 0.226323 0.635024 0.611684
O O8 0.393405 0.681858 0.635958
O O9 0.325445 0.235469 0.858817
O O10 0.331714 0.721626 0.984286
O O11 0.374737 0.043567 0.294380
O O12 0.500603 0.131538 0.607226
#
# Coordination Sequence:
#
# PCOD9119627 Si02
#       6
#     2   2   2   2   2   2
#     4  12  25  42  66 106 152 210 274 310 371 452
#     4  12  27  43  71 105 156 211 263 321 381 452
#     4  12  30  51  83 122 160 205 265 330 401 482
#     4  12  27  43  71 105 156 211 263 321 381 452
#     4  12  30  51  83 122 160 205 265 330 401 482
#     4  12  29  56  92 118 158 206 260 338 423 498
#
# _framework density 26.823620999999999
#
# number of rings (size 3 to 8) (size 9 to 14) (size 15 to 20)
#    0.000    0.000    5.000    3.000   16.333    2.667 
#    0.000    0.000    0.000    0.000    0.000    0.000 
#    0.000    0.000    0.000    0.000    0.000    0.000 
#
# Total GULP energy -66925.306120 kJ/mol
# GULP energy per Si atom -5577.108843 kJ/mol
# Density = 2.676257 g / cm^3
# Si number density = 26.823621 Si / 1000 Ang^3
#
#
#
# Elastic Constant Matrix: (Units=GPa)
#
#
# Indices 1 2 3 4 5 6 
#
# 1 129.7882 29.2570 44.6503 0.0000 -6.9413 0.0000
# 2 29.2570 124.7930 7.7139 0.0000 1.7957 0.0000
# 3 44.6503 7.7139 70.5763 0.0000 13.9444 0.0000
# 4 0.0000 0.0000 0.0000 43.5245 0.0000 -0.6350
# 5 -6.9413 1.7957 13.9444 0.0000 42.4429 0.0000
# 6 0.0000 0.0000 0.0000 -0.6350 0.0000 40.2760
#
#
#
# Elastic Compliance Matrix: (Units=1/GPa)
#
#
# Indices 1 2 3 4 5 6 
#
# 1 0.011057 -0.002184 -0.007627 0.000000 0.004406 0.000000
# 2 -0.002184 0.008499 0.000636 0.000000 -0.000926 0.000000
# 3 -0.007627 0.000636 0.020508 0.000000 -0.008012 0.000000
# 4 0.000000 0.000000 0.000000 0.022981 0.000000 0.000362
# 5 0.004406 -0.000926 -0.008012 0.000000 0.026953 0.000000
# 6 0.000000 0.000000 0.000000 0.000362 0.000000 0.024834
#
#
# Mechanical properties :
#
#
# Convention : Reuss Voigt Hill
#
# Bulk Modulus (GPa) = 46.05511 54.26665 50.16088
# Shear Modulus (GPa) = 35.60727 41.48446 38.54586
#
# Velocity S-wave (km/s) = 3.64738 3.93690 3.79491
# Velocity P-wave (km/s) = 5.91141 6.39847 6.15976
#
# Compressibility (1/GPa) = 0.02171312
#
# Stress axis : x y z
#
# Youngs Moduli (GPa) = 90.44255 117.65596 48.76191
#
# Poissons Ratio (x) = 0.25698 0.37191
# Poissons Ratio (y) = 0.19754 -0.03100
# Poissons Ratio (z) = 0.68980 -0.07480
#
# Static dielectric constant tensor:
#      x y z
#    x 2.241960 0.000000 0.077330 
#    y 0.000000 2.291880 0.000000 
#    z 0.077330 0.000000 2.079290 
# 
# From -- ./inp_files/3337.got.cif
#   From: 2010.05.17/outbox.cif.g08.bks.cpg/sg4_2_cif.got.tgz:3337.got - 2010.06.03 18:43:04.
