data_PCOD9119344
_publ_section_title
;
Structure prediction by ZEFSAII (Michael W. Deem and Ramdas Pophale) SiO2 
 PCOD9119344
Probable space group: P 21
;
_chemical_formula_sum "Si O2"
_cell_formula_units_Z 14
_cell_length_a 8.138062
_cell_length_b 14.267833
_cell_length_c 8.663032
_cell_angle_alpha 90.000000
_cell_angle_beta 146.509677
_cell_angle_gamma 90.000000
_cell_volume 555.044223
_symmetry_space_group_name_H-M "P 21"
_symmetry_group_IT_number 4
_symmetry_cell_setting 'monoclinic'
loop_
_space_group_symop_operation_xyz
x,y,z
-x,1/2+y,-z
loop_
_atom_site_type_symbol
_atom_site_label
_atom_site_fract_x
_atom_site_fract_y
_atom_site_fract_z
Si Si1 0.758406 0.010480 0.083998
Si Si2 0.717193 0.192972 0.249964
Si Si3 0.171413 0.920671 0.148897
Si Si4 0.735463 0.822079 0.258583
Si Si5 0.256231 0.102086 0.117702
Si Si6 0.415569 0.624847 0.324304
Si Si7 0.260560 0.320019 0.392308
O O1 0.534501 0.061585 0.787671
O O2 0.826675 0.096204 0.255519
O O3 0.691349 0.914382 0.120420
O O4 0.996700 0.973787 0.146145
O O5 0.445689 0.164954 0.150947
O O6 0.977882 0.252254 0.538785
O O7 0.560284 0.259273 0.999135
O O8 0.460429 0.877395 0.451332
O O9 0.195577 0.994452 0.024643
O O10 0.994805 0.836159 0.930040
O O11 0.787172 0.857138 0.472866
O O12 0.477949 0.080403 0.432968
O O13 0.937656 0.141490 0.924018
O O14 0.624313 0.715671 0.486276
#
# Coordination Sequence:
#
# PCOD9119344 Si02
#       7
#     2   2   2   2   2   2   2
#     4  11  28  51  75 115 158 203 261 323 395 459
#     4  12  28  50  77 116 156 204 262 323 398 461
#     4  11  26  44  79 109 149 203 257 322 384 466
#     4  12  29  47  79 114 154 208 256 324 391 476
#     4  11  25  47  75 109 151 204 252 316 394 465
#     4  11  25  46  78 108 156 203 256 327 385 464
#     4  12  25  47  73 115 150 201 262 319 387 459
#
# _framework density 25.223217000000002
#
# number of rings (size 3 to 8) (size 9 to 14) (size 15 to 20)
#    0.000    0.571    1.429    5.143   10.000    5.714 
#    0.000    0.000    0.000    0.000    0.000    0.000 
#    0.000    0.000    0.000    0.000    0.000    0.000 
#
# Total GULP energy -78195.899046 kJ/mol
# GULP energy per Si atom -5585.421360 kJ/mol
# Density = 2.516581 g / cm^3
# Si number density = 25.223217 Si / 1000 Ang^3
#
#
#
# Elastic Constant Matrix: (Units=GPa)
#
#
# Indices 1 2 3 4 5 6 
#
# 1 68.6138 32.1684 17.8687 0.0000 -3.6987 0.0000
# 2 32.1684 138.8450 23.2347 0.0000 -9.1213 0.0000
# 3 17.8687 23.2347 94.2034 0.0000 5.0239 0.0000
# 4 0.0000 0.0000 0.0000 32.4331 0.0000 -5.7526
# 5 -3.6987 -9.1213 5.0239 0.0000 23.9887 0.0000
# 6 0.0000 0.0000 0.0000 -5.7526 0.0000 43.0925
#
#
#
# Elastic Compliance Matrix: (Units=1/GPa)
#
#
# Indices 1 2 3 4 5 6 
#
# 1 0.016902 -0.003382 -0.002470 0.000000 0.001837 0.000000
# 2 -0.003382 0.008453 -0.001605 0.000000 0.003029 0.000000
# 3 -0.002470 -0.001605 0.011663 0.000000 -0.003434 0.000000
# 4 0.000000 0.000000 0.000000 0.031580 0.000000 0.004216
# 5 0.001837 0.003029 -0.003434 0.000000 0.043840 0.000000
# 6 0.000000 0.000000 0.000000 0.004216 0.000000 0.023769
#
#
# Mechanical properties :
#
#
# Convention : Reuss Voigt Hill
#
# Bulk Modulus (GPa) = 45.23937 49.80064 47.52000
# Shear Modulus (GPa) = 31.54777 35.12890 33.33833
#
# Velocity S-wave (km/s) = 3.54042 3.73597 3.63951
# Velocity P-wave (km/s) = 5.88959 6.19651 6.04500
#
# Compressibility (1/GPa) = 0.02210464
#
# Stress axis : x y z
#
# Youngs Moduli (GPa) = 59.16396 118.29559 85.74262
#
# Poissons Ratio (x) = 0.40007 0.21177
# Poissons Ratio (y) = 0.20009 0.13762
# Poissons Ratio (z) = 0.14613 0.18987
#
# Static dielectric constant tensor:
#      x y z
#    x 2.060610 0.000000 0.042420 
#    y 0.000000 2.190150 0.000000 
#    z 0.042420 0.000000 2.020990 
# 
# From -- ./inp_files/6702.got.cif
#   From: 2010.05.17/outbox.cif.g08.bks.cpg/sg4_4_cif.got.tgz:6702.got - 2010.06.03 18:43:04.
