data_PCOD9119675
_publ_section_title
;
Structure prediction by ZEFSAII (Michael W. Deem and Ramdas Pophale) SiO2 
 PCOD9119675
Probable space group: P 21
;
_chemical_formula_sum "Si O2"
_cell_formula_units_Z 16
_cell_length_a 8.587753
_cell_length_b 8.929970
_cell_length_c 16.910911
_cell_angle_alpha 90.000000
_cell_angle_beta 151.415934
_cell_angle_gamma 90.000000
_cell_volume 620.484581
_symmetry_space_group_name_H-M "P 21"
_symmetry_group_IT_number 4
_symmetry_cell_setting 'monoclinic'
loop_
_space_group_symop_operation_xyz
x,y,z
-x,1/2+y,-z
loop_
_atom_site_type_symbol
_atom_site_label
_atom_site_fract_x
_atom_site_fract_y
_atom_site_fract_z
Si Si1 0.270789 0.125000 0.775086
Si Si2 0.137557 0.600335 0.170766
Si Si3 0.132248 0.364431 0.591748
Si Si4 0.103617 0.700510 0.853836
Si Si5 0.687504 0.977645 0.606411
Si Si6 0.682747 0.426258 0.713428
Si Si7 0.563957 0.089736 0.154262
Si Si8 0.471231 0.377595 0.206669
O O1 0.214577 0.201233 0.664369
O O2 0.414013 0.961410 0.821451
O O3 0.551048 0.216940 0.946091
O O4 0.935904 0.090040 0.670919
O O5 0.410828 0.570654 0.359933
O O6 0.134860 0.781261 0.169124
O O7 0.211874 0.489687 0.130863
O O8 0.779462 0.548423 0.038297
O O9 0.353929 0.419628 0.617984
O O10 0.229991 0.468820 0.707577
O O11 0.766746 0.369197 0.400219
O O12 0.212884 0.645893 0.816399
O O13 0.864720 0.835975 0.725814
O O14 0.898306 0.576304 0.811175
O O15 0.425018 0.921339 0.426610
O O16 0.435242 0.207266 0.163103
#
# Coordination Sequence:
#
# PCOD9119675 Si02
#       8
#     2   2   2   2   2   2   2   2
#     4  12  25  49  77 105 152 197 250 305 372 449
#     4  12  29  47  76 112 149 198 249 309 377 444
#     4  12  28  46  77 112 149 197 248 306 378 448
#     4  12  28  49  77 107 149 202 248 311 373 444
#     4  12  27  49  74 111 151 195 254 305 372 451
#     4  12  28  48  75 111 151 193 250 310 374 447
#     4  12  28  49  76 108 151 197 254 305 375 447
#     4  12  27  49  78 108 154 199 245 311 379 446
#
# _framework density 25.786300000000001
#
# number of rings (size 3 to 8) (size 9 to 14) (size 15 to 20)
#    0.000    0.000    5.000    3.000   10.500    0.000 
#    0.000    0.000    0.000    0.000    0.000    0.000 
#    0.000    0.000    0.000    0.000    0.000    0.000 
#
# Total GULP energy -89477.691920 kJ/mol
# GULP energy per Si atom -5592.355745 kJ/mol
# Density = 2.572761 g / cm^3
# Si number density = 25.786300 Si / 1000 Ang^3
#
#
#
# Elastic Constant Matrix: (Units=GPa)
#
#
# Indices 1 2 3 4 5 6 
#
# 1 71.0205 18.1179 -22.7065 0.0000 -2.2030 0.0000
# 2 18.1179 71.3759 23.5065 0.0000 2.6931 0.0000
# 3 -22.7065 23.5065 92.0594 0.0000 -10.5777 0.0000
# 4 0.0000 0.0000 0.0000 36.7471 0.0000 -6.7967
# 5 -2.2030 2.6931 -10.5777 0.0000 38.4974 0.0000
# 6 0.0000 0.0000 0.0000 -6.7967 0.0000 33.1426
#
#
#
# Elastic Compliance Matrix: (Units=1/GPa)
#
#
# Indices 1 2 3 4 5 6 
#
# 1 0.018044 -0.006875 0.006588 0.000000 0.003324 0.000000
# 2 -0.006875 0.018101 -0.006721 0.000000 -0.003506 0.000000
# 3 0.006588 -0.006721 0.014767 0.000000 0.004905 0.000000
# 4 0.000000 0.000000 0.000000 0.028286 0.000000 0.005801
# 5 0.003324 -0.003506 0.004905 0.000000 0.027759 0.000000
# 6 0.000000 0.000000 0.000000 0.005801 0.000000 0.031362
#
#
# Mechanical properties :
#
#
# Convention : Reuss Voigt Hill
#
# Bulk Modulus (GPa) = 27.10316 30.25464 28.67890
# Shear Modulus (GPa) = 30.37051 36.04662 33.20857
#
# Velocity S-wave (km/s) = 3.43560 3.74290 3.59254
# Velocity P-wave (km/s) = 5.12555 5.51701 5.32488
#
# Compressibility (1/GPa) = 0.03689607
#
# Stress axis : x y z
#
# Youngs Moduli (GPa) = 55.42095 55.24515 67.71836
#
# Poissons Ratio (x) = 0.37982 -0.44612
# Poissons Ratio (y) = 0.38103 0.45511
# Poissons Ratio (z) = -0.36511 0.37128
#
# Static dielectric constant tensor:
#      x y z
#    x 1.980780 0.000000 -0.001520 
#    y 0.000000 2.113740 0.000000 
#    z -0.001520 0.000000 2.030960 
# 
# From -- ./inp_files/5783.got.cif
#   From: 2010.05.17/outbox.cif.g08.bks.cpg/sg4_3_cif.got.tgz:5783.got - 2010.06.03 18:43:04.
