data_PCOD9119728
_publ_section_title
;
Structure prediction by ZEFSAII (Michael W. Deem and Ramdas Pophale) SiO2 
 PCOD9119728
Probable space group: P 21
;
_chemical_formula_sum "Si O2"
_cell_formula_units_Z 12
_cell_length_a 6.159897
_cell_length_b 10.461491
_cell_length_c 7.032168
_cell_angle_alpha 90.000000
_cell_angle_beta 87.629068
_cell_angle_gamma 90.000000
_cell_volume 452.776977
_symmetry_space_group_name_H-M "P 21"
_symmetry_group_IT_number 4
_symmetry_cell_setting 'monoclinic'
loop_
_space_group_symop_operation_xyz
x,y,z
-x,1/2+y,-z
loop_
_atom_site_type_symbol
_atom_site_label
_atom_site_fract_x
_atom_site_fract_y
_atom_site_fract_z
Si Si1 0.763193 0.637110 0.252701
Si Si2 0.271196 0.896202 0.191799
Si Si3 0.938798 0.073752 0.410532
Si Si4 0.583797 0.866744 0.486633
Si Si5 0.985704 0.772723 0.904696
Si Si6 0.601806 0.947830 0.870773
O O1 0.537369 0.562157 0.224200
O O2 0.727102 0.764539 0.373658
O O3 0.842590 0.678460 0.041718
O O4 0.935990 0.571907 0.390179
O O5 0.356452 0.850502 0.390568
O O6 0.080475 0.989193 0.259590
O O7 0.487097 0.946686 0.078794
O O8 0.945079 0.208636 0.296329
O O9 0.710090 0.001776 0.452136
O O10 0.557761 0.840257 0.710358
O O11 0.853271 0.907473 0.893642
O O12 0.186357 0.797837 0.038489
#
# Coordination Sequence:
#
# PCOD9119728 Si02
#       6
#     2   2   2   2   2   2
#     4  12  26  48  81 115 162 206 258 339 391 469
#     4  12  26  48  77 114 157 198 270 327 392 476
#     4  12  27  49  77 116 161 211 266 324 401 474
#     4  12  28  49  76 120 157 203 269 326 402 475
#     4  12  28  50  80 117 160 211 265 333 399 471
#     4  12  27  48  81 116 155 209 270 321 401 467
#
# _framework density 26.503115000000001
#
# number of rings (size 3 to 8) (size 9 to 14) (size 15 to 20)
#    0.000    0.000    8.333    0.000    2.333    9.333 
#    0.000    0.000    0.000    0.000    0.000    0.000 
#    0.000    0.000    0.000    0.000    0.000    0.000 
#
# Total GULP energy -66963.631125 kJ/mol
# GULP energy per Si atom -5580.302594 kJ/mol
# Density = 2.644279 g / cm^3
# Si number density = 26.503115 Si / 1000 Ang^3
#
#
#
# Elastic Constant Matrix: (Units=GPa)
#
#
# Indices 1 2 3 4 5 6 
#
# 1 107.3738 47.4757 43.8555 0.0000 25.4109 0.0000
# 2 47.4757 65.6525 38.7055 0.0000 -8.4256 0.0000
# 3 43.8555 38.7055 174.0100 0.0000 -1.5066 0.0000
# 4 0.0000 0.0000 0.0000 41.0089 0.0000 9.3570
# 5 25.4109 -8.4256 -1.5066 0.0000 56.5129 0.0000
# 6 0.0000 0.0000 0.0000 9.3570 0.0000 32.6971
#
#
#
# Elastic Compliance Matrix: (Units=1/GPa)
#
#
# Indices 1 2 3 4 5 6 
#
# 1 0.018567 -0.013760 -0.001709 0.000000 -0.010446 0.000000
# 2 -0.013760 0.028091 -0.002691 0.000000 0.010303 0.000000
# 3 -0.001709 -0.002691 0.006781 0.000000 0.000548 0.000000
# 4 0.000000 0.000000 0.000000 0.026088 0.000000 -0.007466
# 5 -0.010446 0.010303 0.000548 0.000000 0.023943 0.000000
# 6 0.000000 0.000000 0.000000 -0.007466 0.000000 0.032720
#
#
# Mechanical properties :
#
#
# Convention : Reuss Voigt Hill
#
# Bulk Modulus (GPa) = 58.41590 67.45662 62.93626
# Shear Modulus (GPa) = 28.05568 40.51041 34.28305
#
# Velocity S-wave (km/s) = 3.25711 3.91386 3.60049
# Velocity P-wave (km/s) = 6.01947 6.77732 6.40961
#
# Compressibility (1/GPa) = 0.01711863
#
# Stress axis : x y z
#
# Youngs Moduli (GPa) = 53.85803 35.59897 147.47124
#
# Poissons Ratio (x) = 0.48983 0.25208
# Poissons Ratio (y) = 0.74106 0.39689
# Poissons Ratio (z) = 0.09206 0.09581
#
# Static dielectric constant tensor:
#      x y z
#    x 2.206840 0.000000 -0.040030 
#    y 0.000000 2.184090 0.000000 
#    z -0.040030 0.000000 2.008290 
# 
# From -- ./inp_files/4520.got.cif
#   From: 2010.05.17/outbox.cif.g08.bks.cpg/sg4_3_cif.got.tgz:4520.got - 2010.06.03 18:43:04.
