data_PCOD9119220
_publ_section_title
;
Structure prediction by ZEFSAII (Michael W. Deem and Ramdas Pophale) SiO2 
 PCOD9119220
Probable space group: P 21
;
_chemical_formula_sum "Si O2"
_cell_formula_units_Z 16
_cell_length_a 9.549289
_cell_length_b 9.589346
_cell_length_c 13.081139
_cell_angle_alpha 90.000000
_cell_angle_beta 33.494236
_cell_angle_gamma 90.000000
_cell_volume 661.042021
_symmetry_space_group_name_H-M "P 21"
_symmetry_group_IT_number 4
_symmetry_cell_setting 'monoclinic'
loop_
_space_group_symop_operation_xyz
x,y,z
-x,1/2+y,-z
loop_
_atom_site_type_symbol
_atom_site_label
_atom_site_fract_x
_atom_site_fract_y
_atom_site_fract_z
Si Si1 0.214808 0.096350 0.476522
Si Si2 0.358855 0.662915 0.156243
Si Si3 0.846829 0.121563 0.415465
Si Si4 0.493600 0.865455 0.667333
Si Si5 0.435729 0.880034 0.467940
Si Si6 0.131643 0.171135 0.033944
Si Si7 0.043891 0.419273 0.960867
Si Si8 0.643519 0.493274 0.814664
O O1 0.308214 0.254250 0.412925
O O2 0.375881 0.009333 0.295160
O O3 0.912817 0.099187 0.649688
O O4 0.305575 0.029414 0.528396
O O5 0.343510 0.832153 0.157271
O O6 0.583871 0.638144 0.101413
O O7 0.444594 0.582768 0.001284
O O8 0.730912 0.274036 0.498592
O O9 0.955454 0.121724 0.234201
O O10 0.090867 0.073714 0.328881
O O11 0.626259 0.013631 0.573231
O O12 0.424930 0.832014 0.591362
O O13 0.240271 0.863568 0.889015
O O14 0.727224 0.883527 0.254417
O O15 0.116119 0.335458 0.019508
O O16 0.019904 0.083972 0.005931
#
# Coordination Sequence:
#
# PCOD9119220 Si02
#       8
#     2   2   2   2   2   2   2   2
#     4  12  29  46  79 116 147 201 264 309 383 468
#     4  11  28  51  76 112 160 204 249 331 381 455
#     4  11  24  48  70 104 156 198 245 312 388 446
#     4  12  25  47  74 108 150 197 252 318 381 452
#     4  12  26  46  73 109 155 192 249 325 380 452
#     4  11  25  46  72 110 148 199 255 313 385 453
#     4  12  25  45  75 108 144 199 258 307 379 458
#     4  11  28  49  77 113 150 202 260 309 387 460
#
# _framework density 24.204208999999999
#
# number of rings (size 3 to 8) (size 9 to 14) (size 15 to 20)
#    0.000    0.500    3.750    3.000    8.750    4.000 
#    0.000    0.000    0.000    0.000    0.000    0.000 
#    0.000    0.000    0.000    0.000    0.000    0.000 
#
# Total GULP energy -89433.199713 kJ/mol
# GULP energy per Si atom -5589.574982 kJ/mol
# Density = 2.414912 g / cm^3
# Si number density = 24.204209 Si / 1000 Ang^3
#
#
#
# Elastic Constant Matrix: (Units=GPa)
#
#
# Indices 1 2 3 4 5 6 
#
# 1 37.1105 16.6117 41.0119 0.0000 2.3617 0.0000
# 2 16.6117 104.7565 50.9819 0.0000 3.4309 0.0000
# 3 41.0119 50.9819 167.3345 0.0000 -25.3089 0.0000
# 4 0.0000 0.0000 0.0000 40.7246 0.0000 -7.1527
# 5 2.3617 3.4309 -25.3089 0.0000 34.4648 0.0000
# 6 0.0000 0.0000 0.0000 -7.1527 0.0000 43.4485
#
#
#
# Elastic Compliance Matrix: (Units=1/GPa)
#
#
# Indices 1 2 3 4 5 6 
#
# 1 0.040563 -0.000477 -0.011485 0.000000 -0.011166 0.000000
# 2 -0.000477 0.011747 -0.004088 0.000000 -0.004139 0.000000
# 3 -0.011485 -0.004088 0.011494 0.000000 0.009634 0.000000
# 4 0.000000 0.000000 0.000000 0.025286 0.000000 0.004163
# 5 -0.011166 -0.004139 0.009634 0.000000 0.037267 0.000000
# 6 0.000000 0.000000 0.000000 0.004163 0.000000 0.023701
#
#
# Mechanical properties :
#
#
# Convention : Reuss Voigt Hill
#
# Bulk Modulus (GPa) = 31.54255 58.49028 45.01642
# Shear Modulus (GPa) = 25.94363 37.10066 31.52215
#
# Velocity S-wave (km/s) = 3.27749 3.91937 3.61271
# Velocity P-wave (km/s) = 5.23285 6.68579 6.00343
#
# Compressibility (1/GPa) = 0.03170320
#
# Stress axis : x y z
#
# Youngs Moduli (GPa) = 24.65285 85.13119 87.00560
#
# Poissons Ratio (x) = 0.04062 0.99927
# Poissons Ratio (y) = 0.01176 0.35566
# Poissons Ratio (z) = 0.28314 0.34800
#
# Static dielectric constant tensor:
#      x y z
#    x 1.968840 0.000000 0.033170 
#    y 0.000000 1.913540 0.000000 
#    z 0.033170 0.000000 1.905060 
# 
# From -- ./inp_files/13943.got.cif
#   From: 2010.05.17/outbox.cif.g08.bks.cpg/sg4_7_cif.got.tgz:13943.got - 2010.06.03 18:43:04.
