data_PCOD9119979
_publ_section_title
;
Structure prediction by ZEFSAII (Michael W. Deem and Ramdas Pophale) SiO2 
 PCOD9119979
Probable space group: C 2
;
_chemical_formula_sum "Si O2"
_cell_formula_units_Z 32
_cell_length_a 7.049021
_cell_length_b 19.280380
_cell_length_c 17.189183
_cell_angle_alpha 90.000000
_cell_angle_beta 145.492196
_cell_angle_gamma 90.000000
_cell_volume 1323.468813
_symmetry_space_group_name_H-M "C 2"
_symmetry_group_IT_number 5
_symmetry_cell_setting 'monoclinic'
loop_
_space_group_symop_operation_xyz
x,y,z
-x,y,-z
1/2+x,1/2+y,z
1/2-x,1/2+y,-z
loop_
_atom_site_type_symbol
_atom_site_label
_atom_site_fract_x
_atom_site_fract_y
_atom_site_fract_z
Si Si1 0.107735 0.992020 0.359929
Si Si2 0.773817 0.646832 0.002053
Si Si3 0.239240 0.353110 0.202829
Si Si4 0.136164 0.223025 0.738478
Si Si5 0.165114 0.704580 0.725296
Si Si6 0.767337 0.125799 0.518799
Si Si7 0.612296 0.503006 0.888639
Si Si8 0.473200 0.358883 0.102819
O O1 0.500000 0.971075 0.500000
O O2 0.872774 0.923993 0.286628
O O3 0.045868 0.018794 0.249715
O O4 0.039398 0.053760 0.399057
O O5 0.441340 0.691740 0.884552
O O6 0.649256 0.568542 0.956946
O O7 0.000000 0.653998 0.000000
O O8 0.033293 0.675580 0.150978
O O9 0.425955 0.285091 0.298439
O O10 0.340023 0.355535 0.146538
O O11 0.832649 0.346356 0.060953
O O12 0.247350 0.299928 0.798835
O O13 0.888066 0.200887 0.722695
O O14 0.949987 0.199182 0.598173
O O15 0.905462 0.642322 0.622079
O O16 0.500000 0.117993 0.500000
O O17 0.428459 0.439434 0.868272
O O18 0.000000 0.483593 0.000000
#
# Coordination Sequence:
#
# PCOD9119979 Si02
#       8
#     4   4   4   4   4   4   4   4
#     4  10  18  31  51  78 106 133 172 221 262 301
#     4   9  16  26  48  74  95 128 174 214 251 290
#     4  10  20  33  51  77 110 139 170 213 266 311
#     4  10  19  31  52  77 103 137 176 213 261 306
#     4  10  19  33  51  79 106 135 172 217 262 309
#     4   9  18  32  50  77 108 130 170 226 260 296
#     4  10  16  29  49  73 101 132 171 217 256 292
#     4  10  19  33  50  79 108 138 173 216 260 309
#
# _framework density 24.178887
#
# number of rings (size 3 to 8) (size 9 to 14) (size 15 to 20)
#    0.000    2.250    3.750    3.750    0.000    2.000 
#    0.000    0.000    0.000    1.500    3.250   10.500 
#    0.000    0.000    0.000    0.000    0.000    0.000 
#
# Total GULP energy -89208.288172 kJ/mol
# GULP energy per Si atom -5575.518011 kJ/mol
# Density = 2.412385 g / cm^3
# Si number density = 24.178887 Si / 1000 Ang^3
#
#
#
# Elastic Constant Matrix: (Units=GPa)
#
#
# Indices 1 2 3 4 5 6 
#
# 1 50.4248 -4.4511 -4.5091 -0.0003 1.8666 -0.0004
# 2 -4.4511 172.7622 32.9568 -0.0004 2.6774 -0.0007
# 3 -4.5091 32.9568 86.6480 0.0070 -7.4668 0.0033
# 4 -0.0003 -0.0004 0.0070 46.3053 0.0014 2.6937
# 5 1.8666 2.6774 -7.4668 0.0014 11.8955 -0.0002
# 6 -0.0004 -0.0007 0.0033 2.6937 -0.0002 22.5971
#
#
#
# Elastic Compliance Matrix: (Units=1/GPa)
#
#
# Indices 1 2 3 4 5 6 
#
# 1 0.020032 0.000440 0.000630 0.000000 -0.002847 0.000000
# 2 0.000440 0.006358 -0.002669 0.000001 -0.003175 0.000000
# 3 0.000630 -0.002669 0.013355 -0.000002 0.008885 -0.000002
# 4 0.000000 0.000001 -0.000002 0.021747 -0.000004 -0.002592
# 5 -0.002847 -0.003175 0.008885 -0.000004 0.090804 0.000000
# 6 0.000000 0.000000 -0.000002 -0.002592 0.000000 0.044562
#
#
# Mechanical properties :
#
#
# Convention : Reuss Voigt Hill
#
# Bulk Modulus (GPa) = 27.36266 39.75869 33.56068
# Shear Modulus (GPa) = 23.55848 35.21547 29.38698
#
# Velocity S-wave (km/s) = 3.12483 3.82049 3.49004
# Velocity P-wave (km/s) = 4.93566 5.99507 5.49097
#
# Compressibility (1/GPa) = 0.03654615
#
# Stress axis : x y z
#
# Youngs Moduli (GPa) = 49.92000 157.28189 74.88104
#
# Poissons Ratio (x) = -0.06922 -0.04715
# Poissons Ratio (y) = -0.02197 0.19986
# Poissons Ratio (z) = -0.03143 0.41979
#
# Static dielectric constant tensor:
#      x y z
#    x 1.986270 0.000000 0.037200 
#    y 0.000000 2.026460 0.000000 
#    z 0.037200 0.000000 1.992790 
# 
# From -- ./inp_files/70430.got.cif
#   From: 2010.05.17/outbox.cif.g08.bks.cpg/sg5_36_cif.got.tgz:70430.got - 2010.06.03 18:56:24.
