data_PCOD9119616
_publ_section_title
;
Structure prediction by ZEFSAII (Michael W. Deem and Ramdas Pophale) SiO2 
 PCOD9119616
Probable space group: P 21
;
_chemical_formula_sum "Si O2"
_cell_formula_units_Z 12
_cell_length_a 10.279274
_cell_length_b 5.546215
_cell_length_c 7.973397
_cell_angle_alpha 90.000000
_cell_angle_beta 106.197491
_cell_angle_gamma 90.000000
_cell_volume 436.528024
_symmetry_space_group_name_H-M "P 21"
_symmetry_group_IT_number 4
_symmetry_cell_setting 'monoclinic'
loop_
_space_group_symop_operation_xyz
x,y,z
-x,1/2+y,-z
loop_
_atom_site_type_symbol
_atom_site_label
_atom_site_fract_x
_atom_site_fract_y
_atom_site_fract_z
Si Si1 0.401966 0.743710 0.129915
Si Si2 0.168713 0.770142 0.544210
Si Si3 0.300431 0.439139 0.825672
Si Si4 0.534625 0.440437 0.419491
Si Si5 0.029336 0.474427 0.241629
Si Si6 0.813804 0.621447 0.910742
O O1 0.551016 0.848680 0.165856
O O2 0.432662 0.487952 0.227614
O O3 0.329377 0.692234 0.929035
O O4 0.301719 0.930341 0.179485
O O5 0.212797 0.507076 0.633716
O O6 0.308384 0.916513 0.575172
O O7 0.094454 0.716224 0.342285
O O8 0.068271 0.879762 0.645827
O O9 0.233291 0.270480 0.940000
O O10 0.504592 0.687933 0.509222
O O11 0.946682 0.497690 0.038501
O O12 0.145795 0.288331 0.229803
#
# Coordination Sequence:
#
# PCOD9119616 Si02
#       6
#     2   2   2   2   2   2
#     4  12  26  48  86 123 168 218 287 368 439 518
#     4  12  28  54  84 125 172 228 289 361 443 526
#     4  12  24  50  84 126 165 221 288 366 449 508
#     4  12  31  53  86 134 172 223 289 374 450 510
#     4  12  29  54  82 122 174 233 292 353 430 538
#     4  12  28  51  84 126 169 231 297 356 435 530
#
# _framework density 27.489646
#
# number of rings (size 3 to 8) (size 9 to 14) (size 15 to 20)
#    0.000    0.000    3.333    5.000    4.667    4.000 
#    0.000    0.000    0.000    0.000    0.000    0.000 
#    0.000    0.000    0.000    0.000    0.000    0.000 
#
# Total GULP energy -67381.012939 kJ/mol
# GULP energy per Si atom -5615.084412 kJ/mol
# Density = 2.742708 g / cm^3
# Si number density = 27.489646 Si / 1000 Ang^3
#
#
#
# Elastic Constant Matrix: (Units=GPa)
#
#
# Indices 1 2 3 4 5 6 
#
# 1 189.7223 66.8007 32.6045 0.0000 -12.3972 0.0000
# 2 66.8007 104.0579 25.2364 0.0000 -7.2791 0.0000
# 3 32.6045 25.2364 108.6705 0.0000 3.1333 0.0000
# 4 0.0000 0.0000 0.0000 70.5239 0.0000 -2.8673
# 5 -12.3972 -7.2791 3.1333 0.0000 44.4636 0.0000
# 6 0.0000 0.0000 0.0000 -2.8673 0.0000 75.9095
#
#
#
# Elastic Compliance Matrix: (Units=1/GPa)
#
#
# Indices 1 2 3 4 5 6 
#
# 1 0.007015 -0.004120 -0.001187 0.000000 0.001365 0.000000
# 2 -0.004120 0.012755 -0.001757 0.000000 0.001063 0.000000
# 3 -0.001187 -0.001757 0.010004 0.000000 -0.001324 0.000000
# 4 0.000000 0.000000 0.000000 0.014201 0.000000 0.000536
# 5 0.001365 0.001063 -0.001324 0.000000 0.023138 0.000000
# 6 0.000000 0.000000 0.000000 0.000536 0.000000 0.013194
#
#
# Mechanical properties :
#
#
# Convention : Reuss Voigt Hill
#
# Bulk Modulus (GPa) = 63.91045 72.41487 68.16266
# Shear Modulus (GPa) = 50.17532 56.70001 53.43766
#
# Velocity S-wave (km/s) = 4.27692 4.54651 4.41377
# Velocity P-wave (km/s) = 6.90571 7.34580 7.12915
#
# Compressibility (1/GPa) = 0.01564689
#
# Stress axis : x y z
#
# Youngs Moduli (GPa) = 142.55956 78.40005 99.95529
#
# Poissons Ratio (x) = 0.32298 0.11867
# Poissons Ratio (y) = 0.58730 0.17559
# Poissons Ratio (z) = 0.16926 0.13773
#
# Static dielectric constant tensor:
#      x y z
#    x 2.093860 0.000000 -0.027510 
#    y 0.000000 2.195230 0.000000 
#    z -0.027510 0.000000 2.208750 
# 
# From -- ./inp_files/5172.got.cif
#   From: 2010.05.17/outbox.cif.g08.bks.cpg/sg4_3_cif.got.tgz:5172.got - 2010.06.03 18:43:04.
