data_PCOD9119780
_publ_section_title
;
Structure prediction by ZEFSAII (Michael W. Deem and Ramdas Pophale) SiO2 
 PCOD9119780
Probable space group: P 21
;
_chemical_formula_sum "Si O2"
_cell_formula_units_Z 6
_cell_length_a 9.078645
_cell_length_b 5.060709
_cell_length_c 5.186087
_cell_angle_alpha 90.000000
_cell_angle_beta 67.531574
_cell_angle_gamma 90.000000
_cell_volume 220.184427
_symmetry_space_group_name_H-M "P 21"
_symmetry_group_IT_number 4
_symmetry_cell_setting 'monoclinic'
loop_
_space_group_symop_operation_xyz
x,y,z
-x,1/2+y,-z
loop_
_atom_site_type_symbol
_atom_site_label
_atom_site_fract_x
_atom_site_fract_y
_atom_site_fract_z
Si Si1 0.850406 0.639600 0.853846
Si Si2 0.793717 0.975899 0.372277
Si Si3 0.401898 0.781170 0.144582
O O1 0.820787 0.794023 0.607511
O O2 0.766876 0.355735 0.876090
O O3 0.038354 0.624604 0.776211
O O4 0.769948 0.787672 0.146046
O O5 0.650488 0.171332 0.542241
O O6 0.500719 0.551762 0.940199
#
# Coordination Sequence:
#
# PCOD9119780 Si02
#       3
#     2   2   2
#     4  12  27  52  86 124 164 222 286 344 409 496
#     4  12  27  52  86 124 164 222 286 344 409 496
#     4  12  28  56  82 128 172 220 272 348 422 504
#
# _framework density 27.249884999999999
#
# number of rings (size 3 to 8) (size 9 to 14) (size 15 to 20)
#    0.000    0.000    6.667    2.000    0.000    0.000 
#   12.000    0.000    0.000    0.000    0.000    0.000 
#    0.000    0.000    0.000    0.000    0.000    0.000 
#
# Total GULP energy -33725.506422 kJ/mol
# GULP energy per Si atom -5620.917737 kJ/mol
# Density = 2.718786 g / cm^3
# Si number density = 27.249885 Si / 1000 Ang^3
#
#
#
# Elastic Constant Matrix: (Units=GPa)
#
#
# Indices 1 2 3 4 5 6 
#
# 1 69.1000 26.1965 38.1038 0.0000 -6.6557 0.0000
# 2 26.1965 161.1143 77.7596 0.0000 -7.7592 0.0000
# 3 38.1038 77.7596 177.8470 0.0000 5.1434 0.0000
# 4 0.0000 0.0000 0.0000 64.1936 0.0000 -11.0633
# 5 -6.6557 -7.7592 5.1434 0.0000 68.0703 0.0000
# 6 0.0000 0.0000 0.0000 -11.0633 0.0000 71.4958
#
#
#
# Elastic Compliance Matrix: (Units=1/GPa)
#
#
# Indices 1 2 3 4 5 6 
#
# 1 0.016810 -0.001123 -0.003161 0.000000 0.001754 0.000000
# 2 -0.001123 0.008034 -0.003303 0.000000 0.001056 0.000000
# 3 -0.003161 -0.003303 0.007781 0.000000 -0.001274 0.000000
# 4 0.000000 0.000000 0.000000 0.016005 0.000000 0.002477
# 5 0.001754 0.001056 -0.001274 0.000000 0.015079 0.000000
# 6 0.000000 0.000000 0.000000 0.002477 0.000000 0.014370
#
#
# Mechanical properties :
#
#
# Convention : Reuss Voigt Hill
#
# Bulk Modulus (GPa) = 57.30312 76.90901 67.10606
# Shear Modulus (GPa) = 50.46976 58.48537 54.47757
#
# Velocity S-wave (km/s) = 4.30828 4.63780 4.47608
# Velocity P-wave (km/s) = 6.76925 7.54744 7.16891
#
# Compressibility (1/GPa) = 0.01745106
#
# Stress axis : x y z
#
# Youngs Moduli (GPa) = 59.48953 124.46779 128.51866
#
# Poissons Ratio (x) = 0.13977 0.40628
# Poissons Ratio (y) = 0.06680 0.42446
# Poissons Ratio (z) = 0.18806 0.41108
#
# Static dielectric constant tensor:
#      x y z
#    x 2.147560 0.000000 -0.018290 
#    y 0.000000 2.115060 0.000000 
#    z -0.018290 0.000000 2.071630 
# 
# From -- ./inp_files/860.got.cif
#   From: 2010.05.17/outbox.cif.g08.bks.cpg/sg4_1_cif.got.tgz:860.got - 2010.06.03 18:43:04.
