data_PCOD9119309
_publ_section_title
;
Structure prediction by ZEFSAII (Michael W. Deem and Ramdas Pophale) SiO2 
 PCOD9119309
Probable space group: P 21
;
_chemical_formula_sum "Si O2"
_cell_formula_units_Z 12
_cell_length_a 12.157711
_cell_length_b 8.242965
_cell_length_c 10.111780
_cell_angle_alpha 90.000000
_cell_angle_beta 146.803527
_cell_angle_gamma 90.000000
_cell_volume 554.825353
_symmetry_space_group_name_H-M "P 21"
_symmetry_group_IT_number 4
_symmetry_cell_setting 'monoclinic'
loop_
_space_group_symop_operation_xyz
x,y,z
-x,1/2+y,-z
loop_
_atom_site_type_symbol
_atom_site_label
_atom_site_fract_x
_atom_site_fract_y
_atom_site_fract_z
Si Si1 0.439681 0.092690 0.294158
Si Si2 0.140868 0.418872 0.283171
Si Si3 0.896367 0.446478 0.542376
Si Si4 0.141529 0.605010 0.007970
Si Si5 0.569846 0.468199 0.442569
Si Si6 0.904366 0.599499 0.267582
O O1 0.506559 0.278654 0.390578
O O2 0.622253 0.964303 0.456849
O O3 0.335399 0.023101 0.322054
O O4 0.295205 0.109780 0.023171
O O5 0.013149 0.254269 0.137510
O O6 0.044000 0.486385 0.319085
O O7 0.109097 0.507556 0.111088
O O8 0.712865 0.468502 0.459777
O O9 0.857884 0.531247 0.364839
O O10 0.078632 0.521838 0.808301
O O11 0.967878 0.263625 0.590899
O O12 0.384722 0.595099 0.242377
#
# Coordination Sequence:
#
# PCOD9119309 Si02
#       6
#     2   2   2   2   2   2
#     4  11  26  48  75 112 152 197 257 319 386 456
#     4  11  25  45  77 110 148 196 258 322 384 451
#     4  12  26  48  72 105 155 206 257 314 381 460
#     4  11  25  45  77 110 148 196 258 322 384 451
#     4  11  26  48  75 112 152 197 257 319 386 456
#     4  12  26  48  72 105 155 206 257 314 381 460
#
# _framework density 21.628428
#
# number of rings (size 3 to 8) (size 9 to 14) (size 15 to 20)
#    0.000    0.667    3.333    3.000   14.000    1.333 
#    6.000    0.000    0.000    0.000    0.000    0.000 
#    0.000    0.000    0.000    0.000    0.000    0.000 
#
# Total GULP energy -66910.155451 kJ/mol
# GULP energy per Si atom -5575.846288 kJ/mol
# Density = 2.157920 g / cm^3
# Si number density = 21.628428 Si / 1000 Ang^3
#
#
#
# Elastic Constant Matrix: (Units=GPa)
#
#
# Indices 1 2 3 4 5 6 
#
# 1 159.8595 43.6012 51.2675 0.0000 -18.2993 0.0000
# 2 43.6012 91.7491 23.8422 0.0000 -7.0673 0.0000
# 3 51.2675 23.8422 89.1351 0.0000 -21.2048 0.0000
# 4 0.0000 0.0000 0.0000 36.7247 0.0000 0.3911
# 5 -18.2993 -7.0673 -21.2048 0.0000 59.9940 0.0000
# 6 0.0000 0.0000 0.0000 0.3911 0.0000 32.2535
#
#
#
# Elastic Compliance Matrix: (Units=1/GPa)
#
#
# Indices 1 2 3 4 5 6 
#
# 1 0.008380 -0.002920 -0.003835 0.000000 0.000857 0.000000
# 2 -0.002920 0.012736 -0.001727 0.000000 -0.000001 0.000000
# 3 -0.003835 -0.001727 0.014805 0.000000 0.003860 0.000000
# 4 0.000000 0.000000 0.000000 0.027233 0.000000 -0.000330
# 5 0.000857 -0.000001 0.003860 0.000000 0.018294 0.000000
# 6 0.000000 0.000000 0.000000 -0.000330 0.000000 0.031008
#
#
# Mechanical properties :
#
#
# Convention : Reuss Voigt Hill
#
# Bulk Modulus (GPa) = 52.75385 64.24061 58.49723
# Shear Modulus (GPa) = 36.83550 40.59663 38.71607
#
# Velocity S-wave (km/s) = 4.13135 4.33714 4.23549
# Velocity P-wave (km/s) = 6.87032 7.40591 7.14314
#
# Compressibility (1/GPa) = 0.01895596
#
# Stress axis : x y z
#
# Youngs Moduli (GPa) = 119.33468 78.51987 67.54502
#
# Poissons Ratio (x) = 0.22925 0.25904
# Poissons Ratio (y) = 0.34842 0.11668
# Poissons Ratio (z) = 0.45765 0.13564
#
# Static dielectric constant tensor:
#      x y z
#    x 1.763430 0.000000 0.076650 
#    y 0.000000 1.909260 0.000000 
#    z 0.076650 0.000000 1.808700 
# 
# From -- ./inp_files/7586.got.cif
#   From: 2010.05.17/outbox.cif.g08.bks.cpg/sg4_4_cif.got.tgz:7586.got - 2010.06.03 18:43:04.
