data_PCOD9119426
_publ_section_title
;
Structure prediction by ZEFSAII (Michael W. Deem and Ramdas Pophale) SiO2 
 PCOD9119426
Probable space group: P 21
;
_chemical_formula_sum "Si O2"
_cell_formula_units_Z 16
_cell_length_a 23.150400
_cell_length_b 4.886186
_cell_length_c 29.022652
_cell_angle_alpha 90.000000
_cell_angle_beta 10.568409
_cell_angle_gamma 90.000000
_cell_volume 602.125604
_symmetry_space_group_name_H-M "P 21"
_symmetry_group_IT_number 4
_symmetry_cell_setting 'monoclinic'
loop_
_space_group_symop_operation_xyz
x,y,z
-x,1/2+y,-z
loop_
_atom_site_type_symbol
_atom_site_label
_atom_site_fract_x
_atom_site_fract_y
_atom_site_fract_z
Si Si1 0.766313 0.302240 0.680065
Si Si2 0.623702 0.989795 0.879448
Si Si3 0.726904 0.613468 0.998671
Si Si4 0.726911 0.916640 0.498666
Si Si5 0.376299 0.040312 0.620551
Si Si6 0.744688 0.713487 0.581499
Si Si7 0.766316 0.227873 0.180063
Si Si8 0.744688 0.816620 0.081499
O O1 0.572150 0.139641 0.871775
O O2 0.490044 0.336193 0.858324
O O3 0.944961 0.582520 0.554472
O O4 0.988520 0.046415 0.602634
O O5 0.449511 0.176757 0.053967
O O6 0.448020 0.408397 0.233584
O O7 0.881919 0.674964 0.927323
O O8 0.999995 0.515050 0.750004
O O9 0.509950 0.693922 0.641681
O O10 0.448039 0.121723 0.733570
O O11 0.881922 0.855131 0.427321
O O12 0.449506 0.353350 0.553970
O O13 0.427846 0.890472 0.628229
O O14 0.011483 0.983685 0.897363
O O15 0.499990 0.515060 0.750009
O O16 0.944959 0.947593 0.054473
#
# Coordination Sequence:
#
# PCOD9119426 Si02
#       8
#     2   2   2   2   2   2   2   2
#     4  12  25  47  72 104 146 189 240 303 362 431
#     4  12  27  47  75 107 146 195 248 302 372 439
#     4  11  26  46  73 107 142 194 244 298 368 439
#     4  11  26  46  73 107 142 194 244 298 368 439
#     4  12  27  47  75 107 146 195 248 302 372 439
#     4  11  26  48  74 103 151 191 241 309 367 435
#     4  12  25  47  72 104 146 189 240 303 362 431
#     4  11  26  48  74 103 151 191 241 309 367 435
#
# _framework density 26.572527999999998
#
# number of rings (size 3 to 8) (size 9 to 14) (size 15 to 20)
#    0.000    0.500    2.500    4.500   10.500    1.000 
#    0.000    0.000    0.000    0.000    0.000    0.000 
#    0.000    0.000    0.000    0.000    0.000    0.000 
#
# Total GULP energy -89482.353330 kJ/mol
# GULP energy per Si atom -5592.647083 kJ/mol
# Density = 2.651205 g / cm^3
# Si number density = 26.572528 Si / 1000 Ang^3
#
#
#
# Elastic Constant Matrix: (Units=GPa)
#
#
# Indices 1 2 3 4 5 6 
#
# 1 92.5537 -7.2759 33.3464 0.0006 10.5090 -0.0006
# 2 -7.2759 54.4902 -5.2566 0.0000 8.7830 0.0000
# 3 33.3464 -5.2566 113.8790 0.0003 23.0486 -0.0004
# 4 0.0006 0.0000 0.0003 41.8221 -0.0003 0.6184
# 5 10.5090 8.7830 23.0486 -0.0003 76.1239 0.0003
# 6 -0.0006 0.0000 -0.0004 0.6184 0.0003 28.4644
#
#
#
# Elastic Compliance Matrix: (Units=1/GPa)
#
#
# Indices 1 2 3 4 5 6 
#
# 1 0.012217 0.001445 -0.003340 0.000000 -0.000842 0.000000
# 2 0.001445 0.019078 0.001005 0.000000 -0.002705 0.000000
# 3 -0.003340 0.001005 0.010371 0.000000 -0.002795 0.000000
# 4 0.000000 0.000000 0.000000 0.023918 0.000000 -0.000520
# 5 -0.000842 -0.002705 -0.002795 0.000000 0.014411 0.000000
# 6 0.000000 0.000000 0.000000 -0.000520 0.000000 0.035143
#
#
# Mechanical properties :
#
#
# Convention : Reuss Voigt Hill
#
# Bulk Modulus (GPa) = 25.07189 33.61675 29.34432
# Shear Modulus (GPa) = 38.39797 45.28935 41.84366
#
# Velocity S-wave (km/s) = 3.80547 4.13288 3.97255
# Velocity P-wave (km/s) = 5.36326 5.95421 5.66645
#
# Compressibility (1/GPa) = 0.03988531
#
# Stress axis : x y z
#
# Youngs Moduli (GPa) = 81.85154 52.41703 96.41813
#
# Poissons Ratio (x) = -0.07573 0.32208
# Poissons Ratio (y) = -0.11826 -0.09690
# Poissons Ratio (z) = 0.27342 -0.05268
#
# Static dielectric constant tensor:
#      x y z
#    x 2.335990 0.000000 0.195870 
#    y 0.000000 1.917030 0.000000 
#    z 0.195870 0.000000 2.115600 
# 
# From -- ./inp_files/14078.got.cif
#   From: 2010.05.17/outbox.cif.g08.bks.cpg/sg4_8_cif.got.tgz:14078.got - 2010.06.03 18:43:04.
