data_PCOD9119274
_publ_section_title
;
Structure prediction by ZEFSAII (Michael W. Deem and Ramdas Pophale) SiO2 
 PCOD9119274
Probable space group: P 21
;
_chemical_formula_sum "Si O2"
_cell_formula_units_Z 14
_cell_length_a 19.685576
_cell_length_b 5.351990
_cell_length_c 14.981456
_cell_angle_alpha 90.000000
_cell_angle_beta 160.988581
_cell_angle_gamma 90.000000
_cell_volume 514.174639
_symmetry_space_group_name_H-M "P 21"
_symmetry_group_IT_number 4
_symmetry_cell_setting 'monoclinic'
loop_
_space_group_symop_operation_xyz
x,y,z
-x,1/2+y,-z
loop_
_atom_site_type_symbol
_atom_site_label
_atom_site_fract_x
_atom_site_fract_y
_atom_site_fract_z
Si Si1 0.870983 0.651890 0.278862
Si Si2 0.815773 0.683983 0.868482
Si Si3 0.722272 0.669293 0.400076
Si Si4 0.738864 0.381075 0.594037
Si Si5 0.484854 0.971051 0.360536
Si Si6 0.184520 0.644851 0.900849
Si Si7 0.311233 0.456830 0.801680
O O1 0.814368 0.397342 0.158010
O O2 0.775393 0.704083 0.257594
O O3 0.965988 0.625029 0.681367
O O4 0.802104 0.896270 0.139498
O O5 0.797065 0.487390 0.764007
O O6 0.686382 0.920317 0.671686
O O7 0.698060 0.593880 0.809581
O O8 0.053103 0.744605 0.182129
O O9 0.696059 0.605622 0.471186
O O10 0.685347 0.929325 0.301311
O O11 0.876184 0.145290 0.406799
O O12 0.536580 0.514119 0.121267
O O13 0.566723 0.164914 0.388864
O O14 0.383195 0.703740 0.209062
#
# Coordination Sequence:
#
# PCOD9119274 Si02
#       7
#     2   2   2   2   2   2   2
#     4  11  25  49  79 116 164 222 283 343 420 504
#     4  12  28  51  83 119 165 215 283 350 433 512
#     4  11  27  46  82 118 166 215 282 350 426 505
#     4  12  28  53  81 126 166 222 284 356 429 517
#     4  12  28  50  83 117 170 218 280 356 428 517
#     4  11  28  47  80 122 164 223 282 343 427 511
#     4  11  24  52  80 120 169 223 284 356 425 512
#
# _framework density 27.228103999999998
#
# number of rings (size 3 to 8) (size 9 to 14) (size 15 to 20)
#    0.000    0.571    2.857    3.429   10.000    1.143 
#    7.714    0.000    0.000    0.000    0.000    0.000 
#    0.000    0.000    0.000    0.000    0.000    0.000 
#
# Total GULP energy -78482.859819 kJ/mol
# GULP energy per Si atom -5605.918558 kJ/mol
# Density = 2.716613 g / cm^3
# Si number density = 27.228104 Si / 1000 Ang^3
#
#
#
# Elastic Constant Matrix: (Units=GPa)
#
#
# Indices 1 2 3 4 5 6 
#
# 1 138.0869 52.6231 65.5893 0.0000 28.4980 0.0000
# 2 52.6231 128.9626 42.0222 0.0000 6.9723 0.0000
# 3 65.5893 42.0222 132.9907 0.0000 24.9359 0.0000
# 4 0.0000 0.0000 0.0000 59.5736 0.0000 -3.3172
# 5 28.4980 6.9723 24.9359 0.0000 44.5768 0.0000
# 6 0.0000 0.0000 0.0000 -3.3172 0.0000 50.8622
#
#
#
# Elastic Compliance Matrix: (Units=1/GPa)
#
#
# Indices 1 2 3 4 5 6 
#
# 1 0.011091 -0.003094 -0.003635 0.000000 -0.004573 0.000000
# 2 -0.003094 0.009509 -0.001755 0.000000 0.001472 0.000000
# 3 -0.003635 -0.001755 0.010478 0.000000 -0.003263 0.000000
# 4 0.000000 0.000000 0.000000 0.016847 0.000000 0.001099
# 5 -0.004573 0.001472 -0.003263 0.000000 0.026952 0.000000
# 6 0.000000 0.000000 0.000000 0.001099 0.000000 0.019733
#
#
# Mechanical properties :
#
#
# Convention : Reuss Voigt Hill
#
# Bulk Modulus (GPa) = 70.86621 80.05662 75.46141
# Shear Modulus (GPa) = 42.99907 46.98955 44.99431
#
# Velocity S-wave (km/s) = 3.97825 4.15875 4.06950
# Velocity P-wave (km/s) = 6.86916 7.24750 7.06086
#
# Compressibility (1/GPa) = 0.01411110
#
# Stress axis : x y z
#
# Youngs Moduli (GPa) = 90.16053 105.16459 95.43516
#
# Poissons Ratio (x) = 0.32539 0.34690
# Poissons Ratio (y) = 0.27897 0.16746
# Poissons Ratio (z) = 0.32773 0.18453
#
# Static dielectric constant tensor:
#      x y z
#    x 2.117320 0.000000 -0.034810 
#    y 0.000000 2.173180 0.000000 
#    z -0.034810 0.000000 2.135100 
# 
# From -- ./inp_files/14411.got.cif
#   From: 2010.05.17/outbox.cif.g08.bks.cpg/sg4_8_cif.got.tgz:14411.got - 2010.06.03 18:43:04.
