data_PCOD9119379
_publ_section_title
;
Structure prediction by ZEFSAII (Michael W. Deem and Ramdas Pophale) SiO2 
 PCOD9119379
Probable space group: P 21
;
_chemical_formula_sum "Si O2"
_cell_formula_units_Z 16
_cell_length_a 15.417208
_cell_length_b 5.267888
_cell_length_c 22.483952
_cell_angle_alpha 90.000000
_cell_angle_beta 19.372933
_cell_angle_gamma 90.000000
_cell_volume 605.732241
_symmetry_space_group_name_H-M "P 21"
_symmetry_group_IT_number 4
_symmetry_cell_setting 'monoclinic'
loop_
_space_group_symop_operation_xyz
x,y,z
-x,1/2+y,-z
loop_
_atom_site_type_symbol
_atom_site_label
_atom_site_fract_x
_atom_site_fract_y
_atom_site_fract_z
Si Si1 0.109599 0.294790 0.459163
Si Si2 0.576602 0.666213 0.240749
Si Si3 0.666352 0.059196 0.085586
Si Si4 0.229267 0.588754 0.219568
Si Si5 0.725912 0.352590 0.930889
Si Si6 0.050524 0.354822 0.903744
Si Si7 0.871047 0.221973 0.379391
Si Si8 0.483491 0.545133 0.547948
O O1 0.420130 0.248999 0.257639
O O2 0.010366 0.573768 0.505730
O O3 0.990241 0.224593 0.599823
O O4 0.326909 0.610381 0.442912
O O5 0.562711 0.806503 0.185951
O O6 0.775052 0.437239 0.107382
O O7 0.748789 0.843150 0.172615
O O8 0.720197 0.120198 0.981104
O O9 0.952009 0.115483 0.929339
O O10 0.093396 0.351536 0.275507
O O11 0.318847 0.758731 0.107097
O O12 0.469136 0.522660 0.107408
O O13 0.985496 0.524051 0.757366
O O14 0.199078 0.538263 0.762579
O O15 0.705915 0.433173 0.449003
O O16 0.471815 0.325605 0.505270
#
# Coordination Sequence:
#
# PCOD9119379 Si02
#       8
#     2   2   2   2   2   2   2   2
#     4  12  30  52  80 118 159 209 278 338 409 485
#     4  11  25  48  78 112 159 201 274 333 414 490
#     4  12  27  46  79 118 154 214 268 338 403 498
#     4  12  27  47  77 111 163 212 270 338 408 490
#     4  12  28  49  76 113 161 215 278 334 413 489
#     4  11  26  47  77 115 154 207 263 337 404 487
#     4  11  27  48  78 112 156 220 258 340 420 483
#     4  11  28  51  77 115 162 206 265 330 401 494
#
# _framework density 26.414313
#
# number of rings (size 3 to 8) (size 9 to 14) (size 15 to 20)
#    0.000    0.500    5.000    0.750   12.250    1.000 
#    0.000    0.000    0.000    0.000    0.000    0.000 
#    0.000    0.000    0.000    0.000    0.000    0.000 
#
# Total GULP energy -89519.262050 kJ/mol
# GULP energy per Si atom -5594.953878 kJ/mol
# Density = 2.635419 g / cm^3
# Si number density = 26.414313 Si / 1000 Ang^3
#
#
#
# Elastic Constant Matrix: (Units=GPa)
#
#
# Indices 1 2 3 4 5 6 
#
# 1 95.1332 27.2587 46.8517 0.0000 21.2161 0.0000
# 2 27.2587 52.5697 20.7231 0.0000 -17.3112 0.0000
# 3 46.8517 20.7231 125.5512 0.0000 -19.3590 0.0000
# 4 0.0000 0.0000 0.0000 40.9509 0.0000 -9.3592
# 5 21.2161 -17.3112 -19.3590 0.0000 31.0521 0.0000
# 6 0.0000 0.0000 0.0000 -9.3592 0.0000 15.8801
#
#
#
# Elastic Compliance Matrix: (Units=1/GPa)
#
#
# Indices 1 2 3 4 5 6 
#
# 1 0.046262 -0.037218 -0.021235 0.000000 -0.065595 0.000000
# 2 -0.037218 0.053723 0.015002 0.000000 0.064732 0.000000
# 3 -0.021235 0.015002 0.018741 0.000000 0.034556 0.000000
# 4 0.000000 0.000000 0.000000 0.028221 0.000000 0.016632
# 5 -0.065595 0.064732 0.034556 0.000000 0.134652 0.000000
# 6 0.000000 0.000000 0.000000 0.016632 0.000000 0.072774
#
#
# Mechanical properties :
#
#
# Convention : Reuss Voigt Hill
#
# Bulk Modulus (GPa) = 31.42133 51.43567 41.42850
# Shear Modulus (GPa) = 11.06482 29.47134 20.26808
#
# Velocity S-wave (km/s) = 2.04891 3.34388 2.77305
# Velocity P-wave (km/s) = 4.18554 5.86717 5.09620
#
# Compressibility (1/GPa) = 0.03182552
#
# Stress axis : x y z
#
# Youngs Moduli (GPa) = 21.61592 18.61400 53.35884
#
# Poissons Ratio (x) = 0.69277 1.13306
# Poissons Ratio (y) = 0.80450 -0.80051
# Poissons Ratio (z) = 0.45901 -0.27925
#
# Static dielectric constant tensor:
#      x y z
#    x 2.184370 0.000000 -0.003180 
#    y 0.000000 2.224640 0.000000 
#    z -0.003180 0.000000 2.035080 
# 
# From -- ./inp_files/7290.got.cif
#   From: 2010.05.17/outbox.cif.g08.bks.cpg/sg4_4_cif.got.tgz:7290.got - 2010.06.03 18:43:04.
