data_PCOD9119622
_publ_section_title
;
Structure prediction by ZEFSAII (Michael W. Deem and Ramdas Pophale) SiO2 
 PCOD9119622
Probable space group: P 21
;
_chemical_formula_sum "Si O2"
_cell_formula_units_Z 10
_cell_length_a 5.608814
_cell_length_b 8.519402
_cell_length_c 9.115371
_cell_angle_alpha 90.000000
_cell_angle_beta 117.702965
_cell_angle_gamma 90.000000
_cell_volume 385.637350
_symmetry_space_group_name_H-M "P 21"
_symmetry_group_IT_number 4
_symmetry_cell_setting 'monoclinic'
loop_
_space_group_symop_operation_xyz
x,y,z
-x,1/2+y,-z
loop_
_atom_site_type_symbol
_atom_site_label
_atom_site_fract_x
_atom_site_fract_y
_atom_site_fract_z
Si Si1 0.517407 0.922590 0.028906
Si Si2 0.750007 0.497112 0.500001
Si Si3 0.083579 0.778876 0.717050
Si Si4 0.017400 0.422591 0.028894
Si Si5 0.416414 0.778868 0.282953
O O1 0.373534 0.794702 0.880170
O O2 0.250008 0.018823 0.000014
O O3 0.606927 0.844459 0.206817
O O4 0.750005 0.996333 0.000008
O O5 0.886499 0.391591 0.413901
O O6 0.528736 0.613653 0.366341
O O7 0.613526 0.391577 0.586099
O O8 0.971262 0.613660 0.633662
O O9 0.893076 0.844468 0.793192
O O10 0.873538 0.294692 0.880170
#
# Coordination Sequence:
#
# PCOD9119622 Si02
#       5
#     2   2   2   2   2
#     4   8  20  50  70 112 140 214 238 318 352 482
#     4  12  24  52  68 124 138 212 226 348 346 478
#     4   9  26  44  78 103 160 184 266 289 402 418
#     4   8  20  50  70 112 140 214 238 318 352 482
#     4   9  26  44  78 103 160 184 266 289 402 418
#
# _framework density 25.931096
#
# number of rings (size 3 to 8) (size 9 to 14) (size 15 to 20)
#    2.400    0.000    0.000    0.000    5.600    1.600 
#   14.400    0.000    0.000    0.000    0.000    0.000 
#    0.000    0.000    0.000    0.000    0.000    0.000 
#
# Total GULP energy -55835.736570 kJ/mol
# GULP energy per Si atom -5583.573657 kJ/mol
# Density = 2.587208 g / cm^3
# Si number density = 25.931096 Si / 1000 Ang^3
#
#
#
# Elastic Constant Matrix: (Units=GPa)
#
#
# Indices 1 2 3 4 5 6 
#
# 1 168.7072 66.8687 59.0696 0.0000 -46.1618 0.0000
# 2 66.8687 111.9815 70.0142 0.0000 -8.2635 0.0000
# 3 59.0696 70.0142 198.1454 0.0000 -29.6913 0.0000
# 4 0.0000 0.0000 0.0000 38.9539 0.0000 11.9705
# 5 -46.1618 -8.2635 -29.6913 0.0000 54.3015 0.0000
# 6 0.0000 0.0000 0.0000 11.9705 0.0000 33.7162
#
#
#
# Elastic Compliance Matrix: (Units=1/GPa)
#
#
# Indices 1 2 3 4 5 6 
#
# 1 0.010298 -0.005633 0.000113 0.000000 0.007959 0.000000
# 2 -0.005633 0.014556 -0.004193 0.000000 -0.004866 0.000000
# 3 0.000113 -0.004193 0.006986 0.000000 0.003278 0.000000
# 4 0.000000 0.000000 0.000000 0.028815 0.000000 -0.010230
# 5 0.007959 -0.004866 0.003278 0.000000 0.026233 0.000000
# 6 0.000000 0.000000 0.000000 -0.010230 0.000000 0.033291
#
#
# Mechanical properties :
#
#
# Convention : Reuss Voigt Hill
#
# Bulk Modulus (GPa) = 80.55357 96.74877 88.65117
# Shear Modulus (GPa) = 34.78369 44.25310 39.51839
#
# Velocity S-wave (km/s) = 3.66647 4.13554 3.90805
# Velocity P-wave (km/s) = 7.00399 7.75851 7.39089
#
# Compressibility (1/GPa) = 0.01241410
#
# Stress axis : x y z
#
# Youngs Moduli (GPa) = 97.10336 68.69828 143.14291
#
# Poissons Ratio (x) = 0.38696 -0.01617
# Poissons Ratio (y) = 0.54697 0.60026
# Poissons Ratio (z) = -0.01097 0.28808
#
# Static dielectric constant tensor:
#      x y z
#    x 2.070280 0.000000 0.087320 
#    y 0.000000 1.976610 0.000000 
#    z 0.087320 0.000000 2.035770 
# 
# From -- ./inp_files/4489.got.cif
#   From: 2010.05.17/outbox.cif.g08.bks.cpg/sg4_3_cif.got.tgz:4489.got - 2010.06.03 18:43:04.
