data_PCOD9119138
_publ_section_title
;
Structure prediction by ZEFSAII (Michael W. Deem and Ramdas Pophale) SiO2 
 PCOD9119138
Probable space group: P 21
;
_chemical_formula_sum "Si O2"
_cell_formula_units_Z 16
_cell_length_a 9.457262
_cell_length_b 15.224490
_cell_length_c 9.042552
_cell_angle_alpha 90.000000
_cell_angle_beta 30.898270
_cell_angle_gamma 90.000000
_cell_volume 668.578818
_symmetry_space_group_name_H-M "P 21"
_symmetry_group_IT_number 4
_symmetry_cell_setting 'monoclinic'
loop_
_space_group_symop_operation_xyz
x,y,z
-x,1/2+y,-z
loop_
_atom_site_type_symbol
_atom_site_label
_atom_site_fract_x
_atom_site_fract_y
_atom_site_fract_z
Si Si1 0.353640 0.575860 0.426150
Si Si2 0.120138 0.372674 0.034099
Si Si3 0.669871 0.397948 0.681723
Si Si4 0.083862 0.198477 0.599191
Si Si5 0.219204 0.064590 0.215309
Si Si6 0.613627 0.728046 0.377147
Si Si7 0.661647 0.403285 0.233277
Si Si8 0.441035 0.796540 0.943825
O O1 0.418731 0.659471 0.470215
O O2 0.474493 0.488968 0.396600
O O3 0.038363 0.563280 0.664825
O O4 0.519857 0.585838 0.121781
O O5 0.929001 0.375156 0.349300
O O6 0.946861 0.419033 0.060548
O O7 0.408439 0.418361 0.813374
O O8 0.183140 0.273967 0.922897
O O9 0.733778 0.476171 0.734936
O O10 0.576677 0.317676 0.868747
O O11 0.151041 0.131899 0.408501
O O12 0.220776 0.183271 0.636350
O O13 0.248139 0.284426 0.390959
O O14 0.759837 0.214567 0.907257
O O15 0.461494 0.814818 0.579557
O O16 0.691623 0.372631 0.037482
#
# Coordination Sequence:
#
# PCOD9119138 Si02
#       8
#     2   2   2   2   2   2   2   2
#     4  12  30  48  78 108 158 194 261 312 375 457
#     4  12  26  45  76 107 149 193 254 300 375 450
#     4  12  27  45  74 106 149 191 253 298 375 445
#     4  11  26  45  73 101 152 183 253 299 380 437
#     4  12  29  51  70 115 147 201 251 315 376 444
#     4  11  28  49  76 118 146 206 248 313 384 446
#     4  11  26  52  76 112 153 201 250 311 388 448
#     4  11  24  45  73 101 140 205 234 306 371 447
#
# _framework density 23.931359
#
# number of rings (size 3 to 8) (size 9 to 14) (size 15 to 20)
#    0.000    0.500    3.750    2.250   14.000    0.000 
#    0.000    1.250    0.000    0.000    0.000    0.000 
#    0.000    0.000    0.000    0.000    0.000    0.000 
#
# Total GULP energy -89590.805444 kJ/mol
# GULP energy per Si atom -5599.425340 kJ/mol
# Density = 2.387689 g / cm^3
# Si number density = 23.931359 Si / 1000 Ang^3
#
#
#
# Elastic Constant Matrix: (Units=GPa)
#
#
# Indices 1 2 3 4 5 6 
#
# 1 127.3042 49.5005 8.5518 0.0000 -8.6244 0.0000
# 2 49.5005 78.7954 11.7636 0.0000 6.4059 0.0000
# 3 8.5518 11.7636 86.7547 0.0000 -4.2669 0.0000
# 4 0.0000 0.0000 0.0000 28.1019 0.0000 9.8268
# 5 -8.6244 6.4059 -4.2669 0.0000 40.0747 0.0000
# 6 0.0000 0.0000 0.0000 9.8268 0.0000 52.2512
#
#
#
# Elastic Compliance Matrix: (Units=1/GPa)
#
#
# Indices 1 2 3 4 5 6 
#
# 1 0.010851 -0.007109 0.000065 0.000000 0.003479 0.000000
# 2 -0.007109 0.017820 -0.001941 0.000000 -0.004585 0.000000
# 3 0.000065 -0.001941 0.011862 0.000000 0.001587 0.000000
# 4 0.000000 0.000000 0.000000 0.038090 0.000000 -0.007163
# 5 0.003479 -0.004585 0.001587 0.000000 0.026604 0.000000
# 6 0.000000 0.000000 0.000000 -0.007163 0.000000 0.020486
#
#
# Mechanical properties :
#
#
# Convention : Reuss Voigt Hill
#
# Bulk Modulus (GPa) = 44.32118 48.05403 46.18761
# Shear Modulus (GPa) = 33.06842 38.95478 36.01160
#
# Velocity S-wave (km/s) = 3.72129 4.03894 3.88337
# Velocity P-wave (km/s) = 6.08477 6.47103 6.28087
#
# Compressibility (1/GPa) = 0.02256257
#
# Stress axis : x y z
#
# Youngs Moduli (GPa) = 92.15929 56.11751 84.30590
#
# Poissons Ratio (x) = 0.39895 -0.00552
# Poissons Ratio (y) = 0.65518 0.16364
# Poissons Ratio (z) = -0.00603 0.10892
#
# Static dielectric constant tensor:
#      x y z
#    x 1.913680 0.000000 0.007210 
#    y 0.000000 1.968570 0.000000 
#    z 0.007210 0.000000 1.905280 
# 
# From -- ./inp_files/6947.got.cif
#   From: 2010.05.17/outbox.cif.g08.bks.cpg/sg4_4_cif.got.tgz:6947.got - 2010.06.03 18:43:04.
