data_PCOD9119284
_publ_section_title
;
Structure prediction by ZEFSAII (Michael W. Deem and Ramdas Pophale) SiO2 
 PCOD9119284
Probable space group: P 21
;
_chemical_formula_sum "Si O2"
_cell_formula_units_Z 10
_cell_length_a 13.655619
_cell_length_b 5.085947
_cell_length_c 12.416624
_cell_angle_alpha 90.000000
_cell_angle_beta 156.248114
_cell_angle_gamma 90.000000
_cell_volume 347.337136
_symmetry_space_group_name_H-M "P 21"
_symmetry_group_IT_number 4
_symmetry_cell_setting 'monoclinic'
loop_
_space_group_symop_operation_xyz
x,y,z
-x,1/2+y,-z
loop_
_atom_site_type_symbol
_atom_site_label
_atom_site_fract_x
_atom_site_fract_y
_atom_site_fract_z
Si Si1 0.042635 0.671440 0.209459
Si Si2 0.748858 0.175053 0.986630
Si Si3 0.798821 0.846360 0.242765
Si Si4 0.696005 0.130489 0.326356
Si Si5 0.590611 0.861080 0.534409
O O1 0.278342 0.703926 0.523845
O O2 0.157394 0.521805 0.222778
O O3 0.896279 0.444096 0.123628
O O4 0.892273 0.939896 0.067476
O O5 0.733148 0.084064 0.093687
O O6 0.504647 0.239232 0.674073
O O7 0.766321 0.860855 0.338504
O O8 0.079709 0.790544 0.501589
O O9 0.579756 0.660274 0.986461
O O10 0.588752 0.598155 0.606517
#
# Coordination Sequence:
#
# PCOD9119284 Si02
#       5
#     2   2   2   2   2
#     4  11  27  48  79 111 156 202 260 326 400 478
#     4  11  27  48  79 111 156 202 260 326 400 478
#     4  11  25  43  75 115 160 207 257 315 389 477
#     4  11  25  43  75 115 160 207 257 315 389 477
#     4  12  28  48  82 110 154 202 272 340 408 472
#
# _framework density 28.790472999999999
#
# number of rings (size 3 to 8) (size 9 to 14) (size 15 to 20)
#    0.000    0.800    0.000    4.800   16.800    3.200 
#    0.000    0.000    0.000    0.000    0.000    0.000 
#    0.000    0.000    0.000    0.000    0.000    0.000 
#
# Total GULP energy -55897.023594 kJ/mol
# GULP energy per Si atom -5589.702359 kJ/mol
# Density = 2.872494 g / cm^3
# Si number density = 28.790473 Si / 1000 Ang^3
#
#
#
# Elastic Constant Matrix: (Units=GPa)
#
#
# Indices 1 2 3 4 5 6 
#
# 1 85.6066 23.3636 32.6603 0.0000 9.4596 0.0000
# 2 23.3636 172.0502 64.9353 0.0000 26.6325 0.0000
# 3 32.6603 64.9353 108.4970 0.0000 14.8357 0.0000
# 4 0.0000 0.0000 0.0000 63.0908 0.0000 21.1638
# 5 9.4596 26.6325 14.8357 0.0000 47.7898 0.0000
# 6 0.0000 0.0000 0.0000 21.1638 0.0000 56.5371
#
#
#
# Elastic Compliance Matrix: (Units=1/GPa)
#
#
# Indices 1 2 3 4 5 6 
#
# 1 0.013298 -0.000198 -0.003697 0.000000 -0.001374 0.000000
# 2 -0.000198 0.007921 -0.004264 0.000000 -0.003051 0.000000
# 3 -0.003697 -0.004264 0.013009 0.000000 -0.000931 0.000000
# 4 0.000000 0.000000 0.000000 0.018126 0.000000 -0.006785
# 5 -0.001374 -0.003051 -0.000931 0.000000 0.023186 0.000000
# 6 0.000000 0.000000 0.000000 -0.006785 0.000000 0.020227
#
#
# Mechanical properties :
#
#
# Convention : Reuss Voigt Hill
#
# Bulk Modulus (GPa) = 55.83281 67.56355 61.69818
# Shear Modulus (GPa) = 42.35372 49.82983 46.09178
#
# Velocity S-wave (km/s) = 3.83966 4.16477 4.00551
# Velocity P-wave (km/s) = 6.25237 6.82974 6.54743
#
# Compressibility (1/GPa) = 0.01791062
#
# Stress axis : x y z
#
# Youngs Moduli (GPa) = 75.20210 126.25207 76.87182
#
# Poissons Ratio (x) = 0.02498 0.28416
# Poissons Ratio (y) = 0.01488 0.32776
# Poissons Ratio (z) = 0.27799 0.53830
#
# Static dielectric constant tensor:
#      x y z
#    x 2.397000 0.000000 -0.164930 
#    y 0.000000 2.292670 0.000000 
#    z -0.164930 0.000000 2.332860 
# 
# From -- ./inp_files/3245.got.cif
#   From: 2010.05.17/outbox.cif.g08.bks.cpg/sg4_2_cif.got.tgz:3245.got - 2010.06.03 18:43:04.
