data_PCOD9119576
_publ_section_title
;
Structure prediction by ZEFSAII (Michael W. Deem and Ramdas Pophale) SiO2 
 PCOD9119576
Probable space group: P 21
;
_chemical_formula_sum "Si O2"
_cell_formula_units_Z 16
_cell_length_a 13.309474
_cell_length_b 5.422602
_cell_length_c 11.007255
_cell_angle_alpha 90.000000
_cell_angle_beta 124.874914
_cell_angle_gamma 90.000000
_cell_volume 651.740216
_symmetry_space_group_name_H-M "P 21"
_symmetry_group_IT_number 4
_symmetry_cell_setting 'monoclinic'
loop_
_space_group_symop_operation_xyz
x,y,z
-x,1/2+y,-z
loop_
_atom_site_type_symbol
_atom_site_label
_atom_site_fract_x
_atom_site_fract_y
_atom_site_fract_z
Si Si1 0.711702 0.241210 0.396545
Si Si2 0.078269 0.046112 0.041439
Si Si3 0.019896 0.745351 0.442635
Si Si4 0.530418 0.898809 0.389884
Si Si5 0.299138 0.086777 0.379863
Si Si6 0.185635 0.296342 0.887797
Si Si7 0.630144 0.501443 0.109558
Si Si8 0.398022 0.630499 0.103359
O O1 0.713135 0.456521 0.498450
O O2 0.700261 0.324926 0.249974
O O3 0.847794 0.135456 0.503771
O O4 0.589460 0.084073 0.334729
O O5 0.180749 0.060058 0.216840
O O6 0.143241 0.093865 0.956844
O O7 0.989058 0.282542 0.998774
O O8 0.938503 0.842176 0.273107
O O9 0.962194 0.499930 0.466932
O O10 0.650961 0.857791 0.555422
O O11 0.473897 0.666229 0.278606
O O12 0.416952 0.985322 0.389718
O O13 0.281949 0.233032 0.846709
O O14 0.268563 0.492420 0.019861
O O15 0.496755 0.526377 0.075138
O O16 0.625022 0.397317 0.970584
#
# Coordination Sequence:
#
# PCOD9119576 Si02
#       8
#     2   2   2   2   2   2   2   2
#     4  12  27  48  78 114 159 207 266 337 404 484
#     4  12  33  57  83 116 159 220 280 334 400 483
#     4  12  29  51  80 116 163 214 272 328 404 490
#     4  12  28  47  80 118 158 211 271 338 413 487
#     4  12  28  50  82 112 159 212 270 341 408 481
#     4  12  29  50  78 112 163 210 264 339 400 490
#     4  12  24  45  71 115 153 200 253 326 411 476
#     4  12  26  44  76 113 160 204 262 325 410 489
#
# _framework density 24.549662000000001
#
# number of rings (size 3 to 8) (size 9 to 14) (size 15 to 20)
#    0.000    0.000    5.000    3.000   14.000    0.000 
#    0.000    0.000    0.000    0.000    0.000    0.000 
#    0.000    0.000    0.000    0.000    0.000    0.000 
#
# Total GULP energy -89357.060389 kJ/mol
# GULP energy per Si atom -5584.816274 kJ/mol
# Density = 2.449379 g / cm^3
# Si number density = 24.549662 Si / 1000 Ang^3
#
#
#
# Elastic Constant Matrix: (Units=GPa)
#
#
# Indices 1 2 3 4 5 6 
#
# 1 73.0474 5.9279 -5.0660 0.0000 8.5114 0.0000
# 2 5.9279 47.8893 4.4076 0.0000 10.6103 0.0000
# 3 -5.0660 4.4076 135.5554 0.0000 18.8900 0.0000
# 4 0.0000 0.0000 0.0000 34.7896 0.0000 5.5044
# 5 8.5114 10.6103 18.8900 0.0000 27.9904 0.0000
# 6 0.0000 0.0000 0.0000 5.5044 0.0000 44.9738
#
#
#
# Elastic Compliance Matrix: (Units=1/GPa)
#
#
# Indices 1 2 3 4 5 6 
#
# 1 0.014416 -0.000809 0.001251 0.000000 -0.004921 0.000000
# 2 -0.000809 0.022874 0.000442 0.000000 -0.008723 0.000000
# 3 0.001251 0.000442 0.008263 0.000000 -0.006124 0.000000
# 4 0.000000 0.000000 0.000000 0.029312 0.000000 -0.003588
# 5 -0.004921 -0.008723 -0.006124 0.000000 0.044662 0.000000
# 6 0.000000 0.000000 0.000000 -0.003588 0.000000 0.022674
#
#
# Mechanical properties :
#
#
# Convention : Reuss Voigt Hill
#
# Bulk Modulus (GPa) = 21.13352 29.67011 25.40182
# Shear Modulus (GPa) = 32.00877 38.29891 35.15384
#
# Velocity S-wave (km/s) = 3.61479 3.95404 3.78821
# Velocity P-wave (km/s) = 5.10386 5.74090 5.43173
#
# Compressibility (1/GPa) = 0.04731819
#
# Stress axis : x y z
#
# Youngs Moduli (GPa) = 69.36954 43.71847 121.02346
#
# Poissons Ratio (x) = 0.03538 -0.15138
# Poissons Ratio (y) = 0.05614 -0.05344
# Poissons Ratio (z) = -0.08677 -0.01930
#
# Static dielectric constant tensor:
#      x y z
#    x 2.004000 0.000000 -0.066910 
#    y 0.000000 2.103230 0.000000 
#    z -0.066910 0.000000 2.057340 
# 
# From -- ./inp_files/11582.got.cif
#   From: 2010.05.17/outbox.cif.g08.bks.cpg/sg4_6_cif.got.tgz:11582.got - 2010.06.03 18:43:04.
