data_PCOD9119726
_publ_section_title
;
Structure prediction by ZEFSAII (Michael W. Deem and Ramdas Pophale) SiO2 
 PCOD9119726
Probable space group: P 21
;
_chemical_formula_sum "Si O2"
_cell_formula_units_Z 14
_cell_length_a 8.971533
_cell_length_b 13.389673
_cell_length_c 8.592529
_cell_angle_alpha 90.000000
_cell_angle_beta 31.180848
_cell_angle_gamma 90.000000
_cell_volume 534.404672
_symmetry_space_group_name_H-M "P 21"
_symmetry_group_IT_number 4
_symmetry_cell_setting 'monoclinic'
loop_
_space_group_symop_operation_xyz
x,y,z
-x,1/2+y,-z
loop_
_atom_site_type_symbol
_atom_site_label
_atom_site_fract_x
_atom_site_fract_y
_atom_site_fract_z
Si Si1 0.011724 0.317080 0.814467
Si Si2 0.817747 0.127061 0.600580
Si Si3 0.509829 0.196365 0.418899
Si Si4 0.405165 0.835941 0.087357
Si Si5 0.732024 0.624474 0.068677
Si Si6 0.970921 0.940420 0.659960
Si Si7 0.174919 0.493319 0.863862
O O1 0.799082 0.362759 0.875838
O O2 0.243738 0.234376 0.552156
O O3 0.211190 0.400770 0.715361
O O4 0.792137 0.260252 0.127010
O O5 0.667012 0.220313 0.818848
O O6 0.548968 0.074375 0.754423
O O7 0.949168 0.048888 0.601634
O O8 0.050809 0.157361 0.261659
O O9 0.403454 0.206045 0.692884
O O10 0.588217 0.079958 0.326434
O O11 0.278698 0.895160 0.347356
O O12 0.734007 0.868952 0.788312
O O13 0.913619 0.552658 0.016138
O O14 0.911587 0.950110 0.893506
#
# Coordination Sequence:
#
# PCOD9119726 Si02
#       7
#     2   2   2   2   2   2   2
#     4  12  28  49  81 107 159 202 254 320 382 459
#     4  12  26  49  76 106 158 198 248 317 381 456
#     4  12  27  47  79 113 145 200 262 306 386 445
#     4  12  29  50  75 114 151 202 254 305 395 450
#     4  12  26  48  77 105 151 199 251 307 385 447
#     4  12  29  47  77 113 150 197 255 314 379 460
#     4  12  29  48  81 112 156 194 264 317 382 451
#
# _framework density 26.197374
#
# number of rings (size 3 to 8) (size 9 to 14) (size 15 to 20)
#    0.000    0.000    2.857    5.143   10.000    1.143 
#    0.000    0.000    0.000    0.000    0.000    0.000 
#    0.000    0.000    0.000    0.000    0.000    0.000 
#
# Total GULP energy -78507.815300 kJ/mol
# GULP energy per Si atom -5607.701093 kJ/mol
# Density = 2.613775 g / cm^3
# Si number density = 26.197374 Si / 1000 Ang^3
#
#
#
# Elastic Constant Matrix: (Units=GPa)
#
#
# Indices 1 2 3 4 5 6 
#
# 1 77.6541 19.2456 -2.9061 0.0000 3.4181 0.0000
# 2 19.2456 117.2737 19.8320 0.0000 4.2373 0.0000
# 3 -2.9061 19.8320 111.0840 0.0000 -6.2237 0.0000
# 4 0.0000 0.0000 0.0000 38.1279 0.0000 -5.3033
# 5 3.4181 4.2373 -6.2237 0.0000 39.5813 0.0000
# 6 0.0000 0.0000 0.0000 -5.3033 0.0000 44.9167
#
#
#
# Elastic Compliance Matrix: (Units=1/GPa)
#
#
# Indices 1 2 3 4 5 6 
#
# 1 0.013513 -0.002310 0.000721 0.000000 -0.000806 0.000000
# 2 -0.002310 0.009244 -0.001771 0.000000 -0.001069 0.000000
# 3 0.000721 -0.001771 0.009427 0.000000 0.001610 0.000000
# 4 0.000000 0.000000 0.000000 0.026665 0.000000 0.003148
# 5 -0.000806 -0.001069 0.001610 0.000000 0.025702 0.000000
# 6 0.000000 0.000000 0.000000 0.003148 0.000000 0.022635
#
#
# Mechanical properties :
#
#
# Convention : Reuss Voigt Hill
#
# Bulk Modulus (GPa) = 39.27134 42.03943 40.65538
# Shear Modulus (GPa) = 40.85142 42.51454 41.68298
#
# Velocity S-wave (km/s) = 3.95317 4.03284 3.99320
# Velocity P-wave (km/s) = 5.98831 6.14549 6.06741
#
# Compressibility (1/GPa) = 0.02546386
#
# Stress axis : x y z
#
# Youngs Moduli (GPa) = 74.00468 108.17535 106.07414
#
# Poissons Ratio (x) = 0.24992 -0.07646
# Poissons Ratio (y) = 0.17097 0.18783
# Poissons Ratio (z) = -0.05334 0.19155
#
# Static dielectric constant tensor:
#      x y z
#    x 2.090170 0.000000 0.024590 
#    y 0.000000 2.088430 0.000000 
#    z 0.024590 0.000000 2.007230 
# 
# From -- ./inp_files/6525.got.cif
#   From: 2010.05.17/outbox.cif.g08.bks.cpg/sg4_4_cif.got.tgz:6525.got - 2010.06.03 18:43:04.
