data_PCOD9120370
_publ_section_title
;
Structure prediction by ZEFSAII (Michael W. Deem and Ramdas Pophale) SiO2 
 PCOD9120370
Probable space group: C 2
;
_chemical_formula_sum "Si O2"
_cell_formula_units_Z 30
_cell_length_a 8.627667
_cell_length_b 17.538459
_cell_length_c 11.979995
_cell_angle_alpha 90.000000
_cell_angle_beta 129.748363
_cell_angle_gamma 90.000000
_cell_volume 1393.762475
_symmetry_space_group_name_H-M "C 2"
_symmetry_group_IT_number 5
_symmetry_cell_setting 'monoclinic'
loop_
_space_group_symop_operation_xyz
x,y,z
-x,y,-z
1/2+x,1/2+y,z
1/2-x,1/2+y,-z
loop_
_atom_site_type_symbol
_atom_site_label
_atom_site_fract_x
_atom_site_fract_y
_atom_site_fract_z
Si Si1 0.338493 0.816870 0.707854
Si Si2 0.300460 0.659256 0.827805
Si Si3 0.000000 0.165132 0.500000
Si Si4 0.540398 0.582305 0.289469
Si Si5 0.330891 0.162589 0.006311
Si Si6 0.785203 0.308385 0.426464
Si Si7 0.709040 0.343334 0.036966
Si Si8 0.901808 0.909581 0.232366
O O1 0.306966 0.743121 0.774022
O O2 0.265410 0.797264 0.550283
O O3 0.211309 0.883353 0.708033
O O4 0.572995 0.841284 0.803650
O O5 0.284054 0.599595 0.718972
O O6 0.500000 0.655150 0.000000
O O7 0.139117 0.641907 0.850321
O O8 0.936969 0.117304 0.577856
O O9 0.178319 0.225602 0.612267
O O10 0.366689 0.629734 0.145251
O O11 0.477978 0.495269 0.269907
O O12 0.500000 0.135932 0.000000
O O13 0.322817 0.254247 0.004836
O O14 0.593919 0.354753 0.300494
O O15 0.000000 0.348650 0.500000
O O16 0.736806 0.392808 0.938267
O O17 0.500000 0.369374 0.000000
#
# Coordination Sequence:
#
# PCOD9120370 Si02
#       8
#     4   4   2   4   4   4   4   4
#     4  12  20  41  66 100 131 178 227 278 337 414
#     4  10  17  38  65  90 129 172 219 271 331 405
#     4  10  22  42  74  84 134 184 232 262 336 426
#     4  11  24  41  65  98 136 176 215 292 345 393
#     4  10  21  37  66  96 132 174 229 275 338 404
#     4  10  23  43  69  91 127 184 233 265 333 424
#     4  11  22  38  68  99 133 178 228 277 333 410
#     4  12  26  39  68 106 135 166 226 290 350 385
#
# _framework density 21.524470999999998
#
# number of rings (size 3 to 8) (size 9 to 14) (size 15 to 20)
#    0.400    0.800    5.333    1.600    5.600    2.667 
#    0.000    1.333    2.933    0.000    0.000    0.000 
#    0.000    0.000    0.000    0.000    0.000    0.000 
#
# Total GULP energy -83666.351398 kJ/mol
# GULP energy per Si atom -5577.756760 kJ/mol
# Density = 2.147548 g / cm^3
# Si number density = 21.524471 Si / 1000 Ang^3
#
#
#
# Elastic Constant Matrix: (Units=GPa)
#
#
# Indices 1 2 3 4 5 6 
#
# 1 97.6601 19.0175 17.6433 0.0000 -30.1749 0.0000
# 2 19.0175 92.8160 17.5778 0.0000 -11.4637 0.0000
# 3 17.6433 17.5778 58.9365 0.0000 -23.5951 0.0000
# 4 0.0000 0.0000 0.0000 18.3633 0.0000 -3.3275
# 5 -30.1749 -11.4637 -23.5951 0.0000 40.1265 0.0000
# 6 0.0000 0.0000 0.0000 -3.3275 0.0000 20.6223
#
#
#
# Elastic Compliance Matrix: (Units=1/GPa)
#
#
# Indices 1 2 3 4 5 6 
#
# 1 0.013565 -0.001626 0.000421 0.000000 0.009984 0.000000
# 2 -0.001626 0.011698 -0.002817 0.000000 0.000463 0.000000
# 3 0.000421 -0.002817 0.022870 0.000000 0.012960 0.000000
# 4 0.000000 0.000000 0.000000 0.056097 0.000000 0.009052
# 5 0.009984 0.000463 0.012960 0.000000 0.040182 0.000000
# 6 0.000000 0.000000 0.000000 0.009052 0.000000 0.049952
#
#
# Mechanical properties :
#
#
# Convention : Reuss Voigt Hill
#
# Bulk Modulus (GPa) = 24.94431 39.76553 32.35492
# Shear Modulus (GPa) = 23.17291 28.83403 26.00347
#
# Velocity S-wave (km/s) = 3.28469 3.66402 3.47953
# Velocity P-wave (km/s) = 5.09898 6.03446 5.58634
#
# Compressibility (1/GPa) = 0.04008931
#
# Stress axis : x y z
#
# Youngs Moduli (GPa) = 73.71928 85.48625 43.72562
#
# Poissons Ratio (x) = 0.13900 -0.01842
# Poissons Ratio (y) = 0.11987 0.12317
# Poissons Ratio (z) = -0.03105 0.24080
#
# Static dielectric constant tensor:
#      x y z
#    x 2.078200 0.000000 0.028090 
#    y 0.000000 1.737220 0.000000 
#    z 0.028090 0.000000 1.788170 
# 
# From -- ./inp_files/37015.got.cif
#   From: 2010.05.17/outbox.cif.g08.bks.cpg/sg5_19_cif.got.tgz:37015.got - 2010.06.03 18:56:24.
