data_PCOD9120043
_publ_section_title
;
Structure prediction by ZEFSAII (Michael W. Deem and Ramdas Pophale) SiO2 
 PCOD9120043
Probable space group: C 2
;
_chemical_formula_sum "Si O2"
_cell_formula_units_Z 24
_cell_length_a 15.060866
_cell_length_b 11.749462
_cell_length_c 7.048693
_cell_angle_alpha 90.000000
_cell_angle_beta 119.575149
_cell_angle_gamma 90.000000
_cell_volume 1084.802128
_symmetry_space_group_name_H-M "C 2"
_symmetry_group_IT_number 5
_symmetry_cell_setting 'monoclinic'
loop_
_space_group_symop_operation_xyz
x,y,z
-x,y,-z
1/2+x,1/2+y,z
1/2-x,1/2+y,-z
loop_
_atom_site_type_symbol
_atom_site_label
_atom_site_fract_x
_atom_site_fract_y
_atom_site_fract_z
Si Si1 0.437944 0.756350 0.611401
Si Si2 0.330776 0.383867 0.686261
Si Si3 0.754350 0.490329 0.068599
Si Si4 0.276357 0.160204 0.790115
Si Si5 0.020133 0.018070 0.743247
Si Si6 0.677278 0.908110 0.227012
O O1 0.500000 0.807866 0.500000
O O2 0.334751 0.696688 0.412257
O O3 0.495100 0.652268 0.237875
O O4 0.408291 0.842771 0.746171
O O5 0.344970 0.267746 0.815645
O O6 0.432058 0.454175 0.762733
O O7 0.281332 0.359842 0.429260
O O8 0.244057 0.454854 0.712147
O O9 0.775209 0.616819 0.007801
O O10 0.633814 0.477635 0.900637
O O11 0.817145 0.405832 0.996099
O O12 0.315695 0.044541 0.733356
O O13 0.000000 0.001347 0.500000
#
# Coordination Sequence:
#
# PCOD9120043 Si02
#       6
#     4   4   4   4   4   4
#     4  10  16  32  63  78 109 143 178 230 272 314
#     4  11  20  33  58  81 111 148 176 224 280 311
#     4  10  20  36  55  82 109 142 183 225 262 321
#     4   9  19  37  53  81 114 137 185 225 258 338
#     4  11  17  35  55  85 109 136 184 229 265 317
#     4   9  19  36  55  79 114 140 181 225 268 323
#
# _framework density 22.123850000000001
#
# number of rings (size 3 to 8) (size 9 to 14) (size 15 to 20)
#    1.000    1.000    6.667    0.500    0.000    1.333 
#    0.000    0.833    0.000    4.000    0.000    0.000 
#    0.000    0.000    0.000    0.000    0.000    0.000 
#
# Total GULP energy -66866.032729 kJ/mol
# GULP energy per Si atom -5572.169394 kJ/mol
# Density = 2.207349 g / cm^3
# Si number density = 22.123850 Si / 1000 Ang^3
#
#
#
# Elastic Constant Matrix: (Units=GPa)
#
#
# Indices 1 2 3 4 5 6 
#
# 1 95.8795 42.0154 21.0058 0.0000 -41.3665 0.0000
# 2 42.0154 92.7307 12.5572 0.0000 -28.4988 0.0000
# 3 21.0058 12.5572 67.4916 0.0000 -21.3142 0.0000
# 4 0.0000 0.0000 0.0000 26.3750 0.0000 -19.6691
# 5 -41.3665 -28.4988 -21.3142 0.0000 38.4945 0.0000
# 6 0.0000 0.0000 0.0000 -19.6691 0.0000 40.7711
#
#
#
# Elastic Compliance Matrix: (Units=1/GPa)
#
#
# Indices 1 2 3 4 5 6 
#
# 1 0.020169 -0.003185 0.000503 0.000000 0.019595 0.000000
# 2 -0.003185 0.014499 0.000730 0.000000 0.007717 0.000000
# 3 0.000503 0.000730 0.018016 0.000000 0.011057 0.000000
# 4 0.000000 0.000000 0.000000 0.059220 0.000000 0.028569
# 5 0.019595 0.007717 0.011057 0.000000 0.058870 0.000000
# 6 0.000000 0.000000 0.000000 0.028569 0.000000 0.038310
#
#
# Mechanical properties :
#
#
# Convention : Reuss Voigt Hill
#
# Bulk Modulus (GPa) = 20.49898 45.25097 32.87498
# Shear Modulus (GPa) = 21.81056 33.16301 27.48679
#
# Velocity S-wave (km/s) = 3.14321 3.87585 3.52860
# Velocity P-wave (km/s) = 4.73906 6.36613 5.61188
#
# Compressibility (1/GPa) = 0.04878291
#
# Stress axis : x y z
#
# Youngs Moduli (GPa) = 49.58100 68.96814 55.50632
#
# Poissons Ratio (x) = 0.21963 -0.02794
# Poissons Ratio (y) = 0.15789 -0.04054
# Poissons Ratio (z) = -0.02496 -0.05038
#
# Static dielectric constant tensor:
#      x y z
#    x 1.816730 0.000000 -0.015590 
#    y 0.000000 1.840260 0.000000 
#    z -0.015590 0.000000 1.896290 
# 
# From -- ./inp_files/26896.got.cif
#   From: 2010.05.17/outbox.cif.g08.bks.cpg/sg5_14_cif.got.tgz:26896.got - 2010.06.03 18:56:24.
