data_PCOD9120415
_publ_section_title
;
Structure prediction by ZEFSAII (Michael W. Deem and Ramdas Pophale) SiO2 
 PCOD9120415
Probable space group: C 2
;
_chemical_formula_sum "Si O2"
_cell_formula_units_Z 32
_cell_length_a 22.212793
_cell_length_b 13.306564
_cell_length_c 8.649405
_cell_angle_alpha 90.000000
_cell_angle_beta 31.205981
_cell_angle_gamma 90.000000
_cell_volume 1324.593386
_symmetry_space_group_name_H-M "C 2"
_symmetry_group_IT_number 5
_symmetry_cell_setting 'monoclinic'
loop_
_space_group_symop_operation_xyz
x,y,z
-x,y,-z
1/2+x,1/2+y,z
1/2-x,1/2+y,-z
loop_
_atom_site_type_symbol
_atom_site_label
_atom_site_fract_x
_atom_site_fract_y
_atom_site_fract_z
Si Si1 0.390997 0.804940 0.803375
Si Si2 0.837046 0.894506 0.615691
Si Si3 0.118076 0.668847 0.471872
Si Si4 0.892972 0.487256 0.319555
Si Si5 0.207530 0.709280 0.963859
Si Si6 0.823947 0.923130 0.006158
Si Si7 0.199515 0.068021 0.507122
Si Si8 0.118327 0.125337 0.989190
O O1 0.500000 0.865404 0.500000
O O2 0.309993 0.758069 0.845316
O O3 0.300787 0.868811 0.101423
O O4 0.446816 0.713499 0.779636
O O5 0.900248 0.787271 0.460419
O O6 0.868410 0.976770 0.422409
O O7 0.839457 0.934356 0.787130
O O8 0.051129 0.584444 0.714285
O O9 0.249585 0.648667 0.244149
O O10 0.127395 0.655283 0.267258
O O11 0.806835 0.436140 0.635395
O O12 0.803098 0.523012 0.384451
O O13 0.000000 0.432045 0.000000
O O14 0.145211 0.807403 0.030895
O O15 0.253203 0.636920 0.733293
O O16 0.900009 0.011194 0.915037
O O17 0.122075 0.129399 0.798112
#
# Coordination Sequence:
#
# PCOD9120415 Si02
#       8
#     4   4   4   4   4   4   4   4
#     4   9  18  32  49  71  99 125 149 190 244 281
#     4   9  16  29  52  72  89 123 164 194 221 273
#     4   7  15  31  47  63  90 126 160 187 221 274
#     4  10  20  31  45  71 104 126 143 189 252 285
#     4   9  17  31  52  69  88 125 168 197 216 270
#     4   8  16  31  49  69  93 125 160 191 228 276
#     4  10  18  29  50  72  91 124 163 196 225 272
#     4   8  16  28  45  67  94 124 154 188 229 275
#
# _framework density 24.158356000000001
#
# number of rings (size 3 to 8) (size 9 to 14) (size 15 to 20)
#    0.000    4.000    0.000    2.250    0.000    8.000 
#    0.000    2.500    0.000    9.000    0.000    0.000 
#    0.000    0.000    0.000    0.000    0.000    0.000 
#
# Total GULP energy -89207.856133 kJ/mol
# GULP energy per Si atom -5575.491008 kJ/mol
# Density = 2.410337 g / cm^3
# Si number density = 24.158356 Si / 1000 Ang^3
#
#
#
# Elastic Constant Matrix: (Units=GPa)
#
#
# Indices 1 2 3 4 5 6 
#
# 1 78.4462 35.3696 46.5436 0.0000 8.9930 0.0000
# 2 35.3696 78.0831 23.7709 0.0000 35.4622 0.0000
# 3 46.5436 23.7709 68.1902 0.0000 10.0129 0.0000
# 4 0.0000 0.0000 0.0000 -5.7889 0.0000 -15.6474
# 5 8.9930 35.4622 10.0129 0.0000 50.0371 0.0000
# 6 0.0000 0.0000 0.0000 -15.6474 0.0000 -32.7376
#
#
#
# Elastic Compliance Matrix: (Units=1/GPa)
#
#
# Indices 1 2 3 4 5 6 
#
# 1 0.024914 -0.009058 -0.014561 0.000000 0.004856 0.000000
# 2 -0.009058 0.023806 0.000126 0.000000 -0.015269 0.000000
# 3 -0.014561 0.000126 0.024921 0.000000 -0.002459 0.000000
# 4 0.000000 0.000000 0.000000 0.591735 0.000000 -0.282827
# 5 0.004856 -0.015269 -0.002459 0.000000 0.030426 0.000000
# 6 0.000000 0.000000 0.000000 -0.282827 0.000000 0.104635
#
#
# Mechanical properties :
#
#
# Convention : Reuss Voigt Hill
#
# Bulk Modulus (GPa) = 37.51589 48.45419 42.98504
# Shear Modulus (GPa) = 5.83903 10.23779 8.03841
#
# Velocity S-wave (km/s) = 1.55635 2.06082 1.82609
# Velocity P-wave (km/s) = 4.33503 5.07574 4.71994
#
# Compressibility (1/GPa) = 0.02665537
#
# Stress axis : x y z
#
# Youngs Moduli (GPa) = 40.13791 42.00592 40.12748
#
# Poissons Ratio (x) = 0.38049 0.58428
# Poissons Ratio (y) = 0.36356 -0.00505
# Poissons Ratio (z) = 0.58444 -0.00529
#
# Static dielectric constant tensor:
#      x y z
#    x 1.964200 0.000000 -0.044370 
#    y 0.000000 1.978550 0.000000 
#    z -0.044370 0.000000 1.947860 
# 
# From -- ./inp_files/31924.got.cif
#   From: 2010.05.17/outbox.cif.g08.bks.cpg/sg5_16_cif.got.tgz:31924.got - 2010.06.03 18:56:24.
