data_PCOD9120329
_publ_section_title
;
Structure prediction by ZEFSAII (Michael W. Deem and Ramdas Pophale) SiO2 
 PCOD9120329
Probable space group: C 2
;
_chemical_formula_sum "Si O2"
_cell_formula_units_Z 28
_cell_length_a 10.204265
_cell_length_b 14.236186
_cell_length_c 9.557818
_cell_angle_alpha 90.000000
_cell_angle_beta 77.476132
_cell_angle_gamma 90.000000
_cell_volume 1355.425038
_symmetry_space_group_name_H-M "C 2"
_symmetry_group_IT_number 5
_symmetry_cell_setting 'monoclinic'
loop_
_space_group_symop_operation_xyz
x,y,z
-x,y,-z
1/2+x,1/2+y,z
1/2-x,1/2+y,-z
loop_
_atom_site_type_symbol
_atom_site_label
_atom_site_fract_x
_atom_site_fract_y
_atom_site_fract_z
Si Si1 0.128350 0.845900 0.765037
Si Si2 0.377075 0.655442 0.435949
Si Si3 0.856883 0.374354 0.484420
Si Si4 0.900411 0.466678 0.211749
Si Si5 0.918326 0.652112 0.371622
Si Si6 0.410079 0.541216 0.150172
Si Si7 0.309271 0.922855 0.925550
O O1 0.245988 0.875805 0.629351
O O2 0.068109 0.752138 0.712328
O O3 0.210108 0.839574 0.894405
O O4 0.036669 0.938317 0.808334
O O5 0.500000 0.619015 0.500000
O O6 0.385164 0.768088 0.431897
O O7 0.235108 0.637638 0.542203
O O8 0.393231 0.612070 0.279885
O O9 0.811330 0.428471 0.358343
O O10 0.000000 0.416298 0.500000
O O11 0.942415 0.571020 0.250965
O O12 0.040992 0.409999 0.167511
O O13 0.827198 0.448563 0.082977
O O14 0.000000 0.649943 0.500000
O O15 0.263948 0.512292 0.126871
O O16 0.500000 0.573888 0.000000
#
# Coordination Sequence:
#
# PCOD9120329 Si02
#       7
#     4   4   4   4   4   4   4
#     4   9  21  41  59  88 129 160 212 260 320 388
#     4  10  23  38  62  96 122 165 218 261 323 380
#     4  10  17  36  61  88 118 154 211 270 308 367
#     4  11  20  38  67  90 123 164 218 265 318 382
#     4  11  23  40  68 100 126 166 219 276 329 377
#     4  10  21  42  57  84 131 169 204 257 323 392
#     4   9  22  40  56  92 121 165 211 254 320 383
#
# _framework density 20.657724999999999
#
# number of rings (size 3 to 8) (size 9 to 14) (size 15 to 20)
#    0.857    1.143    1.429    2.143    2.000    0.571 
#   12.857    0.000    0.000    0.000    0.000    0.000 
#    0.000    0.000    0.000    0.000    0.000    0.000 
#
# Total GULP energy -77970.290726 kJ/mol
# GULP energy per Si atom -5569.306480 kJ/mol
# Density = 2.061071 g / cm^3
# Si number density = 20.657725 Si / 1000 Ang^3
#
#
#
# Elastic Constant Matrix: (Units=GPa)
#
#
# Indices 1 2 3 4 5 6 
#
# 1 67.2721 1.4765 12.1123 0.0000 21.8184 0.0000
# 2 1.4765 38.4059 27.0624 0.0000 10.8944 0.0000
# 3 12.1123 27.0624 93.0653 0.0000 30.4387 0.0000
# 4 0.0000 0.0000 0.0000 16.1838 0.0000 15.1330
# 5 21.8184 10.8944 30.4387 0.0000 36.0580 0.0000
# 6 0.0000 0.0000 0.0000 15.1330 0.0000 -9.4425
#
#
#
# Elastic Compliance Matrix: (Units=1/GPa)
#
#
# Indices 1 2 3 4 5 6 
#
# 1 0.018836 0.002135 0.001197 0.000000 -0.013053 0.000000
# 2 0.002135 0.033162 -0.008594 0.000000 -0.004056 0.000000
# 3 0.001197 -0.008594 0.017235 0.000000 -0.012676 0.000000
# 4 0.000000 0.000000 0.000000 0.024730 0.000000 0.039634
# 5 -0.013053 -0.004056 -0.012676 0.000000 0.047558 0.000000
# 6 0.000000 0.000000 0.000000 0.039634 0.000000 -0.042386
#
#
# Mechanical properties :
#
#
# Convention : Reuss Voigt Hill
#
# Bulk Modulus (GPa) = 17.03342 31.11620 24.07481
# Shear Modulus (GPa) = 38.69106 19.09934 28.89520
#
# Velocity S-wave (km/s) = 4.33246 3.04396 3.74406
# Velocity P-wave (km/s) = 5.76979 5.23925 5.51090
#
# Compressibility (1/GPa) = 0.05870811
#
# Stress axis : x y z
#
# Youngs Moduli (GPa) = 53.08945 30.15489 58.02307
#
# Poissons Ratio (x) = -0.06439 -0.06945
# Poissons Ratio (y) = -0.11335 0.49867
# Poissons Ratio (z) = -0.06354 0.25916
#
# Static dielectric constant tensor:
#      x y z
#    x 1.797610 0.000000 0.026030 
#    y 0.000000 1.792830 0.000000 
#    z 0.026030 0.000000 1.868030 
# 
# From -- ./inp_files/20341.got.cif
#   From: 2010.05.17/outbox.cif.g08.bks.cpg/sg5_11_cif.got.tgz:20341.got - 2010.06.03 18:56:24.
