data_PCOD9120677
_publ_section_title
;
Structure prediction by ZEFSAII (Michael W. Deem and Ramdas Pophale) SiO2 
 PCOD9120677
Probable space group: C 2
;
_chemical_formula_sum "Si O2"
_cell_formula_units_Z 32
_cell_length_a 7.084471
_cell_length_b 19.574342
_cell_length_c 14.269552
_cell_angle_alpha 90.000000
_cell_angle_beta 37.662730
_cell_angle_gamma 90.000000
_cell_volume 1209.079457
_symmetry_space_group_name_H-M "C 2"
_symmetry_group_IT_number 5
_symmetry_cell_setting 'monoclinic'
loop_
_space_group_symop_operation_xyz
x,y,z
-x,y,-z
1/2+x,1/2+y,z
1/2-x,1/2+y,-z
loop_
_atom_site_type_symbol
_atom_site_label
_atom_site_fract_x
_atom_site_fract_y
_atom_site_fract_z
Si Si1 0.553596 0.829210 0.869234
Si Si2 0.261520 0.492465 0.334486
Si Si3 0.266636 0.193540 0.015848
Si Si4 0.802053 0.037405 0.666881
Si Si5 0.621808 0.278355 0.556314
Si Si6 0.301864 0.974059 0.982674
Si Si7 0.726653 0.140354 0.298205
Si Si8 0.859395 0.191178 0.684804
O O1 0.916507 0.827015 0.701841
O O2 0.393466 0.899566 0.907993
O O3 0.500000 0.819307 0.000000
O O4 0.384895 0.764311 0.889454
O O5 0.508267 0.512283 0.316937
O O6 0.108565 0.564631 0.360550
O O7 0.000000 0.453733 0.500000
O O8 0.457758 0.469548 0.165439
O O9 0.504642 0.210547 0.842549
O O10 0.500000 0.162010 0.000000
O O11 0.983748 0.142800 0.116263
O O12 0.000000 0.007995 0.500000
O O13 0.821014 0.118902 0.648976
O O14 0.449066 0.021184 0.842003
O O15 0.500000 0.295586 0.500000
O O16 0.983028 0.261950 0.409929
O O17 0.512996 0.200461 0.622470
O O18 0.500000 0.987392 0.000000
O O19 0.924276 0.165708 0.312024
#
# Coordination Sequence:
#
# PCOD9120677 Si02
#       8
#     4   4   4   4   4   4   4   4
#     4  10  21  37  52  71 103 140 175 211 256 308
#     4  10  18  34  58  79 101 137 179 219 260 312
#     4   9  17  31  52  77 103 135 171 210 256 309
#     4  10  20  34  54  80 109 137 171 216 265 316
#     4   9  17  31  53  78 104 136 170 206 254 318
#     4   9  20  38  55  72 103 147 183 209 257 324
#     4   8  14  27  50  77 103 131 166 203 252 318
#     4   9  16  28  49  78 105 127 162 212 261 303
#
# _framework density 26.466418000000001
#
# number of rings (size 3 to 8) (size 9 to 14) (size 15 to 20)
#    0.000    2.750    0.000    3.375    0.000    4.500 
#    0.000    5.625    0.000    0.000    0.000    0.000 
#    0.000    0.000    0.000    0.000    0.000    0.000 
#
# Total GULP energy -89154.525010 kJ/mol
# GULP energy per Si atom -5572.157813 kJ/mol
# Density = 2.640618 g / cm^3
# Si number density = 26.466418 Si / 1000 Ang^3
#
#
#
# Elastic Constant Matrix: (Units=GPa)
#
#
# Indices 1 2 3 4 5 6 
#
# 1 43.3493 -6.3607 8.1247 -0.0001 12.2891 0.0000
# 2 -6.3607 72.0705 51.0273 -0.0004 2.2564 0.0001
# 3 8.1247 51.0273 257.1399 -0.0008 -16.8844 0.0001
# 4 -0.0001 -0.0004 -0.0008 31.7012 0.0003 -0.7348
# 5 12.2891 2.2564 -16.8844 0.0003 38.2274 0.0001
# 6 0.0000 0.0001 0.0001 -0.7348 0.0001 9.4442
#
#
#
# Elastic Compliance Matrix: (Units=1/GPa)
#
#
# Indices 1 2 3 4 5 6 
#
# 1 0.026986 0.004377 -0.002377 0.000000 -0.009984 0.000000
# 2 0.004377 0.017077 -0.003796 0.000000 -0.004092 0.000000
# 3 -0.002377 -0.003796 0.004925 0.000000 0.003163 0.000000
# 4 0.000000 0.000000 0.000000 0.031602 0.000000 0.002459
# 5 -0.009984 -0.004092 0.003163 0.000000 0.031007 0.000000
# 6 0.000000 0.000000 0.000000 0.002459 0.000000 0.106077
#
#
# Mechanical properties :
#
#
# Convention : Reuss Voigt Hill
#
# Bulk Modulus (GPa) = 22.02758 53.12691 37.57725
# Shear Modulus (GPa) = 21.15078 37.19244 29.17161
#
# Velocity S-wave (km/s) = 2.83000 3.75276 3.32356
# Velocity P-wave (km/s) = 4.36113 6.23655 5.38117
#
# Compressibility (1/GPa) = 0.04539764
#
# Stress axis : x y z
#
# Youngs Moduli (GPa) = 37.05570 58.55753 203.04586
#
# Poissons Ratio (x) = -0.25631 0.48260
# Poissons Ratio (y) = -0.16220 0.77072
# Poissons Ratio (z) = 0.08807 0.22227
#
# Static dielectric constant tensor:
#      x y z
#    x 2.166680 0.000000 0.057360 
#    y 0.000000 2.056690 0.000000 
#    z 0.057360 0.000000 2.394510 
# 
# From -- ./inp_files/51676.got.cif
#   From: 2010.05.17/outbox.cif.g08.bks.cpg/sg5_26_cif.got.tgz:51676.got - 2010.06.03 18:56:24.
