data_PCOD9120123
_publ_section_title
;
Structure prediction by ZEFSAII (Michael W. Deem and Ramdas Pophale) SiO2 
 PCOD9120123
Probable space group: C 2
;
_chemical_formula_sum "Si O2"
_cell_formula_units_Z 26
_cell_length_a 7.076918
_cell_length_b 14.149940
_cell_length_c 9.878365
_cell_angle_alpha 90.000000
_cell_angle_beta 95.122698
_cell_angle_gamma 90.000000
_cell_volume 985.248281
_symmetry_space_group_name_H-M "C 2"
_symmetry_group_IT_number 5
_symmetry_cell_setting 'monoclinic'
loop_
_space_group_symop_operation_xyz
x,y,z
-x,y,-z
1/2+x,1/2+y,z
1/2-x,1/2+y,-z
loop_
_atom_site_type_symbol
_atom_site_label
_atom_site_fract_x
_atom_site_fract_y
_atom_site_fract_z
Si Si1 0.227507 0.303490 0.826656
Si Si2 0.873151 0.610975 0.295280
Si Si3 0.316037 0.808184 0.651262
Si Si4 0.500000 0.911987 0.000000
Si Si5 0.672641 0.425573 0.406229
Si Si6 0.795593 0.137649 0.015670
Si Si7 0.205602 0.507355 0.228592
O O1 0.349354 0.366156 0.733804
O O2 0.314020 0.206765 0.887741
O O3 0.020872 0.288638 0.737179
O O4 0.182059 0.354749 0.965925
O O5 0.695881 0.852658 0.499619
O O6 0.097938 0.579810 0.322594
O O7 0.811372 0.713645 0.350780
O O8 0.796377 0.621015 0.134983
O O9 0.239818 0.903619 0.719835
O O10 0.736446 0.024973 0.635087
O O11 0.526180 0.978068 0.127885
O O12 0.500000 0.446149 0.500000
O O13 0.838777 0.051789 0.123103
O O14 0.000000 0.181219 0.000000
#
# Coordination Sequence:
#
# PCOD9120123 Si02
#       7
#     4   4   4   2   4   4   4
#     4  11  22  45  76 106 151 199 253 316 400 458
#     4  12  25  49  76 107 149 204 265 313 399 468
#     4  11  26  48  73 108 150 210 255 313 390 474
#     4  10  16  42  70  96 138 192 242 304 384 446
#     4  12  29  48  72 111 157 206 263 324 379 478
#     4  12  23  42  78 116 146 194 261 329 398 461
#     4  11  23  43  73 106 155 197 244 328 390 460
#
# _framework density 26.389286999999999
#
# number of rings (size 3 to 8) (size 9 to 14) (size 15 to 20)
#    0.000    0.615    6.923    1.385    4.308    2.462 
#    0.000    1.538    0.000    0.000    0.000    0.000 
#    0.000    0.000    0.000    0.000    0.000    0.000 
#
# Total GULP energy -72373.289931 kJ/mol
# GULP energy per Si atom -5567.176149 kJ/mol
# Density = 2.632922 g / cm^3
# Si number density = 26.389287 Si / 1000 Ang^3
#
#
#
# Elastic Constant Matrix: (Units=GPa)
#
#
# Indices 1 2 3 4 5 6 
#
# 1 98.3965 34.7550 38.9138 0.0000 -16.6076 0.0000
# 2 34.7550 169.2369 90.6036 0.0000 -9.4330 0.0000
# 3 38.9138 90.6036 163.9187 0.0000 -19.0308 0.0000
# 4 0.0000 0.0000 0.0000 95.3707 0.0000 5.3368
# 5 -16.6076 -9.4330 -19.0308 0.0000 41.9526 0.0000
# 6 0.0000 0.0000 0.0000 5.3368 0.0000 34.8134
#
#
#
# Elastic Compliance Matrix: (Units=1/GPa)
#
#
# Indices 1 2 3 4 5 6 
#
# 1 0.011914 -0.001358 -0.001653 0.000000 0.003661 0.000000
# 2 -0.001358 0.008549 -0.004478 0.000000 -0.000647 0.000000
# 3 -0.001653 -0.004478 0.009263 0.000000 0.002541 0.000000
# 4 0.000000 0.000000 0.000000 0.010576 0.000000 -0.001621
# 5 0.003661 -0.000647 0.002541 0.000000 0.026293 0.000000
# 6 0.000000 0.000000 0.000000 -0.001621 0.000000 0.028973
#
#
# Mechanical properties :
#
#
# Convention : Reuss Voigt Hill
#
# Bulk Modulus (GPa) = 67.80128 84.45522 76.12825
# Shear Modulus (GPa) = 43.30412 52.24600 47.77506
#
# Velocity S-wave (km/s) = 4.05529 4.45434 4.25949
# Velocity P-wave (km/s) = 6.90476 7.65036 7.28710
#
# Compressibility (1/GPa) = 0.01474898
#
# Stress axis : x y z
#
# Youngs Moduli (GPa) = 83.93354 116.97126 107.95458
#
# Poissons Ratio (x) = 0.15882 0.17843
# Poissons Ratio (y) = 0.11397 0.48343
# Poissons Ratio (z) = 0.13873 0.52381
#
# Static dielectric constant tensor:
#      x y z
#    x 2.195200 0.000000 0.183090 
#    y 0.000000 2.356860 0.000000 
#    z 0.183090 0.000000 1.686100 
# 
# From -- ./inp_files/36630.got.cif
#   From: 2010.05.17/outbox.cif.g08.bks.cpg/sg5_19_cif.got.tgz:36630.got - 2010.06.03 18:56:24.
