data_PCOD9120020
_publ_section_title
;
Structure prediction by ZEFSAII (Michael W. Deem and Ramdas Pophale) SiO2 
 PCOD9120020
Probable space group: C 2
;
_chemical_formula_sum "Si O2"
_cell_formula_units_Z 16
_cell_length_a 23.144348
_cell_length_b 5.311584
_cell_length_c 7.104189
_cell_angle_alpha 90.000000
_cell_angle_beta 52.602174
_cell_angle_gamma 90.000000
_cell_volume 693.814447
_symmetry_space_group_name_H-M "C 2"
_symmetry_group_IT_number 5
_symmetry_cell_setting 'monoclinic'
loop_
_space_group_symop_operation_xyz
x,y,z
-x,y,-z
1/2+x,1/2+y,z
1/2-x,1/2+y,-z
loop_
_atom_site_type_symbol
_atom_site_label
_atom_site_fract_x
_atom_site_fract_y
_atom_site_fract_z
Si Si1 0.418248 0.953670 0.220375
Si Si2 0.775064 0.313869 0.337789
Si Si3 0.583704 0.728903 0.391296
Si Si4 0.152710 0.732833 0.312672
O O1 0.360856 0.873641 0.176234
O O2 0.417130 0.734938 0.379298
O O3 0.387574 0.184652 0.405694
O O4 0.500000 0.001023 0.000000
O O5 0.740291 0.559383 0.511054
O O6 0.734818 0.274841 0.218291
O O7 0.500000 0.754272 0.500000
O O8 0.620397 0.467432 0.264831
O O9 0.631107 0.975496 0.252207
#
# Coordination Sequence:
#
# PCOD9120020 Si02
#       4
#     4   4   4   4
#     4   9  20  32  52  80 104 122 165 214 257 278
#     4  10  16  32  49  74  98 132 166 202 240 300
#     4  10  19  32  52  73 101 133 170 199 241 301
#     4   9  18  32  51  73  98 133 167 199 244 295
#
# _framework density 23.060919999999999
#
# number of rings (size 3 to 8) (size 9 to 14) (size 15 to 20)
#    1.500    1.000    2.500    0.750    0.000    1.000 
#    0.000    0.000    0.000    3.000    0.000    0.000 
#    0.000    0.000    0.000    0.000    0.000    0.000 
#
# Total GULP energy -44578.272398 kJ/mol
# GULP energy per Si atom -5572.284050 kJ/mol
# Density = 2.300843 g / cm^3
# Si number density = 23.060920 Si / 1000 Ang^3
#
#
#
# Elastic Constant Matrix: (Units=GPa)
#
#
# Indices 1 2 3 4 5 6 
#
# 1 183.7184 77.2321 31.9160 0.0000 -40.0741 0.0000
# 2 77.2321 190.4354 26.1978 0.0000 -18.4633 0.0000
# 3 31.9160 26.1978 63.9601 0.0000 -25.3358 0.0000
# 4 0.0000 0.0000 0.0000 6.8407 0.0000 -2.0364
# 5 -40.0741 -18.4633 -25.3358 0.0000 42.4184 0.0000
# 6 0.0000 0.0000 0.0000 -2.0364 0.0000 29.0191
#
#
#
# Elastic Compliance Matrix: (Units=1/GPa)
#
#
# Indices 1 2 3 4 5 6 
#
# 1 0.007932 -0.002558 -0.000502 0.000000 0.006081 0.000000
# 2 -0.002558 0.006453 -0.001587 0.000000 -0.000556 0.000000
# 3 -0.000502 -0.001587 0.021055 0.000000 0.011411 0.000000
# 4 0.000000 0.000000 0.000000 0.149303 0.000000 0.010477
# 5 0.006081 -0.000556 0.011411 0.000000 0.035893 0.000000
# 6 0.000000 0.000000 0.000000 0.010477 0.000000 0.035195
#
#
# Mechanical properties :
#
#
# Convention : Reuss Voigt Hill
#
# Bulk Modulus (GPa) = 38.24529 78.75620 58.50075
# Shear Modulus (GPa) = 18.25879 35.84016 27.04948
#
# Velocity S-wave (km/s) = 2.81688 3.94655 3.42856
# Velocity P-wave (km/s) = 5.21538 7.41569 6.41064
#
# Compressibility (1/GPa) = 0.02614701
#
# Stress axis : x y z
#
# Youngs Moduli (GPa) = 126.07035 154.96492 47.49414
#
# Poissons Ratio (x) = 0.39646 0.02382
# Poissons Ratio (y) = 0.32253 0.07536
# Poissons Ratio (z) = 0.06323 0.24589
#
# Static dielectric constant tensor:
#      x y z
#    x 1.876330 0.000000 -0.002370 
#    y 0.000000 1.896130 0.000000 
#    z -0.002370 0.000000 1.926470 
# 
# From -- ./inp_files/25783.got.cif
#   From: 2010.05.17/outbox.cif.g08.bks.cpg/sg5_13_cif.got.tgz:25783.got - 2010.06.03 18:56:24.
