data_PCOD9120656
_publ_section_title
;
Structure prediction by ZEFSAII (Michael W. Deem and Ramdas Pophale) SiO2 
 PCOD9120656
Probable space group: C 2
;
_chemical_formula_sum "Si O2"
_cell_formula_units_Z 26
_cell_length_a 10.098207
_cell_length_b 24.645868
_cell_length_c 10.263819
_cell_angle_alpha 90.000000
_cell_angle_beta 150.280147
_cell_angle_gamma 90.000000
_cell_volume 1266.393060
_symmetry_space_group_name_H-M "C 2"
_symmetry_group_IT_number 5
_symmetry_cell_setting 'monoclinic'
loop_
_space_group_symop_operation_xyz
x,y,z
-x,y,-z
1/2+x,1/2+y,z
1/2-x,1/2+y,-z
loop_
_atom_site_type_symbol
_atom_site_label
_atom_site_fract_x
_atom_site_fract_y
_atom_site_fract_z
Si Si1 0.931961 0.742960 0.683228
Si Si2 0.460811 0.478057 0.610125
Si Si3 0.000000 0.187227 0.500000
Si Si4 0.614484 0.597895 0.795343
Si Si5 0.447355 0.930396 0.111319
Si Si6 0.985350 0.624392 0.637279
Si Si7 0.979670 0.303843 0.138982
O O1 0.726289 0.722530 0.620220
O O2 0.031463 0.688643 0.695290
O O3 0.200404 0.776349 0.946941
O O4 0.737991 0.776411 0.422925
O O5 0.500000 0.452745 0.500000
O O6 0.586635 0.537948 0.712874
O O7 0.146229 0.470154 0.358891
O O8 0.639172 0.445996 0.864855
O O9 0.165029 0.145926 0.735344
O O10 0.317234 0.612301 0.584853
O O11 0.816168 0.597925 0.088327
O O12 0.500000 0.937763 0.000000
O O13 0.489093 0.867709 0.178542
O O14 0.000000 0.608041 0.500000
O O15 0.000000 0.297986 0.000000
#
# Coordination Sequence:
#
# PCOD9120656 Si02
#       7
#     4   4   2   4   4   4   4
#     4  11  23  37  59  83 123 166 196 251 296 358
#     4  10  18  34  55  87 118 154 183 245 320 364
#     4  10  24  40  56  96 126 166 216 238 300 380
#     4  11  22  37  60  85 124 158 195 253 295 368
#     4   9  19  32  54  85 119 144 197 252 305 365
#     4  11  23  38  56  85 118 157 204 239 292 360
#     4  11  21  37  59  89 118 160 205 254 308 358
#
# _framework density 20.530753000000001
#
# number of rings (size 3 to 8) (size 9 to 14) (size 15 to 20)
#    0.000    1.538    0.769    5.538    0.000    8.000 
#    0.000    0.000    0.000    0.000   30.000    0.000 
#    0.000    0.000    0.000    0.000    0.000    0.000 
#
# Total GULP energy -72521.085306 kJ/mol
# GULP energy per Si atom -5578.545024 kJ/mol
# Density = 2.048402 g / cm^3
# Si number density = 20.530753 Si / 1000 Ang^3
#
#
#
# Elastic Constant Matrix: (Units=GPa)
#
#
# Indices 1 2 3 4 5 6 
#
# 1 43.6351 2.1991 8.8506 0.0000 -7.5967 0.0000
# 2 2.1991 66.1842 39.8992 0.0000 -3.1765 0.0000
# 3 8.8506 39.8992 179.1261 0.0000 -6.5668 0.0000
# 4 0.0000 0.0000 0.0000 38.5430 0.0000 2.7821
# 5 -7.5967 -3.1765 -6.5668 0.0000 24.2719 0.0000
# 6 0.0000 0.0000 0.0000 2.7821 0.0000 16.5059
#
#
#
# Elastic Compliance Matrix: (Units=1/GPa)
#
#
# Indices 1 2 3 4 5 6 
#
# 1 0.024393 0.000124 -0.000962 0.000000 0.007391 0.000000
# 2 0.000124 0.017491 -0.003855 0.000000 0.001285 0.000000
# 3 -0.000962 -0.003855 0.006524 0.000000 0.000960 0.000000
# 4 0.000000 0.000000 0.000000 0.026265 0.000000 -0.004427
# 5 0.007391 0.001285 0.000960 0.000000 0.043941 0.000000
# 6 0.000000 0.000000 0.000000 -0.004427 0.000000 0.061330
#
#
# Mechanical properties :
#
#
# Convention : Reuss Voigt Hill
#
# Bulk Modulus (GPa) = 25.62646 43.42701 34.52674
# Shear Modulus (GPa) = 24.71127 31.73059 28.22093
#
# Velocity S-wave (km/s) = 3.47309 3.93557 3.71154
# Velocity P-wave (km/s) = 5.34717 6.46913 5.93473
#
# Compressibility (1/GPa) = 0.03902216
#
# Stress axis : x y z
#
# Youngs Moduli (GPa) = 40.99556 57.17257 153.27912
#
# Poissons Ratio (x) = -0.00710 0.14745
# Poissons Ratio (y) = -0.00509 0.59089
# Poissons Ratio (z) = 0.03944 0.22040
#
# Static dielectric constant tensor:
#      x y z
#    x 1.741770 0.000000 -0.013510 
#    y 0.000000 1.765470 0.000000 
#    z -0.013510 0.000000 1.774710 
# 
# From -- ./inp_files/40835.got.cif
#   From: 2010.05.17/outbox.cif.g08.bks.cpg/sg5_21_cif.got.tgz:40835.got - 2010.06.03 18:56:24.
