data_PCOD9120369
_publ_section_title
;
Structure prediction by ZEFSAII (Michael W. Deem and Ramdas Pophale) SiO2 
 PCOD9120369
Probable space group: C 2
;
_chemical_formula_sum "Si O2"
_cell_formula_units_Z 32
_cell_length_a 29.100226
_cell_length_b 6.194088
_cell_length_c 19.377129
_cell_angle_alpha 90.000000
_cell_angle_beta 25.578413
_cell_angle_gamma 90.000000
_cell_volume 1507.965570
_symmetry_space_group_name_H-M "C 2"
_symmetry_group_IT_number 5
_symmetry_cell_setting 'monoclinic'
loop_
_space_group_symop_operation_xyz
x,y,z
-x,y,-z
1/2+x,1/2+y,z
1/2-x,1/2+y,-z
loop_
_atom_site_type_symbol
_atom_site_label
_atom_site_fract_x
_atom_site_fract_y
_atom_site_fract_z
Si Si1 0.388222 0.337330 0.016016
Si Si2 0.670196 0.554184 0.776617
Si Si3 0.944274 0.831015 0.331021
Si Si4 0.176971 0.584229 0.256101
Si Si5 0.495508 0.064252 0.621811
Si Si6 0.135462 0.215683 0.483291
Si Si7 0.235865 0.440784 0.786971
Si Si8 0.749558 0.614979 0.531808
O O1 0.411502 0.455679 0.057218
O O2 0.273996 0.425002 0.142449
O O3 0.366091 0.088413 0.062939
O O4 0.473461 0.368726 0.841490
O O5 0.762826 0.371518 0.648440
O O6 0.712294 0.766610 0.759061
O O7 0.655633 0.610586 0.716604
O O8 0.862313 0.647820 0.418227
O O9 0.997094 0.752328 0.331231
O O10 0.879130 0.049106 0.435009
O O11 0.114055 0.549643 0.271058
O O12 0.230995 0.818096 0.189050
O O13 0.089078 0.583525 0.436997
O O14 0.528175 0.847036 0.617097
O O15 0.165493 0.078219 0.374870
O O16 0.755273 0.362481 0.495801
#
# Coordination Sequence:
#
# PCOD9120369 Si02
#       8
#     4   4   4   4   4   4   4   4
#     4  10  23  40  66  91 137 177 223 265 347 408
#     4  10  20  42  66  95 126 177 212 269 341 409
#     4  12  24  43  64 100 128 179 219 284 352 403
#     4  10  20  39  54 100 123 176 233 274 318 395
#     4  11  21  36  64  90 130 170 240 269 322 402
#     4  11  17  37  66  87 123 175 224 271 321 404
#     4  10  17  38  65  85 126 174 216 271 321 410
#     4  12  26  45  79 106 132 168 233 290 341 422
#
# _framework density 21.220645000000001
#
# number of rings (size 3 to 8) (size 9 to 14) (size 15 to 20)
#    0.000    1.250    7.500    0.750    1.750    3.000 
#    4.500    0.625    0.000    0.000    0.000    0.000 
#    0.000    0.000    0.000    0.000    0.000    0.000 
#
# Total GULP energy -89118.591988 kJ/mol
# GULP energy per Si atom -5569.911999 kJ/mol
# Density = 2.117235 g / cm^3
# Si number density = 21.220645 Si / 1000 Ang^3
#
#
#
# Elastic Constant Matrix: (Units=GPa)
#
#
# Indices 1 2 3 4 5 6 
#
# 1 68.3535 28.4948 24.0849 -0.0022 15.8005 0.0016
# 2 28.4948 113.4722 31.1348 0.0102 12.6677 -0.0032
# 3 24.0849 31.1348 116.1737 0.0064 22.7230 0.0015
# 4 -0.0022 0.0102 0.0064 17.8638 0.0014 7.1189
# 5 15.8005 12.6677 22.7230 0.0014 21.2432 -0.0016
# 6 0.0016 -0.0032 0.0015 7.1189 -0.0016 26.6811
#
#
#
# Elastic Compliance Matrix: (Units=1/GPa)
#
#
# Indices 1 2 3 4 5 6 
#
# 1 0.018873 -0.003257 -0.000852 0.000007 -0.011184 -0.000004
# 2 -0.003257 0.010313 -0.001719 -0.000007 -0.001888 0.000003
# 3 -0.000852 -0.001719 0.011281 -0.000002 -0.010408 -0.000001
# 4 0.000007 -0.000007 -0.000002 0.062640 -0.000005 -0.016713
# 5 -0.011184 -0.001888 -0.010408 -0.000005 0.067651 0.000006
# 6 -0.000004 0.000003 -0.000001 -0.016713 0.000006 0.041939
#
#
# Mechanical properties :
#
#
# Convention : Reuss Voigt Hill
#
# Bulk Modulus (GPa) = 34.71041 51.71426 43.21234
# Shear Modulus (GPa) = 21.37141 27.44329 24.40735
#
# Velocity S-wave (km/s) = 3.17693 3.60006 3.39510
# Velocity P-wave (km/s) = 5.46348 6.45781 5.98134
#
# Compressibility (1/GPa) = 0.02880980
#
# Stress axis : x y z
#
# Youngs Moduli (GPa) = 52.98546 96.96334 88.64479
#
# Poissons Ratio (x) = 0.31581 0.07556
# Poissons Ratio (y) = 0.17257 0.15241
# Poissons Ratio (z) = 0.04516 0.16672
#
# Static dielectric constant tensor:
#      x y z
#    x 1.810900 0.000000 0.028240 
#    y 0.000000 1.839280 0.000010 
#    z 0.028240 0.000010 1.775720 
# 
# From -- ./inp_files/63737.got.cif
#   From: 2010.05.17/outbox.cif.g08.bks.cpg/sg5_32_cif.got.tgz:63737.got - 2010.06.03 18:56:24.
