data_PCOD9120895
_publ_section_title
;
Structure prediction by ZEFSAII (Michael W. Deem and Ramdas Pophale) SiO2 
 PCOD9120895
Probable space group: C 2
;
_chemical_formula_sum "Si O2"
_cell_formula_units_Z 20
_cell_length_a 13.727691
_cell_length_b 7.422952
_cell_length_c 8.690882
_cell_angle_alpha 90.000000
_cell_angle_beta 73.606316
_cell_angle_gamma 90.000000
_cell_volume 849.596782
_symmetry_space_group_name_H-M "C 2"
_symmetry_group_IT_number 5
_symmetry_cell_setting 'monoclinic'
loop_
_space_group_symop_operation_xyz
x,y,z
-x,y,-z
1/2+x,1/2+y,z
1/2-x,1/2+y,-z
loop_
_atom_site_type_symbol
_atom_site_label
_atom_site_fract_x
_atom_site_fract_y
_atom_site_fract_z
Si Si1 0.142227 0.481330 0.493145
Si Si2 0.021099 0.597028 0.243584
Si Si3 0.186450 0.199972 0.692845
Si Si4 0.131672 0.282858 0.046484
Si Si5 0.333631 0.416858 0.831800
O O1 0.079226 0.525177 0.369661
O O2 0.129967 0.286564 0.574114
O O3 0.255727 0.524976 0.389962
O O4 0.095754 0.603748 0.652878
O O5 0.053079 0.441309 0.112601
O O6 0.071774 0.785797 0.179589
O O7 0.276511 0.343475 0.703618
O O8 0.124531 0.191723 0.879499
O O9 0.134085 0.122732 0.168753
O O10 0.242990 0.378521 0.994552
#
# Coordination Sequence:
#
# PCOD9120895 Si02
#       5
#     4   4   4   4   4
#     4  10  21  40  57  91 120 153 196 251 299 349
#     4  10  21  38  63  85 122 156 199 246 292 356
#     4   9  21  37  61  83 122 152 198 243 303 351
#     4  10  18  36  62  85 113 162 199 238 293 355
#     4   9  17  35  59  87 110 157 201 235 287 354
#
# _framework density 23.540579000000001
#
# number of rings (size 3 to 8) (size 9 to 14) (size 15 to 20)
#    1.200    1.200    2.000    0.000    2.800    0.800 
#    7.200    2.000    0.000    0.000    0.000    0.000 
#    0.000    0.000    0.000    0.000    0.000    0.000 
#
# Total GULP energy -55707.500018 kJ/mol
# GULP energy per Si atom -5570.750002 kJ/mol
# Density = 2.348700 g / cm^3
# Si number density = 23.540579 Si / 1000 Ang^3
#
#
#
# Elastic Constant Matrix: (Units=GPa)
#
#
# Indices 1 2 3 4 5 6 
#
# 1 21.0628 5.7161 9.9093 0.0000 -6.0933 0.0000
# 2 5.7161 49.1248 9.5250 0.0000 4.7609 0.0000
# 3 9.9093 9.5250 103.1757 0.0000 -15.5033 0.0000
# 4 0.0000 0.0000 0.0000 27.6764 0.0000 3.5155
# 5 -6.0933 4.7609 -15.5033 0.0000 22.9836 0.0000
# 6 0.0000 0.0000 0.0000 3.5155 0.0000 14.8565
#
#
#
# Elastic Compliance Matrix: (Units=1/GPa)
#
#
# Indices 1 2 3 4 5 6 
#
# 1 0.054762 -0.007297 -0.002423 0.000000 0.014395 0.000000
# 2 -0.007297 0.022529 -0.002638 0.000000 -0.008381 0.000000
# 3 -0.002423 -0.002638 0.011299 0.000000 0.007526 0.000000
# 4 0.000000 0.000000 0.000000 0.037252 0.000000 -0.008815
# 5 0.014395 -0.008381 0.007526 0.000000 0.054138 0.000000
# 6 0.000000 0.000000 0.000000 -0.008815 0.000000 0.069397
#
#
# Mechanical properties :
#
#
# Convention : Reuss Voigt Hill
#
# Bulk Modulus (GPa) = 15.65598 24.85155 20.25377
# Shear Modulus (GPa) = 16.92710 22.98417 19.95564
#
# Velocity S-wave (km/s) = 2.68444 3.12807 2.91471
# Velocity P-wave (km/s) = 4.03403 4.86069 4.46652
#
# Compressibility (1/GPa) = 0.06387336
#
# Stress axis : x y z
#
# Youngs Moduli (GPa) = 18.26099 44.38686 88.50091
#
# Poissons Ratio (x) = 0.32390 0.21441
# Poissons Ratio (y) = 0.13326 0.23349
# Poissons Ratio (z) = 0.04424 0.11711
#
# Static dielectric constant tensor:
#      x y z
#    x 2.015510 0.000000 -0.016250 
#    y 0.000000 1.864590 0.000000 
#    z -0.016250 0.000000 1.947090 
# 
# From -- ./inp_files/26194.got.cif
#   From: 2010.05.17/outbox.cif.g08.bks.cpg/sg5_14_cif.got.tgz:26194.got - 2010.06.03 18:56:24.
