data_PCOD9120050
_publ_section_title
;
Structure prediction by ZEFSAII (Michael W. Deem and Ramdas Pophale) SiO2 
 PCOD9120050
Probable space group: C 2
;
_chemical_formula_sum "Si O2"
_cell_formula_units_Z 28
_cell_length_a 9.023183
_cell_length_b 14.311836
_cell_length_c 11.318492
_cell_angle_alpha 90.000000
_cell_angle_beta 72.007194
_cell_angle_gamma 90.000000
_cell_volume 1390.169398
_symmetry_space_group_name_H-M "C 2"
_symmetry_group_IT_number 5
_symmetry_cell_setting 'monoclinic'
loop_
_space_group_symop_operation_xyz
x,y,z
-x,y,-z
1/2+x,1/2+y,z
1/2-x,1/2+y,-z
loop_
_atom_site_type_symbol
_atom_site_label
_atom_site_fract_x
_atom_site_fract_y
_atom_site_fract_z
Si Si1 0.754738 0.703470 0.122279
Si Si2 0.380349 0.352292 0.282012
Si Si3 0.566969 0.743934 0.708594
Si Si4 0.336745 0.193940 0.474310
Si Si5 0.947245 0.596337 0.234732
Si Si6 0.816082 0.767512 0.842707
Si Si7 0.930828 0.435570 0.644409
O O1 0.821205 0.784574 0.191190
O O2 0.577568 0.686476 0.203774
O O3 0.863113 0.615280 0.130771
O O4 0.769383 0.744855 0.988114
O O5 0.352693 0.296713 0.411374
O O6 0.564474 0.353578 0.210195
O O7 0.257568 0.435897 0.313427
O O8 0.688363 0.691315 0.594537
O O9 0.670107 0.778013 0.793556
O O10 0.494224 0.831231 0.654953
O O11 0.500000 0.175970 0.500000
O O12 0.323557 0.124693 0.366984
O O13 0.013650 0.498531 0.259921
O O14 0.083139 0.674555 0.215235
O O15 0.000000 0.464385 0.500000
#
# Coordination Sequence:
#
# PCOD9120050 Si02
#       7
#     4   4   4   4   4   4   4
#     4   9  20  36  58  84 111 154 202 242 278 344
#     4   9  18  32  57  81 111 148 191 232 287 346
#     4  11  20  34  62  89 115 146 202 246 294 350
#     4  10  16  33  58  85 109 153 193 241 283 356
#     4  10  21  35  58  80 116 160 194 234 300 350
#     4  10  19  38  62  81 111 155 205 239 281 354
#     4  11  22  34  55  91 124 148 186 246 312 355
#
# _framework density 20.14143
#
# number of rings (size 3 to 8) (size 9 to 14) (size 15 to 20)
#    0.000    2.286    4.286    2.571    0.000    0.000 
#    0.000    7.143    6.286    3.429    0.000    0.000 
#    0.000    0.000    0.000    0.000    0.000    0.000 
#
# Total GULP energy -77979.673419 kJ/mol
# GULP energy per Si atom -5569.976673 kJ/mol
# Density = 2.009559 g / cm^3
# Si number density = 20.141430 Si / 1000 Ang^3
#
#
#
# Elastic Constant Matrix: (Units=GPa)
#
#
# Indices 1 2 3 4 5 6 
#
# 1 105.0133 6.2803 34.4660 0.0000 -6.8165 0.0000
# 2 6.2803 27.4857 0.6480 0.0000 -9.3722 0.0000
# 3 34.4660 0.6480 108.4169 0.0000 -5.3236 0.0000
# 4 0.0000 0.0000 0.0000 11.4774 0.0000 10.0996
# 5 -6.8165 -9.3722 -5.3236 0.0000 33.0032 0.0000
# 6 0.0000 0.0000 0.0000 10.0996 0.0000 21.5824
#
#
#
# Elastic Compliance Matrix: (Units=1/GPa)
#
#
# Indices 1 2 3 4 5 6 
#
# 1 0.010823 -0.002012 -0.003374 0.000000 0.001120 0.000000
# 2 -0.002012 0.040668 0.000951 0.000000 0.011287 0.000000
# 3 -0.003374 0.000951 0.010351 0.000000 0.001243 0.000000
# 4 0.000000 0.000000 0.000000 0.148121 0.000000 -0.069314
# 5 0.001120 0.011287 0.001243 0.000000 0.033937 0.000000
# 6 0.000000 0.000000 0.000000 -0.069314 0.000000 0.078770
#
#
# Mechanical properties :
#
#
# Convention : Reuss Voigt Hill
#
# Bulk Modulus (GPa) = 18.87732 35.96717 27.42224
# Shear Modulus (GPa) = 14.31855 26.51405 20.41630
#
# Velocity S-wave (km/s) = 2.66916 3.63215 3.18724
# Velocity P-wave (km/s) = 4.34649 5.95702 5.21431
#
# Compressibility (1/GPa) = 0.05297363
#
# Stress axis : x y z
#
# Youngs Moduli (GPa) = 92.39728 24.58917 96.60456
#
# Poissons Ratio (x) = 0.04946 0.32590
# Poissons Ratio (y) = 0.18586 -0.09183
# Poissons Ratio (z) = 0.31171 -0.02338
#
# Static dielectric constant tensor:
#      x y z
#    x 1.761090 0.000000 -0.012690 
#    y 0.000000 1.753470 0.000000 
#    z -0.012690 0.000000 1.756880 
# 
# From -- ./inp_files/36097.got.cif
#   From: 2010.05.17/outbox.cif.g08.bks.cpg/sg5_19_cif.got.tgz:36097.got - 2010.06.03 18:56:24.
