data_PCOD9120874
_publ_section_title
;
Structure prediction by ZEFSAII (Michael W. Deem and Ramdas Pophale) SiO2 
 PCOD9120874
Probable space group: C 2
;
_chemical_formula_sum "Si O2"
_cell_formula_units_Z 32
_cell_length_a 12.338381
_cell_length_b 15.833207
_cell_length_c 7.018521
_cell_angle_alpha 90.000000
_cell_angle_beta 99.843152
_cell_angle_gamma 90.000000
_cell_volume 1350.927631
_symmetry_space_group_name_H-M "C 2"
_symmetry_group_IT_number 5
_symmetry_cell_setting 'monoclinic'
loop_
_space_group_symop_operation_xyz
x,y,z
-x,y,-z
1/2+x,1/2+y,z
1/2-x,1/2+y,-z
loop_
_atom_site_type_symbol
_atom_site_label
_atom_site_fract_x
_atom_site_fract_y
_atom_site_fract_z
Si Si1 0.228668 0.664350 0.277014
Si Si2 0.153745 0.835759 0.730087
Si Si3 0.034583 0.394574 0.792926
Si Si4 0.903408 0.831587 0.742297
Si Si5 0.756517 0.985577 0.769779
Si Si6 0.462723 0.705504 0.283196
Si Si7 0.809291 0.479698 0.682415
Si Si8 0.202850 0.175002 0.250509
O O1 0.150758 0.743406 0.207904
O O2 0.345235 0.666300 0.202973
O O3 0.174143 0.573215 0.231732
O O4 0.262284 0.673045 0.512625
O O5 0.127075 0.834347 0.493980
O O6 0.230570 0.918122 0.779719
O O7 0.225114 0.753175 0.802594
O O8 0.035099 0.834666 0.792910
O O9 0.925189 0.435645 0.675124
O O10 0.139427 0.454072 0.810372
O O11 0.061637 0.305110 0.708027
O O12 0.000000 0.379273 0.000000
O O13 0.846994 0.912399 0.824996
O O14 0.747961 0.989958 0.537776
O O15 0.777493 0.082372 0.828190
O O16 0.500000 0.670647 0.500000
O O17 0.573332 0.695132 0.196004
#
# Coordination Sequence:
#
# PCOD9120874 Si02
#       8
#     4   4   4   4   4   4   4   4
#     4   9  18  30  53  85 111 139 179 225 277 333
#     4   9  17  29  48  81 116 140 171 219 274 332
#     4  12  24  38  56  79 110 152 197 236 271 326
#     4   9  17  29  48  81 116 140 171 219 274 332
#     4  10  20  35  57  83 112 146 181 230 285 329
#     4  10  18  36  60  85 112 142 185 236 283 332
#     4  10  20  35  57  83 112 146 181 230 285 329
#     4   9  18  30  53  85 111 139 179 225 277 333
#
# _framework density 23.687427
#
# number of rings (size 3 to 8) (size 9 to 14) (size 15 to 20)
#    0.000    2.250    2.500    1.125    3.500    0.000 
#    0.000    1.250    0.000    0.750    0.000    0.000 
#    0.000    0.000    0.000    0.000    0.000    0.000 
#
# Total GULP energy -89498.892412 kJ/mol
# GULP energy per Si atom -5593.680776 kJ/mol
# Density = 2.363351 g / cm^3
# Si number density = 23.687427 Si / 1000 Ang^3
#
#
#
# Elastic Constant Matrix: (Units=GPa)
#
#
# Indices 1 2 3 4 5 6 
#
# 1 136.6100 44.0455 12.0511 0.0000 -8.1801 0.0000
# 2 44.0455 112.1135 22.6646 0.0000 15.3837 0.0000
# 3 12.0511 22.6646 71.9069 0.0000 -7.7477 0.0000
# 4 0.0000 0.0000 0.0000 -0.5787 0.0000 -5.5488
# 5 -8.1801 15.3837 -7.7477 0.0000 27.4162 0.0000
# 6 0.0000 0.0000 0.0000 -5.5488 0.0000 34.8568
#
#
#
# Elastic Compliance Matrix: (Units=1/GPa)
#
#
# Indices 1 2 3 4 5 6 
#
# 1 0.008995 -0.004338 0.000424 0.000000 0.005238 0.000000
# 2 -0.004338 0.012843 -0.004370 0.000000 -0.009736 0.000000
# 3 0.000424 -0.004370 0.015978 0.000000 0.007094 0.000000
# 4 0.000000 0.000000 0.000000 -0.683992 0.000000 -0.108883
# 5 0.005238 -0.009736 0.007094 0.000000 0.045506 0.000000
# 6 0.000000 0.000000 0.000000 -0.108883 0.000000 0.011356
#
#
# Mechanical properties :
#
#
# Convention : Reuss Voigt Hill
#
# Bulk Modulus (GPa) = 47.06406 53.12809 50.09608
# Shear Modulus (GPa) = -8.83918 28.46347 9.81215
#
# Velocity S-wave (km/s) = -1.93383 3.47021 2.03748
# Velocity P-wave (km/s) = 3.86338 6.20758 5.17009
#
# Compressibility (1/GPa) = 0.02124764
#
# Stress axis : x y z
#
# Youngs Moduli (GPa) = 111.17154 77.86149 62.58785
#
# Poissons Ratio (x) = 0.33779 -0.02656
# Poissons Ratio (y) = 0.48231 0.27351
# Poissons Ratio (z) = -0.04717 0.34026
#
# Static dielectric constant tensor:
#      x y z
#    x 1.828810 0.000000 0.020380 
#    y 0.000000 1.846090 0.000000 
#    z 0.020380 0.000000 2.047270 
# 
# From -- ./inp_files/20642.got.cif
#   From: 2010.05.17/outbox.cif.g08.bks.cpg/sg5_11_cif.got.tgz:20642.got - 2010.06.03 18:56:24.
