data_PCOD9120720
_publ_section_title
;
Structure prediction by ZEFSAII (Michael W. Deem and Ramdas Pophale) SiO2 
 PCOD9120720
Probable space group: C 2
;
_chemical_formula_sum "Si O2"
_cell_formula_units_Z 28
_cell_length_a 16.569953
_cell_length_b 8.316915
_cell_length_c 14.555348
_cell_angle_alpha 90.000000
_cell_angle_beta 41.736196
_cell_angle_gamma 90.000000
_cell_volume 1335.321775
_symmetry_space_group_name_H-M "C 2"
_symmetry_group_IT_number 5
_symmetry_cell_setting 'monoclinic'
loop_
_space_group_symop_operation_xyz
x,y,z
-x,y,-z
1/2+x,1/2+y,z
1/2-x,1/2+y,-z
loop_
_atom_site_type_symbol
_atom_site_label
_atom_site_fract_x
_atom_site_fract_y
_atom_site_fract_z
Si Si1 0.379055 0.201890 0.557449
Si Si2 0.307078 0.887921 0.728461
Si Si3 0.510456 0.285490 0.276417
Si Si4 0.080820 0.714441 0.846238
Si Si5 0.182036 0.402884 0.826504
Si Si6 0.623006 0.604815 0.221655
Si Si7 0.783568 0.146770 0.063548
O O1 0.500000 0.276763 0.500000
O O2 0.412192 0.195799 0.422885
O O3 0.266536 0.311303 0.681427
O O4 0.361485 0.031081 0.621865
O O5 0.212892 0.791840 0.745487
O O6 0.398775 0.764895 0.700309
O O7 0.232356 0.974246 0.874738
O O8 0.477976 0.264557 0.198666
O O9 0.518724 0.471650 0.300541
O O10 0.645309 0.214367 0.177577
O O11 0.093174 0.521848 0.848573
O O12 0.000000 0.771574 0.000000
O O13 0.264599 0.519140 0.820975
O O14 0.141755 0.263709 0.931676
O O15 0.663962 0.642747 0.082893
#
# Coordination Sequence:
#
# PCOD9120720 Si02
#       7
#     4   4   4   4   4   4   4
#     4  11  20  43  62  86 126 163 216 259 306 364
#     4  10  21  37  61  90 125 163 201 264 311 372
#     4  11  22  38  65  86 123 169 200 261 314 366
#     4  11  23  41  60  92 130 160 201 259 321 370
#     4   9  20  37  60  85 123 168 196 256 308 364
#     4  10  18  34  60  94 116 156 216 256 307 364
#     4  10  18  36  62  89 120 159 211 254 304 369
#
# _framework density 20.968727999999999
#
# number of rings (size 3 to 8) (size 9 to 14) (size 15 to 20)
#    0.000    1.714    4.286    4.286    0.000    1.143 
#    5.143    8.571    0.000    0.000    0.000    0.000 
#    0.000    0.000    0.000    0.000    0.000    0.000 
#
# Total GULP energy -78146.732462 kJ/mol
# GULP energy per Si atom -5581.909462 kJ/mol
# Density = 2.092100 g / cm^3
# Si number density = 20.968728 Si / 1000 Ang^3
#
#
#
# Elastic Constant Matrix: (Units=GPa)
#
#
# Indices 1 2 3 4 5 6 
#
# 1 75.3019 38.7970 16.2500 0.0000 19.1888 0.0000
# 2 38.7970 108.2296 28.3673 0.0000 9.7566 0.0000
# 3 16.2500 28.3673 101.0820 0.0000 26.0426 0.0000
# 4 0.0000 0.0000 0.0000 17.6887 0.0000 -6.1553
# 5 19.1888 9.7566 26.0426 0.0000 30.2827 0.0000
# 6 0.0000 0.0000 0.0000 -6.1553 0.0000 26.7705
#
#
#
# Elastic Compliance Matrix: (Units=1/GPa)
#
#
# Indices 1 2 3 4 5 6 
#
# 1 0.019060 -0.006228 0.001642 0.000000 -0.011483 0.000000
# 2 -0.006228 0.012033 -0.003075 0.000000 0.002714 0.000000
# 3 0.001642 -0.003075 0.013495 0.000000 -0.011655 0.000000
# 4 0.000000 0.000000 0.000000 0.061450 0.000000 0.014129
# 5 -0.011483 0.002714 -0.011655 0.000000 0.049448 0.000000
# 6 0.000000 0.000000 0.000000 0.014129 0.000000 0.040603
#
#
# Mechanical properties :
#
#
# Convention : Reuss Voigt Hill
#
# Bulk Modulus (GPa) = 34.16782 50.16024 42.16403
# Shear Modulus (GPa) = 22.60743 28.36165 25.48454
#
# Velocity S-wave (km/s) = 3.28708 3.68172 3.48998
# Velocity P-wave (km/s) = 5.54406 6.48435 6.03255
#
# Compressibility (1/GPa) = 0.02926731
#
# Stress axis : x y z
#
# Youngs Moduli (GPa) = 52.46463 83.10185 74.10317
#
# Poissons Ratio (x) = 0.51754 -0.12169
# Poissons Ratio (y) = 0.32674 0.22787
# Poissons Ratio (z) = -0.08616 0.25554
#
# Static dielectric constant tensor:
#      x y z
#    x 1.746480 0.000000 -0.016420 
#    y 0.000000 1.814990 0.000000 
#    z -0.016420 0.000000 1.797950 
# 
# From -- ./inp_files/55721.got.cif
#   From: 2010.05.17/outbox.cif.g08.bks.cpg/sg5_28_cif.got.tgz:55721.got - 2010.06.03 18:56:24.
