data_PCOD9120367
_publ_section_title
;
Structure prediction by ZEFSAII (Michael W. Deem and Ramdas Pophale) SiO2 
 PCOD9120367
Probable space group: C 2
;
_chemical_formula_sum "Si O2"
_cell_formula_units_Z 26
_cell_length_a 12.178786
_cell_length_b 14.007999
_cell_length_c 10.853601
_cell_angle_alpha 90.000000
_cell_angle_beta 36.521877
_cell_angle_gamma 90.000000
_cell_volume 1101.959316
_symmetry_space_group_name_H-M "C 2"
_symmetry_group_IT_number 5
_symmetry_cell_setting 'monoclinic'
loop_
_space_group_symop_operation_xyz
x,y,z
-x,y,-z
1/2+x,1/2+y,z
1/2-x,1/2+y,-z
loop_
_atom_site_type_symbol
_atom_site_label
_atom_site_fract_x
_atom_site_fract_y
_atom_site_fract_z
Si Si1 0.125625 0.849210 0.714815
Si Si2 0.000000 0.455628 0.000000
Si Si3 0.295854 0.297926 0.729040
Si Si4 0.755549 0.414078 0.866230
Si Si5 0.369978 0.627631 0.994677
Si Si6 0.121206 0.485273 0.627798
Si Si7 0.788896 0.180337 0.433377
O O1 0.211415 0.891996 0.763506
O O2 0.191951 0.924052 0.551368
O O3 0.206335 0.744694 0.616020
O O4 0.904368 0.853720 0.922777
O O5 0.171283 0.386592 0.879351
O O6 0.061877 0.508208 0.820754
O O7 0.500000 0.320037 0.500000
O O8 0.209984 0.251348 0.683548
O O9 0.272312 0.212535 0.848782
O O10 0.970012 0.411598 0.707777
O O11 0.719125 0.524636 0.931314
O O12 0.498692 0.646714 0.760036
O O13 0.500000 0.620300 0.000000
O O14 0.164539 0.586036 0.523413
#
# Coordination Sequence:
#
# PCOD9120367 Si02
#       7
#     4   2   4   4   4   4   4
#     4  11  22  43  68 106 134 170 228 293 331 399
#     4  12  26  42  62  96 140 170 224 274 330 412
#     4  11  21  38  67  95 124 172 231 275 327 392
#     4  11  23  41  72  96 134 175 232 277 342 405
#     4  10  17  38  64  98 128 171 226 282 319 404
#     4  12  25  44  69  96 140 185 220 278 350 409
#     4  11  22  41  70  95 140 177 219 283 351 396
#
# _framework density 23.594336999999999
#
# number of rings (size 3 to 8) (size 9 to 14) (size 15 to 20)
#    0.000    0.923    6.923    2.308    2.154    1.231 
#    2.769    0.000    3.385    0.000    0.000    0.000 
#    0.000    0.000    0.000    0.000    0.000    0.000 
#
# Total GULP energy -72612.248111 kJ/mol
# GULP energy per Si atom -5585.557547 kJ/mol
# Density = 2.354064 g / cm^3
# Si number density = 23.594337 Si / 1000 Ang^3
#
#
#
# Elastic Constant Matrix: (Units=GPa)
#
#
# Indices 1 2 3 4 5 6 
#
# 1 38.9835 2.2410 7.0658 -0.0009 1.0846 0.0006
# 2 2.2410 84.2586 31.2963 -0.0004 1.4538 0.0004
# 3 7.0658 31.2963 148.2661 -0.0009 -10.9550 0.0009
# 4 -0.0009 -0.0004 -0.0009 43.4167 0.0008 4.8672
# 5 1.0846 1.4538 -10.9550 0.0008 27.8466 -0.0006
# 6 0.0006 0.0004 0.0009 4.8672 -0.0006 12.0300
#
#
#
# Elastic Compliance Matrix: (Units=1/GPa)
#
#
# Indices 1 2 3 4 5 6 
#
# 1 0.025942 -0.000177 -0.001311 0.000001 -0.001517 -0.000002
# 2 -0.000177 0.012967 -0.002861 0.000000 -0.001796 0.000000
# 3 -0.001311 -0.002861 0.007648 0.000000 0.003209 0.000000
# 4 0.000001 0.000000 0.000000 0.024127 -0.000001 -0.009762
# 5 -0.001517 -0.001796 0.003209 -0.000001 0.037326 0.000002
# 6 -0.000002 0.000000 0.000000 -0.009762 0.000002 0.087075
#
#
# Mechanical properties :
#
#
# Convention : Reuss Voigt Hill
#
# Bulk Modulus (GPa) = 26.41423 39.19052 32.80237
# Shear Modulus (GPa) = 23.10501 32.05231 27.57866
#
# Velocity S-wave (km/s) = 3.13271 3.68975 3.42258
# Velocity P-wave (km/s) = 4.92997 5.89903 5.43614
#
# Compressibility (1/GPa) = 0.03785838
#
# Stress axis : x y z
#
# Youngs Moduli (GPa) = 38.54775 77.12068 130.74960
#
# Poissons Ratio (x) = 0.01364 0.17142
# Poissons Ratio (y) = 0.00682 0.37411
# Poissons Ratio (z) = 0.05054 0.22066
#
# Static dielectric constant tensor:
#      x y z
#    x 1.984960 0.000000 -0.015640 
#    y 0.000000 1.868360 0.000000 
#    z -0.015640 0.000000 1.966730 
# 
# From -- ./inp_files/43039.got.cif
#   From: 2010.05.17/outbox.cif.g08.bks.cpg/sg5_22_cif.got.tgz:43039.got - 2010.06.03 18:56:24.
