data_PCOD9120766
_publ_section_title
;
Structure prediction by ZEFSAII (Michael W. Deem and Ramdas Pophale) SiO2 
 PCOD9120766
Probable space group: C 2
;
_chemical_formula_sum "Si O2"
_cell_formula_units_Z 32
_cell_length_a 19.210951
_cell_length_b 11.641881
_cell_length_c 7.394877
_cell_angle_alpha 90.000000
_cell_angle_beta 82.653910
_cell_angle_gamma 90.000000
_cell_volume 1640.300946
_symmetry_space_group_name_H-M "C 2"
_symmetry_group_IT_number 5
_symmetry_cell_setting 'monoclinic'
loop_
_space_group_symop_operation_xyz
x,y,z
-x,y,-z
1/2+x,1/2+y,z
1/2-x,1/2+y,-z
loop_
_atom_site_type_symbol
_atom_site_label
_atom_site_fract_x
_atom_site_fract_y
_atom_site_fract_z
Si Si1 0.640787 0.212580 0.086798
Si Si2 0.818463 0.512726 0.189236
Si Si3 0.448864 0.414193 0.782324
Si Si4 0.599811 0.380302 0.611685
Si Si5 0.162357 0.645700 0.485664
Si Si6 0.666139 0.601076 0.131410
Si Si7 0.715880 0.540047 0.724245
Si Si8 0.286473 0.837366 0.924439
O O1 0.582723 0.310689 0.089069
O O2 0.632684 0.159997 0.292232
O O3 0.643612 0.107559 0.948631
O O4 0.713521 0.281776 0.023338
O O5 0.846574 0.535044 0.381564
O O6 0.733899 0.539833 0.203682
O O7 0.825236 0.392887 0.083996
O O8 0.532585 0.410525 0.756348
O O9 0.426589 0.385931 0.584264
O O10 0.406042 0.531565 0.827914
O O11 0.636244 0.254937 0.609668
O O12 0.658387 0.473836 0.630072
O O13 0.244196 0.634446 0.407155
O O14 0.670229 0.734592 0.180904
O O15 0.683816 0.596478 0.912610
O O16 0.766922 0.440530 0.792571
#
# Coordination Sequence:
#
# PCOD9120766 Si02
#       8
#     4   4   4   4   4   4   4   4
#     4  10  18  36  53  80 117 147 191 238 287 341
#     4  10  19  33  53  83 114 149 191 238 293 328
#     4  10  20  38  55  82 121 150 190 239 290 350
#     4  10  23  35  55  89 114 152 191 240 299 338
#     4  11  21  33  55  84 116 145 191 245 289 337
#     4  10  19  33  54  81 117 153 186 237 281 344
#     4  11  20  33  55  87 112 149 196 231 296 336
#     4  10  18  35  52  83 119 146 189 240 288 330
#
# _framework density 19.508616
#
# number of rings (size 3 to 8) (size 9 to 14) (size 15 to 20)
#    0.000    1.750    6.250    2.250    1.750    0.500 
#    0.000    0.000    0.000    0.000   16.250    0.000 
#    0.000    0.000    0.000    0.000    0.000    0.000 
#
# Total GULP energy -89107.210811 kJ/mol
# GULP energy per Si atom -5569.200676 kJ/mol
# Density = 1.946421 g / cm^3
# Si number density = 19.508616 Si / 1000 Ang^3
#
#
#
# Elastic Constant Matrix: (Units=GPa)
#
#
# Indices 1 2 3 4 5 6 
#
# 1 68.9078 38.1366 25.9102 0.0000 -15.3736 0.0000
# 2 38.1366 74.0786 9.9775 0.0000 -17.1540 0.0000
# 3 25.9102 9.9775 56.0764 0.0000 -2.6752 0.0000
# 4 0.0000 0.0000 0.0000 27.5232 0.0000 -10.2999
# 5 -15.3736 -17.1540 -2.6752 0.0000 34.5257 0.0000
# 6 0.0000 0.0000 0.0000 -10.2999 0.0000 16.2318
#
#
#
# Elastic Compliance Matrix: (Units=1/GPa)
#
#
# Indices 1 2 3 4 5 6 
#
# 1 0.024970 -0.010371 -0.009443 0.000000 0.005234 0.000000
# 2 -0.010371 0.019880 0.001511 0.000000 0.005376 0.000000
# 3 -0.009443 0.001511 0.021843 0.000000 -0.001761 0.000000
# 4 0.000000 0.000000 0.000000 0.047648 0.000000 0.030235
# 5 0.005234 0.005376 -0.001761 0.000000 0.033829 0.000000
# 6 0.000000 0.000000 0.000000 0.030235 0.000000 0.080793
#
#
# Mechanical properties :
#
#
# Convention : Reuss Voigt Hill
#
# Bulk Modulus (GPa) = 33.23567 38.56794 35.90181
# Shear Modulus (GPa) = 18.14240 23.99203 21.06722
#
# Velocity S-wave (km/s) = 3.05285 3.51068 3.28974
# Velocity P-wave (km/s) = 5.43138 6.02045 5.73348
#
# Compressibility (1/GPa) = 0.03008816
#
# Stress axis : x y z
#
# Youngs Moduli (GPa) = 40.04755 50.30241 45.78168
#
# Poissons Ratio (x) = 0.52169 0.43229
# Poissons Ratio (y) = 0.41534 -0.06919
# Poissons Ratio (z) = 0.37815 -0.07602
#
# Static dielectric constant tensor:
#      x y z
#    x 1.703690 0.000000 0.004890 
#    y 0.000000 1.721750 0.000000 
#    z 0.004890 0.000000 1.754560 
# 
# From -- ./inp_files/29296.got.cif
#   From: 2010.05.17/outbox.cif.g08.bks.cpg/sg5_15_cif.got.tgz:29296.got - 2010.06.03 18:56:24.
