data_PCOD9120628
_publ_section_title
;
Structure prediction by ZEFSAII (Michael W. Deem and Ramdas Pophale) SiO2 
 PCOD9120628
Probable space group: C 2
;
_chemical_formula_sum "Si O2"
_cell_formula_units_Z 24
_cell_length_a 8.443564
_cell_length_b 15.401881
_cell_length_c 8.257573
_cell_angle_alpha 90.000000
_cell_angle_beta 75.039132
_cell_angle_gamma 90.000000
_cell_volume 1037.469009
_symmetry_space_group_name_H-M "C 2"
_symmetry_group_IT_number 5
_symmetry_cell_setting 'monoclinic'
loop_
_space_group_symop_operation_xyz
x,y,z
-x,y,-z
1/2+x,1/2+y,z
1/2-x,1/2+y,-z
loop_
_atom_site_type_symbol
_atom_site_label
_atom_site_fract_x
_atom_site_fract_y
_atom_site_fract_z
Si Si1 0.678150 0.919970 0.379400
Si Si2 0.307191 0.391486 0.997876
Si Si3 0.621617 0.245813 0.620618
Si Si4 0.682392 0.608827 0.603741
Si Si5 0.621380 0.567382 0.128048
Si Si6 0.316942 0.202916 0.891923
O O1 0.500000 0.902163 0.500000
O O2 0.697365 0.921397 0.179097
O O3 0.796769 0.839779 0.389659
O O4 0.734998 0.014143 0.426984
O O5 0.500000 0.382307 0.000000
O O6 0.307422 0.470878 0.872287
O O7 0.249259 0.299189 0.946281
O O8 0.500000 0.247722 0.500000
O O9 0.756112 0.172777 0.551129
O O10 0.507186 0.219935 0.801529
O O11 0.493251 0.591714 0.692428
O O12 0.745422 0.659166 0.748537
O O13 0.500000 0.563217 0.000000
O O14 0.757272 0.637150 0.045283
#
# Coordination Sequence:
#
# PCOD9120628 Si02
#       6
#     4   4   4   4   4   4
#     4  12  23  39  62  90 122 161 202 245 302 362
#     4  11  19  36  60  85 114 155 202 252 296 353
#     4  10  22  38  60  89 121 160 198 248 298 351
#     4  10  20  38  60  85 118 160 197 243 299 366
#     4   9  17  33  56  84 106 151 199 237 297 351
#     4  10  18  33  60  84 113 151 201 239 293 355
#
# _framework density 23.133220999999999
#
# number of rings (size 3 to 8) (size 9 to 14) (size 15 to 20)
#    0.000    1.667    6.667    1.500    2.333    0.000 
#    0.000    0.833    7.333    3.000    0.000    0.000 
#    0.000    0.000    0.000    0.000    0.000    0.000 
#
# Total GULP energy -67069.138396 kJ/mol
# GULP energy per Si atom -5589.094866 kJ/mol
# Density = 2.308057 g / cm^3
# Si number density = 23.133221 Si / 1000 Ang^3
#
#
#
# Elastic Constant Matrix: (Units=GPa)
#
#
# Indices 1 2 3 4 5 6 
#
# 1 42.6664 21.6087 -0.8426 0.0000 4.6102 0.0000
# 2 21.6087 205.6902 31.2582 0.0000 -6.4702 0.0000
# 3 -0.8426 31.2582 111.3948 0.0000 -25.9127 0.0000
# 4 0.0000 0.0000 0.0000 34.5526 0.0000 2.7230
# 5 4.6102 -6.4702 -25.9127 0.0000 14.2752 0.0000
# 6 0.0000 0.0000 0.0000 2.7230 0.0000 33.4034
#
#
#
# Elastic Compliance Matrix: (Units=1/GPa)
#
#
# Indices 1 2 3 4 5 6 
#
# 1 0.026338 -0.002866 -0.002211 0.000000 -0.013818 0.000000
# 2 -0.002866 0.005392 -0.001300 0.000000 0.001010 0.000000
# 3 -0.002211 -0.001300 0.016191 0.000000 0.029515 0.000000
# 4 0.000000 0.000000 0.000000 0.029129 0.000000 -0.002374
# 5 -0.013818 0.001010 0.029515 0.000000 0.128549 0.000000
# 6 0.000000 0.000000 0.000000 -0.002374 0.000000 0.030131
#
#
# Mechanical properties :
#
#
# Convention : Reuss Voigt Hill
#
# Bulk Modulus (GPa) = 28.43472 51.53333 39.98403
# Shear Modulus (GPa) = 19.21563 36.96138 28.08850
#
# Velocity S-wave (km/s) = 2.88523 4.00154 3.48833
# Velocity P-wave (km/s) = 4.83919 6.60870 5.79192
#
# Compressibility (1/GPa) = 0.03516827
#
# Stress axis : x y z
#
# Youngs Moduli (GPa) = 37.96741 185.45928 61.76299
#
# Poissons Ratio (x) = 0.53146 0.13657
# Poissons Ratio (y) = 0.10880 0.08028
# Poissons Ratio (z) = 0.08395 0.24106
#
# Static dielectric constant tensor:
#      x y z
#    x 2.032090 0.000000 0.179150 
#    y 0.000000 1.837390 0.000000 
#    z 0.179150 0.000000 2.031100 
# 
# From -- ./inp_files/38686.got.cif
#   From: 2010.05.17/outbox.cif.g08.bks.cpg/sg5_20_cif.got.tgz:38686.got - 2010.06.03 18:56:24.
