data_PCOD9120861
_publ_section_title
;
Structure prediction by ZEFSAII (Michael W. Deem and Ramdas Pophale) SiO2 
 PCOD9120861
Probable space group: C 2
;
_chemical_formula_sum "Si O2"
_cell_formula_units_Z 28
_cell_length_a 9.859876
_cell_length_b 17.562034
_cell_length_c 13.414335
_cell_angle_alpha 90.000000
_cell_angle_beta 41.164683
_cell_angle_gamma 90.000000
_cell_volume 1528.938967
_symmetry_space_group_name_H-M "C 2"
_symmetry_group_IT_number 5
_symmetry_cell_setting 'monoclinic'
loop_
_space_group_symop_operation_xyz
x,y,z
-x,y,-z
1/2+x,1/2+y,z
1/2-x,1/2+y,-z
loop_
_atom_site_type_symbol
_atom_site_label
_atom_site_fract_x
_atom_site_fract_y
_atom_site_fract_z
Si Si1 0.733554 0.265720 0.900717
Si Si2 0.243918 0.322937 0.885441
Si Si3 0.420289 0.622282 0.885915
Si Si4 0.637562 0.890810 0.325870
Si Si5 0.328252 0.159342 0.776576
Si Si6 0.503490 0.466958 0.749172
Si Si7 0.598158 0.032921 0.557325
O O1 0.860688 0.188117 0.842105
O O2 0.826763 0.321088 0.766292
O O3 0.500000 0.247917 0.000000
O O4 0.732119 0.306908 0.009537
O O5 0.344292 0.250498 0.773112
O O6 0.351081 0.401758 0.795705
O O7 0.000000 0.321894 0.000000
O O8 0.656621 0.634834 0.790025
O O9 0.391130 0.537670 0.862333
O O10 0.276416 0.636018 0.061184
O O11 0.500000 0.871684 0.500000
O O12 0.850784 0.924141 0.250853
O O13 0.524913 0.960370 0.331349
O O14 0.534402 0.111107 0.644682
O O15 0.666044 0.507053 0.583803
O O16 0.500000 0.038502 0.500000
#
# Coordination Sequence:
#
# PCOD9120861 Si02
#       7
#     4   4   4   4   4   4   4
#     4  11  21  36  60  90 116 157 207 251 301 365
#     4  11  22  37  61  95 132 156 202 259 318 359
#     4  10  20  34  58  88 117 153 213 243 307 356
#     4   9  19  35  59  89 116 148 204 251 293 359
#     4  10  18  36  58  87 122 161 200 257 293 376
#     4  10  20  37  58  90 117 159 204 255 295 372
#     4   9  18  34  57  87 116 154 213 247 291 362
#
# _framework density 18.313354
#
# number of rings (size 3 to 8) (size 9 to 14) (size 15 to 20)
#    0.000    2.286    7.143    0.000    2.000    0.571 
#    5.143    0.000    0.000    0.000    0.000    0.000 
#    0.000    0.000    0.000    0.000    0.000    0.000 
#
# Total GULP energy -78026.857164 kJ/mol
# GULP energy per Si atom -5573.346940 kJ/mol
# Density = 1.827167 g / cm^3
# Si number density = 18.313354 Si / 1000 Ang^3
#
#
#
# Elastic Constant Matrix: (Units=GPa)
#
#
# Indices 1 2 3 4 5 6 
#
# 1 41.5356 33.2608 20.7361 -0.0001 -5.9110 -0.0011
# 2 33.2608 174.3503 65.8696 0.0003 -0.7980 -0.0009
# 3 20.7361 65.8696 53.8694 0.0000 -7.8300 -0.0032
# 4 -0.0001 0.0003 0.0000 38.6235 -0.0001 12.8709
# 5 -5.9110 -0.7980 -7.8300 -0.0001 11.3495 0.0007
# 6 -0.0011 -0.0009 -0.0032 12.8709 0.0007 2.0504
#
#
#
# Elastic Compliance Matrix: (Units=1/GPa)
#
#
# Indices 1 2 3 4 5 6 
#
# 1 0.031767 -0.003828 -0.005759 0.000001 0.012302 -0.000001
# 2 -0.003828 0.012054 -0.014929 -0.000005 -0.011446 0.000014
# 3 -0.005759 -0.014929 0.042731 0.000015 0.025431 -0.000043
# 4 0.000001 -0.000005 0.000015 -0.023714 0.000000 0.148855
# 5 0.012302 -0.011446 0.025431 0.000000 0.111258 0.000001
# 6 -0.000001 0.000014 -0.000043 0.148855 0.000001 -0.446689
#
#
# Mechanical properties :
#
#
# Convention : Reuss Voigt Hill
#
# Bulk Modulus (GPa) = 26.65257 56.60981 41.63119
# Shear Modulus (GPa) = -23.69062 20.39727 -1.64667
#
# Velocity S-wave (km/s) = -3.60060 3.34097 -0.94927
# Velocity P-wave (km/s) = 1.64334 6.77212 4.64549
#
# Compressibility (1/GPa) = 0.03751983
#
# Stress axis : x y z
#
# Youngs Moduli (GPa) = 31.47902 82.96284 23.40209
#
# Poissons Ratio (x) = 0.31759 0.13478
# Poissons Ratio (y) = 0.12050 0.34937
# Poissons Ratio (z) = 0.18129 1.23854
#
# Static dielectric constant tensor:
#      x y z
#    x 1.627770 0.000000 -0.002740 
#    y 0.000000 1.654660 0.000000 
#    z -0.002740 0.000000 1.655480 
# 
# From -- ./inp_files/51338.got.cif
#   From: 2010.05.17/outbox.cif.g08.bks.cpg/sg5_26_cif.got.tgz:51338.got - 2010.06.03 18:56:24.
