data_PCOD9120573
_publ_section_title
;
Structure prediction by ZEFSAII (Michael W. Deem and Ramdas Pophale) SiO2 
 PCOD9120573
Probable space group: C 2
;
_chemical_formula_sum "Si O2"
_cell_formula_units_Z 22
_cell_length_a 18.722746
_cell_length_b 7.750933
_cell_length_c 5.782714
_cell_angle_alpha 90.000000
_cell_angle_beta 73.728593
_cell_angle_gamma 90.000000
_cell_volume 805.567061
_symmetry_space_group_name_H-M "C 2"
_symmetry_group_IT_number 5
_symmetry_cell_setting 'monoclinic'
loop_
_space_group_symop_operation_xyz
x,y,z
-x,y,-z
1/2+x,1/2+y,z
1/2-x,1/2+y,-z
loop_
_atom_site_type_symbol
_atom_site_label
_atom_site_fract_x
_atom_site_fract_y
_atom_site_fract_z
Si Si1 0.599503 0.911020 0.785024
Si Si2 0.337443 0.711868 0.652944
Si Si3 0.500000 0.101841 0.500000
Si Si4 0.252894 0.479875 0.017912
Si Si5 0.864580 0.719809 0.898894
Si Si6 0.500000 0.601154 0.000000
Si Si7 0.000000 0.041983 0.500000
O O1 0.665349 0.832769 0.568398
O O2 0.566736 0.740655 0.936085
O O3 0.535954 0.982941 0.665134
O O4 0.616487 0.078538 0.923607
O O5 0.281954 0.551949 0.743938
O O6 0.421723 0.646557 0.587325
O O7 0.310488 0.836724 0.883468
O O8 0.432475 0.217166 0.659473
O O9 0.330032 0.394256 0.037466
O O10 0.207625 0.640369 0.167542
O O11 0.506303 0.486272 0.765130
#
# Coordination Sequence:
#
# PCOD9120573 Si02
#       7
#     4   4   2   4   4   2   2
#     4  11  20  37  72 104 136 186 248 306 359 440
#     4  10  21  41  68 100 138 185 243 297 363 439
#     4  12  21  41  72 106 133 191 250 308 351 453
#     4  10  23  43  65 100 147 187 229 302 367 445
#     4  11  23  43  71 101 145 186 243 297 372 436
#     4  10  18  32  64 104 124 170 244 300 352 422
#     4  10  21  37  70  96 135 183 244 300 355 445
#
# _framework density 27.309954999999999
#
# number of rings (size 3 to 8) (size 9 to 14) (size 15 to 20)
#    0.000    1.455    3.636    3.273    0.000    0.727 
#    6.545    7.273    4.000    0.000    0.000    0.000 
#    0.000    0.000    0.000    0.000    0.000    0.000 
#
# Total GULP energy -61286.841689 kJ/mol
# GULP energy per Si atom -5571.531063 kJ/mol
# Density = 2.724780 g / cm^3
# Si number density = 27.309955 Si / 1000 Ang^3
#
#
#
# Elastic Constant Matrix: (Units=GPa)
#
#
# Indices 1 2 3 4 5 6 
#
# 1 105.2555 33.5889 66.8039 0.0000 -41.0862 0.0000
# 2 33.5889 78.8129 43.7516 0.0000 -4.8552 0.0000
# 3 66.8039 43.7516 172.8692 0.0000 -23.3274 0.0000
# 4 0.0000 0.0000 0.0000 36.3579 0.0000 3.3403
# 5 -41.0862 -4.8552 -23.3274 0.0000 66.3939 0.0000
# 6 0.0000 0.0000 0.0000 3.3403 0.0000 51.7735
#
#
#
# Elastic Compliance Matrix: (Units=1/GPa)
#
#
# Indices 1 2 3 4 5 6 
#
# 1 0.017006 -0.004323 -0.004305 0.000000 0.008695 0.000000
# 2 -0.004323 0.015865 -0.002676 0.000000 -0.002455 0.000000
# 3 -0.004305 -0.002676 0.008125 0.000000 -0.000005 0.000000
# 4 0.000000 0.000000 0.000000 0.027668 0.000000 -0.001785
# 5 0.008695 -0.002455 -0.000005 0.000000 0.020261 0.000000
# 6 0.000000 0.000000 0.000000 -0.001785 0.000000 0.019430
#
#
# Mechanical properties :
#
#
# Convention : Reuss Voigt Hill
#
# Bulk Modulus (GPa) = 54.37874 71.69179 63.03526
# Shear Modulus (GPa) = 36.47177 45.09127 40.78152
#
# Velocity S-wave (km/s) = 3.65838 4.06777 3.86850
# Velocity P-wave (km/s) = 6.14816 6.95489 6.56393
#
# Compressibility (1/GPa) = 0.01838954
#
# Stress axis : x y z
#
# Youngs Moduli (GPa) = 58.80134 63.03238 123.07930
#
# Poissons Ratio (x) = 0.27246 0.52981
# Poissons Ratio (y) = 0.25417 0.32937
# Poissons Ratio (z) = 0.25312 0.16868
#
# Static dielectric constant tensor:
#      x y z
#    x 2.213790 0.000000 0.039880 
#    y 0.000000 2.260910 0.000000 
#    z 0.039880 0.000000 2.134070 
# 
# From -- ./inp_files/9244.got.cif
#   From: 2010.05.17/outbox.cif.g08.bks.cpg/sg5_5_cif.got.tgz:9244.got - 2010.06.03 18:56:24.
