data_PCOD9120606
_publ_section_title
;
Structure prediction by ZEFSAII (Michael W. Deem and Ramdas Pophale) SiO2 
 PCOD9120606
Probable space group: C 2
;
_chemical_formula_sum "Si O2"
_cell_formula_units_Z 28
_cell_length_a 12.698155
_cell_length_b 7.213484
_cell_length_c 14.112946
_cell_angle_alpha 90.000000
_cell_angle_beta 65.812220
_cell_angle_gamma 90.000000
_cell_volume 1179.225947
_symmetry_space_group_name_H-M "C 2"
_symmetry_group_IT_number 5
_symmetry_cell_setting 'monoclinic'
loop_
_space_group_symop_operation_xyz
x,y,z
-x,y,-z
1/2+x,1/2+y,z
1/2-x,1/2+y,-z
loop_
_atom_site_type_symbol
_atom_site_label
_atom_site_fract_x
_atom_site_fract_y
_atom_site_fract_z
Si Si1 0.868715 0.041680 0.079109
Si Si2 0.859848 0.552861 0.937409
Si Si3 0.593335 0.083886 0.384013
Si Si4 0.311524 0.109648 0.155428
Si Si5 0.153149 0.129696 0.703096
Si Si6 0.414377 0.769071 0.750748
Si Si7 0.035865 0.732428 0.753118
O O1 0.772964 0.095960 0.037715
O O2 0.848179 0.157064 0.182703
O O3 0.838730 0.826302 0.116345
O O4 0.000000 0.059268 0.000000
O O5 0.897735 0.389587 0.852416
O O6 0.938770 0.724733 0.872698
O O7 0.866053 0.507160 0.045528
O O8 0.500000 0.069112 0.500000
O O9 0.715350 0.164005 0.374866
O O10 0.531756 0.182921 0.317396
O O11 0.626268 0.887422 0.324342
O O12 0.173070 0.096494 0.210620
O O13 0.371468 0.088720 0.234857
O O14 0.049464 0.235079 0.690593
O O15 0.106641 0.918734 0.710387
#
# Coordination Sequence:
#
# PCOD9120606 Si02
#       7
#     4   4   4   4   4   4   4
#     4  10  18  33  57  88 129 173 208 256 314 373
#     4  10  19  35  59  94 133 175 215 253 319 387
#     4  11  24  47  70  93 129 169 220 282 332 380
#     4  10  18  35  62  89 132 172 205 254 321 381
#     4  11  21  43  66  91 136 167 213 278 321 383
#     4  10  22  42  64 100 132 171 220 268 321 389
#     4  10  20  41  66  90 131 170 213 269 324 383
#
# _framework density 23.744388000000001
#
# number of rings (size 3 to 8) (size 9 to 14) (size 15 to 20)
#    0.000    1.714    5.714    3.000    0.000    2.286 
#    5.143   13.571    0.000    0.000    0.000    0.000 
#    0.000    0.000    0.000    0.000    0.000    0.000 
#
# Total GULP energy -78216.498040 kJ/mol
# GULP energy per Si atom -5586.892717 kJ/mol
# Density = 2.369034 g / cm^3
# Si number density = 23.744388 Si / 1000 Ang^3
#
#
#
# Elastic Constant Matrix: (Units=GPa)
#
#
# Indices 1 2 3 4 5 6 
#
# 1 168.3073 21.6797 33.5196 0.0000 -34.6787 0.0000
# 2 21.6797 30.5913 9.1037 0.0000 -2.1330 0.0000
# 3 33.5196 9.1037 94.8578 0.0000 -30.1724 0.0000
# 4 0.0000 0.0000 0.0000 9.8319 0.0000 -5.6146
# 5 -34.6787 -2.1330 -30.1724 0.0000 38.8754 0.0000
# 6 0.0000 0.0000 0.0000 -5.6146 0.0000 37.1583
#
#
#
# Elastic Compliance Matrix: (Units=1/GPa)
#
#
# Indices 1 2 3 4 5 6 
#
# 1 0.008033 -0.005163 -0.000204 0.000000 0.006724 0.000000
# 2 -0.005163 0.036991 -0.003379 0.000000 -0.005199 0.000000
# 3 -0.000204 -0.003379 0.014369 0.000000 0.010785 0.000000
# 4 0.000000 0.000000 0.000000 0.111315 0.000000 0.016820
# 5 0.006724 -0.005199 0.010785 0.000000 0.039806 0.000000
# 6 0.000000 0.000000 0.000000 0.016820 0.000000 0.029453
#
#
# Mechanical properties :
#
#
# Convention : Reuss Voigt Hill
#
# Bulk Modulus (GPa) = 23.86668 46.92916 35.39792
# Shear Modulus (GPa) = 18.42116 32.47002 25.44559
#
# Velocity S-wave (km/s) = 2.78836 3.70196 3.27715
# Velocity P-wave (km/s) = 4.52105 6.17089 5.40924
#
# Compressibility (1/GPa) = 0.04189942
#
# Stress axis : x y z
#
# Youngs Moduli (GPa) = 124.49249 27.03350 69.59448
#
# Poissons Ratio (x) = 0.13957 0.01422
# Poissons Ratio (y) = 0.64276 0.23518
# Poissons Ratio (z) = 0.02543 0.09135
#
# Static dielectric constant tensor:
#      x y z
#    x 1.957020 0.000000 -0.013330 
#    y 0.000000 2.042600 0.000000 
#    z -0.013330 0.000000 1.828450 
# 
# From -- ./inp_files/52370.got.cif
#   From: 2010.05.17/outbox.cif.g08.bks.cpg/sg5_27_cif.got.tgz:52370.got - 2010.06.03 18:56:24.
