data_PCOD9120515
_publ_section_title
;
Structure prediction by ZEFSAII (Michael W. Deem and Ramdas Pophale) SiO2 
 PCOD9120515
Probable space group: C 2
;
_chemical_formula_sum "Si O2"
_cell_formula_units_Z 30
_cell_length_a 13.425920
_cell_length_b 19.712201
_cell_length_c 10.859083
_cell_angle_alpha 90.000000
_cell_angle_beta 147.803654
_cell_angle_gamma 90.000000
_cell_volume 1531.280413
_symmetry_space_group_name_H-M "C 2"
_symmetry_group_IT_number 5
_symmetry_cell_setting 'monoclinic'
loop_
_space_group_symop_operation_xyz
x,y,z
-x,y,-z
1/2+x,1/2+y,z
1/2-x,1/2+y,-z
loop_
_atom_site_type_symbol
_atom_site_label
_atom_site_fract_x
_atom_site_fract_y
_atom_site_fract_z
Si Si1 0.745523 0.918320 0.496503
Si Si2 0.221431 0.625689 0.516021
Si Si3 0.500000 0.178174 0.500000
Si Si4 0.463889 0.520499 0.107081
Si Si5 0.794339 0.940354 0.264345
Si Si6 0.250042 0.787924 0.839872
Si Si7 0.653647 0.772273 0.351480
Si Si8 0.574025 0.016883 0.827505
O O1 0.940202 0.952470 0.737886
O O2 0.715393 0.928354 0.318019
O O3 0.732895 0.838225 0.502143
O O4 0.575789 0.961166 0.378042
O O5 0.151480 0.634810 0.584865
O O6 0.409168 0.581496 0.707218
O O7 0.268638 0.701004 0.520430
O O8 0.051546 0.583322 0.280004
O O9 0.597949 0.229350 0.699820
O O10 0.500000 0.519524 0.000000
O O11 0.248304 0.527581 0.918613
O O12 0.814097 0.865987 0.221008
O O13 0.000000 0.969774 0.500000
O O14 0.669345 0.987605 0.049758
O O15 0.298684 0.777676 0.745381
O O16 0.428999 0.776443 0.111757
#
# Coordination Sequence:
#
# PCOD9120515 Si02
#       8
#     4   4   2   4   4   4   4   4
#     4  10  21  38  60  89 112 148 190 240 293 340
#     4  10  23  34  52  81 118 153 189 228 288 347
#     4  10  18  32  52  80 114 156 190 228 296 348
#     4  11  24  39  56  81 117 156 200 233 277 339
#     4  11  18  34  60  93 121 142 187 238 297 352
#     4   9  17  27  54  88 115 143 175 239 304 343
#     4   9  18  33  53  83 119 142 182 239 292 346
#     4  11  22  37  56  84 120 157 184 233 289 343
#
# _framework density 19.591446000000001
#
# number of rings (size 3 to 8) (size 9 to 14) (size 15 to 20)
#    0.000    1.867    3.333    1.200    5.600    1.600 
#    0.000    0.000    0.000    3.200    0.000    1.867 
#    0.000    0.000    0.000    0.000    0.000    0.000 
#
# Total GULP energy -83686.685012 kJ/mol
# GULP energy per Si atom -5579.112334 kJ/mol
# Density = 1.954686 g / cm^3
# Si number density = 19.591446 Si / 1000 Ang^3
#
#
#
# Elastic Constant Matrix: (Units=GPa)
#
#
# Indices 1 2 3 4 5 6 
#
# 1 43.1277 3.9606 9.2502 0.0000 19.8437 0.0000
# 2 3.9606 138.2037 50.9082 0.0000 9.0526 0.0000
# 3 9.2502 50.9082 70.5859 0.0000 15.1742 0.0000
# 4 0.0000 0.0000 0.0000 29.3069 0.0000 1.1490
# 5 19.8437 9.0526 15.1742 0.0000 28.4624 0.0000
# 6 0.0000 0.0000 0.0000 1.1490 0.0000 18.6409
#
#
#
# Elastic Compliance Matrix: (Units=1/GPa)
#
#
# Indices 1 2 3 4 5 6 
#
# 1 0.034193 0.000462 0.000386 0.000000 -0.024192 0.000000
# 2 0.000462 0.009873 -0.007270 0.000000 0.000413 0.000000
# 3 0.000386 -0.007270 0.021370 0.000000 -0.009350 0.000000
# 4 0.000000 0.000000 0.000000 0.034204 0.000000 -0.002108
# 5 -0.024192 0.000413 -0.009350 0.000000 0.056854 0.000000
# 6 0.000000 0.000000 0.000000 -0.002108 0.000000 0.053776
#
#
# Mechanical properties :
#
#
# Convention : Reuss Voigt Hill
#
# Bulk Modulus (GPa) = 19.01403 42.23944 30.62674
# Shear Modulus (GPa) = 20.77755 27.80192 24.28973
#
# Velocity S-wave (km/s) = 3.26013 3.77116 3.52492
# Velocity P-wave (km/s) = 4.88852 6.36939 5.67744
#
# Compressibility (1/GPa) = 0.05259274
#
# Stress axis : x y z
#
# Youngs Moduli (GPa) = 29.24603 101.28137 46.79419
#
# Poissons Ratio (x) = -0.04684 -0.01807
# Poissons Ratio (y) = -0.01353 0.34022
# Poissons Ratio (z) = -0.01129 0.73636
#
# Static dielectric constant tensor:
#      x y z
#    x 1.733770 0.000000 0.038190 
#    y 0.000000 1.727750 0.000000 
#    z 0.038190 0.000000 1.707300 
# 
# From -- ./inp_files/43458.got.cif
#   From: 2010.05.17/outbox.cif.g08.bks.cpg/sg5_22_cif.got.tgz:43458.got - 2010.06.03 18:56:24.
