data_PCOD9120420
_publ_section_title
;
Structure prediction by ZEFSAII (Michael W. Deem and Ramdas Pophale) SiO2 
 PCOD9120420
Probable space group: C 2
;
_chemical_formula_sum "Si O2"
_cell_formula_units_Z 32
_cell_length_a 31.422770
_cell_length_b 8.800394
_cell_length_c 5.470336
_cell_angle_alpha 90.000000
_cell_angle_beta 76.180532
_cell_angle_gamma 90.000000
_cell_volume 1468.938447
_symmetry_space_group_name_H-M "C 2"
_symmetry_group_IT_number 5
_symmetry_cell_setting 'monoclinic'
loop_
_space_group_symop_operation_xyz
x,y,z
-x,y,-z
1/2+x,1/2+y,z
1/2-x,1/2+y,-z
loop_
_atom_site_type_symbol
_atom_site_label
_atom_site_fract_x
_atom_site_fract_y
_atom_site_fract_z
Si Si1 0.477292 0.285790 0.282778
Si Si2 0.383835 0.225555 0.232354
Si Si3 0.680614 0.426305 0.374661
Si Si4 0.724415 0.147114 0.092379
Si Si5 0.889403 0.006703 0.901678
Si Si6 0.512248 0.627691 0.234887
Si Si7 0.809187 0.156528 0.256881
Si Si8 0.313964 0.008267 0.353282
O O1 0.500000 0.231931 0.500000
O O2 0.426708 0.241787 0.337871
O O3 0.483510 0.470141 0.273412
O O4 0.500000 0.232642 0.000000
O O5 0.342109 0.308396 0.409098
O O6 0.365032 0.056840 0.239273
O O7 0.393547 0.330643 0.983258
O O8 0.708110 0.321554 0.151863
O O9 0.639279 0.505468 0.302818
O O10 0.706292 0.544079 0.507097
O O11 0.776252 0.141283 0.073451
O O12 0.702771 0.057338 0.353212
O O13 0.709102 0.085431 0.852629
O O14 0.937278 0.077123 0.825794
O O15 0.857967 0.100705 0.125807
O O16 0.500000 0.711688 0.500000
O O17 0.500000 0.707983 0.000000
O O18 0.808053 0.328791 0.341685
#
# Coordination Sequence:
#
# PCOD9120420 Si02
#       8
#     4   4   4   4   4   4   4   4
#     4  10  18  29  56  92 118 156 204 270 309 377
#     4  10  20  38  61  95 128 164 219 267 333 387
#     4  10  22  40  63  92 126 172 215 279 317 396
#     4  11  25  44  67  90 131 174 236 267 331 394
#     4  11  21  38  63  96 128 167 217 271 332 390
#     4  10  19  32  56  92 121 155 206 270 314 375
#     4  11  27  39  65  95 134 176 221 280 341 403
#     4  11  26  44  66  97 132 179 216 288 334 404
#
# _framework density 21.784437
#
# number of rings (size 3 to 8) (size 9 to 14) (size 15 to 20)
#    0.000    1.500    3.750    2.250    7.000    0.000 
#    0.000    0.000    0.000    0.750    0.000    0.875 
#    0.000    0.000    0.000    0.000    0.000    0.000 
#
# Total GULP energy -89349.330193 kJ/mol
# GULP energy per Si atom -5584.333137 kJ/mol
# Density = 2.173486 g / cm^3
# Si number density = 21.784437 Si / 1000 Ang^3
#
#
#
# Elastic Constant Matrix: (Units=GPa)
#
#
# Indices 1 2 3 4 5 6 
#
# 1 115.1291 19.2600 30.9892 0.0000 14.2917 0.0000
# 2 19.2600 64.4916 9.1462 0.0000 -2.8227 0.0000
# 3 30.9892 9.1462 127.2246 0.0000 11.1212 0.0000
# 4 0.0000 0.0000 0.0000 13.6360 0.0000 1.2150
# 5 14.2917 -2.8227 11.1212 0.0000 39.3489 0.0000
# 6 0.0000 0.0000 0.0000 1.2150 0.0000 15.6949
#
#
#
# Elastic Compliance Matrix: (Units=1/GPa)
#
#
# Indices 1 2 3 4 5 6 
#
# 1 0.010110 -0.002886 -0.001965 0.000000 -0.003324 0.000000
# 2 -0.002886 0.016574 -0.000701 0.000000 0.002435 0.000000
# 3 -0.001965 -0.000701 0.008542 0.000000 -0.001751 0.000000
# 4 0.000000 0.000000 0.000000 0.073845 0.000000 -0.005717
# 5 -0.003324 0.002435 -0.001751 0.000000 0.027290 0.000000
# 6 0.000000 0.000000 0.000000 -0.005717 0.000000 0.064157
#
#
# Mechanical properties :
#
#
# Convention : Reuss Voigt Hill
#
# Bulk Modulus (GPa) = 41.45614 47.29290 44.37452
# Shear Modulus (GPa) = 22.76206 30.23264 26.49735
#
# Velocity S-wave (km/s) = 3.23596 3.72937 3.49139
# Velocity P-wave (km/s) = 5.74747 6.34830 6.05534
#
# Compressibility (1/GPa) = 0.02412188
#
# Stress axis : x y z
#
# Youngs Moduli (GPa) = 98.91060 60.33587 117.06682
#
# Poissons Ratio (x) = 0.17414 0.22999
# Poissons Ratio (y) = 0.28547 0.08211
# Poissons Ratio (z) = 0.19432 0.04232
#
# Static dielectric constant tensor:
#      x y z
#    x 1.794090 0.000000 -0.018890 
#    y 0.000000 1.798660 0.000000 
#    z -0.018890 0.000000 1.872270 
# 
# From -- ./inp_files/11232.got.cif
#   From: 2010.05.17/outbox.cif.g08.bks.cpg/sg5_6_cif.got.tgz:11232.got - 2010.06.03 18:56:24.
