data_PCOD9120235
_publ_section_title
;
Structure prediction by ZEFSAII (Michael W. Deem and Ramdas Pophale) SiO2 
 PCOD9120235
Probable space group: C 2
;
_chemical_formula_sum "Si O2"
_cell_formula_units_Z 30
_cell_length_a 15.626318
_cell_length_b 9.694130
_cell_length_c 7.735686
_cell_angle_alpha 90.000000
_cell_angle_beta 96.495371
_cell_angle_gamma 90.000000
_cell_volume 1164.307266
_symmetry_space_group_name_H-M "C 2"
_symmetry_group_IT_number 5
_symmetry_cell_setting 'monoclinic'
loop_
_space_group_symop_operation_xyz
x,y,z
-x,y,-z
1/2+x,1/2+y,z
1/2-x,1/2+y,-z
loop_
_atom_site_type_symbol
_atom_site_label
_atom_site_fract_x
_atom_site_fract_y
_atom_site_fract_z
Si Si1 0.904348 0.901910 0.981990
Si Si2 0.681088 0.954044 0.079326
Si Si3 0.109108 0.384660 0.608110
Si Si4 0.918678 0.207499 0.102010
Si Si5 0.765956 0.025705 0.746919
Si Si6 0.818413 0.814563 0.287320
Si Si7 0.966375 0.540575 0.729366
Si Si8 0.000000 0.790623 0.500000
O O1 0.847872 0.804601 0.091128
O O2 0.913333 0.045573 0.087080
O O3 0.861662 0.962089 0.795059
O O4 0.000000 0.842435 0.000000
O O5 0.746517 0.933833 0.254496
O O6 0.594155 0.028385 0.121179
O O7 0.654710 0.801102 0.003753
O O8 0.733315 0.023638 0.937947
O O9 0.081201 0.245810 0.695681
O O10 0.209889 0.409982 0.638554
O O11 0.074104 0.428224 0.415239
O O12 0.065619 0.493766 0.736031
O O13 0.000000 0.247203 0.000000
O O14 0.733102 0.174252 0.669002
O O15 0.908322 0.848233 0.406563
O O16 0.965510 0.688936 0.643256
#
# Coordination Sequence:
#
# PCOD9120235 Si02
#       8
#     4   4   4   4   4   4   4   2
#     4  10  23  38  58  86 118 156 200 237 299 360
#     4  10  21  33  61  90 117 145 201 247 302 341
#     4   9  18  32  58  85 119 145 192 246 301 336
#     4  10  17  32  57  85 115 147 188 245 294 343
#     4  10  19  37  61  84 113 153 194 256 289 341
#     4  11  21  42  58  86 122 162 192 246 300 356
#     4  10  18  35  55  94 113 147 199 248 296 348
#     4  10  22  40  60  78 130 160 194 242 298 358
#
# _framework density 25.766394999999999
#
# number of rings (size 3 to 8) (size 9 to 14) (size 15 to 20)
#    0.000    2.133    5.333    0.000    0.000    1.067 
#    2.400    4.000    0.000    0.000    0.000    0.000 
#    0.000    0.000    0.000    0.000    0.000    0.000 
#
# Total GULP energy -83617.322508 kJ/mol
# GULP energy per Si atom -5574.488167 kJ/mol
# Density = 2.570775 g / cm^3
# Si number density = 25.766395 Si / 1000 Ang^3
#
#
#
# Elastic Constant Matrix: (Units=GPa)
#
#
# Indices 1 2 3 4 5 6 
#
# 1 110.1789 3.1086 11.3048 0.0000 29.6579 0.0000
# 2 3.1086 50.3883 5.9444 0.0000 4.9486 0.0000
# 3 11.3048 5.9444 80.2865 0.0000 11.2535 0.0000
# 4 0.0000 0.0000 0.0000 29.8981 0.0000 -1.7674
# 5 29.6579 4.9486 11.2535 0.0000 53.0592 0.0000
# 6 0.0000 0.0000 0.0000 -1.7674 0.0000 23.3938
#
#
#
# Elastic Compliance Matrix: (Units=1/GPa)
#
#
# Indices 1 2 3 4 5 6 
#
# 1 0.010721 -0.000006 -0.000690 0.000000 -0.005846 0.000000
# 2 -0.000006 0.020154 -0.001266 0.000000 -0.001608 0.000000
# 3 -0.000690 -0.001266 0.012961 0.000000 -0.002245 0.000000
# 4 0.000000 0.000000 0.000000 0.033597 0.000000 0.002538
# 5 -0.005846 -0.001608 -0.002245 0.000000 0.022740 0.000000
# 6 0.000000 0.000000 0.000000 0.002538 0.000000 0.042938
#
#
# Mechanical properties :
#
#
# Convention : Reuss Voigt Hill
#
# Bulk Modulus (GPa) = 25.05525 31.28547 28.17036
# Shear Modulus (GPa) = 31.18414 35.96993 33.57704
#
# Velocity S-wave (km/s) = 3.48266 3.74036 3.61381
# Velocity P-wave (km/s) = 5.09087 5.55176 5.32631
#
# Compressibility (1/GPa) = 0.03991180
#
# Stress axis : x y z
#
# Youngs Moduli (GPa) = 93.27850 49.61916 77.15471
#
# Poissons Ratio (x) = 0.00029 0.05322
# Poissons Ratio (y) = 0.00055 0.09768
# Poissons Ratio (z) = 0.06434 0.06282
#
# Static dielectric constant tensor:
#      x y z
#    x 2.154400 0.000000 0.061050 
#    y 0.000000 2.040770 0.000000 
#    z 0.061050 0.000000 2.140800 
# 
# From -- ./inp_files/27290.got.cif
#   From: 2010.05.17/outbox.cif.g08.bks.cpg/sg5_14_cif.got.tgz:27290.got - 2010.06.03 18:56:24.
