data_PCOD9120906
_publ_section_title
;
Structure prediction by ZEFSAII (Michael W. Deem and Ramdas Pophale) SiO2 
 PCOD9120906
Probable space group: C 2
;
_chemical_formula_sum "Si O2"
_cell_formula_units_Z 26
_cell_length_a 14.957255
_cell_length_b 7.999904
_cell_length_c 13.700958
_cell_angle_alpha 90.000000
_cell_angle_beta 137.696345
_cell_angle_gamma 90.000000
_cell_volume 1103.420866
_symmetry_space_group_name_H-M "C 2"
_symmetry_group_IT_number 5
_symmetry_cell_setting 'monoclinic'
loop_
_space_group_symop_operation_xyz
x,y,z
-x,y,-z
1/2+x,1/2+y,z
1/2-x,1/2+y,-z
loop_
_atom_site_type_symbol
_atom_site_label
_atom_site_fract_x
_atom_site_fract_y
_atom_site_fract_z
Si Si1 0.896455 0.467170 0.254463
Si Si2 0.462980 0.137620 0.804959
Si Si3 0.500000 0.873147 0.000000
Si Si4 0.867570 0.941825 0.090175
Si Si5 0.721935 0.451188 0.579743
Si Si6 0.202993 0.780334 0.754722
Si Si7 0.559349 0.686787 0.324339
O O1 0.851515 0.593083 0.300846
O O2 0.996145 0.578321 0.269524
O O3 0.975248 0.296707 0.333990
O O4 0.765860 0.445640 0.081094
O O5 0.530917 0.312511 0.877661
O O6 0.306061 0.114944 0.680942
O O7 0.516982 0.998655 0.922622
O O8 0.636583 0.775405 0.121419
O O9 0.833289 0.870556 0.171521
O O10 0.943668 0.118897 0.158981
O O11 0.656048 0.384163 0.624036
O O12 0.624347 0.519144 0.419271
O O13 0.825073 0.307036 0.625705
#
# Coordination Sequence:
#
# PCOD9120906 Si02
#       7
#     4   4   2   4   4   4   4
#     4  10  21  38  66 101 129 176 216 282 332 402
#     4   9  19  36  61  94 129 175 221 258 334 384
#     4  10  18  36  62  94 140 172 214 278 312 404
#     4  11  21  38  65  98 136 179 210 278 339 404
#     4  10  23  43  66  95 132 187 219 280 326 401
#     4  10  22  39  65  95 133 175 233 268 341 389
#     4  11  23  43  68  95 140 173 229 269 343 397
#
# _framework density 23.563085999999998
#
# number of rings (size 3 to 8) (size 9 to 14) (size 15 to 20)
#    0.000    1.846    1.538    2.769    4.308    0.615 
#    2.769    3.077    0.000    0.000    0.000    0.000 
#    0.000    0.000    0.000    0.000    0.000    0.000 
#
# Total GULP energy -72593.159169 kJ/mol
# GULP energy per Si atom -5584.089167 kJ/mol
# Density = 2.350946 g / cm^3
# Si number density = 23.563086 Si / 1000 Ang^3
#
#
#
# Elastic Constant Matrix: (Units=GPa)
#
#
# Indices 1 2 3 4 5 6 
#
# 1 68.0392 40.4098 26.8118 0.0000 11.6134 0.0000
# 2 40.4098 90.0132 19.6127 0.0000 18.6270 0.0000
# 3 26.8118 19.6127 68.4852 0.0000 13.6948 0.0000
# 4 0.0000 0.0000 0.0000 18.4032 0.0000 -3.2907
# 5 11.6134 18.6270 13.6948 0.0000 27.6916 0.0000
# 6 0.0000 0.0000 0.0000 -3.2907 0.0000 32.1253
#
#
#
# Elastic Compliance Matrix: (Units=1/GPa)
#
#
# Indices 1 2 3 4 5 6 
#
# 1 0.022304 -0.008555 -0.006173 0.000000 -0.000547 0.000000
# 2 -0.008555 0.016486 0.000142 0.000000 -0.007572 0.000000
# 3 -0.006173 0.000142 0.018288 0.000000 -0.006551 0.000000
# 4 0.000000 0.000000 0.000000 0.055352 0.000000 0.005670
# 5 -0.000547 -0.007572 -0.006551 0.000000 0.044674 0.000000
# 6 0.000000 0.000000 0.000000 0.005670 0.000000 0.031709
#
#
# Mechanical properties :
#
#
# Convention : Reuss Voigt Hill
#
# Bulk Modulus (GPa) = 35.83376 44.46737 40.15056
# Shear Modulus (GPa) = 21.99864 24.95755 23.47810
#
# Velocity S-wave (km/s) = 3.05881 3.25804 3.15999
# Velocity P-wave (km/s) = 5.26457 5.75027 5.51277
#
# Compressibility (1/GPa) = 0.02790664
#
# Stress axis : x y z
#
# Youngs Moduli (GPa) = 44.83468 60.65745 54.68196
#
# Poissons Ratio (x) = 0.51892 0.33754
# Poissons Ratio (y) = 0.38356 -0.00777
# Poissons Ratio (z) = 0.27675 -0.00862
#
# Static dielectric constant tensor:
#      x y z
#    x 1.925440 0.000000 -0.009300 
#    y 0.000000 1.916120 0.000000 
#    z -0.009300 0.000000 1.955460 
# 
# From -- ./inp_files/54319.got.cif
#   From: 2010.05.17/outbox.cif.g08.bks.cpg/sg5_28_cif.got.tgz:54319.got - 2010.06.03 18:56:24.
