data_PCOD9120989
_publ_section_title
;
Structure prediction by ZEFSAII (Michael W. Deem and Ramdas Pophale) SiO2 
 PCOD9120989
Probable space group: C 2
;
_chemical_formula_sum "Si O2"
_cell_formula_units_Z 32
_cell_length_a 13.650862
_cell_length_b 16.524981
_cell_length_c 10.814660
_cell_angle_alpha 90.000000
_cell_angle_beta 140.465007
_cell_angle_gamma 90.000000
_cell_volume 1552.908994
_symmetry_space_group_name_H-M "C 2"
_symmetry_group_IT_number 5
_symmetry_cell_setting 'monoclinic'
loop_
_space_group_symop_operation_xyz
x,y,z
-x,y,-z
1/2+x,1/2+y,z
1/2-x,1/2+y,-z
loop_
_atom_site_type_symbol
_atom_site_label
_atom_site_fract_x
_atom_site_fract_y
_atom_site_fract_z
Si Si1 0.079753 0.978730 0.269559
Si Si2 0.261750 0.347023 0.244551
Si Si3 0.335978 0.069399 0.380232
Si Si4 0.132920 0.189121 0.038562
Si Si5 0.542826 0.311921 0.333255
Si Si6 0.177037 0.080318 0.881400
Si Si7 0.525729 0.131536 0.233198
Si Si8 0.242718 0.027467 0.686776
O O1 0.076333 0.882522 0.269056
O O2 0.151970 0.007238 0.472221
O O3 0.192303 0.011994 0.273056
O O4 0.907437 0.014699 0.113313
O O5 0.147152 0.284061 0.070883
O O6 0.404499 0.343850 0.287195
O O7 0.318239 0.309180 0.430886
O O8 0.206790 0.438142 0.215471
O O9 0.500000 0.031011 0.500000
O O10 0.282924 0.140531 0.235003
O O11 0.380156 0.110712 0.551888
O O12 0.110716 0.162642 0.876164
O O13 0.000000 0.160109 0.000000
O O14 0.506685 0.228293 0.228600
O O15 0.149255 0.062957 0.711412
O O16 0.361351 0.086848 0.070489
O O17 0.627977 0.092722 0.223968
#
# Coordination Sequence:
#
# PCOD9120989 Si02
#       8
#     4   4   4   4   4   4   4   4
#     4  10  22  38  65  90 120 165 210 262 309 383
#     4  10  19  37  63  91 122 158 211 263 306 367
#     4  11  20  39  61  91 119 159 203 257 328 373
#     4  12  23  35  62  95 126 154 204 268 306 371
#     4  10  18  37  66  92 114 165 215 255 308 378
#     4  12  21  36  58  88 127 162 208 253 310 369
#     4  11  22  36  66  90 127 164 206 262 312 376
#     4  10  23  40  62  89 126 171 205 256 316 372
#
# _framework density 20.606487000000001
#
# number of rings (size 3 to 8) (size 9 to 14) (size 15 to 20)
#    0.000    1.250    6.250    0.750    0.000    1.000 
#    0.000    0.000    8.250    3.000    0.000    0.000 
#    0.000    0.000    0.000    0.000    0.000    0.000 
#
# Total GULP energy -89183.936725 kJ/mol
# GULP energy per Si atom -5573.996045 kJ/mol
# Density = 2.055959 g / cm^3
# Si number density = 20.606487 Si / 1000 Ang^3
#
#
#
# Elastic Constant Matrix: (Units=GPa)
#
#
# Indices 1 2 3 4 5 6 
#
# 1 126.3207 52.8431 12.3741 0.0000 2.8312 0.0000
# 2 52.8431 130.6718 27.7268 0.0000 -0.7981 0.0000
# 3 12.3741 27.7268 40.2215 0.0000 -5.9970 0.0000
# 4 0.0000 0.0000 0.0000 21.8433 0.0000 -7.6731
# 5 2.8312 -0.7981 -5.9970 0.0000 30.3288 0.0000
# 6 0.0000 0.0000 0.0000 -7.6731 0.0000 26.6756
#
#
#
# Elastic Compliance Matrix: (Units=1/GPa)
#
#
# Indices 1 2 3 4 5 6 
#
# 1 0.009567 -0.003767 -0.000509 0.000000 -0.001093 0.000000
# 2 -0.003767 0.010478 -0.006152 0.000000 -0.000589 0.000000
# 3 -0.000509 -0.006152 0.030131 0.000000 0.005844 0.000000
# 4 0.000000 0.000000 0.000000 0.050927 0.000000 0.014649
# 5 -0.001093 -0.000589 0.005844 0.000000 0.034214 0.000000
# 6 0.000000 0.000000 0.000000 0.014649 0.000000 0.041701
#
#
# Mechanical properties :
#
#
# Convention : Reuss Voigt Hill
#
# Bulk Modulus (GPa) = 34.10746 53.67801 43.89273
# Shear Modulus (GPa) = 24.07933 29.38754 26.73343
#
# Velocity S-wave (km/s) = 3.42209 3.78051 3.60576
# Velocity P-wave (km/s) = 5.67468 6.72027 6.21948
#
# Compressibility (1/GPa) = 0.02931910
#
# Stress axis : x y z
#
# Youngs Moduli (GPa) = 104.52909 95.43793 33.18844
#
# Poissons Ratio (x) = 0.35955 0.01690
# Poissons Ratio (y) = 0.39380 0.20417
# Poissons Ratio (z) = 0.05321 0.58712
#
# Static dielectric constant tensor:
#      x y z
#    x 1.786870 0.000000 0.033800 
#    y 0.000000 1.735460 0.000000 
#    z 0.033800 0.000000 1.803670 
# 
# From -- ./inp_files/43094.got.cif
#   From: 2010.05.17/outbox.cif.g08.bks.cpg/sg5_22_cif.got.tgz:43094.got - 2010.06.03 18:56:24.
