data_PCOD9120153
_publ_section_title
;
Structure prediction by ZEFSAII (Michael W. Deem and Ramdas Pophale) SiO2 
 PCOD9120153
Probable space group: C 2
;
_chemical_formula_sum "Si O2"
_cell_formula_units_Z 30
_cell_length_a 14.978218
_cell_length_b 19.778942
_cell_length_c 12.928465
_cell_angle_alpha 90.000000
_cell_angle_beta 149.672435
_cell_angle_gamma 90.000000
_cell_volume 1933.982219
_symmetry_space_group_name_H-M "C 2"
_symmetry_group_IT_number 5
_symmetry_cell_setting 'monoclinic'
loop_
_space_group_symop_operation_xyz
x,y,z
-x,y,-z
1/2+x,1/2+y,z
1/2-x,1/2+y,-z
loop_
_atom_site_type_symbol
_atom_site_label
_atom_site_fract_x
_atom_site_fract_y
_atom_site_fract_z
Si Si1 0.703696 0.531170 0.203696
Si Si2 0.292093 0.190347 0.906912
Si Si3 0.291816 0.145362 0.128547
Si Si4 0.207894 0.690350 0.322717
Si Si5 0.500006 0.756659 0.113757
Si Si6 0.000000 0.418587 0.500000
Si Si7 0.291829 0.145364 0.455094
Si Si8 0.999993 0.301159 0.663047
O O1 0.741956 0.579133 0.143041
O O2 0.741962 0.579136 0.340872
O O3 0.831613 0.467540 0.331614
O O4 0.500000 0.511327 0.000000
O O5 0.255343 0.162436 0.755339
O O6 0.169121 0.255581 0.800527
O O7 0.258974 0.142016 0.972089
O O8 0.499993 0.208427 0.118735
O O9 0.499992 0.158844 0.353252
O O10 0.168903 0.206732 0.044216
O O11 0.241017 0.642019 0.454136
O O12 0.330855 0.755586 0.462263
O O13 0.668924 0.706736 0.293607
O O14 0.500003 0.805557 0.212565
O O15 0.500000 0.787966 0.000000
O O16 0.000001 0.369846 0.599607
#
# Coordination Sequence:
#
# PCOD9120153 Si02
#       8
#     4   4   4   4   4   2   4   4
#     4  12  22  34  50  74 104 140 172 211 246 302
#     4   9  17  29  50  75 104 130 158 216 255 299
#     4  10  17  29  49  76 105 127 165 206 263 299
#     4   9  17  29  50  75 104 130 158 216 255 299
#     4  10  18  30  54  78 104 124 160 226 255 298
#     4  12  24  36  52  68 108 148 172 206 236 320
#     4  10  17  29  49  76 105 127 165 206 263 299
#     4  10  20  34  48  74 102 140 172 193 259 302
#
# _framework density 15.512036
#
# number of rings (size 3 to 8) (size 9 to 14) (size 15 to 20)
#    0.000    1.867    5.333    0.000    0.000    1.067 
#    0.000    0.000    0.000    1.600    0.000    0.000 
#    0.000    0.000    0.000    0.000    0.000    0.000 
#
# Total GULP energy -83569.193806 kJ/mol
# GULP energy per Si atom -5571.279587 kJ/mol
# Density = 1.547673 g / cm^3
# Si number density = 15.512036 Si / 1000 Ang^3
#
#
#
# Elastic Constant Matrix: (Units=GPa)
#
#
# Indices 1 2 3 4 5 6 
#
# 1 126.8538 52.3664 64.6576 0.0000 -27.3223 0.0000
# 2 52.3664 82.5153 44.1864 0.0000 -10.0234 0.0000
# 3 64.6576 44.1864 97.7064 0.0000 -8.3871 0.0000
# 4 0.0000 0.0000 0.0000 19.6275 0.0000 -2.0729
# 5 -27.3223 -10.0234 -8.3871 0.0000 43.1537 0.0000
# 6 0.0000 0.0000 0.0000 -2.0729 0.0000 21.3193
#
#
#
# Elastic Compliance Matrix: (Units=1/GPa)
#
#
# Indices 1 2 3 4 5 6 
#
# 1 0.015049 -0.004867 -0.007156 0.000000 0.007007 0.000000
# 2 -0.004867 0.017803 -0.004820 0.000000 0.000117 0.000000
# 3 -0.007156 -0.004820 0.016948 0.000000 -0.002357 0.000000
# 4 0.000000 0.000000 0.000000 0.051478 0.000000 0.005005
# 5 0.007007 0.000117 -0.002357 0.000000 0.027178 0.000000
# 6 0.000000 0.000000 0.000000 0.005005 0.000000 0.047392
#
#
# Mechanical properties :
#
#
# Convention : Reuss Voigt Hill
#
# Bulk Modulus (GPa) = 62.06247 69.94403 66.00325
# Shear Modulus (GPa) = 23.26589 26.54446 24.90518
#
# Velocity S-wave (km/s) = 3.87701 4.14117 4.01126
# Velocity P-wave (km/s) = 7.75485 8.24947 8.00598
#
# Compressibility (1/GPa) = 0.01611280
#
# Stress axis : x y z
#
# Youngs Moduli (GPa) = 66.44980 56.16937 59.00424
#
# Poissons Ratio (x) = 0.27339 0.42224
# Poissons Ratio (y) = 0.32343 0.28442
# Poissons Ratio (z) = 0.47552 0.27075
#
# Static dielectric constant tensor:
#      x y z
#    x 1.560150 0.000000 -0.017560 
#    y 0.000000 1.452960 0.000000 
#    z -0.017560 0.000000 1.545820 
# 
# From -- ./inp_files/43450.got.cif
#   From: 2010.05.17/outbox.cif.g08.bks.cpg/sg5_22_cif.got.tgz:43450.got - 2010.06.03 18:56:24.
