data_PCOD9120040
_publ_section_title
;
Structure prediction by ZEFSAII (Michael W. Deem and Ramdas Pophale) SiO2 
 PCOD9120040
Probable space group: C 2
;
_chemical_formula_sum "Si O2"
_cell_formula_units_Z 26
_cell_length_a 8.270748
_cell_length_b 13.308324
_cell_length_c 14.695352
_cell_angle_alpha 90.000000
_cell_angle_beta 42.873757
_cell_angle_gamma 90.000000
_cell_volume 1100.532956
_symmetry_space_group_name_H-M "C 2"
_symmetry_group_IT_number 5
_symmetry_cell_setting 'monoclinic'
loop_
_space_group_symop_operation_xyz
x,y,z
-x,y,-z
1/2+x,1/2+y,z
1/2-x,1/2+y,-z
loop_
_atom_site_type_symbol
_atom_site_label
_atom_site_fract_x
_atom_site_fract_y
_atom_site_fract_z
Si Si1 0.415955 0.812590 0.669840
Si Si2 0.459292 0.520454 0.415644
Si Si3 0.000000 0.493105 0.500000
Si Si4 0.228463 0.022705 0.138569
Si Si5 0.898474 0.793893 0.827836
Si Si6 0.717300 0.738047 0.088491
Si Si7 0.431337 0.276641 0.429222
O O1 0.418183 0.920159 0.617371
O O2 0.416693 0.806608 0.780476
O O3 0.649632 0.757743 0.535268
O O4 0.165429 0.765102 0.746963
O O5 0.500000 0.557472 0.500000
O O6 0.688692 0.543384 0.261013
O O7 0.440145 0.398733 0.429016
O O8 0.225463 0.548026 0.452811
O O9 0.132827 0.123146 0.131079
O O10 0.111547 0.915390 0.168597
O O11 0.500000 0.012614 0.000000
O O12 0.894451 0.751385 0.726493
O O13 0.716856 0.765920 0.982569
O O14 0.000000 0.742262 0.000000
O O15 0.500000 0.239905 0.500000
#
# Coordination Sequence:
#
# PCOD9120040 Si02
#       7
#     4   4   2   4   4   4   4
#     4  10  16  34  56  82 114 150 200 250 300 364
#     4   9  18  33  56  91 120 157 206 259 311 367
#     4  10  16  32  62  90 120 156 220 260 300 384
#     4  10  20  37  57  90 124 154 206 254 301 376
#     4  10  18  35  59  85 114 160 198 247 310 359
#     4   9  21  34  55  88 121 154 203 250 301 377
#     4   9  17  30  57  86 113 149 200 248 303 366
#
# _framework density 23.624915999999999
#
# number of rings (size 3 to 8) (size 9 to 14) (size 15 to 20)
#    0.000    2.462    4.615    0.000    0.000    4.923 
#    1.385    0.000    1.692    8.308   16.000    0.000 
#    0.000    0.000    0.000    0.000    0.000    0.000 
#
# Total GULP energy -72481.324736 kJ/mol
# GULP energy per Si atom -5575.486518 kJ/mol
# Density = 2.357115 g / cm^3
# Si number density = 23.624916 Si / 1000 Ang^3
#
#
#
# Elastic Constant Matrix: (Units=GPa)
#
#
# Indices 1 2 3 4 5 6 
#
# 1 112.9088 29.6803 72.3258 -0.0045 26.6931 0.0000
# 2 29.6803 90.7766 47.5662 0.0042 15.5083 0.0001
# 3 72.3258 47.5662 215.3039 -0.0038 47.4308 0.0006
# 4 -0.0045 0.0042 -0.0038 986.6385 0.0040 -6.6968
# 5 26.6931 15.5083 47.4308 0.0040 48.2491 -0.0002
# 6 0.0000 0.0001 0.0006 -6.6968 -0.0002 24.2625
#
#
#
# Elastic Compliance Matrix: (Units=1/GPa)
#
#
# Indices 1 2 3 4 5 6 
#
# 1 0.011953 -0.001843 -0.002913 0.000000 -0.003157 0.000000
# 2 -0.001843 0.012847 -0.001958 0.000000 -0.001185 0.000000
# 3 -0.002913 -0.001958 0.007100 0.000000 -0.004738 0.000000
# 4 0.000000 0.000000 0.000000 0.001015 0.000000 0.000280
# 5 -0.003157 -0.001185 -0.004738 0.000000 0.027511 0.000000
# 6 0.000000 0.000000 0.000000 0.000280 0.000000 0.041293
#
#
# Mechanical properties :
#
#
# Convention : Reuss Voigt Hill
#
# Bulk Modulus (GPa) = 54.13401 79.79266 66.96334
# Shear Modulus (GPa) = 41.21854 229.79115 135.50484
#
# Velocity S-wave (km/s) = 4.18150 9.87307 7.58164
# Velocity P-wave (km/s) = 6.80272 12.79915 10.24927
#
# Compressibility (1/GPa) = 0.01847267
#
# Stress axis : x y z
#
# Youngs Moduli (GPa) = 83.65854 77.83894 140.85452
#
# Poissons Ratio (x) = 0.14343 0.41028
# Poissons Ratio (y) = 0.15415 0.27583
# Poissons Ratio (z) = 0.24368 0.15243
#
# Static dielectric constant tensor:
#      x y z
#    x 1.904490 0.000000 0.145510 
#    y 0.000000 1.954580 0.000010 
#    z 0.145510 0.000010 1.480550 
# 
# From -- ./inp_files/51083.got.cif
#   From: 2010.05.17/outbox.cif.g08.bks.cpg/sg5_26_cif.got.tgz:51083.got - 2010.06.03 18:56:24.
