data_PCOD9120238
_publ_section_title
;
Structure prediction by ZEFSAII (Michael W. Deem and Ramdas Pophale) SiO2 
 PCOD9120238
Probable space group: C 2
;
_chemical_formula_sum "Si O2"
_cell_formula_units_Z 28
_cell_length_a 9.098228
_cell_length_b 15.640937
_cell_length_c 20.923836
_cell_angle_alpha 90.000000
_cell_angle_beta 150.782067
_cell_angle_gamma 90.000000
_cell_volume 1453.446085
_symmetry_space_group_name_H-M "C 2"
_symmetry_group_IT_number 5
_symmetry_cell_setting 'monoclinic'
loop_
_space_group_symop_operation_xyz
x,y,z
-x,y,-z
1/2+x,1/2+y,z
1/2-x,1/2+y,-z
loop_
_atom_site_type_symbol
_atom_site_label
_atom_site_fract_x
_atom_site_fract_y
_atom_site_fract_z
Si Si1 0.321371 0.571400 0.295343
Si Si2 0.728938 0.667373 0.027943
Si Si3 0.414540 0.304202 0.779715
Si Si4 0.174027 0.967141 0.340772
Si Si5 0.133031 0.137453 0.238480
Si Si6 0.818191 0.661646 0.640835
Si Si7 0.853295 0.232721 0.632845
O O1 0.439158 0.485142 0.309123
O O2 0.247712 0.576705 0.342390
O O3 0.578384 0.643604 0.379189
O O4 0.025047 0.608268 0.148159
O O5 0.840281 0.766874 0.076773
O O6 0.500000 0.649502 0.000000
O O7 0.581253 0.643956 0.904300
O O8 0.421415 0.390166 0.741844
O O9 0.448923 0.229964 0.739589
O O10 0.086900 0.297235 0.688868
O O11 0.500000 0.957829 0.500000
O O12 0.146495 0.050455 0.284561
O O13 0.462739 0.148835 0.333993
O O14 0.058136 0.211154 0.260860
O O15 0.500000 0.698395 0.500000
O O16 0.500000 0.253644 0.500000
#
# Coordination Sequence:
#
# PCOD9120238 Si02
#       7
#     4   4   4   4   4   4   4
#     4   9  19  34  57  86 117 160 206 256 292 369
#     4  10  19  40  62  87 121 161 224 252 295 376
#     4  10  22  38  58  84 127 163 199 258 310 373
#     4  11  23  40  59  95 129 157 205 261 326 372
#     4  11  19  35  65  86 120 164 206 272 298 359
#     4  10  17  32  59  87 111 163 215 249 304 359
#     4   9  18  34  58  87 117 157 213 250 300 367
#
# _framework density 19.264561
#
# number of rings (size 3 to 8) (size 9 to 14) (size 15 to 20)
#    0.000    2.286    2.857    4.714    0.000    5.143 
#    2.571    3.571    3.143    0.000    0.000    0.000 
#    0.000    0.000    0.000    0.000    0.000    0.000 
#
# Total GULP energy -77936.162638 kJ/mol
# GULP energy per Si atom -5566.868760 kJ/mol
# Density = 1.922071 g / cm^3
# Si number density = 19.264561 Si / 1000 Ang^3
#
#
#
# Elastic Constant Matrix: (Units=GPa)
#
#
# Indices 1 2 3 4 5 6 
#
# 1 97.5402 26.2650 6.5474 -0.0010 4.3338 0.0010
# 2 26.2650 58.9992 9.8085 0.0002 1.1422 -0.0001
# 3 6.5474 9.8085 86.1523 -0.0029 -11.4166 0.0032
# 4 -0.0010 0.0002 -0.0029 13.7632 -0.0004 -5.9476
# 5 4.3338 1.1422 -11.4166 -0.0004 38.6446 0.0012
# 6 0.0010 -0.0001 0.0032 -5.9476 0.0012 31.7450
#
#
#
# Elastic Compliance Matrix: (Units=1/GPa)
#
#
# Indices 1 2 3 4 5 6 
#
# 1 0.011719 -0.005112 -0.000482 0.000001 -0.001305 0.000000
# 2 -0.005112 0.019554 -0.001913 -0.000001 -0.000570 0.000000
# 3 -0.000482 -0.001913 0.012360 0.000002 0.003762 -0.000001
# 4 0.000001 -0.000001 0.000002 0.079058 0.000001 0.014812
# 5 -0.001305 -0.000570 0.003762 0.000001 0.027152 -0.000001
# 6 0.000000 0.000000 -0.000001 0.014812 -0.000001 0.034276
#
#
# Mechanical properties :
#
#
# Convention : Reuss Voigt Hill
#
# Bulk Modulus (GPa) = 34.94040 36.43708 35.68874
# Shear Modulus (GPa) = 23.96100 30.16861 27.06480
#
# Velocity S-wave (km/s) = 3.53056 3.96158 3.75227
# Velocity P-wave (km/s) = 5.89884 6.31511 6.11052
#
# Compressibility (1/GPa) = 0.02862017
#
# Stress axis : x y z
#
# Youngs Moduli (GPa) = 85.33194 51.14021 80.90405
#
# Poissons Ratio (x) = 0.26141 0.03897
# Poissons Ratio (y) = 0.43619 0.15479
# Poissons Ratio (z) = 0.04110 0.09785
#
# Static dielectric constant tensor:
#      x y z
#    x 1.700160 0.000000 -0.013420 
#    y 0.000000 1.693230 0.000000 
#    z -0.013420 0.000000 1.773080 
# 
# From -- ./inp_files/64755.got.cif
#   From: 2010.05.17/outbox.cif.g08.bks.cpg/sg5_33_cif.got.tgz:64755.got - 2010.06.03 18:56:24.
