data_PCOD9121057
_publ_section_title
;
Structure prediction by ZEFSAII (Michael W. Deem and Ramdas Pophale) SiO2 
 PCOD9121057
Probable space group: C 2
;
_chemical_formula_sum "Si O2"
_cell_formula_units_Z 26
_cell_length_a 8.056279
_cell_length_b 11.491096
_cell_length_c 20.207808
_cell_angle_alpha 90.000000
_cell_angle_beta 34.110896
_cell_angle_gamma 90.000000
_cell_volume 1049.108533
_symmetry_space_group_name_H-M "C 2"
_symmetry_group_IT_number 5
_symmetry_cell_setting 'monoclinic'
loop_
_space_group_symop_operation_xyz
x,y,z
-x,y,-z
1/2+x,1/2+y,z
1/2-x,1/2+y,-z
loop_
_atom_site_type_symbol
_atom_site_label
_atom_site_fract_x
_atom_site_fract_y
_atom_site_fract_z
Si Si1 0.500000 0.095120 0.500000
Si Si2 0.983113 0.441754 0.735412
Si Si3 0.790753 0.052655 0.276771
Si Si4 0.667495 0.809012 0.547255
Si Si5 0.448646 0.268313 0.327429
Si Si6 0.701563 0.221136 0.870506
Si Si7 0.671480 0.167233 0.134287
O O1 0.648290 0.019458 0.393720
O O2 0.262498 0.186875 0.549652
O O3 0.680664 0.466812 0.793807
O O4 0.937290 0.325615 0.791159
O O5 0.998427 0.553279 0.778460
O O6 0.165415 0.401839 0.608741
O O7 0.551044 0.146966 0.328398
O O8 0.103441 0.106726 0.187604
O O9 0.892545 0.842906 0.413067
O O10 0.358572 0.776445 0.612547
O O11 0.681069 0.265053 0.189777
O O12 0.515038 0.212527 0.865618
O O13 0.500000 0.236368 0.000000
O O14 0.000000 0.136948 0.000000
#
# Coordination Sequence:
#
# PCOD9121057 Si02
#       7
#     2   4   4   4   4   4   4
#     4  10  18  38  64  94 138 176 220 272 342 394
#     4  11  23  43  66 102 131 178 228 275 343 407
#     4  10  22  40  67  98 134 174 226 277 332 411
#     4  10  19  38  67  97 138 174 224 280 335 417
#     4   9  19  38  67  95 134 178 217 276 342 397
#     4  12  24  45  70  95 138 182 225 290 342 396
#     4  11  23  45  70 101 139 180 233 287 338 411
#
# _framework density 24.782945999999999
#
# number of rings (size 3 to 8) (size 9 to 14) (size 15 to 20)
#    0.000    1.538    3.077    2.308    0.000    1.231 
#    2.769   13.077    0.000    0.000    0.000    0.000 
#    0.000    0.000    0.000    0.000    0.000    0.000 
#
# Total GULP energy -72418.652443 kJ/mol
# GULP energy per Si atom -5570.665573 kJ/mol
# Density = 2.472654 g / cm^3
# Si number density = 24.782946 Si / 1000 Ang^3
#
#
#
# Elastic Constant Matrix: (Units=GPa)
#
#
# Indices 1 2 3 4 5 6 
#
# 1 100.2673 32.6227 45.9867 -0.0049 21.5860 0.0032
# 2 32.6227 60.2167 20.5756 0.0004 5.7693 0.0009
# 3 45.9867 20.5756 137.7369 -0.0078 39.6716 0.0060
# 4 -0.0049 0.0004 -0.0078 10.6692 0.0048 15.7413
# 5 21.5860 5.7693 39.6716 0.0048 50.7469 -0.0030
# 6 0.0032 0.0009 0.0060 15.7413 -0.0030 27.1365
#
#
#
# Elastic Compliance Matrix: (Units=1/GPa)
#
#
# Indices 1 2 3 4 5 6 
#
# 1 0.013984 -0.006311 -0.002865 0.000053 -0.002992 -0.000032
# 2 -0.006311 0.020348 -0.001342 -0.000042 0.001420 0.000025
# 3 -0.002865 -0.001342 0.010353 0.000091 -0.006723 -0.000056
# 4 0.000053 -0.000042 0.000091 0.650222 -0.000173 -0.377182
# 5 -0.002992 0.001420 -0.006723 -0.000173 0.026072 0.000105
# 6 -0.000032 0.000025 -0.000056 -0.377182 0.000105 0.255647
#
#
# Mechanical properties :
#
#
# Convention : Reuss Voigt Hill
#
# Bulk Modulus (GPa) = 42.28008 55.17678 48.72843
# Shear Modulus (GPa) = 4.97243 30.97957 17.97600
#
# Velocity S-wave (km/s) = 1.41801 3.53942 2.69613
# Velocity P-wave (km/s) = 4.44727 6.24625 5.42189
#
# Compressibility (1/GPa) = 0.02365180
#
# Stress axis : x y z
#
# Youngs Moduli (GPa) = 71.50783 49.14502 96.58665
#
# Poissons Ratio (x) = 0.31014 0.27669
# Poissons Ratio (y) = 0.45126 0.12958
# Poissons Ratio (z) = 0.20485 0.06593
#
# Static dielectric constant tensor:
#      x y z
#    x 1.954720 0.000000 0.008980 
#    y 0.000000 2.047010 0.000000 
#    z 0.008980 0.000000 1.995120 
# 
# From -- ./inp_files/64531.got.cif
#   From: 2010.05.17/outbox.cif.g08.bks.cpg/sg5_33_cif.got.tgz:64531.got - 2010.06.03 18:56:24.
