data_PCOD9121760
_publ_section_title
;
Structure prediction by ZEFSAII (Michael W. Deem and Ramdas Pophale) SiO2 
 PCOD9121760
Probable space group: C 2
;
_chemical_formula_sum "Si O2"
_cell_formula_units_Z 26
_cell_length_a 8.712235
_cell_length_b 10.665347
_cell_length_c 14.194586
_cell_angle_alpha 90.000000
_cell_angle_beta 63.265573
_cell_angle_gamma 90.000000
_cell_volume 1177.953095
_symmetry_space_group_name_H-M "C 2"
_symmetry_group_IT_number 5
_symmetry_cell_setting 'monoclinic'
loop_
_space_group_symop_operation_xyz
x,y,z
-x,y,-z
1/2+x,1/2+y,z
1/2-x,1/2+y,-z
loop_
_atom_site_type_symbol
_atom_site_label
_atom_site_fract_x
_atom_site_fract_y
_atom_site_fract_z
Si Si1 0.500000 0.306860 0.000000
Si Si2 0.500000 0.308612 0.500000
Si Si3 0.000000 0.282958 0.000000
Si Si4 0.800626 0.100651 0.186619
Si Si5 0.206299 0.434602 0.705563
Si Si6 0.851250 0.345511 0.853242
Si Si7 0.948128 0.924729 0.812375
Si Si8 0.437084 0.194225 0.333304
O O1 0.684453 0.251561 0.910074
O O2 0.433653 0.381368 0.925188
O O3 0.361714 0.389740 0.596115
O O4 0.394335 0.227737 0.452305
O O5 0.918414 0.361261 0.940204
O O6 0.136115 0.190933 0.912913
O O7 0.639869 0.160881 0.281843
O O8 0.733357 0.972230 0.160510
O O9 0.957924 0.058706 0.208333
O O10 0.283259 0.434446 0.790604
O O11 0.152988 0.574618 0.688096
O O12 0.035857 0.344927 0.747518
O O13 0.069163 0.819189 0.729066
#
# Coordination Sequence:
#
# PCOD9121760 Si02
#       8
#     2   2   2   4   4   4   4   4
#     4  10  19  36  59  88 128 166 197 244 295 348
#     4  10  22  42  66  92 122 154 208 268 314 374
#     4  12  21  36  61  86 124 172 205 248 307 352
#     4  10  22  37  58  89 123 164 206 248 305 366
#     4  10  22  42  65  91 124 163 208 259 314 367
#     4  10  21  37  58  88 122 160 208 250 295 367
#     4  10  21  39  60  92 132 162 207 254 292 372
#     4  10  22  42  65  88 122 164 203 260 321 361
#
# _framework density 22.072187
#
# number of rings (size 3 to 8) (size 9 to 14) (size 15 to 20)
#    0.000    1.846    0.000    5.538    0.000    4.923 
#    0.000   16.154    0.000    0.000    0.000    0.000 
#    0.000    0.000    0.000    0.000    0.000    0.000 
#
# Total GULP energy -72395.609549 kJ/mol
# GULP energy per Si atom -5568.893042 kJ/mol
# Density = 2.202195 g / cm^3
# Si number density = 22.072187 Si / 1000 Ang^3
#
#
#
# Elastic Constant Matrix: (Units=GPa)
#
#
# Indices 1 2 3 4 5 6 
#
# 1 108.9526 16.7997 50.6377 0.0000 -15.0985 0.0000
# 2 16.7997 67.6595 21.5035 0.0000 5.3929 0.0000
# 3 50.6377 21.5035 106.9684 0.0000 -3.8537 0.0000
# 4 0.0000 0.0000 0.0000 15.5247 0.0000 -0.5592
# 5 -15.0985 5.3929 -3.8537 0.0000 48.5017 0.0000
# 6 0.0000 0.0000 0.0000 -0.5592 0.0000 20.4419
#
#
#
# Elastic Compliance Matrix: (Units=1/GPa)
#
#
# Indices 1 2 3 4 5 6 
#
# 1 0.012464 -0.001656 -0.005436 0.000000 0.003632 0.000000
# 2 -0.001656 0.016207 -0.002565 0.000000 -0.002522 0.000000
# 3 -0.005436 -0.002565 0.012423 0.000000 -0.000420 0.000000
# 4 0.000000 0.000000 0.000000 0.064477 0.000000 0.001764
# 5 0.003632 -0.002522 -0.000420 0.000000 0.021995 0.000000
# 6 0.000000 0.000000 0.000000 0.001764 0.000000 0.048967
#
#
# Mechanical properties :
#
#
# Convention : Reuss Voigt Hill
#
# Bulk Modulus (GPa) = 45.91714 51.27360 48.59537
# Shear Modulus (GPa) = 24.61743 29.86963 27.24353
#
# Velocity S-wave (km/s) = 3.34326 3.68267 3.51706
# Velocity P-wave (km/s) = 5.97925 6.43142 6.20945
#
# Compressibility (1/GPa) = 0.02177836
#
# Stress axis : x y z
#
# Youngs Moduli (GPa) = 80.23303 61.70051 80.49894
#
# Poissons Ratio (x) = 0.10220 0.43762
# Poissons Ratio (y) = 0.13290 0.20646
# Poissons Ratio (z) = 0.43617 0.15825
#
# Static dielectric constant tensor:
#      x y z
#    x 1.880420 0.000000 -0.074100 
#    y 0.000000 1.844950 0.000000 
#    z -0.074100 0.000000 1.853440 
# 
# From -- ./inp_files/50240.got.cif
#   From: 2010.05.17/outbox.cif.g08.bks.cpg/sg5_26_cif.got.tgz:50240.got - 2010.06.03 18:56:24.
