data_PCOD9121793
_publ_section_title
;
Structure prediction by ZEFSAII (Michael W. Deem and Ramdas Pophale) SiO2 
 PCOD9121793
Probable space group: C 2
;
_chemical_formula_sum "Si O2"
_cell_formula_units_Z 18
_cell_length_a 6.941349
_cell_length_b 14.334984
_cell_length_c 8.167866
_cell_angle_alpha 90.000000
_cell_angle_beta 83.792489
_cell_angle_gamma 90.000000
_cell_volume 807.971137
_symmetry_space_group_name_H-M "C 2"
_symmetry_group_IT_number 5
_symmetry_cell_setting 'monoclinic'
loop_
_space_group_symop_operation_xyz
x,y,z
-x,y,-z
1/2+x,1/2+y,z
1/2-x,1/2+y,-z
loop_
_atom_site_type_symbol
_atom_site_label
_atom_site_fract_x
_atom_site_fract_y
_atom_site_fract_z
Si Si1 0.268220 0.356880 0.505941
Si Si2 0.279500 0.441139 0.177269
Si Si3 0.847947 0.149288 0.159471
Si Si4 0.000000 0.188666 0.500000
Si Si5 0.210418 0.851108 0.144700
O O1 0.500000 0.350663 0.500000
O O2 0.212575 0.426971 0.368488
O O3 0.191657 0.381216 0.693870
O O4 0.181544 0.258042 0.458397
O O5 0.258322 0.548594 0.133288
O O6 0.504157 0.404743 0.164701
O O7 0.198988 0.377988 0.037737
O O8 0.950594 0.140772 0.330405
O O9 0.705803 0.238762 0.166245
O O10 0.000000 0.166558 0.000000
#
# Coordination Sequence:
#
# PCOD9121793 Si02
#       5
#     4   4   4   2   4
#     4   9  19  36  61  81 120 163 192 252 311 347
#     4  10  19  36  61  82 119 167 195 246 315 360
#     4  11  21  34  62  92 116 163 206 244 313 369
#     4  10  22  36  60  94 118 154 212 252 298 376
#     4   9  19  35  56  85 118 152 205 244 296 368
#
# _framework density 22.278023999999998
#
# number of rings (size 3 to 8) (size 9 to 14) (size 15 to 20)
#    0.000    2.222    2.222    1.333    4.667    0.000 
#    0.000    0.000   44.000    2.667    0.000    0.000 
#    0.000    0.000    0.000    0.000    0.000    0.000 
#
# Total GULP energy -50134.911832 kJ/mol
# GULP energy per Si atom -5570.545759 kJ/mol
# Density = 2.222732 g / cm^3
# Si number density = 22.278024 Si / 1000 Ang^3
#
#
#
# Elastic Constant Matrix: (Units=GPa)
#
#
# Indices 1 2 3 4 5 6 
#
# 1 58.3660 9.0869 -1.7831 0.0000 19.5952 0.0000
# 2 9.0869 127.2060 48.1202 0.0000 10.1590 0.0000
# 3 -1.7831 48.1202 159.0649 0.0000 -1.6735 0.0000
# 4 0.0000 0.0000 0.0000 563.1817 0.0000 10.5923
# 5 19.5952 10.1590 -1.6735 0.0000 26.0707 0.0000
# 6 0.0000 0.0000 0.0000 10.5923 0.0000 22.9547
#
#
#
# Elastic Compliance Matrix: (Units=1/GPa)
#
#
# Indices 1 2 3 4 5 6 
#
# 1 0.022929 -0.000341 0.000181 0.000000 -0.017090 0.000000
# 2 -0.000341 0.009240 -0.002836 0.000000 -0.003526 0.000000
# 3 0.000181 -0.002836 0.007162 0.000000 0.001429 0.000000
# 4 0.000000 0.000000 0.000000 0.001791 0.000000 -0.000827
# 5 -0.017090 -0.003526 0.001429 0.000000 0.052668 0.000000
# 6 0.000000 0.000000 0.000000 -0.000827 0.000000 0.043945
#
#
# Mechanical properties :
#
#
# Convention : Reuss Voigt Hill
#
# Bulk Modulus (GPa) = 29.99663 50.60943 40.30303
# Shear Modulus (GPa) = 32.29088 141.72227 87.00657
#
# Velocity S-wave (km/s) = 3.81129 7.98457 6.25617
# Velocity P-wave (km/s) = 5.73253 10.38128 8.38549
#
# Compressibility (1/GPa) = 0.03333708
#
# Stress axis : x y z
#
# Youngs Moduli (GPa) = 43.61213 108.22318 139.62927
#
# Poissons Ratio (x) = 0.03695 -0.02521
# Poissons Ratio (y) = 0.01489 0.39602
# Poissons Ratio (z) = -0.00787 0.30695
#
# Static dielectric constant tensor:
#      x y z
#    x 1.168820 0.000000 -0.169590 
#    y 0.000000 1.768400 0.000000 
#    z -0.169590 0.000000 1.890450 
# 
# From -- ./inp_files/13967.got.cif
#   From: 2010.05.17/outbox.cif.g08.bks.cpg/sg5_7_cif.got.tgz:13967.got - 2010.06.03 18:56:24.
