data_PCOD9121832
_publ_section_title
;
Structure prediction by ZEFSAII (Michael W. Deem and Ramdas Pophale) SiO2 
 PCOD9121832
Probable space group: C 2
;
_chemical_formula_sum "Si O2"
_cell_formula_units_Z 20
_cell_length_a 7.399486
_cell_length_b 16.565406
_cell_length_c 10.293231
_cell_angle_alpha 90.000000
_cell_angle_beta 130.872141
_cell_angle_gamma 90.000000
_cell_volume 954.060238
_symmetry_space_group_name_H-M "C 2"
_symmetry_group_IT_number 5
_symmetry_cell_setting 'monoclinic'
loop_
_space_group_symop_operation_xyz
x,y,z
-x,y,-z
1/2+x,1/2+y,z
1/2-x,1/2+y,-z
loop_
_atom_site_type_symbol
_atom_site_label
_atom_site_fract_x
_atom_site_fract_y
_atom_site_fract_z
Si Si1 0.500000 0.226360 0.500000
Si Si2 0.672330 0.836948 0.190855
Si Si3 0.748750 0.896959 0.846087
Si Si4 0.756941 0.008094 0.091554
Si Si5 0.349570 0.591283 0.562182
Si Si6 0.000000 0.466423 0.500000
O O1 0.387299 0.282467 0.336513
O O2 0.707223 0.170973 0.536127
O O3 0.489211 0.851249 0.222272
O O4 0.754559 0.924301 0.174720
O O5 0.500000 0.800167 0.000000
O O6 0.699253 0.918278 0.674281
O O7 0.000000 0.854642 0.000000
O O8 0.762913 0.975957 0.946970
O O9 0.967910 0.064464 0.238528
O O10 0.500000 0.046881 0.000000
O O11 0.500000 0.595867 0.500000
O O12 0.144711 0.521993 0.465895
#
# Coordination Sequence:
#
# PCOD9121832 Si02
#       6
#     2   4   4   4   4   2
#     4  11  26  46  62  96 139 176 214 267 338 390
#     4   9  22  43  66  92 133 175 213 274 325 388
#     4  10  19  36  63 105 124 160 223 271 323 374
#     4   9  19  39  68  96 126 167 222 275 315 380
#     4  11  23  43  62  99 132 173 222 263 332 391
#     4  11  22  36  70 102 131 162 212 283 320 382
#
# _framework density 20.963037
#
# number of rings (size 3 to 8) (size 9 to 14) (size 15 to 20)
#    0.000    2.400    2.000    2.400    4.200    0.000 
#   19.800    0.000    0.000    0.000    0.000    0.000 
#    0.000    0.000    0.000    0.000    0.000    0.000 
#
# Total GULP energy -55792.317599 kJ/mol
# GULP energy per Si atom -5579.231760 kJ/mol
# Density = 2.091532 g / cm^3
# Si number density = 20.963037 Si / 1000 Ang^3
#
#
#
# Elastic Constant Matrix: (Units=GPa)
#
#
# Indices 1 2 3 4 5 6 
#
# 1 105.5744 22.1590 18.4911 0.0000 11.1343 0.0000
# 2 22.1590 54.9653 64.4092 0.0000 10.6636 0.0000
# 3 18.4911 64.4092 133.6162 0.0000 19.2143 0.0000
# 4 0.0000 0.0000 0.0000 51.1646 0.0000 25.6935
# 5 11.1343 10.6636 19.2143 0.0000 39.3748 0.0000
# 6 0.0000 0.0000 0.0000 25.6935 0.0000 17.3277
#
#
#
# Elastic Compliance Matrix: (Units=1/GPa)
#
#
# Indices 1 2 3 4 5 6 
#
# 1 0.010632 -0.005757 0.001626 0.000000 -0.002241 0.000000
# 2 -0.005757 0.045022 -0.020850 0.000000 -0.000391 0.000000
# 3 0.001626 -0.020850 0.017814 0.000000 -0.003506 0.000000
# 4 0.000000 0.000000 0.000000 0.076532 0.000000 -0.113482
# 5 -0.002241 -0.000391 -0.003506 0.000000 0.027847 0.000000
# 6 0.000000 0.000000 0.000000 -0.113482 0.000000 0.225981
#
#
# Mechanical properties :
#
#
# Convention : Reuss Voigt Hill
#
# Bulk Modulus (GPa) = 42.54148 56.03050 49.28599
# Shear Modulus (GPa) = 10.83129 34.17987 22.50558
#
# Velocity S-wave (km/s) = 2.27554 4.04230 3.28011
# Velocity P-wave (km/s) = 5.21936 6.96945 6.15690
#
# Compressibility (1/GPa) = 0.02350647
#
# Stress axis : x y z
#
# Youngs Moduli (GPa) = 94.05724 22.21125 56.13576
#
# Poissons Ratio (x) = 0.12786 -0.09127
# Poissons Ratio (y) = 0.54146 1.17043
# Poissons Ratio (z) = -0.15293 0.46310
#
# Static dielectric constant tensor:
#      x y z
#    x 1.823600 0.000000 -0.002150 
#    y 0.000000 1.751340 0.000000 
#    z -0.002150 0.000000 1.766910 
# 
# From -- ./inp_files/36710.got.cif
#   From: 2010.05.17/outbox.cif.g08.bks.cpg/sg5_19_cif.got.tgz:36710.got - 2010.06.03 18:56:24.
