data_PCOD9121702
_publ_section_title
;
Structure prediction by ZEFSAII (Michael W. Deem and Ramdas Pophale) SiO2 
 PCOD9121702
Probable space group: C 2
;
_chemical_formula_sum "Si O2"
_cell_formula_units_Z 32
_cell_length_a 12.824361
_cell_length_b 15.591603
_cell_length_c 20.675962
_cell_angle_alpha 90.000000
_cell_angle_beta 157.399353
_cell_angle_gamma 90.000000
_cell_volume 1588.799550
_symmetry_space_group_name_H-M "C 2"
_symmetry_group_IT_number 5
_symmetry_cell_setting 'monoclinic'
loop_
_space_group_symop_operation_xyz
x,y,z
-x,y,-z
1/2+x,1/2+y,z
1/2-x,1/2+y,-z
loop_
_atom_site_type_symbol
_atom_site_label
_atom_site_fract_x
_atom_site_fract_y
_atom_site_fract_z
Si Si1 0.526290 0.144840 0.311911
Si Si2 0.473418 0.082011 0.415998
Si Si3 0.948862 0.958119 0.667148
Si Si4 0.546614 0.462609 0.866461
Si Si5 0.542127 0.525867 0.592363
Si Si6 0.580733 0.805051 0.471338
Si Si7 0.909052 0.626703 0.104506
Si Si8 0.498371 0.292852 0.921204
O O1 0.395464 0.134317 0.307488
O O2 0.347698 0.143503 0.145028
O O3 0.704338 0.229581 0.409049
O O4 0.746341 0.067841 0.433370
O O5 0.500000 0.129377 0.500000
O O6 0.776374 0.044202 0.581239
O O7 0.256397 0.003830 0.298525
O O8 0.726001 0.886926 0.524920
O O9 0.078588 0.933608 0.810049
O O10 0.120276 0.973201 0.700929
O O11 0.589118 0.382925 0.939588
O O12 0.743951 0.542678 0.990138
O O13 0.500000 0.477979 0.500000
O O14 0.771660 0.599075 0.715655
O O15 0.500000 0.820465 0.500000
O O16 0.312641 0.784087 0.278963
O O17 0.861606 0.709189 0.031608
O O18 0.500000 0.294267 0.000000
#
# Coordination Sequence:
#
# PCOD9121702 Si02
#       8
#     4   4   4   4   4   4   4   4
#     4  10  19  35  65  84 116 159 216 255 310 371
#     4   9  19  35  57  89 115 157 209 256 304 378
#     4  10  19  35  65  84 116 159 216 255 310 371
#     4  11  23  38  60  90 131 169 207 258 324 379
#     4   9  19  35  57  89 115 157 209 256 304 378
#     4  12  18  40  66  86 113 158 219 263 305 381
#     4  11  23  38  60  90 131 169 207 258 324 379
#     4  12  26  38  61  98 130 157 218 272 307 367
#
# _framework density 20.140993000000002
#
# number of rings (size 3 to 8) (size 9 to 14) (size 15 to 20)
#    0.000    1.500    5.000    0.750    3.500    2.000 
#    0.000    1.875    0.000    3.000    0.000    0.000 
#    0.000    0.000    0.000    0.000    0.000    0.000 
#
# Total GULP energy -89151.325353 kJ/mol
# GULP energy per Si atom -5571.957835 kJ/mol
# Density = 2.009515 g / cm^3
# Si number density = 20.140993 Si / 1000 Ang^3
#
#
#
# Elastic Constant Matrix: (Units=GPa)
#
#
# Indices 1 2 3 4 5 6 
#
# 1 131.3111 45.2685 25.6539 -0.0150 -48.1600 0.0090
# 2 45.2685 77.3231 16.5608 0.0087 -13.2020 0.0210
# 3 25.6539 16.5608 59.3509 0.0050 -20.6401 0.0420
# 4 -0.0150 0.0087 0.0050 23.3240 -0.0081 13.5472
# 5 -48.1600 -13.2020 -20.6401 -0.0081 26.1207 0.0147
# 6 0.0090 0.0210 0.0420 13.5472 0.0147 9.2826
#
#
#
# Elastic Compliance Matrix: (Units=1/GPa)
#
#
# Indices 1 2 3 4 5 6 
#
# 1 0.031686 -0.010305 0.010599 0.000868 0.061589 -0.001419
# 2 -0.010305 0.017682 -0.005487 -0.000179 -0.014398 0.000279
# 3 0.010599 -0.005487 0.027070 0.000797 0.038159 -0.001344
# 4 0.000868 -0.000179 0.000797 0.281489 0.002457 -0.410817
# 5 0.061589 -0.014398 0.038159 0.002457 0.174717 -0.004063
# 6 -0.001419 0.000279 -0.001344 -0.410817 -0.004063 0.707295
#
#
# Mechanical properties :
#
#
# Convention : Reuss Voigt Hill
#
# Bulk Modulus (GPa) = 15.13953 49.21683 32.17818
# Shear Modulus (GPa) = 3.92976 23.77891 13.85433
#
# Velocity S-wave (km/s) = 1.39834 3.43975 2.62557
# Velocity P-wave (km/s) = 3.18437 6.34547 5.02022
#
# Compressibility (1/GPa) = 0.06605225
#
# Stress axis : x y z
#
# Youngs Moduli (GPa) = 31.55966 56.55344 36.94107
#
# Poissons Ratio (x) = 0.58276 -0.39152
# Poissons Ratio (y) = 0.32521 0.20270
# Poissons Ratio (z) = -0.33449 0.31032
#
# Static dielectric constant tensor:
#      x y z
#    x 2.034510 -0.000020 -0.028540 
#    y -0.000020 1.713720 -0.000010 
#    z -0.028540 -0.000010 1.734850 
# 
# From -- ./inp_files/60711.got.cif
#   From: 2010.05.17/outbox.cif.g08.bks.cpg/sg5_31_cif.got.tgz:60711.got - 2010.06.03 18:56:24.
