data_PCOD9121980
_publ_section_title
;
Structure prediction by ZEFSAII (Michael W. Deem and Ramdas Pophale) SiO2 
 PCOD9121980
Probable space group: C 2
;
_chemical_formula_sum "Si O2"
_cell_formula_units_Z 26
_cell_length_a 8.792750
_cell_length_b 16.924549
_cell_length_c 16.493359
_cell_angle_alpha 90.000000
_cell_angle_beta 148.795031
_cell_angle_gamma 90.000000
_cell_volume 1271.643955
_symmetry_space_group_name_H-M "C 2"
_symmetry_group_IT_number 5
_symmetry_cell_setting 'monoclinic'
loop_
_space_group_symop_operation_xyz
x,y,z
-x,y,-z
1/2+x,1/2+y,z
1/2-x,1/2+y,-z
loop_
_atom_site_type_symbol
_atom_site_label
_atom_site_fract_x
_atom_site_fract_y
_atom_site_fract_z
Si Si1 0.316195 0.391150 0.171068
Si Si2 0.500000 0.381337 0.000000
Si Si3 0.983879 0.974382 0.584635
Si Si4 0.345162 0.628171 0.847439
Si Si5 0.249341 0.148007 0.671034
Si Si6 0.174748 0.756884 0.946212
Si Si7 0.708099 0.971955 0.721984
O O1 0.355404 0.414501 0.281757
O O2 0.308944 0.302269 0.132843
O O3 0.601909 0.424731 0.256098
O O4 0.000000 0.425710 0.000000
O O5 0.345318 0.323138 0.994169
O O6 0.715724 0.433681 0.154850
O O7 0.638891 0.976373 0.449440
O O8 0.000000 0.945583 0.500000
O O9 0.129732 0.062807 0.648422
O O10 0.338922 0.559823 0.779419
O O11 0.015529 0.637885 0.728764
O O12 0.500000 0.598154 0.000000
O O13 0.543081 0.701864 0.912073
O O14 0.386730 0.201449 0.805058
O O15 0.000000 0.185249 0.500000
#
# Coordination Sequence:
#
# PCOD9121980 Si02
#       7
#     4   2   4   4   4   4   4
#     4  11  26  42  66 104 135 175 221 279 339 393
#     4  10  24  42  66  98 132 180 224 276 330 398
#     4  11  24  42  68 102 131 173 227 277 328 394
#     4  10  19  37  63  95 123 177 215 270 322 393
#     4  10  20  38  65  92 127 171 219 268 334 387
#     4  10  24  41  66  95 137 172 226 270 338 399
#     4  11  22  41  70  95 137 173 228 278 328 392
#
# _framework density 20.445975000000001
#
# number of rings (size 3 to 8) (size 9 to 14) (size 15 to 20)
#    0.000    1.538    3.846    1.846    8.615    3.692 
#    0.000    0.000    0.000    0.000    0.000    0.000 
#    0.000    0.000    0.000    0.000    0.000    0.000 
#
# Total GULP energy -72450.143977 kJ/mol
# GULP energy per Si atom -5573.087998 kJ/mol
# Density = 2.039944 g / cm^3
# Si number density = 20.445975 Si / 1000 Ang^3
#
#
#
# Elastic Constant Matrix: (Units=GPa)
#
#
# Indices 1 2 3 4 5 6 
#
# 1 62.6198 36.3918 42.8761 -0.0018 -2.5350 -0.0056
# 2 36.3918 100.0237 44.0377 -0.0001 4.8564 -0.0067
# 3 42.8761 44.0377 131.1578 -0.0143 14.9997 0.0010
# 4 -0.0018 -0.0001 -0.0143 20.8585 -0.0085 22.5902
# 5 -2.5350 4.8564 14.9997 -0.0085 42.0133 -0.0098
# 6 -0.0056 -0.0067 0.0010 22.5902 -0.0098 70.1136
#
#
#
# Elastic Compliance Matrix: (Units=1/GPa)
#
#
# Indices 1 2 3 4 5 6 
#
# 1 0.024055 -0.006198 -0.006287 -0.000004 0.004413 0.000003
# 2 -0.006198 0.013329 -0.002325 -0.000005 -0.001085 0.000002
# 3 -0.006287 -0.002325 0.010919 0.000011 -0.004009 -0.000005
# 4 -0.000004 -0.000005 0.000011 0.073637 0.000006 -0.023725
# 5 0.004413 -0.001085 -0.004009 0.000006 0.025625 0.000002
# 6 0.000003 0.000002 -0.000005 -0.023725 0.000002 0.021907
#
#
# Mechanical properties :
#
#
# Convention : Reuss Voigt Hill
#
# Bulk Modulus (GPa) = 53.52765 60.04583 56.78674
# Shear Modulus (GPa) = 24.35223 37.96348 31.15785
#
# Velocity S-wave (km/s) = 3.45491 4.31370 3.90797
# Velocity P-wave (km/s) = 6.49246 7.36495 6.94243
#
# Compressibility (1/GPa) = 0.01868193
#
# Stress axis : x y z
#
# Youngs Moduli (GPa) = 41.57144 75.02403 91.58438
#
# Poissons Ratio (x) = 0.46501 0.57581
# Poissons Ratio (y) = 0.25766 0.21295
# Poissons Ratio (z) = 0.26137 0.17444
#
# Static dielectric constant tensor:
#      x y z
#    x 1.699310 0.000000 -0.129350 
#    y 0.000000 1.768820 -0.000010 
#    z -0.129350 -0.000010 1.339700 
# 
# From -- ./inp_files/27935.got.cif
#   From: 2010.05.17/outbox.cif.g08.bks.cpg/sg5_14_cif.got.tgz:27935.got - 2010.06.03 18:56:24.
