data_PCOD9121373
_publ_section_title
;
Structure prediction by ZEFSAII (Michael W. Deem and Ramdas Pophale) SiO2 
 PCOD9121373
Probable space group: C 2
;
_chemical_formula_sum "Si O2"
_cell_formula_units_Z 22
_cell_length_a 13.853408
_cell_length_b 5.652008
_cell_length_c 11.805593
_cell_angle_alpha 90.000000
_cell_angle_beta 123.166347
_cell_angle_gamma 90.000000
_cell_volume 773.779404
_symmetry_space_group_name_H-M "C 2"
_symmetry_group_IT_number 5
_symmetry_cell_setting 'monoclinic'
loop_
_space_group_symop_operation_xyz
x,y,z
-x,y,-z
1/2+x,1/2+y,z
1/2-x,1/2+y,-z
loop_
_atom_site_type_symbol
_atom_site_label
_atom_site_fract_x
_atom_site_fract_y
_atom_site_fract_z
Si Si1 0.082658 0.468580 0.671818
Si Si2 0.818454 0.955287 0.966436
Si Si3 0.344420 0.121981 0.796060
Si Si4 0.604857 0.468337 0.727473
Si Si5 0.500000 0.825561 0.000000
Si Si6 0.254776 0.938007 0.436636
O O1 0.034969 0.730966 0.658104
O O2 0.136146 0.462059 0.579099
O O3 0.033626 0.208691 0.664685
O O4 0.191820 0.470009 0.830638
O O5 0.839448 0.951828 0.112325
O O6 0.865741 0.720021 0.936434
O O7 0.892792 0.170188 0.969150
O O8 0.343698 0.346745 0.713980
O O9 0.218093 0.000468 0.718031
O O10 0.449198 0.946446 0.852722
O O11 0.264293 0.696738 0.519761
#
# Coordination Sequence:
#
# PCOD9121373 Si02
#       6
#     4   4   4   4   2   4
#     4  10  19  33  55  84 115 145 201 242 281 345
#     4  10  21  33  54  81 126 158 190 228 306 357
#     4  10  23  35  56  88 127 150 202 241 297 360
#     4  10  19  34  57  81 120 158 190 238 284 362
#     4  12  22  36  54  88 134 160 178 248 298 380
#     4  10  20  35  59  85 121 154 200 257 299 323
#
# _framework density 28.431877
#
# number of rings (size 3 to 8) (size 9 to 14) (size 15 to 20)
#    0.000    2.182    1.818    4.909    5.091    0.000 
#    0.000    0.000    0.000    0.000    0.000    5.091 
#   21.818    0.000    0.000    0.000    0.000    0.000 
#
# Total GULP energy -61520.295556 kJ/mol
# GULP energy per Si atom -5592.754141 kJ/mol
# Density = 2.836716 g / cm^3
# Si number density = 28.431877 Si / 1000 Ang^3
#
#
#
# Elastic Constant Matrix: (Units=GPa)
#
#
# Indices 1 2 3 4 5 6 
#
# 1 60.0368 24.8968 23.1765 0.0000 -2.1370 0.0000
# 2 24.8968 221.5589 69.4951 0.0000 -10.6216 0.0000
# 3 23.1765 69.4951 143.6666 0.0000 -17.0901 0.0000
# 4 0.0000 0.0000 0.0000 56.2921 0.0000 -12.0858
# 5 -2.1370 -10.6216 -17.0901 0.0000 46.0032 0.0000
# 6 0.0000 0.0000 0.0000 -12.0858 0.0000 27.6509
#
#
#
# Elastic Compliance Matrix: (Units=1/GPa)
#
#
# Indices 1 2 3 4 5 6 
#
# 1 0.018087 -0.001321 -0.002318 0.000000 -0.000326 0.000000
# 2 -0.001321 0.005421 -0.002372 0.000000 0.000309 0.000000
# 3 -0.002318 -0.002372 0.008793 0.000000 0.002611 0.000000
# 4 0.000000 0.000000 0.000000 0.019604 0.000000 0.008569
# 5 -0.000326 0.000309 0.002611 0.000000 0.022764 0.000000
# 6 0.000000 0.000000 0.000000 0.008569 0.000000 0.039910
#
#
# Mechanical properties :
#
#
# Convention : Reuss Voigt Hill
#
# Bulk Modulus (GPa) = 49.31275 73.37766 61.34520
# Shear Modulus (GPa) = 37.49224 46.50217 41.99721
#
# Velocity S-wave (km/s) = 3.63529 4.04860 3.84750
# Velocity P-wave (km/s) = 5.91627 6.90790 6.43123
#
# Compressibility (1/GPa) = 0.02027873
#
# Stress axis : x y z
#
# Youngs Moduli (GPa) = 55.28708 184.47269 113.73233
#
# Poissons Ratio (x) = 0.24372 0.26358
# Poissons Ratio (y) = 0.07304 0.26981
# Poissons Ratio (z) = 0.12813 0.43763
#
# Static dielectric constant tensor:
#      x y z
#    x 2.240120 0.000000 -0.048360 
#    y 0.000000 2.320800 0.000000 
#    z -0.048360 0.000000 2.251760 
# 
# From -- ./inp_files/43648.got.cif
#   From: 2010.05.17/outbox.cif.g08.bks.cpg/sg5_22_cif.got.tgz:43648.got - 2010.06.03 18:56:24.
