data_PCOD9121523
_publ_section_title
;
Structure prediction by ZEFSAII (Michael W. Deem and Ramdas Pophale) SiO2 
 PCOD9121523
Probable space group: C 2
;
_chemical_formula_sum "Si O2"
_cell_formula_units_Z 28
_cell_length_a 9.319464
_cell_length_b 10.121368
_cell_length_c 14.246938
_cell_angle_alpha 90.000000
_cell_angle_beta 118.190120
_cell_angle_gamma 90.000000
_cell_volume 1184.451557
_symmetry_space_group_name_H-M "C 2"
_symmetry_group_IT_number 5
_symmetry_cell_setting 'monoclinic'
loop_
_space_group_symop_operation_xyz
x,y,z
-x,y,-z
1/2+x,1/2+y,z
1/2-x,1/2+y,-z
loop_
_atom_site_type_symbol
_atom_site_label
_atom_site_fract_x
_atom_site_fract_y
_atom_site_fract_z
Si Si1 0.630824 0.034670 0.412384
Si Si2 0.804663 0.635364 0.770310
Si Si3 0.774119 0.574193 0.260152
Si Si4 0.664686 0.165675 0.924389
Si Si5 0.315452 0.267244 0.429547
Si Si6 0.868876 0.379034 0.890870
Si Si7 0.065004 0.152438 0.841288
O O1 0.669474 0.124919 0.332240
O O2 0.435480 0.008829 0.353710
O O3 0.696905 0.129982 0.515162
O O4 0.709323 0.890762 0.428408
O O5 0.791734 0.483310 0.798221
O O6 0.644568 0.697696 0.767490
O O7 0.971276 0.684481 0.870154
O O8 0.804349 0.573530 0.157734
O O9 0.790406 0.718686 0.315168
O O10 0.581844 0.546115 0.216527
O O11 0.738083 0.304421 0.912934
O O12 0.780694 0.117646 0.044702
O O13 0.500000 0.311710 0.500000
O O14 0.977584 0.270256 0.870574
O O15 0.000000 0.446588 0.000000
#
# Coordination Sequence:
#
# PCOD9121523 Si02
#       7
#     4   4   4   4   4   4   4
#     4  10  22  41  68  93 124 164 211 266 324 377
#     4  11  21  37  61  89 121 163 207 255 306 367
#     4   9  19  38  61  88 124 165 206 252 309 373
#     4   9  18  34  58  89 124 162 203 243 292 365
#     4  10  22  44  67  92 123 162 210 268 323 379
#     4   9  18  34  55  80 120 166 200 242 299 361
#     4  10  19  34  59  91 126 162 200 242 298 368
#
# _framework density 23.639633
#
# number of rings (size 3 to 8) (size 9 to 14) (size 15 to 20)
#    0.000    2.286    0.000    4.286    0.000    1.143 
#    0.000   17.857    0.000   10.286    0.000    0.000 
#    0.000    0.000    0.000    0.000    0.000    0.000 
#
# Total GULP energy -78057.479501 kJ/mol
# GULP energy per Si atom -5575.534250 kJ/mol
# Density = 2.358583 g / cm^3
# Si number density = 23.639633 Si / 1000 Ang^3
#
#
#
# Elastic Constant Matrix: (Units=GPa)
#
#
# Indices 1 2 3 4 5 6 
#
# 1 140.0541 24.1008 29.0099 0.0000 17.5608 0.0000
# 2 24.1008 76.1965 13.8655 0.0000 13.1872 0.0000
# 3 29.0099 13.8655 94.3334 0.0000 4.4648 0.0000
# 4 0.0000 0.0000 0.0000 18.8616 0.0000 -1.2066
# 5 17.5608 13.1872 4.4648 0.0000 36.5573 0.0000
# 6 0.0000 0.0000 0.0000 -1.2066 0.0000 30.7781
#
#
#
# Elastic Compliance Matrix: (Units=1/GPa)
#
#
# Indices 1 2 3 4 5 6 
#
# 1 0.008264 -0.001687 -0.002147 0.000000 -0.003099 0.000000
# 2 -0.001687 0.014663 -0.001433 0.000000 -0.004304 0.000000
# 3 -0.002147 -0.001433 0.011464 0.000000 0.000148 0.000000
# 4 0.000000 0.000000 0.000000 0.053151 0.000000 0.002084
# 5 -0.003099 -0.004304 0.000148 0.000000 0.030377 0.000000
# 6 0.000000 0.000000 0.000000 0.002084 0.000000 0.032572
#
#
# Mechanical properties :
#
#
# Convention : Reuss Voigt Hill
#
# Bulk Modulus (GPa) = 41.91351 49.39292 45.65322
# Shear Modulus (GPa) = 29.58974 33.47991 31.53483
#
# Velocity S-wave (km/s) = 3.54178 3.76741 3.65633
# Velocity P-wave (km/s) = 5.87318 6.31379 6.09747
#
# Compressibility (1/GPa) = 0.02385866
#
# Stress axis : x y z
#
# Youngs Moduli (GPa) = 121.01312 68.19826 87.22612
#
# Poissons Ratio (x) = 0.11504 0.18724
# Poissons Ratio (y) = 0.20413 0.12498
# Poissons Ratio (z) = 0.25977 0.09771
#
# Static dielectric constant tensor:
#      x y z
#    x 1.948670 0.000000 -0.005510 
#    y 0.000000 1.906330 0.000000 
#    z -0.005510 0.000000 1.982850 
# 
# From -- ./inp_files/50550.got.cif
#   From: 2010.05.17/outbox.cif.g08.bks.cpg/sg5_26_cif.got.tgz:50550.got - 2010.06.03 18:56:24.
