data_PCOD9121733
_publ_section_title
;
Structure prediction by ZEFSAII (Michael W. Deem and Ramdas Pophale) SiO2 
 PCOD9121733
Probable space group: C 2
;
_chemical_formula_sum "Si O2"
_cell_formula_units_Z 28
_cell_length_a 14.273179
_cell_length_b 8.633311
_cell_length_c 12.355777
_cell_angle_alpha 90.000000
_cell_angle_beta 110.550453
_cell_angle_gamma 90.000000
_cell_volume 1425.648987
_symmetry_space_group_name_H-M "C 2"
_symmetry_group_IT_number 5
_symmetry_cell_setting 'monoclinic'
loop_
_space_group_symop_operation_xyz
x,y,z
-x,y,-z
1/2+x,1/2+y,z
1/2-x,1/2+y,-z
loop_
_atom_site_type_symbol
_atom_site_label
_atom_site_fract_x
_atom_site_fract_y
_atom_site_fract_z
Si Si1 0.763928 0.890570 0.082503
Si Si2 0.884002 0.893415 0.455759
Si Si3 0.245951 0.117422 0.743384
Si Si4 0.329151 0.123604 0.273375
Si Si5 0.387756 0.841891 0.175056
Si Si6 0.526457 0.559306 0.885174
Si Si7 0.343963 0.406565 0.691819
O O1 0.785366 0.735928 0.161199
O O2 0.712347 0.011094 0.143650
O O3 0.867324 0.974403 0.090765
O O4 0.697530 0.864371 0.950594
O O5 0.876735 0.733360 0.384438
O O6 0.848429 0.891263 0.564837
O O7 0.000000 0.944664 0.500000
O O8 0.808421 0.007824 0.363947
O O9 0.158413 0.225328 0.755839
O O10 0.325590 0.235007 0.729131
O O11 0.403514 0.003747 0.242651
O O12 0.242617 0.020021 0.295331
O O13 0.471580 0.739503 0.150671
O O14 0.446755 0.472807 0.779054
O O15 0.500000 0.548856 0.000000
#
# Coordination Sequence:
#
# PCOD9121733 Si02
#       7
#     4   4   4   4   4   4   4
#     4  10  19  37  61  86 119 156 195 241 293 347
#     4  11  22  40  60  83 115 153 197 245 293 349
#     4   9  20  36  59  85 110 152 193 236 292 344
#     4  10  21  37  59  86 116 155 198 244 293 348
#     4  10  19  36  57  83 118 155 191 237 290 343
#     4  11  22  37  60  89 118 155 196 243 295 353
#     4  11  21  39  61  86 117 152 196 246 296 350
#
# _framework density 19.640177000000001
#
# number of rings (size 3 to 8) (size 9 to 14) (size 15 to 20)
#    0.000    1.714    0.000    7.714    0.000    0.000 
#    0.000   16.429    0.000    0.000    0.000    0.000 
#    0.000    0.000    0.000    0.000    0.000    0.000 
#
# Total GULP energy -78145.975062 kJ/mol
# GULP energy per Si atom -5581.855362 kJ/mol
# Density = 1.959548 g / cm^3
# Si number density = 19.640177 Si / 1000 Ang^3
#
#
#
# Elastic Constant Matrix: (Units=GPa)
#
#
# Indices 1 2 3 4 5 6 
#
# 1 56.8674 35.3699 39.5278 0.0000 -5.6499 0.0000
# 2 35.3699 132.8406 61.3609 0.0000 -12.7435 0.0000
# 3 39.5278 61.3609 130.0237 0.0000 -22.0845 0.0000
# 4 0.0000 0.0000 0.0000 16.4996 0.0000 2.6998
# 5 -5.6499 -12.7435 -22.0845 0.0000 34.6373 0.0000
# 6 0.0000 0.0000 0.0000 2.6998 0.0000 16.9560
#
#
#
# Elastic Compliance Matrix: (Units=1/GPa)
#
#
# Indices 1 2 3 4 5 6 
#
# 1 0.023756 -0.003847 -0.005594 0.000000 -0.001107 0.000000
# 2 -0.003847 0.010265 -0.003521 0.000000 0.000904 0.000000
# 3 -0.005594 -0.003521 0.011975 0.000000 0.005427 0.000000
# 4 0.000000 0.000000 0.000000 0.062229 0.000000 -0.009908
# 5 -0.001107 0.000904 0.005427 0.000000 0.032483 0.000000
# 6 0.000000 0.000000 0.000000 -0.009908 0.000000 0.060554
#
#
# Mechanical properties :
#
#
# Convention : Reuss Voigt Hill
#
# Bulk Modulus (GPa) = 49.82382 65.80543 57.81463
# Shear Modulus (GPa) = 21.37852 25.85011 23.61432
#
# Velocity S-wave (km/s) = 3.30284 3.63186 3.47125
# Velocity P-wave (km/s) = 6.32205 7.15301 6.75033
#
# Compressibility (1/GPa) = 0.02007072
#
# Stress axis : x y z
#
# Youngs Moduli (GPa) = 42.09396 97.41374 83.50547
#
# Poissons Ratio (x) = 0.37479 0.46717
# Poissons Ratio (y) = 0.16195 0.29405
# Poissons Ratio (z) = 0.23549 0.34303
#
# Static dielectric constant tensor:
#      x y z
#    x 1.699060 0.000000 -0.025820 
#    y 0.000000 1.716340 0.000000 
#    z -0.025820 0.000000 1.680300 
# 
# From -- ./inp_files/41706.got.cif
#   From: 2010.05.17/outbox.cif.g08.bks.cpg/sg5_21_cif.got.tgz:41706.got - 2010.06.03 18:56:24.
