data_PCOD9121790
_publ_section_title
;
Structure prediction by ZEFSAII (Michael W. Deem and Ramdas Pophale) SiO2 
 PCOD9121790
Probable space group: C 2
;
_chemical_formula_sum "Si O2"
_cell_formula_units_Z 24
_cell_length_a 9.836513
_cell_length_b 16.908578
_cell_length_c 7.997954
_cell_angle_alpha 90.000000
_cell_angle_beta 46.774359
_cell_angle_gamma 90.000000
_cell_volume 969.289262
_symmetry_space_group_name_H-M "C 2"
_symmetry_group_IT_number 5
_symmetry_cell_setting 'monoclinic'
loop_
_space_group_symop_operation_xyz
x,y,z
-x,y,-z
1/2+x,1/2+y,z
1/2-x,1/2+y,-z
loop_
_atom_site_type_symbol
_atom_site_label
_atom_site_fract_x
_atom_site_fract_y
_atom_site_fract_z
Si Si1 0.768454 0.172380 0.079502
Si Si2 0.712473 0.433710 0.809870
Si Si3 0.266940 0.351132 0.881894
Si Si4 0.116950 0.094256 0.698846
Si Si5 0.215753 0.834211 0.512346
Si Si6 0.114718 0.665251 0.732194
O O1 0.783752 0.263123 0.007593
O O2 0.827157 0.165760 0.222927
O O3 0.553267 0.149670 0.254421
O O4 0.897940 0.111966 0.866599
O O5 0.677665 0.520196 0.760440
O O6 0.806474 0.388205 0.577967
O O7 0.500000 0.400005 0.000000
O O8 0.787450 0.416571 0.933138
O O9 0.493698 0.353442 0.679831
O O10 0.202671 0.350398 0.741694
O O11 0.229427 0.099555 0.433502
O O12 0.210275 0.747800 0.602486
O O13 0.000000 0.668451 0.000000
#
# Coordination Sequence:
#
# PCOD9121790 Si02
#       6
#     4   4   4   4   4   4
#     4  10  20  40  67  94 128 173 224 279 335 407
#     4  10  19  36  60  95 129 172 221 272 341 399
#     4   9  17  33  62  89 122 172 218 263 332 397
#     4  11  22  39  68  95 134 175 219 283 344 396
#     4   9  17  33  61  90 125 168 221 272 321 400
#     4  11  22  40  66  97 134 179 230 277 337 413
#
# _framework density 24.760411000000001
#
# number of rings (size 3 to 8) (size 9 to 14) (size 15 to 20)
#    0.000    2.000    3.333    3.000    0.000    0.667 
#    3.000    1.667    7.333    0.000    0.000    0.000 
#    0.000    0.000    0.000    0.000    0.000    0.000 
#
# Total GULP energy -66866.201584 kJ/mol
# GULP energy per Si atom -5572.183465 kJ/mol
# Density = 2.470406 g / cm^3
# Si number density = 24.760411 Si / 1000 Ang^3
#
#
#
# Elastic Constant Matrix: (Units=GPa)
#
#
# Indices 1 2 3 4 5 6 
#
# 1 45.4975 22.0064 31.2667 0.0000 13.3589 0.0000
# 2 22.0064 97.0996 75.0127 0.0000 12.7400 0.0000
# 3 31.2667 75.0127 186.0181 0.0000 37.2814 0.0000
# 4 0.0000 0.0000 0.0000 20.0762 0.0000 7.4425
# 5 13.3589 12.7400 37.2814 0.0000 46.0429 0.0000
# 6 0.0000 0.0000 0.0000 7.4425 0.0000 11.9562
#
#
#
# Elastic Compliance Matrix: (Units=1/GPa)
#
#
# Indices 1 2 3 4 5 6 
#
# 1 0.026672 -0.003926 -0.001870 0.000000 -0.005138 0.000000
# 2 -0.003926 0.015567 -0.005948 0.000000 0.001648 0.000000
# 3 -0.001870 -0.005948 0.009132 0.000000 -0.005206 0.000000
# 4 0.000000 0.000000 0.000000 0.064753 0.000000 -0.040308
# 5 -0.005138 0.001648 -0.005206 0.000000 0.026969 0.000000
# 6 0.000000 0.000000 0.000000 -0.040308 0.000000 0.108729
#
#
# Mechanical properties :
#
#
# Convention : Reuss Voigt Hill
#
# Bulk Modulus (GPa) = 35.86401 65.02078 50.44239
# Shear Modulus (GPa) = 17.56822 28.97036 23.26929
#
# Velocity S-wave (km/s) = 2.66659 3.42428 3.06891
# Velocity P-wave (km/s) = 4.89865 6.47698 5.74230
#
# Compressibility (1/GPa) = 0.02788311
#
# Stress axis : x y z
#
# Youngs Moduli (GPa) = 37.49253 64.23748 109.50435
#
# Poissons Ratio (x) = 0.25219 0.20480
# Poissons Ratio (y) = 0.14719 0.65132
# Poissons Ratio (z) = 0.07012 0.38208
#
# Static dielectric constant tensor:
#      x y z
#    x 2.045370 0.000000 -0.003600 
#    y 0.000000 2.026250 0.000000 
#    z -0.003600 0.000000 2.061240 
# 
# From -- ./inp_files/21169.got.cif
#   From: 2010.05.17/outbox.cif.g08.bks.cpg/sg5_11_cif.got.tgz:21169.got - 2010.06.03 18:56:24.
