data_PCOD9121470
_publ_section_title
;
Structure prediction by ZEFSAII (Michael W. Deem and Ramdas Pophale) SiO2 
 PCOD9121470
Probable space group: C 2
;
_chemical_formula_sum "Si O2"
_cell_formula_units_Z 32
_cell_length_a 19.017236
_cell_length_b 7.139891
_cell_length_c 14.495196
_cell_angle_alpha 90.000000
_cell_angle_beta 40.759684
_cell_angle_gamma 90.000000
_cell_volume 1284.995519
_symmetry_space_group_name_H-M "C 2"
_symmetry_group_IT_number 5
_symmetry_cell_setting 'monoclinic'
loop_
_space_group_symop_operation_xyz
x,y,z
-x,y,-z
1/2+x,1/2+y,z
1/2-x,1/2+y,-z
loop_
_atom_site_type_symbol
_atom_site_label
_atom_site_fract_x
_atom_site_fract_y
_atom_site_fract_z
Si Si1 0.696146 0.799250 0.930321
Si Si2 0.881561 0.234575 0.622395
Si Si3 0.765150 0.868474 0.671610
Si Si4 0.360396 0.470834 0.399935
Si Si5 0.873848 0.400092 0.447608
Si Si6 0.977433 0.857040 0.920554
Si Si7 0.244022 0.732280 0.923831
Si Si8 0.471120 0.936463 0.169612
O O1 0.757017 0.752288 0.774557
O O2 0.713431 0.021962 0.926970
O O3 0.738946 0.723566 0.984167
O O4 0.566331 0.791115 0.053534
O O5 0.885948 0.404444 0.545270
O O6 0.848179 0.283851 0.759359
O O7 0.000000 0.145179 0.500000
O O8 0.795192 0.081800 0.672321
O O9 0.846261 0.837732 0.504733
O O10 0.644911 0.866764 0.749493
O O11 0.245064 0.463653 0.463919
O O12 0.380780 0.678255 0.416740
O O13 0.448842 0.425879 0.236433
O O14 0.959840 0.480239 0.290237
O O15 0.006777 0.636179 0.897174
O O16 0.853017 0.864782 0.013533
O O17 0.000000 0.935855 0.000000
#
# Coordination Sequence:
#
# PCOD9121470 Si02
#       8
#     4   4   4   4   4   4   4   4
#     4  10  20  37  56  80 114 151 192 238 289 348
#     4  10  19  34  56  81 110 148 188 231 288 350
#     4   9  19  34  57  82 108 147 192 236 281 344
#     4  10  20  36  57  86 114 146 190 241 294 339
#     4  10  20  35  59  87 115 146 192 244 289 349
#     4  11  21  38  60  82 114 155 195 240 292 345
#     4  10  22  36  56  82 112 151 192 235 290 353
#     4  10  19  36  61  84 109 152 198 239 290 344
#
# _framework density 24.902809000000001
#
# number of rings (size 3 to 8) (size 9 to 14) (size 15 to 20)
#    0.000    2.000    0.000    6.375    0.000    5.000 
#    0.000    9.375    0.000    3.000    0.000    0.875 
#    0.000    0.000    0.000    0.000    0.000    0.000 
#
# Total GULP energy -89448.045176 kJ/mol
# GULP energy per Si atom -5590.502823 kJ/mol
# Density = 2.484613 g / cm^3
# Si number density = 24.902809 Si / 1000 Ang^3
#
#
#
# Elastic Constant Matrix: (Units=GPa)
#
#
# Indices 1 2 3 4 5 6 
#
# 1 109.3339 17.3483 67.7494 0.0001 27.3198 -0.0001
# 2 17.3483 35.7244 31.0346 0.0007 7.2590 -0.0007
# 3 67.7494 31.0346 203.1365 0.0005 33.2984 -0.0004
# 4 0.0001 0.0007 0.0005 24.3363 0.0001 16.2845
# 5 27.3198 7.2590 33.2984 0.0001 44.3368 -0.0001
# 6 -0.0001 -0.0007 -0.0004 16.2845 -0.0001 23.0487
#
#
#
# Elastic Compliance Matrix: (Units=1/GPa)
#
#
# Indices 1 2 3 4 5 6 
#
# 1 0.012695 -0.002506 -0.003006 0.000000 -0.005154 0.000000
# 2 -0.002506 0.032897 -0.004060 -0.000003 -0.000793 0.000003
# 3 -0.003006 -0.004060 0.006994 0.000000 -0.002736 0.000000
# 4 0.000000 -0.000003 0.000000 0.077937 0.000000 -0.055065
# 5 -0.005154 -0.000793 -0.002736 0.000000 0.027915 0.000000
# 6 0.000000 0.000003 0.000000 -0.055065 0.000000 0.082291
#
#
# Mechanical properties :
#
#
# Convention : Reuss Voigt Hill
#
# Bulk Modulus (GPa) = 29.90295 64.49547 47.19921
# Shear Modulus (GPa) = 18.44875 33.81520 26.13197
#
# Velocity S-wave (km/s) = 2.72477 3.68895 3.24289
# Velocity P-wave (km/s) = 4.68328 6.64075 5.74598
#
# Compressibility (1/GPa) = 0.03344151
#
# Stress axis : x y z
#
# Youngs Moduli (GPa) = 78.77372 30.39763 142.97657
#
# Poissons Ratio (x) = 0.07617 0.42980
# Poissons Ratio (y) = 0.19740 0.58052
# Poissons Ratio (z) = 0.23680 0.12342
#
# Static dielectric constant tensor:
#      x y z
#    x 1.984580 0.000000 0.037080 
#    y 0.000000 2.034180 0.000000 
#    z 0.037080 0.000000 2.033560 
# 
# From -- ./inp_files/56805.got.cif
#   From: 2010.05.17/outbox.cif.g08.bks.cpg/sg5_29_cif.got.tgz:56805.got - 2010.06.03 18:56:24.
