data_PCOD9121031
_publ_section_title
;
Structure prediction by ZEFSAII (Michael W. Deem and Ramdas Pophale) SiO2 
 PCOD9121031
Probable space group: C 2
;
_chemical_formula_sum "Si O2"
_cell_formula_units_Z 22
_cell_length_a 6.389792
_cell_length_b 13.999726
_cell_length_c 10.353421
_cell_angle_alpha 90.000000
_cell_angle_beta 100.304305
_cell_angle_gamma 90.000000
_cell_volume 911.231147
_symmetry_space_group_name_H-M "C 2"
_symmetry_group_IT_number 5
_symmetry_cell_setting 'monoclinic'
loop_
_space_group_symop_operation_xyz
x,y,z
-x,y,-z
1/2+x,1/2+y,z
1/2-x,1/2+y,-z
loop_
_atom_site_type_symbol
_atom_site_label
_atom_site_fract_x
_atom_site_fract_y
_atom_site_fract_z
Si Si1 0.483322 0.701440 0.864811
Si Si2 0.567134 0.310899 0.732643
Si Si3 0.500000 0.043598 0.000000
Si Si4 0.618234 0.936402 0.382170
Si Si5 0.300205 0.132717 0.720065
Si Si6 0.767608 0.392359 0.125627
O O1 0.258648 0.748369 0.811904
O O2 0.562717 0.646043 0.747945
O O3 0.653424 0.787172 0.906494
O O4 0.500000 0.644241 0.000000
O O5 0.677688 0.373867 0.634705
O O6 0.389960 0.232477 0.676365
O O7 0.456879 0.377702 0.828928
O O8 0.427868 0.103998 0.867021
O O9 0.688322 0.971154 0.977692
O O10 0.500000 0.910973 0.500000
O O11 0.440723 0.919942 0.253175
O O12 0.678848 0.047478 0.378051
#
# Coordination Sequence:
#
# PCOD9121031 Si02
#       6
#     4   4   2   4   4   4
#     4  10  19  36  58  94 129 161 205 251 313 387
#     4  10  22  41  62  89 129 170 210 261 320 376
#     4  10  18  38  62  94 132 160 206 258 318 396
#     4  10  23  44  62  90 124 164 221 267 318 379
#     4  10  22  38  60  94 126 163 210 263 316 389
#     4   9  20  38  62  91 123 165 209 251 316 380
#
# _framework density 24.143163000000001
#
# number of rings (size 3 to 8) (size 9 to 14) (size 15 to 20)
#    0.000    2.182    0.909    1.091    0.000    7.273 
#    9.818    1.818    0.000    0.000    0.000    0.000 
#    0.000    0.000    0.000    0.000    0.000    0.000 
#
# Total GULP energy -61515.033633 kJ/mol
# GULP energy per Si atom -5592.275785 kJ/mol
# Density = 2.408821 g / cm^3
# Si number density = 24.143163 Si / 1000 Ang^3
#
#
#
# Elastic Constant Matrix: (Units=GPa)
#
#
# Indices 1 2 3 4 5 6 
#
# 1 135.7040 51.0892 35.3961 0.0000 -48.7616 0.0000
# 2 51.0892 108.8160 27.8101 0.0000 -32.8502 0.0000
# 3 35.3961 27.8101 52.5351 0.0000 -34.6957 0.0000
# 4 0.0000 0.0000 0.0000 14.7206 0.0000 -13.5101
# 5 -48.7616 -32.8502 -34.6957 0.0000 51.9869 0.0000
# 6 0.0000 0.0000 0.0000 -13.5101 0.0000 46.4783
#
#
#
# Elastic Compliance Matrix: (Units=1/GPa)
#
#
# Indices 1 2 3 4 5 6 
#
# 1 0.011734 -0.002662 -0.000606 0.000000 0.008920 0.000000
# 2 -0.002662 0.012114 -0.002169 0.000000 0.003711 0.000000
# 3 -0.000606 -0.002169 0.034531 0.000000 0.021107 0.000000
# 4 0.000000 0.000000 0.000000 0.092648 0.000000 0.026930
# 5 0.008920 0.003711 0.021107 0.000000 0.044033 0.000000
# 6 0.000000 0.000000 0.000000 0.026930 0.000000 0.029343
#
#
# Mechanical properties :
#
#
# Convention : Reuss Voigt Hill
#
# Bulk Modulus (GPa) = 21.04983 58.40511 39.72747
# Shear Modulus (GPa) = 19.91149 34.82116 27.36632
#
# Velocity S-wave (km/s) = 2.87492 3.80185 3.37040
# Velocity P-wave (km/s) = 4.44499 6.59665 5.62466
#
# Compressibility (1/GPa) = 0.04750633
#
# Stress axis : x y z
#
# Youngs Moduli (GPa) = 85.22114 82.54950 28.95965
#
# Poissons Ratio (x) = 0.21971 0.01756
# Poissons Ratio (y) = 0.22682 0.06280
# Poissons Ratio (z) = 0.05167 0.17901
#
# Static dielectric constant tensor:
#      x y z
#    x 1.959400 0.000000 -0.030510 
#    y 0.000000 1.927880 0.000000 
#    z -0.030510 0.000000 1.927820 
# 
# From -- ./inp_files/33214.got.cif
#   From: 2010.05.17/outbox.cif.g08.bks.cpg/sg5_17_cif.got.tgz:33214.got - 2010.06.03 18:56:24.
