data_PCOD9121320
_publ_section_title
;
Structure prediction by ZEFSAII (Michael W. Deem and Ramdas Pophale) SiO2 
 PCOD9121320
Probable space group: C 2
;
_chemical_formula_sum "Si O2"
_cell_formula_units_Z 32
_cell_length_a 23.610269
_cell_length_b 7.157601
_cell_length_c 8.312652
_cell_angle_alpha 90.000000
_cell_angle_beta 80.606936
_cell_angle_gamma 90.000000
_cell_volume 1385.943662
_symmetry_space_group_name_H-M "C 2"
_symmetry_group_IT_number 5
_symmetry_cell_setting 'monoclinic'
loop_
_space_group_symop_operation_xyz
x,y,z
-x,y,-z
1/2+x,1/2+y,z
1/2-x,1/2+y,-z
loop_
_atom_site_type_symbol
_atom_site_label
_atom_site_fract_x
_atom_site_fract_y
_atom_site_fract_z
Si Si1 0.178369 0.743690 0.461201
Si Si2 0.710129 0.789429 0.764665
Si Si3 0.942611 0.651587 0.478924
Si Si4 0.233090 0.711440 0.787118
Si Si5 0.462541 0.394284 0.171840
Si Si6 0.436727 0.531598 0.688639
Si Si7 0.647562 0.488123 0.974708
Si Si8 0.655368 0.693867 0.448149
O O1 0.230081 0.696743 0.318292
O O2 0.124090 0.606810 0.464355
O O3 0.201290 0.730145 0.630249
O O4 0.165357 0.966279 0.454060
O O5 0.774291 0.492792 0.179028
O O6 0.679172 0.678646 0.918805
O O7 0.672365 0.776236 0.615700
O O8 0.949847 0.719958 0.292850
O O9 0.000000 0.541132 0.500000
O O10 0.945124 0.841207 0.585437
O O11 0.196112 0.830924 0.929205
O O12 0.298496 0.758264 0.707736
O O13 0.502299 0.546492 0.247067
O O14 0.401700 0.465492 0.138391
O O15 0.500000 0.337391 0.000000
O O16 0.410034 0.692563 0.588057
O O17 0.387784 0.491380 0.844799
#
# Coordination Sequence:
#
# PCOD9121320 Si02
#       8
#     4   4   4   4   4   4   4   4
#     4   9  16  31  53  77 110 139 191 228 273 342
#     4  10  20  32  58  80 112 147 195 235 283 345
#     4   9  15  29  52  82 111 142 186 238 277 338
#     4  10  19  32  56  83 107 145 193 236 279 344
#     4   9  17  30  58  88 104 145 200 231 279 341
#     4   9  19  32  55  82 114 150 190 229 287 347
#     4  11  19  36  56  83 111 154 190 237 286 339
#     4   9  17  34  51  81 110 147 187 233 289 337
#
# _framework density 23.088964000000001
#
# number of rings (size 3 to 8) (size 9 to 14) (size 15 to 20)
#    0.000    2.500    2.500    0.750    1.750    0.000 
#    6.750    0.000    5.500    8.250    0.000    0.000 
#    0.000    0.000    0.000    0.000    0.000    0.000 
#
# Total GULP energy -89266.024301 kJ/mol
# GULP energy per Si atom -5579.126519 kJ/mol
# Density = 2.303641 g / cm^3
# Si number density = 23.088964 Si / 1000 Ang^3
#
#
#
# Elastic Constant Matrix: (Units=GPa)
#
#
# Indices 1 2 3 4 5 6 
#
# 1 122.2244 12.2524 26.1590 0.0000 -4.0130 0.0000
# 2 12.2524 55.2212 17.6182 0.0000 -6.4546 0.0000
# 3 26.1590 17.6182 97.9188 0.0000 -22.6787 0.0000
# 4 0.0000 0.0000 0.0000 10.7831 0.0000 -5.7011
# 5 -4.0130 -6.4546 -22.6787 0.0000 43.6319 0.0000
# 6 0.0000 0.0000 0.0000 -5.7011 0.0000 25.3377
#
#
#
# Elastic Compliance Matrix: (Units=1/GPa)
#
#
# Indices 1 2 3 4 5 6 
#
# 1 0.008772 -0.001297 -0.002237 0.000000 -0.000548 0.000000
# 2 -0.001297 0.019458 -0.002860 0.000000 0.001273 0.000000
# 3 -0.002237 -0.002860 0.012709 0.000000 0.005977 0.000000
# 4 0.000000 0.000000 0.000000 0.105260 0.000000 0.023684
# 5 -0.000548 0.001273 0.005977 0.000000 0.026164 0.000000
# 6 0.000000 0.000000 0.000000 0.023684 0.000000 0.044796
#
#
# Mechanical properties :
#
#
# Convention : Reuss Voigt Hill
#
# Bulk Modulus (GPa) = 35.52125 43.04706 39.28416
# Shear Modulus (GPa) = 20.89169 30.57287 25.73228
#
# Velocity S-wave (km/s) = 3.01131 3.64281 3.34201
# Velocity P-wave (km/s) = 5.24486 6.03141 5.65183
#
# Compressibility (1/GPa) = 0.02815216
#
# Stress axis : x y z
#
# Youngs Moduli (GPa) = 113.99293 51.39313 78.68401
#
# Poissons Ratio (x) = 0.06664 0.17603
# Poissons Ratio (y) = 0.14781 0.22502
# Poissons Ratio (z) = 0.25502 0.14697
#
# Static dielectric constant tensor:
#      x y z
#    x 2.006180 0.000000 0.045740 
#    y 0.000000 1.888450 0.000000 
#    z 0.045740 0.000000 1.853010 
# 
# From -- ./inp_files/31565.got.cif
#   From: 2010.05.17/outbox.cif.g08.bks.cpg/sg5_16_cif.got.tgz:31565.got - 2010.06.03 18:56:24.
