data_PCOD9121889
_publ_section_title
;
Structure prediction by ZEFSAII (Michael W. Deem and Ramdas Pophale) SiO2 
 PCOD9121889
Probable space group: C 2
;
_chemical_formula_sum "Si O2"
_cell_formula_units_Z 30
_cell_length_a 26.547552
_cell_length_b 8.882552
_cell_length_c 8.371449
_cell_angle_alpha 90.000000
_cell_angle_beta 132.371525
_cell_angle_gamma 90.000000
_cell_volume 1458.424992
_symmetry_space_group_name_H-M "C 2"
_symmetry_group_IT_number 5
_symmetry_cell_setting 'monoclinic'
loop_
_space_group_symop_operation_xyz
x,y,z
-x,y,-z
1/2+x,1/2+y,z
1/2-x,1/2+y,-z
loop_
_atom_site_type_symbol
_atom_site_label
_atom_site_fract_x
_atom_site_fract_y
_atom_site_fract_z
Si Si1 0.182157 0.178000 0.022761
Si Si2 0.232277 0.474699 0.972944
Si Si3 0.705202 0.291502 0.487487
Si Si4 0.384567 0.133152 0.467577
Si Si5 0.405365 0.819117 0.689004
Si Si6 0.045849 0.302987 0.844093
Si Si7 0.500000 0.056535 0.500000
Si Si8 0.227055 0.110850 0.602180
O O1 0.203686 0.306461 0.936922
O O2 0.102374 0.193836 0.888500
O O3 0.227848 0.231428 0.272019
O O4 0.205790 0.013846 0.014237
O O5 0.173894 0.582667 0.779737
O O6 0.255577 0.535071 0.193413
O O7 0.708166 0.194551 0.334102
O O8 0.710212 0.465685 0.458632
O O9 0.642958 0.260525 0.473873
O O10 0.395181 0.984928 0.597414
O O11 0.450957 0.156018 0.504283
O O12 0.468680 0.751234 0.721413
O O13 0.337007 0.722202 0.525955
O O14 0.425002 0.837466 0.916799
O O15 0.038965 0.443711 0.707038
#
# Coordination Sequence:
#
# PCOD9121889 Si02
#       8
#     4   4   4   4   4   4   2   4
#     4  10  19  37  54  84 114 145 188 238 288 345
#     4  10  21  33  57  81 119 142 192 235 292 336
#     4  10  22  34  58  83 116 148 192 238 292 340
#     4  10  20  36  57  87 112 152 191 240 288 346
#     4  10  21  37  63  84 117 152 198 235 293 340
#     4  10  20  36  59  89 113 151 195 242 279 356
#     4  10  20  34  64  84 116 150 194 244 290 342
#     4  11  21  37  57  86 115 155 190 245 288 347
#
# _framework density 20.570135000000001
#
# number of rings (size 3 to 8) (size 9 to 14) (size 15 to 20)
#    0.000    1.867    2.667    1.600    3.733    1.067 
#    0.000    0.000    8.800    6.400    0.000    0.000 
#    0.000    0.000    0.000    0.000    0.000    0.000 
#
# Total GULP energy -83668.421664 kJ/mol
# GULP energy per Si atom -5577.894778 kJ/mol
# Density = 2.052332 g / cm^3
# Si number density = 20.570135 Si / 1000 Ang^3
#
#
#
# Elastic Constant Matrix: (Units=GPa)
#
#
# Indices 1 2 3 4 5 6 
#
# 1 142.2773 36.8540 11.2821 0.0000 4.8293 0.0000
# 2 36.8540 49.6008 -5.9727 0.0000 -12.6970 0.0000
# 3 11.2821 -5.9727 42.1719 0.0000 -5.3978 0.0000
# 4 0.0000 0.0000 0.0000 11.9265 0.0000 0.8354
# 5 4.8293 -12.6970 -5.3978 0.0000 13.9525 0.0000
# 6 0.0000 0.0000 0.0000 0.8354 0.0000 37.5342
#
#
#
# Elastic Compliance Matrix: (Units=1/GPa)
#
#
# Indices 1 2 3 4 5 6 
#
# 1 0.012651 -0.016159 -0.008538 0.000000 -0.022387 0.000000
# 2 -0.016159 0.049137 0.018644 0.000000 0.057521 0.000000
# 3 -0.008538 0.018644 0.032812 0.000000 0.032616 0.000000
# 4 0.000000 0.000000 0.000000 0.083978 0.000000 -0.001869
# 5 -0.022387 0.057521 0.032616 0.000000 0.144384 0.000000
# 6 0.000000 0.000000 0.000000 -0.001869 0.000000 0.026684
#
#
# Mechanical properties :
#
#
# Convention : Reuss Voigt Hill
#
# Bulk Modulus (GPa) = 12.12208 35.37521 23.74864
# Shear Modulus (GPa) = 12.84526 25.47507 19.16017
#
# Velocity S-wave (km/s) = 2.50163 3.52298 3.05529
# Velocity P-wave (km/s) = 3.77493 5.81233 4.90068
#
# Compressibility (1/GPa) = 0.08249409
#
# Stress axis : x y z
#
# Youngs Moduli (GPa) = 79.04480 20.35143 30.47673
#
# Poissons Ratio (x) = 0.32885 0.26022
# Poissons Ratio (y) = 1.27726 -0.56822
# Poissons Ratio (z) = 0.67492 -0.37944
#
# Static dielectric constant tensor:
#      x y z
#    x 1.790480 0.000000 -0.007240 
#    y 0.000000 1.710320 0.000000 
#    z -0.007240 0.000000 1.765620 
# 
# From -- ./inp_files/28930.got.cif
#   From: 2010.05.17/outbox.cif.g08.bks.cpg/sg5_15_cif.got.tgz:28930.got - 2010.06.03 18:56:24.
