data_PCOD9121946
_publ_section_title
;
Structure prediction by ZEFSAII (Michael W. Deem and Ramdas Pophale) SiO2 
 PCOD9121946
Probable space group: C 2
;
_chemical_formula_sum "Si O2"
_cell_formula_units_Z 26
_cell_length_a 15.133014
_cell_length_b 16.212966
_cell_length_c 10.600564
_cell_angle_alpha 90.000000
_cell_angle_beta 25.672406
_cell_angle_gamma 90.000000
_cell_volume 1126.757503
_symmetry_space_group_name_H-M "C 2"
_symmetry_group_IT_number 5
_symmetry_cell_setting 'monoclinic'
loop_
_space_group_symop_operation_xyz
x,y,z
-x,y,-z
1/2+x,1/2+y,z
1/2-x,1/2+y,-z
loop_
_atom_site_type_symbol
_atom_site_label
_atom_site_fract_x
_atom_site_fract_y
_atom_site_fract_z
Si Si1 0.000000 0.877780 0.500000
Si Si2 0.814046 0.017912 0.156004
Si Si3 0.930173 0.363029 0.941679
Si Si4 0.599570 0.514127 0.582140
Si Si5 0.480710 0.034558 0.263566
Si Si6 0.761753 0.159128 0.767957
Si Si7 0.182154 0.335844 0.368468
O O1 0.056727 0.937606 0.545548
O O2 0.795225 0.824258 0.782066
O O3 0.601377 0.044420 0.490057
O O4 0.808455 0.918481 0.178716
O O5 0.885507 0.036860 0.922809
O O6 0.000000 0.054212 0.000000
O O7 0.883565 0.456630 0.951772
O O8 0.086302 0.331120 0.633412
O O9 0.000000 0.360746 0.000000
O O10 0.771899 0.499112 0.465320
O O11 0.709478 0.591349 0.376796
O O12 0.595360 0.116049 0.071086
O O13 0.702956 0.251104 0.807184
O O14 0.000000 0.165467 0.500000
O O15 0.000000 0.342792 0.500000
#
# Coordination Sequence:
#
# PCOD9121946 Si02
#       7
#     2   4   4   4   4   4   4
#     4  12  20  32  66  96 122 164 210 264 312 374
#     4   9  21  37  61  90 121 152 204 261 307 364
#     4  11  20  38  64  94 125 166 213 261 309 379
#     4  11  19  35  62  92 121 156 209 257 309 366
#     4  10  19  37  61  93 118 160 211 257 302 379
#     4  11  21  37  61  87 123 164 206 253 312 378
#     4  10  23  40  60  89 131 160 208 259 320 371
#
# _framework density 23.075061999999999
#
# number of rings (size 3 to 8) (size 9 to 14) (size 15 to 20)
#    0.000    1.538    3.846    1.385    0.000    2.462 
#    0.000    2.308   10.154    0.000    0.000    0.000 
#    0.000    0.000    0.000    0.000    0.000    0.000 
#
# Total GULP energy -72408.956237 kJ/mol
# GULP energy per Si atom -5569.919711 kJ/mol
# Density = 2.302254 g / cm^3
# Si number density = 23.075062 Si / 1000 Ang^3
#
#
#
# Elastic Constant Matrix: (Units=GPa)
#
#
# Indices 1 2 3 4 5 6 
#
# 1 103.0431 -11.2320 22.4977 -0.0002 -2.2978 -0.0016
# 2 -11.2320 70.0404 24.0149 -0.0031 13.7528 0.0006
# 3 22.4977 24.0149 144.9511 -0.0045 22.1253 -0.0040
# 4 -0.0002 -0.0031 -0.0045 3.7204 -0.0016 9.7838
# 5 -2.2978 13.7528 22.1253 -0.0016 51.0049 0.0019
# 6 -0.0016 0.0006 -0.0040 9.7838 0.0019 6.6909
#
#
#
# Elastic Compliance Matrix: (Units=1/GPa)
#
#
# Indices 1 2 3 4 5 6 
#
# 1 0.010427 0.002242 -0.002109 0.000001 0.000780 0.000000
# 2 0.002242 0.016125 -0.002539 -0.000005 -0.003145 0.000005
# 3 -0.002109 -0.002539 0.008093 0.000003 -0.002921 0.000001
# 4 0.000001 -0.000005 0.000003 -0.094465 -0.000008 0.138132
# 5 0.000780 -0.003145 -0.002921 -0.000008 0.021756 0.000004
# 6 0.000000 0.000005 0.000001 0.138132 0.000004 -0.052527
#
#
# Mechanical properties :
#
#
# Convention : Reuss Voigt Hill
#
# Bulk Modulus (GPa) = 33.52058 43.17729 38.34894
# Shear Modulus (GPa) = -65.93316 31.13353 -17.39981
#
# Velocity S-wave (km/s) = -5.35120 3.67717 -2.74898
# Velocity P-wave (km/s) = 4.86027 6.06474 2.56504
#
# Compressibility (1/GPa) = 0.02983242
#
# Stress axis : x y z
#
# Youngs Moduli (GPa) = 95.90586 62.01418 123.56748
#
# Poissons Ratio (x) = -0.13904 0.26059
# Poissons Ratio (y) = -0.21502 0.31379
# Poissons Ratio (z) = 0.20225 0.15748
#
# Static dielectric constant tensor:
#      x y z
#    x 4.920680 0.000030 -1.230460 
#    y 0.000030 1.856160 -0.000010 
#    z -1.230460 -0.000010 2.535980 
# 
# From -- ./inp_files/45114.got.cif
#   From: 2010.05.17/outbox.cif.g08.bks.cpg/sg5_23_cif.got.tgz:45114.got - 2010.06.03 18:56:24.
