data_PCOD9121860
_publ_section_title
;
Structure prediction by ZEFSAII (Michael W. Deem and Ramdas Pophale) SiO2 
 PCOD9121860
Probable space group: C 2
;
_chemical_formula_sum "Si O2"
_cell_formula_units_Z 26
_cell_length_a 7.188204
_cell_length_b 14.272894
_cell_length_c 11.034771
_cell_angle_alpha 90.000000
_cell_angle_beta 107.561652
_cell_angle_gamma 90.000000
_cell_volume 1079.363283
_symmetry_space_group_name_H-M "C 2"
_symmetry_group_IT_number 5
_symmetry_cell_setting 'monoclinic'
loop_
_space_group_symop_operation_xyz
x,y,z
-x,y,-z
1/2+x,1/2+y,z
1/2-x,1/2+y,-z
loop_
_atom_site_type_symbol
_atom_site_label
_atom_site_fract_x
_atom_site_fract_y
_atom_site_fract_z
Si Si1 0.000000 0.558210 0.500000
Si Si2 0.776431 0.104153 0.957054
Si Si3 0.748325 0.384996 0.805374
Si Si4 0.783572 0.195750 0.206000
Si Si5 0.805711 0.041717 0.382542
Si Si6 0.719719 0.887631 0.911870
Si Si7 0.743177 0.195031 0.710636
O O1 0.125681 0.501955 0.426280
O O2 0.153923 0.625822 0.596040
O O3 0.676900 0.159721 0.829977
O O4 0.777635 0.996371 0.914526
O O5 0.708929 0.132036 0.078035
O O6 0.000000 0.137596 0.000000
O O7 0.665353 0.479932 0.732512
O O8 0.686581 0.303388 0.701467
O O9 0.984133 0.390553 0.857422
O O10 0.704508 0.364329 0.937472
O O11 0.740703 0.144509 0.323757
O O12 0.724376 0.303154 0.167415
O O13 0.021594 0.192267 0.251146
O O14 0.000000 0.043548 0.500000
#
# Coordination Sequence:
#
# PCOD9121860 Si02
#       7
#     2   4   4   4   4   4   4
#     4  12  26  44  64  96 136 188 238 270 328 416
#     4  10  19  36  64  96 132 172 218 285 349 403
#     4  10  21  38  67  98 128 171 229 279 347 398
#     4  10  20  41  67  94 135 175 226 283 347 403
#     4  12  25  46  69 100 139 186 229 280 340 409
#     4  10  19  38  64 100 131 171 223 285 345 409
#     4  10  21  41  64  94 131 180 223 281 339 405
#
# _framework density 24.088276
#
# number of rings (size 3 to 8) (size 9 to 14) (size 15 to 20)
#    0.000    1.538    4.615    0.923    1.077    0.000 
#    2.769    4.615    1.692    0.000    0.000    0.000 
#    0.000    0.000    0.000    0.000    0.000    0.000 
#
# Total GULP energy -72627.970149 kJ/mol
# GULP energy per Si atom -5586.766935 kJ/mol
# Density = 2.403345 g / cm^3
# Si number density = 24.088276 Si / 1000 Ang^3
#
#
#
# Elastic Constant Matrix: (Units=GPa)
#
#
# Indices 1 2 3 4 5 6 
#
# 1 62.3862 -11.8754 10.3371 0.0000 12.4552 0.0000
# 2 -11.8754 88.4367 25.1850 0.0000 9.4707 0.0000
# 3 10.3371 25.1850 80.6472 0.0000 15.9645 0.0000
# 4 0.0000 0.0000 0.0000 19.5927 0.0000 -1.0463
# 5 12.4552 9.4707 15.9645 0.0000 39.5453 0.0000
# 6 0.0000 0.0000 0.0000 -1.0463 0.0000 21.2512
#
#
#
# Elastic Compliance Matrix: (Units=1/GPa)
#
#
# Indices 1 2 3 4 5 6 
#
# 1 0.018272 0.003742 -0.002385 0.000000 -0.005689 0.000000
# 2 0.003742 0.013263 -0.004086 0.000000 -0.002705 0.000000
# 3 -0.002385 -0.004086 0.014824 0.000000 -0.004255 0.000000
# 4 0.000000 0.000000 0.000000 0.051174 0.000000 0.002519
# 5 -0.005689 -0.002705 -0.004255 0.000000 0.029445 0.000000
# 6 0.000000 0.000000 0.000000 0.002519 0.000000 0.047180
#
#
# Mechanical properties :
#
#
# Convention : Reuss Voigt Hill
#
# Bulk Modulus (GPa) = 24.44880 30.97371 27.71126
# Shear Modulus (GPa) = 25.87331 29.93273 27.90302
#
# Velocity S-wave (km/s) = 3.28091 3.52892 3.40717
# Velocity P-wave (km/s) = 4.95219 5.43053 5.19687
#
# Compressibility (1/GPa) = 0.04090181
#
# Stress axis : x y z
#
# Youngs Moduli (GPa) = 54.72770 75.39588 67.46015
#
# Poissons Ratio (x) = -0.28212 0.16086
# Poissons Ratio (y) = -0.20478 0.27564
# Poissons Ratio (z) = 0.13050 0.30807
#
# Static dielectric constant tensor:
#      x y z
#    x 1.992580 0.000000 -0.039950 
#    y 0.000000 1.932420 0.000000 
#    z -0.039950 0.000000 1.881800 
# 
# From -- ./inp_files/36264.got.cif
#   From: 2010.05.17/outbox.cif.g08.bks.cpg/sg5_19_cif.got.tgz:36264.got - 2010.06.03 18:56:24.
