data_PCOD9121713
_publ_section_title
;
Structure prediction by ZEFSAII (Michael W. Deem and Ramdas Pophale) SiO2 
 PCOD9121713
Probable space group: C 2
;
_chemical_formula_sum "Si O2"
_cell_formula_units_Z 24
_cell_length_a 22.877764
_cell_length_b 8.581610
_cell_length_c 11.422436
_cell_angle_alpha 90.000000
_cell_angle_beta 30.212091
_cell_angle_gamma 90.000000
_cell_volume 1128.453632
_symmetry_space_group_name_H-M "C 2"
_symmetry_group_IT_number 5
_symmetry_cell_setting 'monoclinic'
loop_
_space_group_symop_operation_xyz
x,y,z
-x,y,-z
1/2+x,1/2+y,z
1/2-x,1/2+y,-z
loop_
_atom_site_type_symbol
_atom_site_label
_atom_site_fract_x
_atom_site_fract_y
_atom_site_fract_z
Si Si1 0.818913 0.010440 0.006619
Si Si2 0.572336 0.973552 0.132611
Si Si3 0.143412 0.274039 0.233323
Si Si4 0.494778 0.664789 0.871627
Si Si5 0.164734 0.039961 0.388085
Si Si6 0.016972 0.762348 0.599797
O O1 0.790653 0.150152 0.965577
O O2 0.880731 0.082164 0.012575
O O3 0.916417 0.892642 0.787360
O O4 0.710061 0.897182 0.199871
O O5 0.583821 0.881678 0.237558
O O6 0.520735 0.846404 0.134068
O O7 0.494972 0.124478 0.288241
O O8 0.697416 0.041097 0.873005
O O9 0.098685 0.150766 0.407661
O O10 0.607477 0.594312 0.609060
O O11 0.500000 0.640038 0.000000
O O12 0.131904 0.861674 0.419366
O O13 0.000000 0.697868 0.500000
#
# Coordination Sequence:
#
# PCOD9121713 Si02
#       6
#     4   4   4   4   4   4
#     4  10  19  35  67  92 140 166 207 274 328 395
#     4  11  24  41  66  97 137 170 221 277 331 412
#     4  11  18  36  62 105 133 167 208 271 347 395
#     4  10  26  49  63  92 136 181 235 276 315 391
#     4  11  23  41  65  95 135 176 214 277 335 391
#     4  11  20  36  60  99 135 171 209 263 343 411
#
# _framework density 21.268045000000001
#
# number of rings (size 3 to 8) (size 9 to 14) (size 15 to 20)
#    0.000    1.333    5.000    0.000    2.333    0.000 
#    3.000    3.333    0.000    0.000    0.000    0.000 
#    0.000    0.000    0.000    0.000    0.000    0.000 
#
# Total GULP energy -66952.980587 kJ/mol
# GULP energy per Si atom -5579.415049 kJ/mol
# Density = 2.121964 g / cm^3
# Si number density = 21.268045 Si / 1000 Ang^3
#
#
#
# Elastic Constant Matrix: (Units=GPa)
#
#
# Indices 1 2 3 4 5 6 
#
# 1 105.2793 41.3538 46.9841 0.0000 34.2774 0.0000
# 2 41.3538 137.4751 35.2443 0.0000 8.1367 0.0000
# 3 46.9841 35.2443 61.1335 0.0000 19.5193 0.0000
# 4 0.0000 0.0000 0.0000 50.7765 0.0000 -4.9594
# 5 34.2774 8.1367 19.5193 0.0000 31.8182 0.0000
# 6 0.0000 0.0000 0.0000 -4.9594 0.0000 22.6516
#
#
#
# Elastic Compliance Matrix: (Units=1/GPa)
#
#
# Indices 1 2 3 4 5 6 
#
# 1 0.019126 -0.002721 -0.008424 0.000000 -0.014741 0.000000
# 2 -0.002721 0.008951 -0.004071 0.000000 0.003140 0.000000
# 3 -0.008424 -0.004071 0.027296 0.000000 -0.006628 0.000000
# 4 0.000000 0.000000 0.000000 0.020124 0.000000 0.004406
# 5 -0.014741 0.003140 -0.006628 0.000000 0.050572 0.000000
# 6 0.000000 0.000000 0.000000 0.004406 0.000000 0.045112
#
#
# Mechanical properties :
#
#
# Convention : Reuss Voigt Hill
#
# Bulk Modulus (GPa) = 40.09777 61.22802 50.66289
# Shear Modulus (GPa) = 23.81779 33.06966 28.44372
#
# Velocity S-wave (km/s) = 3.35010 3.94750 3.66101
# Velocity P-wave (km/s) = 5.81882 7.04473 6.46092
#
# Compressibility (1/GPa) = 0.02493904
#
# Stress axis : x y z
#
# Youngs Moduli (GPa) = 52.28371 111.72539 36.63588
#
# Poissons Ratio (x) = 0.30403 0.30863
# Poissons Ratio (y) = 0.14228 0.14916
# Poissons Ratio (z) = 0.44045 0.45487
#
# Static dielectric constant tensor:
#      x y z
#    x 1.736010 0.000000 -0.080140 
#    y 0.000000 1.768570 0.000000 
#    z -0.080140 0.000000 1.922610 
# 
# From -- ./inp_files/47239.got.cif
#   From: 2010.05.17/outbox.cif.g08.bks.cpg/sg5_24_cif.got.tgz:47239.got - 2010.06.03 18:56:24.
