data_PCOD9121637
_publ_section_title
;
Structure prediction by ZEFSAII (Michael W. Deem and Ramdas Pophale) SiO2 
 PCOD9121637
Probable space group: C 2
;
_chemical_formula_sum "Si O2"
_cell_formula_units_Z 20
_cell_length_a 14.114793
_cell_length_b 5.851397
_cell_length_c 9.660913
_cell_angle_alpha 90.000000
_cell_angle_beta 76.105028
_cell_angle_gamma 90.000000
_cell_volume 774.558247
_symmetry_space_group_name_H-M "C 2"
_symmetry_group_IT_number 5
_symmetry_cell_setting 'monoclinic'
loop_
_space_group_symop_operation_xyz
x,y,z
-x,y,-z
1/2+x,1/2+y,z
1/2-x,1/2+y,-z
loop_
_atom_site_type_symbol
_atom_site_label
_atom_site_fract_x
_atom_site_fract_y
_atom_site_fract_z
Si Si1 0.026772 0.536660 0.732817
Si Si2 0.000000 0.255086 0.000000
Si Si3 0.152715 0.161379 0.542595
Si Si4 0.714412 0.644621 0.829719
Si Si5 0.730704 0.159103 0.782526
Si Si6 0.500000 0.299054 0.500000
O O1 0.083185 0.373906 0.603517
O O2 0.114943 0.657637 0.785607
O O3 0.959262 0.674302 0.651560
O O4 0.974368 0.399493 0.871679
O O5 0.899040 0.136338 0.079344
O O6 0.213093 0.138293 0.661844
O O7 0.214987 0.174723 0.383199
O O8 0.083179 0.948911 0.539836
O O9 0.755704 0.393860 0.853203
O O10 0.750371 0.907542 0.841873
#
# Coordination Sequence:
#
# PCOD9121637 Si02
#       6
#     4   2   4   4   4   2
#     4  10  22  38  61  95 125 166 208 263 311 373
#     4   8  20  38  60  96 124 162 220 256 296 382
#     4  10  21  35  55  94 126 161 200 267 314 372
#     4  10  19  35  59  93 116 162 207 259 295 361
#     4  10  20  35  61  91 123 157 214 253 306 364
#     4  12  22  36  60 100 132 156 204 264 342 348
#
# _framework density 25.821171
#
# number of rings (size 3 to 8) (size 9 to 14) (size 15 to 20)
#    0.000    2.400    2.000    3.000    2.800    3.200 
#    0.000    0.000    0.000    0.000   62.400    0.000 
#    0.000    0.000    0.000    0.000    0.000    0.000 
#
# Total GULP energy -55809.024125 kJ/mol
# GULP energy per Si atom -5580.902412 kJ/mol
# Density = 2.576240 g / cm^3
# Si number density = 25.821171 Si / 1000 Ang^3
#
#
#
# Elastic Constant Matrix: (Units=GPa)
#
#
# Indices 1 2 3 4 5 6 
#
# 1 52.9960 25.9740 27.7542 0.0000 9.7638 0.0000
# 2 25.9740 178.4575 49.2024 0.0000 -5.6325 0.0000
# 3 27.7542 49.2024 170.9519 0.0000 -4.5376 0.0000
# 4 0.0000 0.0000 0.0000 -62.5167 0.0000 -42.2147
# 5 9.7638 -5.6325 -4.5376 0.0000 41.8534 0.0000
# 6 0.0000 0.0000 0.0000 -42.2147 0.0000 -57.0176
#
#
#
# Elastic Compliance Matrix: (Units=1/GPa)
#
#
# Indices 1 2 3 4 5 6 
#
# 1 0.022921 -0.002668 -0.003114 0.000000 -0.006044 0.000000
# 2 -0.002668 0.006414 -0.001377 0.000000 0.001336 0.000000
# 3 -0.003114 -0.001377 0.006785 0.000000 0.001277 0.000000
# 4 0.000000 0.000000 0.000000 -0.031988 0.000000 0.023683
# 5 -0.006044 0.001336 0.001277 0.000000 0.025621 0.000000
# 6 0.000000 0.000000 0.000000 0.023683 0.000000 -0.035073
#
#
# Mechanical properties :
#
#
# Convention : Reuss Voigt Hill
#
# Bulk Modulus (GPa) = 45.86790 67.58518 56.72654
# Shear Modulus (GPa) = 307.37269 4.42880 155.90075
#
# Velocity S-wave (km/s) = 10.92234 1.31107 7.77870
# Velocity P-wave (km/s) = 13.29908 5.34070 10.13382
#
# Compressibility (1/GPa) = 0.02180174
#
# Stress axis : x y z
#
# Youngs Moduli (GPa) = 43.62743 155.91207 147.37505
#
# Poissons Ratio (x) = 0.41604 0.45888
# Poissons Ratio (y) = 0.11642 0.20298
# Poissons Ratio (z) = 0.13584 0.21474
#
# Static dielectric constant tensor:
#      x y z
#    x 2.133710 0.000000 -0.122400 
#    y 0.000000 2.201380 0.000000 
#    z -0.122400 0.000000 2.015210 
# 
# From -- ./inp_files/28403.got.cif
#   From: 2010.05.17/outbox.cif.g08.bks.cpg/sg5_15_cif.got.tgz:28403.got - 2010.06.03 18:56:24.
