data_PCOD9121445
_publ_section_title
;
Structure prediction by ZEFSAII (Michael W. Deem and Ramdas Pophale) SiO2 
 PCOD9121445
Probable space group: C 2
;
_chemical_formula_sum "Si O2"
_cell_formula_units_Z 32
_cell_length_a 11.496649
_cell_length_b 19.657579
_cell_length_c 6.988837
_cell_angle_alpha 90.000000
_cell_angle_beta 117.865750
_cell_angle_gamma 90.000000
_cell_volume 1396.306239
_symmetry_space_group_name_H-M "C 2"
_symmetry_group_IT_number 5
_symmetry_cell_setting 'monoclinic'
loop_
_space_group_symop_operation_xyz
x,y,z
-x,y,-z
1/2+x,1/2+y,z
1/2-x,1/2+y,-z
loop_
_atom_site_type_symbol
_atom_site_label
_atom_site_fract_x
_atom_site_fract_y
_atom_site_fract_z
Si Si1 0.767174 0.011940 0.042247
Si Si2 0.023587 0.422734 0.791589
Si Si3 0.114579 0.277391 0.725427
Si Si4 0.535081 0.453726 0.305696
Si Si5 0.710200 0.161336 0.000715
Si Si6 0.585681 0.162369 0.337714
Si Si7 0.796284 0.518415 0.547484
Si Si8 0.390067 0.303151 0.745533
O O1 0.778657 0.090838 0.001797
O O2 0.732107 0.015250 0.243881
O O3 0.898742 0.970786 0.100775
O O4 0.646447 0.972789 0.854775
O O5 0.049438 0.344781 0.761551
O O6 0.898784 0.457265 0.596189
O O7 0.000000 0.424540 0.000000
O O8 0.183137 0.222086 0.919020
O O9 0.243355 0.304873 0.714839
O O10 0.000000 0.246358 0.500000
O O11 0.500000 0.465790 0.500000
O O12 0.656560 0.501956 0.348351
O O13 0.573390 0.375596 0.310642
O O14 0.651381 0.160739 0.173391
O O15 0.572884 0.162113 0.780358
O O16 0.642979 0.091528 0.459827
O O17 0.614811 0.240957 0.410038
O O18 0.500000 0.289536 0.000000
#
# Coordination Sequence:
#
# PCOD9121445 Si02
#       8
#     4   4   4   4   4   4   4   4
#     4   9  17  29  53  78 102 133 179 227 255 301
#     4  10  19  34  55  78 104 142 181 216 263 321
#     4  11  22  33  52  82 113 140 171 224 277 313
#     4  10  21  34  51  83 112 137 171 222 276 311
#     4   9  16  30  50  78 104 131 182 225 257 302
#     4   9  15  30  53  77 100 137 181 222 254 306
#     4   9  17  31  52  77 106 133 177 229 264 299
#     4  11  20  35  56  79 110 145 178 214 265 330
#
# _framework density 22.917608999999999
#
# number of rings (size 3 to 8) (size 9 to 14) (size 15 to 20)
#    0.000    2.250    3.750    1.500    0.000    3.500 
#    0.000    0.000    0.000    4.500    0.000    0.000 
#    0.000    0.000    0.000    0.000    0.000    0.000 
#
# Total GULP energy -89307.119111 kJ/mol
# GULP energy per Si atom -5581.694944 kJ/mol
# Density = 2.286545 g / cm^3
# Si number density = 22.917609 Si / 1000 Ang^3
#
#
#
# Elastic Constant Matrix: (Units=GPa)
#
#
# Indices 1 2 3 4 5 6 
#
# 1 83.6659 47.0943 45.8522 0.0000 28.8144 0.0000
# 2 47.0943 184.8453 27.9178 0.0000 28.0727 0.0000
# 3 45.8522 27.9178 82.9767 0.0000 15.1731 0.0000
# 4 0.0000 0.0000 0.0000 20.2009 0.0000 1.3130
# 5 28.8144 28.0727 15.1731 0.0000 40.8029 0.0000
# 6 0.0000 0.0000 0.0000 1.3130 0.0000 16.8655
#
#
#
# Elastic Compliance Matrix: (Units=1/GPa)
#
#
# Indices 1 2 3 4 5 6 
#
# 1 0.022202 -0.002656 -0.009487 0.000000 -0.010324 0.000000
# 2 -0.002656 0.006507 -0.000264 0.000000 -0.002503 0.000000
# 3 -0.009487 -0.000264 0.017301 0.000000 0.000448 0.000000
# 4 0.000000 0.000000 0.000000 0.049755 0.000000 -0.003874
# 5 -0.010324 -0.002503 0.000448 0.000000 0.033354 0.000000
# 6 0.000000 0.000000 0.000000 -0.003874 0.000000 0.059594
#
#
# Mechanical properties :
#
#
# Convention : Reuss Voigt Hill
#
# Bulk Modulus (GPa) = 47.17958 65.91296 56.54627
# Shear Modulus (GPa) = 22.66630 30.94876 26.80753
#
# Velocity S-wave (km/s) = 3.14830 3.67881 3.42385
# Velocity P-wave (km/s) = 5.81782 6.84603 6.35276
#
# Compressibility (1/GPa) = 0.02119561
#
# Stress axis : x y z
#
# Youngs Moduli (GPa) = 45.04084 153.69133 57.79975
#
# Poissons Ratio (x) = 0.40818 0.54837
# Poissons Ratio (y) = 0.11962 0.01525
# Poissons Ratio (z) = 0.42732 0.04056
#
# Static dielectric constant tensor:
#      x y z
#    x 1.868700 0.000000 -0.081760 
#    y 0.000000 1.834210 0.000000 
#    z -0.081760 0.000000 1.935720 
# 
# From -- ./inp_files/21974.got.cif
#   From: 2010.05.17/outbox.cif.g08.bks.cpg/sg5_11_cif.got.tgz:21974.got - 2010.06.03 18:56:24.
