data_PCOD9121937
_publ_section_title
;
Structure prediction by ZEFSAII (Michael W. Deem and Ramdas Pophale) SiO2 
 PCOD9121937
Probable space group: C 2
;
_chemical_formula_sum "Si O2"
_cell_formula_units_Z 20
_cell_length_a 10.005815
_cell_length_b 14.492165
_cell_length_c 10.005735
_cell_angle_alpha 90.000000
_cell_angle_beta 137.443860
_cell_angle_gamma 90.000000
_cell_volume 981.255296
_symmetry_space_group_name_H-M "C 2"
_symmetry_group_IT_number 5
_symmetry_cell_setting 'monoclinic'
loop_
_space_group_symop_operation_xyz
x,y,z
-x,y,-z
1/2+x,1/2+y,z
1/2-x,1/2+y,-z
loop_
_atom_site_type_symbol
_atom_site_label
_atom_site_fract_x
_atom_site_fract_y
_atom_site_fract_z
Si Si1 0.694680 0.710710 0.074843
Si Si2 0.747232 0.496607 0.432662
Si Si3 0.266655 0.208902 0.826146
Si Si4 0.000000 0.052371 0.500000
Si Si5 0.500000 0.854658 0.500000
Si Si6 0.500000 0.526730 0.000000
Si Si7 0.000000 0.662758 0.500000
O O1 0.883050 0.723330 0.306684
O O2 0.500000 0.751330 0.000000
O O3 0.710535 0.737196 0.934770
O O4 0.656701 0.599089 0.051123
O O5 0.625814 0.499902 0.479627
O O6 0.923544 0.422863 0.559382
O O7 0.846611 0.596012 0.467544
O O8 0.605494 0.476101 0.200025
O O9 0.181645 0.289023 0.670170
O O10 0.151547 0.117891 0.693177
O O11 0.500000 0.195659 0.000000
#
# Coordination Sequence:
#
# PCOD9121937 Si02
#       7
#     4   4   4   2   2   2   2
#     4   9  17  33  57  90 113 146 196 251 287 342
#     4  10  19  37  61  85 120 155 201 247 289 356
#     4  11  22  38  60  92 122 155 193 251 302 351
#     4  11  20  39  66  96 114 140 218 265 278 329
#     4  10  26  40  56  83 130 167 188 228 316 376
#     4   8  16  32  64  84 110 150 200 244 288 342
#     4   9  16  31  58  89 112 155 194 245 294 341
#
# _framework density 20.382052999999999
#
# number of rings (size 3 to 8) (size 9 to 14) (size 15 to 20)
#    0.600    1.600    2.000    1.200    1.400    1.600 
#    0.000    2.000    0.000    4.800    0.000    0.000 
#    0.000    0.000    0.000    0.000    0.000    0.000 
#
# Total GULP energy -55745.322326 kJ/mol
# GULP energy per Si atom -5574.532233 kJ/mol
# Density = 2.033566 g / cm^3
# Si number density = 20.382053 Si / 1000 Ang^3
#
#
#
# Elastic Constant Matrix: (Units=GPa)
#
#
# Indices 1 2 3 4 5 6 
#
# 1 124.8539 4.7619 12.0299 0.0000 -1.2874 0.0000
# 2 4.7619 22.7394 -5.7334 0.0000 6.2033 0.0000
# 3 12.0299 -5.7334 97.1900 0.0000 15.9816 0.0000
# 4 0.0000 0.0000 0.0000 -6.1531 0.0000 -2.0448
# 5 -1.2874 6.2033 15.9816 0.0000 32.1895 0.0000
# 6 0.0000 0.0000 0.0000 -2.0448 0.0000 10.5284
#
#
#
# Elastic Compliance Matrix: (Units=1/GPa)
#
#
# Indices 1 2 3 4 5 6 
#
# 1 0.008257 -0.002501 -0.001419 0.000000 0.001517 0.000000
# 2 -0.002501 0.049128 0.005206 0.000000 -0.012152 0.000000
# 3 -0.001419 0.005206 0.011919 0.000000 -0.006978 0.000000
# 4 0.000000 0.000000 0.000000 -0.152665 0.000000 -0.029651
# 5 0.001517 -0.012152 -0.006978 0.000000 0.036933 0.000000
# 6 0.000000 0.000000 0.000000 -0.029651 0.000000 0.089222
#
#
# Mechanical properties :
#
#
# Convention : Reuss Voigt Hill
#
# Bulk Modulus (GPa) = 13.91269 29.65558 21.78414
# Shear Modulus (GPa) = 77.90494 22.89461 50.39978
#
# Velocity S-wave (km/s) = 6.18913 3.35516 4.97807
# Velocity P-wave (km/s) = 7.61016 5.43975 6.61458
#
# Compressibility (1/GPa) = 0.07187680
#
# Stress axis : x y z
#
# Youngs Moduli (GPa) = 121.10804 20.35508 83.89782
#
# Poissons Ratio (x) = 0.05090 0.11905
# Poissons Ratio (y) = 0.30285 -0.43676
# Poissons Ratio (z) = 0.17185 -0.10597
#
# Static dielectric constant tensor:
#      x y z
#    x 1.729680 0.000000 0.028650 
#    y 0.000000 1.716650 0.000000 
#    z 0.028650 0.000000 1.738080 
# 
# From -- ./inp_files/15607.got.cif
#   From: 2010.05.17/outbox.cif.g08.bks.cpg/sg5_8_cif.got.tgz:15607.got - 2010.06.03 18:56:24.
