data_PCOD9121181
_publ_section_title
;
Structure prediction by ZEFSAII (Michael W. Deem and Ramdas Pophale) SiO2 
 PCOD9121181
Probable space group: C 2
;
_chemical_formula_sum "Si O2"
_cell_formula_units_Z 20
_cell_length_a 10.222348
_cell_length_b 10.270874
_cell_length_c 7.126879
_cell_angle_alpha 90.000000
_cell_angle_beta 98.743733
_cell_angle_gamma 90.000000
_cell_volume 739.572206
_symmetry_space_group_name_H-M "C 2"
_symmetry_group_IT_number 5
_symmetry_cell_setting 'monoclinic'
loop_
_space_group_symop_operation_xyz
x,y,z
-x,y,-z
1/2+x,1/2+y,z
1/2-x,1/2+y,-z
loop_
_atom_site_type_symbol
_atom_site_label
_atom_site_fract_x
_atom_site_fract_y
_atom_site_fract_z
Si Si1 0.776421 0.545990 0.931551
Si Si2 0.303047 0.492484 0.604273
Si Si3 0.058953 0.897962 0.755221
Si Si4 0.848761 0.229848 0.392976
Si Si5 0.516683 0.098770 0.721943
O O1 0.682642 0.420963 0.917191
O O2 0.687874 0.659367 0.813092
O O3 0.901824 0.530162 0.818264
O O4 0.841917 0.572919 0.146663
O O5 0.433881 0.491370 0.762065
O O6 0.371682 0.434425 0.426327
O O7 0.201667 0.376584 0.623364
O O8 0.271828 0.639125 0.528975
O O9 0.002107 0.753590 0.746567
O O10 0.000000 0.226934 0.500000
O O11 0.500000 0.068421 0.500000
#
# Coordination Sequence:
#
# PCOD9121181 Si02
#       5
#     4   4   4   4   4
#     4  10  22  39  71 103 139 190 238 292 359 424
#     4  10  19  37  70  96 141 192 228 292 364 415
#     4  10  18  41  67  94 139 189 223 295 358 415
#     4  11  20  40  65 106 143 188 238 295 358 430
#     4  11  21  42  71 101 142 185 241 294 358 432
#
# _framework density 27.042660000000001
#
# number of rings (size 3 to 8) (size 9 to 14) (size 15 to 20)
#    0.000    1.600    8.000    0.000    0.000    0.000 
#    3.600   21.000    0.000    3.600    0.000    0.000 
#    0.000    0.000    0.000    0.000    0.000    0.000 
#
# Total GULP energy -55936.453522 kJ/mol
# GULP energy per Si atom -5593.645352 kJ/mol
# Density = 2.698111 g / cm^3
# Si number density = 27.042660 Si / 1000 Ang^3
#
#
#
# Elastic Constant Matrix: (Units=GPa)
#
#
# Indices 1 2 3 4 5 6 
#
# 1 83.1541 39.6791 53.6421 0.0000 40.4998 0.0000
# 2 39.6791 151.1676 45.5218 0.0000 19.4228 0.0000
# 3 53.6421 45.5218 201.8911 0.0000 26.5846 0.0000
# 4 0.0000 0.0000 0.0000 40.6682 0.0000 20.9611
# 5 40.4998 19.4228 26.5846 0.0000 66.7831 0.0000
# 6 0.0000 0.0000 0.0000 20.9611 0.0000 46.4957
#
#
#
# Elastic Compliance Matrix: (Units=1/GPa)
#
#
# Indices 1 2 3 4 5 6 
#
# 1 0.020749 -0.003079 -0.003461 0.000000 -0.010310 0.000000
# 2 -0.003079 0.007701 -0.000917 0.000000 -0.000007 0.000000
# 3 -0.003461 -0.000917 0.006087 0.000000 -0.000057 0.000000
# 4 0.000000 0.000000 0.000000 0.032032 0.000000 -0.014441
# 5 -0.010310 -0.000007 -0.000057 0.000000 0.021251 0.000000
# 6 0.000000 0.000000 0.000000 -0.014441 0.000000 0.028018
#
#
# Mechanical properties :
#
#
# Convention : Reuss Voigt Hill
#
# Bulk Modulus (GPa) = 50.96439 79.32209 65.14324
# Shear Modulus (GPa) = 36.41823 50.61406 43.51615
#
# Velocity S-wave (km/s) = 3.67372 4.33094 4.01579
# Velocity P-wave (km/s) = 6.07304 7.37599 6.75600
#
# Compressibility (1/GPa) = 0.01962154
#
# Stress axis : x y z
#
# Youngs Moduli (GPa) = 48.19420 129.86047 164.28049
#
# Poissons Ratio (x) = 0.39990 0.56860
# Poissons Ratio (y) = 0.14841 0.15067
# Poissons Ratio (z) = 0.16681 0.11911
#
# Static dielectric constant tensor:
#      x y z
#    x 2.369090 0.000000 -0.035280 
#    y 0.000000 2.077660 0.000000 
#    z -0.035280 0.000000 2.328510 
# 
# From -- ./inp_files/19138.got.cif
#   From: 2010.05.17/outbox.cif.g08.bks.cpg/sg5_10_cif.got.tgz:19138.got - 2010.06.03 18:56:24.
