data_PCOD9121008
_publ_section_title
;
Structure prediction by ZEFSAII (Michael W. Deem and Ramdas Pophale) SiO2 
 PCOD9121008
Probable space group: C 2
;
_chemical_formula_sum "Si O2"
_cell_formula_units_Z 30
_cell_length_a 12.585010
_cell_length_b 8.905942
_cell_length_c 13.856239
_cell_angle_alpha 90.000000
_cell_angle_beta 120.393044
_cell_angle_gamma 90.000000
_cell_volume 1339.601759
_symmetry_space_group_name_H-M "C 2"
_symmetry_group_IT_number 5
_symmetry_cell_setting 'monoclinic'
loop_
_space_group_symop_operation_xyz
x,y,z
-x,y,-z
1/2+x,1/2+y,z
1/2-x,1/2+y,-z
loop_
_atom_site_type_symbol
_atom_site_label
_atom_site_fract_x
_atom_site_fract_y
_atom_site_fract_z
Si Si1 0.659772 0.126030 0.319472
Si Si2 0.500000 0.042617 0.500000
Si Si3 0.028460 0.365713 0.315090
Si Si4 0.420763 0.332888 0.877641
Si Si5 0.960130 0.795719 0.357299
Si Si6 0.713183 0.995353 0.895544
Si Si7 0.662865 0.350932 0.873701
Si Si8 0.411010 0.600140 0.543859
O O1 0.663032 0.218883 0.222367
O O2 0.543340 0.197458 0.322508
O O3 0.776252 0.134330 0.442369
O O4 0.626357 0.951928 0.293930
O O5 0.411023 0.169910 0.409989
O O6 0.541255 0.940654 0.429203
O O7 0.056685 0.192344 0.345695
O O8 0.897372 0.406919 0.208570
O O9 0.334115 0.456245 0.887435
O O10 0.529625 0.392940 0.858942
O O11 0.500000 0.256111 0.000000
O O12 0.853699 0.877589 0.247835
O O13 0.055287 0.925046 0.432433
O O14 0.686174 0.171717 0.890907
O O15 0.738258 0.933317 0.014642
O O16 0.500000 0.653874 0.500000
#
# Coordination Sequence:
#
# PCOD9121008 Si02
#       8
#     4   2   4   4   4   4   4   4
#     4  10  21  41  61  86 128 169 211 269 326 396
#     4  10  18  38  58  84 126 164 204 258 326 392
#     4  11  22  38  63  94 127 168 225 267 333 403
#     4   9  19  38  65  89 125 167 215 265 327 391
#     4  10  21  40  60  87 135 164 209 274 333 384
#     4  11  21  40  69  93 129 175 217 278 335 393
#     4  10  22  41  64  97 128 173 223 271 337 399
#     4  12  23  35  58  94 123 163 216 260 328 401
#
# _framework density 22.394714
#
# number of rings (size 3 to 8) (size 9 to 14) (size 15 to 20)
#    0.000    1.600    5.333    1.600    1.867    0.000 
#    2.400    0.000    0.000    7.200    0.000    0.000 
#    0.000    0.000    0.000    0.000    0.000    0.000 
#
# Total GULP energy -83562.518718 kJ/mol
# GULP energy per Si atom -5570.834581 kJ/mol
# Density = 2.234374 g / cm^3
# Si number density = 22.394714 Si / 1000 Ang^3
#
#
#
# Elastic Constant Matrix: (Units=GPa)
#
#
# Indices 1 2 3 4 5 6 
#
# 1 51.1859 5.3923 7.5011 0.0000 10.0971 0.0000
# 2 5.3923 61.9701 -0.5263 0.0000 9.9542 0.0000
# 3 7.5011 -0.5263 106.1743 0.0000 19.1634 0.0000
# 4 0.0000 0.0000 0.0000 -1.1511 0.0000 21.5409
# 5 10.0971 9.9542 19.1634 0.0000 29.1557 0.0000
# 6 0.0000 0.0000 0.0000 21.5409 0.0000 2.3495
#
#
#
# Elastic Compliance Matrix: (Units=1/GPa)
#
#
# Indices 1 2 3 4 5 6 
#
# 1 0.021003 -0.000727 -0.000249 0.000000 -0.006862 0.000000
# 2 -0.000727 0.017255 0.001310 0.000000 -0.006501 0.000000
# 3 -0.000249 0.001310 0.010787 0.000000 -0.007451 0.000000
# 4 0.000000 0.000000 0.000000 -0.005034 0.000000 0.046154
# 5 -0.006862 -0.006501 -0.007451 0.000000 0.043792 0.000000
# 6 0.000000 0.000000 0.000000 0.046154 0.000000 0.002466
#
#
# Mechanical properties :
#
#
# Convention : Reuss Voigt Hill
#
# Bulk Modulus (GPa) = 20.11518 27.11825 23.61672
# Shear Modulus (GPa) = 47.09246 19.86839 33.48042
#
# Velocity S-wave (km/s) = 4.59065 2.98181 3.87074
# Velocity P-wave (km/s) = 6.09100 4.89800 5.52679
#
# Compressibility (1/GPa) = 0.04971370
#
# Stress axis : x y z
#
# Youngs Moduli (GPa) = 47.61150 57.95281 92.70011
#
# Poissons Ratio (x) = 0.04216 0.02308
# Poissons Ratio (y) = 0.03464 -0.12146
# Poissons Ratio (z) = 0.01185 -0.07593
#
# Static dielectric constant tensor:
#      x y z
#    x 1.913820 0.000000 0.127600 
#    y 0.000000 1.844440 0.000000 
#    z 0.127600 0.000000 2.409180 
# 
# From -- ./inp_files/54242.got.cif
#   From: 2010.05.17/outbox.cif.g08.bks.cpg/sg5_28_cif.got.tgz:54242.got - 2010.06.03 18:56:24.
