data_PCOD9121318
_publ_section_title
;
Structure prediction by ZEFSAII (Michael W. Deem and Ramdas Pophale) SiO2 
 PCOD9121318
Probable space group: C 2
;
_chemical_formula_sum "Si O2"
_cell_formula_units_Z 32
_cell_length_a 8.408528
_cell_length_b 18.544232
_cell_length_c 13.325528
_cell_angle_alpha 90.000000
_cell_angle_beta 53.637709
_cell_angle_gamma 90.000000
_cell_volume 1673.256111
_symmetry_space_group_name_H-M "C 2"
_symmetry_group_IT_number 5
_symmetry_cell_setting 'monoclinic'
loop_
_space_group_symop_operation_xyz
x,y,z
-x,y,-z
1/2+x,1/2+y,z
1/2-x,1/2+y,-z
loop_
_atom_site_type_symbol
_atom_site_label
_atom_site_fract_x
_atom_site_fract_y
_atom_site_fract_z
Si Si1 0.836137 0.258390 0.626978
Si Si2 0.464219 0.805123 0.130520
Si Si3 0.269892 0.038448 0.112277
Si Si4 0.544923 0.919891 0.369315
Si Si5 0.778129 0.440916 0.290653
Si Si6 0.045153 0.823986 0.290300
Si Si7 0.481945 0.422881 0.125067
Si Si8 0.222904 0.704105 0.879932
O O1 0.936617 0.332101 0.632820
O O2 0.659159 0.284489 0.621713
O O3 0.744383 0.215545 0.753096
O O4 0.000000 0.219108 0.500000
O O5 0.440817 0.887816 0.175747
O O6 0.629859 0.760571 0.124142
O O7 0.500000 0.804405 0.000000
O O8 0.759339 0.776473 0.768331
O O9 0.220427 0.122024 0.116378
O O10 0.250623 0.011434 0.234440
O O11 0.500000 0.029137 0.000000
O O12 0.131030 0.987101 0.097892
O O13 0.500000 0.942598 0.500000
O O14 0.367308 0.947325 0.366589
O O15 0.757647 0.941942 0.243191
O O16 0.582261 0.392207 0.348952
O O17 0.041538 0.857289 0.178110
O O18 0.500000 0.405912 0.000000
O O19 0.000000 0.716323 0.000000
#
# Coordination Sequence:
#
# PCOD9121318 Si02
#       8
#     4   4   4   4   4   4   4   4
#     4  10  19  37  57  85 118 152 198 240 298 358
#     4  10  19  32  55  86 116 149 196 250 291 344
#     4  10  21  38  56  84 122 157 199 238 301 363
#     4  10  20  35  58  89 118 145 190 255 300 342
#     4   9  18  36  58  84 117 153 193 242 298 354
#     4   8  19  31  54  86 110 145 190 243 290 343
#     4  10  20  33  58  83 110 153 197 240 294 359
#     4  11  23  38  57  85 120 159 198 248 297 351
#
# _framework density 19.124389000000001
#
# number of rings (size 3 to 8) (size 9 to 14) (size 15 to 20)
#    0.750    1.500    1.250    1.875    1.750    2.500 
#    0.000   16.875    0.000    0.000    0.000    0.000 
#    0.000    0.000    0.000    0.000    0.000    0.000 
#
# Total GULP energy -89180.199634 kJ/mol
# GULP energy per Si atom -5573.762477 kJ/mol
# Density = 1.908086 g / cm^3
# Si number density = 19.124389 Si / 1000 Ang^3
#
#
#
# Elastic Constant Matrix: (Units=GPa)
#
#
# Indices 1 2 3 4 5 6 
#
# 1 92.7895 11.7293 40.2365 0.0000 4.7503 0.0000
# 2 11.7293 43.9446 6.2603 0.0000 -9.0216 0.0000
# 3 40.2365 6.2603 106.3335 0.0000 -5.6197 0.0000
# 4 0.0000 0.0000 0.0000 0.9836 0.0000 0.4561
# 5 4.7503 -9.0216 -5.6197 0.0000 33.9898 0.0000
# 6 0.0000 0.0000 0.0000 0.4561 0.0000 13.4236
#
#
#
# Elastic Compliance Matrix: (Units=1/GPa)
#
#
# Indices 1 2 3 4 5 6 
#
# 1 0.013668 -0.003682 -0.005153 0.000000 -0.003739 0.000000
# 2 -0.003682 0.025185 0.000294 0.000000 0.007248 0.000000
# 3 -0.005153 0.000294 0.011479 0.000000 0.002696 0.000000
# 4 0.000000 0.000000 0.000000 1.032934 0.000000 -0.035093
# 5 -0.003739 0.007248 0.002696 0.000000 0.032313 0.000000
# 6 0.000000 0.000000 0.000000 -0.035093 0.000000 0.075688
#
#
# Mechanical properties :
#
#
# Convention : Reuss Voigt Hill
#
# Bulk Modulus (GPa) = 30.07519 39.94664 35.01091
# Shear Modulus (GPa) = 4.10027 22.00216 13.05121
#
# Velocity S-wave (km/s) = 1.46583 3.39555 2.61519
# Velocity P-wave (km/s) = 4.31568 6.02546 5.24076
#
# Compressibility (1/GPa) = 0.03325000
#
# Stress axis : x y z
#
# Youngs Moduli (GPa) = 73.16129 39.70652 87.11211
#
# Poissons Ratio (x) = 0.14619 0.44889
# Poissons Ratio (y) = 0.26937 -0.02557
# Poissons Ratio (z) = 0.37700 -0.01165
#
# Static dielectric constant tensor:
#      x y z
#    x 1.700990 0.000000 -0.020430 
#    y 0.000000 1.645260 0.000000 
#    z -0.020430 0.000000 1.719070 
# 
# From -- ./inp_files/37194.got.cif
#   From: 2010.05.17/outbox.cif.g08.bks.cpg/sg5_19_cif.got.tgz:37194.got - 2010.06.03 18:56:24.
