data_PCOD9121258
_publ_section_title
;
Structure prediction by ZEFSAII (Michael W. Deem and Ramdas Pophale) SiO2 
 PCOD9121258
Probable space group: C 2
;
_chemical_formula_sum "Si O2"
_cell_formula_units_Z 28
_cell_length_a 14.723405
_cell_length_b 5.115181
_cell_length_c 20.699659
_cell_angle_alpha 90.000000
_cell_angle_beta 131.820184
_cell_angle_gamma 90.000000
_cell_volume 1161.794409
_symmetry_space_group_name_H-M "C 2"
_symmetry_group_IT_number 5
_symmetry_cell_setting 'monoclinic'
loop_
_space_group_symop_operation_xyz
x,y,z
-x,y,-z
1/2+x,1/2+y,z
1/2-x,1/2+y,-z
loop_
_atom_site_type_symbol
_atom_site_label
_atom_site_fract_x
_atom_site_fract_y
_atom_site_fract_z
Si Si1 0.817617 0.977870 0.366362
Si Si2 0.474393 0.334733 0.879965
Si Si3 0.985903 0.334411 0.185194
Si Si4 0.899785 0.977958 0.545479
Si Si5 0.443914 0.980735 0.643158
Si Si6 0.229175 0.948899 0.031769
Si Si7 0.724937 0.979396 0.731878
O O1 0.756504 0.758045 0.293038
O O2 0.818970 0.933957 0.443610
O O3 0.772807 0.261404 0.323389
O O4 0.960401 0.965340 0.413452
O O5 0.484715 0.040802 0.858035
O O6 0.335966 0.405889 0.831862
O O7 0.498820 0.539015 0.832196
O O8 0.588470 0.390938 0.980997
O O9 0.841737 0.380239 0.130915
O O10 0.060448 0.408843 0.284009
O O11 0.886040 0.261256 0.569940
O O12 0.892460 0.758683 0.596873
O O13 0.589416 0.978197 0.696146
O O14 0.244420 0.247534 0.015632
#
# Coordination Sequence:
#
# PCOD9121258 Si02
#       7
#     4   4   4   4   4   4   4
#     4   9  17  30  49  71  95 126 163 198 232 279
#     4  10  19  33  52  72  97 128 161 194 235 286
#     4  10  19  33  52  72  97 128 161 194 235 286
#     4   9  17  30  49  71  95 126 163 198 232 279
#     4  10  19  31  50  75  98 122 159 203 241 277
#     4   8  16  30  49  70  91 124 164 192 220 280
#     4  10  19  31  50  75  98 122 159 203 241 277
#
# _framework density 24.100650000000002
#
# number of rings (size 3 to 8) (size 9 to 14) (size 15 to 20)
#    0.000    2.571    0.000    2.571    0.000    3.429 
#    0.000    0.714    0.000   17.143    0.000   18.000 
#    0.000    0.000    0.000    0.000    0.000    0.000 
#
# Total GULP energy -78273.600817 kJ/mol
# GULP energy per Si atom -5590.971487 kJ/mol
# Density = 2.404580 g / cm^3
# Si number density = 24.100650 Si / 1000 Ang^3
#
#
#
# Elastic Constant Matrix: (Units=GPa)
#
#
# Indices 1 2 3 4 5 6 
#
# 1 85.9371 1.0162 7.6090 -0.0001 22.3609 0.0001
# 2 1.0162 101.8199 -5.8458 -0.0004 -1.2795 0.0006
# 3 7.6090 -5.8458 109.1919 0.0000 28.2276 0.0001
# 4 -0.0001 -0.0004 0.0000 23.9849 0.0000 10.1511
# 5 22.3609 -1.2795 28.2276 0.0000 47.1296 0.0000
# 6 0.0001 0.0006 0.0001 10.1511 0.0000 7.1465
#
#
#
# Elastic Compliance Matrix: (Units=1/GPa)
#
#
# Indices 1 2 3 4 5 6 
#
# 1 0.013342 -0.000172 0.000827 0.000000 -0.006830 0.000000
# 2 -0.000172 0.009854 0.000532 0.000001 0.000030 -0.000003
# 3 0.000827 0.000532 0.010917 0.000000 -0.006916 -0.000001
# 4 0.000000 0.000001 0.000000 0.104536 0.000000 -0.148485
# 5 -0.006830 0.000030 -0.006916 0.000000 0.028602 0.000000
# 6 0.000000 -0.000003 -0.000001 -0.148485 0.000000 0.350839
#
#
# Mechanical properties :
#
#
# Convention : Reuss Voigt Hill
#
# Bulk Modulus (GPa) = 27.40694 33.61195 30.50944
# Shear Modulus (GPa) = 9.47186 35.26352 22.36769
#
# Velocity S-wave (km/s) = 1.98461 3.82930 3.04977
# Velocity P-wave (km/s) = 4.08021 5.79035 5.00880
#
# Compressibility (1/GPa) = 0.03648711
#
# Stress axis : x y z
#
# Youngs Moduli (GPa) = 74.94857 101.48292 91.59998
#
# Poissons Ratio (x) = 0.01741 -0.07573
# Poissons Ratio (y) = 0.01286 -0.04870
# Poissons Ratio (z) = -0.06197 -0.05395
#
# Static dielectric constant tensor:
#      x y z
#    x 2.017170 0.000000 0.106810 
#    y 0.000000 1.808280 0.000000 
#    z 0.106810 0.000000 1.919460 
# 
# From -- ./inp_files/45711.got.cif
#   From: 2010.05.17/outbox.cif.g08.bks.cpg/sg5_23_cif.got.tgz:45711.got - 2010.06.03 18:56:24.
