data_PCOD9121696
_publ_section_title
;
Structure prediction by ZEFSAII (Michael W. Deem and Ramdas Pophale) SiO2 
 PCOD9121696
Probable space group: C 2
;
_chemical_formula_sum "Si O2"
_cell_formula_units_Z 30
_cell_length_a 18.950024
_cell_length_b 9.813752
_cell_length_c 8.285338
_cell_angle_alpha 90.000000
_cell_angle_beta 129.695309
_cell_angle_gamma 90.000000
_cell_volume 1185.595444
_symmetry_space_group_name_H-M "C 2"
_symmetry_group_IT_number 5
_symmetry_cell_setting 'monoclinic'
loop_
_space_group_symop_operation_xyz
x,y,z
-x,y,-z
1/2+x,1/2+y,z
1/2-x,1/2+y,-z
loop_
_atom_site_type_symbol
_atom_site_label
_atom_site_fract_x
_atom_site_fract_y
_atom_site_fract_z
Si Si1 0.236531 0.913250 0.260604
Si Si2 0.072744 0.876730 0.784721
Si Si3 0.563051 0.076189 0.239842
Si Si4 0.724490 0.715120 0.177206
Si Si5 0.860057 0.848600 0.569363
Si Si6 0.500000 0.134958 0.500000
Si Si7 0.113792 0.273941 0.327941
Si Si8 0.443201 0.687729 0.269650
O O1 0.189213 0.934412 0.366604
O O2 0.317297 0.805827 0.420386
O O3 0.264344 0.059935 0.224113
O O4 0.153727 0.859376 0.029959
O O5 0.967792 0.875846 0.701609
O O6 0.074380 0.745293 0.672042
O O7 0.079270 0.029331 0.724896
O O8 0.639459 0.191540 0.368161
O O9 0.523196 0.062242 0.365369
O O10 0.593644 0.926983 0.239699
O O11 0.500000 0.124433 0.000000
O O12 0.793036 0.838733 0.318280
O O13 0.661298 0.707093 0.244794
O O14 0.653375 0.747610 0.929689
O O15 0.020311 0.200279 0.242691
O O16 0.500000 0.750419 0.500000
#
# Coordination Sequence:
#
# PCOD9121696 Si02
#       8
#     4   4   4   4   4   2   4   4
#     4  10  20  38  64  94 124 164 212 264 323 379
#     4  10  20  40  64  90 121 166 212 266 316 381
#     4  11  22  39  64  96 132 171 213 267 328 388
#     4  10  21  40  63  90 124 161 209 266 317 381
#     4  10  19  35  64  91 121 156 209 260 316 378
#     4  10  22  40  66  96 128 166 220 270 322 388
#     4  11  23  40  62  94 127 168 215 262 321 392
#     4  11  23  41  62  86 123 169 211 257 318 381
#
# _framework density 25.303740999999999
#
# number of rings (size 3 to 8) (size 9 to 14) (size 15 to 20)
#    0.000    1.600    2.000    4.000    0.933    2.133 
#    4.800    0.000    0.000    0.000    0.000    0.000 
#    0.000    0.000    0.000    0.000    0.000    0.000 
#
# Total GULP energy -83705.138003 kJ/mol
# GULP energy per Si atom -5580.342534 kJ/mol
# Density = 2.524615 g / cm^3
# Si number density = 25.303741 Si / 1000 Ang^3
#
#
#
# Elastic Constant Matrix: (Units=GPa)
#
#
# Indices 1 2 3 4 5 6 
#
# 1 60.4990 -3.3182 0.9963 0.0000 2.0888 0.0000
# 2 -3.3182 84.0923 7.7181 0.0000 0.2956 0.0000
# 3 0.9963 7.7181 225.0422 0.0000 23.0768 0.0000
# 4 0.0000 0.0000 0.0000 22.3350 0.0000 6.6809
# 5 2.0888 0.2956 23.0768 0.0000 30.0609 0.0000
# 6 0.0000 0.0000 0.0000 6.6809 0.0000 28.6464
#
#
#
# Elastic Compliance Matrix: (Units=1/GPa)
#
#
# Indices 1 2 3 4 5 6 
#
# 1 0.016606 0.000657 0.000025 0.000000 -0.001179 0.000000
# 2 0.000657 0.011957 -0.000430 0.000000 0.000167 0.000000
# 3 0.000025 -0.000430 0.004839 0.000000 -0.003712 0.000000
# 4 0.000000 0.000000 0.000000 0.048130 0.000000 -0.011225
# 5 -0.001179 0.000167 -0.003712 0.000000 0.036196 0.000000
# 6 0.000000 0.000000 0.000000 -0.011225 0.000000 0.037526
#
#
# Mechanical properties :
#
#
# Convention : Reuss Voigt Hill
#
# Bulk Modulus (GPa) = 29.49437 42.26953 35.88195
# Shear Modulus (GPa) = 30.11117 40.49095 35.30106
#
# Velocity S-wave (km/s) = 3.45336 4.00459 3.73915
# Velocity P-wave (km/s) = 5.25189 6.17441 5.73174
#
# Compressibility (1/GPa) = 0.03390478
#
# Stress axis : x y z
#
# Youngs Moduli (GPa) = 60.22086 83.63647 206.65796
#
# Poissons Ratio (x) = -0.05496 -0.00514
# Poissons Ratio (y) = -0.03957 0.08888
# Poissons Ratio (z) = -0.00150 0.03597
#
# Static dielectric constant tensor:
#      x y z
#    x 2.085990 0.000000 -0.004980 
#    y 0.000000 1.966410 0.000000 
#    z -0.004980 0.000000 2.129400 
# 
# From -- ./inp_files/30933.got.cif
#   From: 2010.05.17/outbox.cif.g08.bks.cpg/sg5_16_cif.got.tgz:30933.got - 2010.06.03 18:56:24.
