data_PCOD9121862
_publ_section_title
;
Structure prediction by ZEFSAII (Michael W. Deem and Ramdas Pophale) SiO2 
 PCOD9121862
Probable space group: C 2
;
_chemical_formula_sum "Si O2"
_cell_formula_units_Z 18
_cell_length_a 7.945353
_cell_length_b 18.764126
_cell_length_c 5.641983
_cell_angle_alpha 90.000000
_cell_angle_beta 59.560561
_cell_angle_gamma 90.000000
_cell_volume 725.209977
_symmetry_space_group_name_H-M "C 2"
_symmetry_group_IT_number 5
_symmetry_cell_setting 'monoclinic'
loop_
_space_group_symop_operation_xyz
x,y,z
-x,y,-z
1/2+x,1/2+y,z
1/2-x,1/2+y,-z
loop_
_atom_site_type_symbol
_atom_site_label
_atom_site_fract_x
_atom_site_fract_y
_atom_site_fract_z
Si Si1 0.500000 0.645880 0.000000
Si Si2 0.789818 0.059926 0.779356
Si Si3 0.708123 0.346728 0.628644
Si Si4 0.176166 0.689997 0.559562
Si Si5 0.737686 0.398754 0.104121
O O1 0.662076 0.596500 0.005504
O O2 0.385296 0.689278 0.278297
O O3 0.669632 0.116793 0.711378
O O4 0.000000 0.053152 0.500000
O O5 0.717570 0.980664 0.870352
O O6 0.675355 0.263213 0.704005
O O7 0.794412 0.355553 0.301262
O O8 0.496677 0.385240 0.754070
O O9 0.809230 0.378597 0.789724
O O10 0.000000 0.693964 0.500000
#
# Coordination Sequence:
#
# PCOD9121862 Si02
#       5
#     2   4   4   4   4
#     4  10  24  40  68  98 146 180 240 292 366 412
#     4  10  21  39  65 105 138 185 241 292 355 436
#     4  10  20  35  66 102 133 182 245 279 351 427
#     4  11  24  42  67 112 141 187 237 303 360 432
#     4  10  19  36  65 101 132 184 240 281 349 429
#
# _framework density 24.820399999999999
#
# number of rings (size 3 to 8) (size 9 to 14) (size 15 to 20)
#    0.000    1.778    4.444    1.333    6.222    0.889 
#    0.000    0.000    0.000    6.667    0.000    0.000 
#    0.000    0.000    0.000    0.000    0.000    0.000 
#
# Total GULP energy -50339.128027 kJ/mol
# GULP energy per Si atom -5593.236447 kJ/mol
# Density = 2.476391 g / cm^3
# Si number density = 24.820400 Si / 1000 Ang^3
#
#
#
# Elastic Constant Matrix: (Units=GPa)
#
#
# Indices 1 2 3 4 5 6 
#
# 1 97.6299 29.5016 24.3677 0.0000 8.1958 0.0000
# 2 29.5016 210.0789 37.9551 0.0000 18.3734 0.0000
# 3 24.3677 37.9551 144.4861 0.0000 26.5857 0.0000
# 4 0.0000 0.0000 0.0000 0.6994 0.0000 11.3010
# 5 8.1958 18.3734 26.5857 0.0000 46.0537 0.0000
# 6 0.0000 0.0000 0.0000 11.3010 0.0000 24.9505
#
#
#
# Elastic Compliance Matrix: (Units=1/GPa)
#
#
# Indices 1 2 3 4 5 6 
#
# 1 0.011024 -0.001235 -0.001415 0.000000 -0.000652 0.000000
# 2 -0.001235 0.005216 -0.000917 0.000000 -0.001332 0.000000
# 3 -0.001415 -0.000917 0.008153 0.000000 -0.004089 0.000000
# 4 0.000000 0.000000 0.000000 -0.226284 0.000000 0.102492
# 5 -0.000652 -0.001332 -0.004089 0.000000 0.024722 0.000000
# 6 0.000000 0.000000 0.000000 0.102492 0.000000 -0.006343
#
#
# Mechanical properties :
#
#
# Convention : Reuss Voigt Hill
#
# Bulk Modulus (GPa) = 57.94109 70.64928 64.29519
# Shear Modulus (GPa) = -29.30383 38.36541 4.53079
#
# Velocity S-wave (km/s) = -3.43976 3.93583 1.35255
# Velocity P-wave (km/s) = 2.76023 7.01287 5.32913
#
# Compressibility (1/GPa) = 0.01725891
#
# Stress axis : x y z
#
# Youngs Moduli (GPa) = 90.71168 191.72836 122.65665
#
# Poissons Ratio (x) = 0.23687 0.17351
# Poissons Ratio (y) = 0.11207 0.11244
# Poissons Ratio (z) = 0.12832 0.17576
#
# Static dielectric constant tensor:
#      x y z
#    x 1.958240 0.000000 -0.046860 
#    y 0.000000 1.902480 0.000000 
#    z -0.046860 0.000000 1.947100 
# 
# From -- ./inp_files/2300.got.cif
#   From: 2010.05.17/outbox.cif.g08.bks.cpg/sg5_2_cif.got.tgz:2300.got - 2010.06.03 18:56:24.
