data_PCOD9122866
_publ_section_title
;
Structure prediction by ZEFSAII (Michael W. Deem and Ramdas Pophale) SiO2 
 PCOD9122866
Probable space group: C 2
;
_chemical_formula_sum "Si O2"
_cell_formula_units_Z 26
_cell_length_a 10.208356
_cell_length_b 15.188644
_cell_length_c 14.912580
_cell_angle_alpha 90.000000
_cell_angle_beta 149.324177
_cell_angle_gamma 90.000000
_cell_volume 1179.644268
_symmetry_space_group_name_H-M "C 2"
_symmetry_group_IT_number 5
_symmetry_cell_setting 'monoclinic'
loop_
_space_group_symop_operation_xyz
x,y,z
-x,y,-z
1/2+x,1/2+y,z
1/2-x,1/2+y,-z
loop_
_atom_site_type_symbol
_atom_site_label
_atom_site_fract_x
_atom_site_fract_y
_atom_site_fract_z
Si Si1 0.242742 0.986170 0.908052
Si Si2 0.794184 0.747788 0.457705
Si Si3 0.000000 0.186452 0.000000
Si Si4 0.562751 0.100657 0.323577
Si Si5 0.352700 0.808494 0.071484
Si Si6 0.960094 0.653425 0.081676
Si Si7 0.384599 0.441057 0.534682
O O1 0.500000 0.982178 0.000000
O O2 0.284569 0.906967 0.002941
O O3 0.032794 0.980380 0.707176
O O4 0.230786 0.080227 0.950670
O O5 0.786203 0.666020 0.520426
O O6 0.525141 0.783742 0.258695
O O7 0.000000 0.726680 0.500000
O O8 0.889140 0.837593 0.559657
O O9 0.736006 0.130537 0.843900
O O10 0.995083 0.255250 0.915395
O O11 0.644820 0.117525 0.267901
O O12 0.625544 0.998952 0.378845
O O13 0.094252 0.752849 0.924467
O O14 0.000000 0.656090 0.000000
O O15 0.500000 0.445818 0.500000
#
# Coordination Sequence:
#
# PCOD9122866 Si02
#       7
#     4   4   2   4   4   4   4
#     4  11  20  37  62  92 122 162 216 261 312 370
#     4  11  21  37  62  95 124 158 214 264 312 361
#     4  10  20  36  60  96 122 170 202 256 316 374
#     4  11  22  39  64  97 130 163 211 266 316 373
#     4  11  20  36  64  88 127 159 209 262 310 374
#     4  10  22  38  60  90 120 164 210 251 315 375
#     4  11  22  36  62  97 126 162 212 269 313 368
#
# _framework density 22.040541999999999
#
# number of rings (size 3 to 8) (size 9 to 14) (size 15 to 20)
#    0.000    1.231    2.308    7.385    0.000    0.000 
#    0.000    0.000   15.231    4.615    0.000    0.000 
#    0.000    0.000    0.000    0.000    0.000    0.000 
#
# Total GULP energy -72378.187309 kJ/mol
# GULP energy per Si atom -5567.552870 kJ/mol
# Density = 2.199038 g / cm^3
# Si number density = 22.040542 Si / 1000 Ang^3
#
#
#
# Elastic Constant Matrix: (Units=GPa)
#
#
# Indices 1 2 3 4 5 6 
#
# 1 32.6527 24.9618 8.2379 -0.0020 -21.2289 -0.0030
# 2 24.9618 99.5396 -2.8730 0.0070 -7.4070 0.0016
# 3 8.2379 -2.8730 78.3171 0.0056 -18.0701 -0.0025
# 4 -0.0020 0.0070 0.0056 44.9380 -0.0002 2.1307
# 5 -21.2289 -7.4070 -18.0701 -0.0002 32.8472 -0.0026
# 6 -0.0030 0.0016 -0.0025 2.1307 -0.0026 36.8164
#
#
#
# Elastic Compliance Matrix: (Units=1/GPa)
#
#
# Indices 1 2 3 4 5 6 
#
# 1 0.067961 -0.013867 0.002011 0.000005 0.041902 0.000009
# 2 -0.013867 0.013121 0.000636 -0.000003 -0.005653 -0.000002
# 3 0.002011 0.000636 0.014791 -0.000002 0.009580 0.000002
# 4 0.000005 -0.000003 -0.000002 0.022314 0.000001 -0.001291
# 5 0.041902 -0.005653 0.009580 0.000001 0.061520 0.000009
# 6 0.000009 -0.000002 0.000002 -0.001291 0.000009 0.027237
#
#
# Mechanical properties :
#
#
# Convention : Reuss Voigt Hill
#
# Bulk Modulus (GPa) = 13.61808 30.12921 21.87365
# Shear Modulus (GPa) = 19.69583 34.93251 27.31417
#
# Velocity S-wave (km/s) = 2.99259 3.98542 3.52414
# Velocity P-wave (km/s) = 4.25827 5.90574 5.14833
#
# Compressibility (1/GPa) = 0.07343180
#
# Stress axis : x y z
#
# Youngs Moduli (GPa) = 14.71443 76.21224 67.61000
#
# Poissons Ratio (x) = 1.05680 -0.13594
# Poissons Ratio (y) = 0.20404 -0.04297
# Poissons Ratio (z) = -0.02959 -0.04843
#
# Static dielectric constant tensor:
#      x y z
#    x 1.892060 0.000000 0.016130 
#    y 0.000000 1.809180 -0.000010 
#    z 0.016130 -0.000010 1.895370 
# 
# From -- ./inp_files/20141.got.cif
#   From: 2010.05.17/outbox.cif.g08.bks.cpg/sg5_11_cif.got.tgz:20141.got - 2010.06.03 18:56:24.
