data_PCOD9122934
_publ_section_title
;
Structure prediction by ZEFSAII (Michael W. Deem and Ramdas Pophale) SiO2 
 PCOD9122934
Probable space group: C 2
;
_chemical_formula_sum "Si O2"
_cell_formula_units_Z 22
_cell_length_a 15.855130
_cell_length_b 11.958001
_cell_length_c 5.463898
_cell_angle_alpha 90.000000
_cell_angle_beta 60.040910
_cell_angle_gamma 90.000000
_cell_volume 897.512471
_symmetry_space_group_name_H-M "C 2"
_symmetry_group_IT_number 5
_symmetry_cell_setting 'monoclinic'
loop_
_space_group_symop_operation_xyz
x,y,z
-x,y,-z
1/2+x,1/2+y,z
1/2-x,1/2+y,-z
loop_
_atom_site_type_symbol
_atom_site_label
_atom_site_fract_x
_atom_site_fract_y
_atom_site_fract_z
Si Si1 0.000000 0.524830 0.500000
Si Si2 0.842290 0.921127 0.113706
Si Si3 0.327608 0.781114 0.087320
Si Si4 0.293763 0.506998 0.679826
Si Si5 0.619729 0.832589 0.494644
Si Si6 0.342752 0.185156 0.956071
O O1 0.947447 0.440829 0.389468
O O2 0.923612 0.601431 0.748015
O O3 0.859341 0.980049 0.348295
O O4 0.729110 0.881794 0.300870
O O5 0.849495 0.996283 0.859787
O O6 0.888244 0.799365 0.995737
O O7 0.287388 0.908146 0.179311
O O8 0.381058 0.758204 0.263005
O O9 0.228318 0.715368 0.169608
O O10 0.394116 0.774487 0.749595
O O11 0.231170 0.620238 0.756537
#
# Coordination Sequence:
#
# PCOD9122934 Si02
#       6
#     2   4   4   4   4   4
#     4  12  20  38  66 112 134 164 214 304 346 368
#     4   9  19  35  52  80 133 171 206 250 325 404
#     4   9  19  38  51  80 136 177 207 244 327 415
#     4   9  17  34  55  79 120 169 216 254 302 389
#     4   9  19  36  52  82 135 169 197 260 337 374
#     4  10  20  36  64  96 136 174 221 267 347 393
#
# _framework density 24.512195999999999
#
# number of rings (size 3 to 8) (size 9 to 14) (size 15 to 20)
#    0.000    2.909    3.636    0.000    0.000    6.545 
#    0.000    0.000    0.000    0.000    0.000   20.364 
#   65.455    0.000    0.000    0.000    0.000    0.000 
#
# Total GULP energy -61392.079611 kJ/mol
# GULP energy per Si atom -5581.098146 kJ/mol
# Density = 2.445641 g / cm^3
# Si number density = 24.512196 Si / 1000 Ang^3
#
#
#
# Elastic Constant Matrix: (Units=GPa)
#
#
# Indices 1 2 3 4 5 6 
#
# 1 45.1339 23.3753 47.3977 0.0000 3.0117 0.0000
# 2 23.3753 93.4071 34.5760 0.0000 -3.3269 0.0000
# 3 47.3977 34.5760 197.7529 0.0000 53.3631 0.0000
# 4 0.0000 0.0000 0.0000 27.7770 0.0000 -19.3706
# 5 3.0117 -3.3269 53.3631 0.0000 38.2809 0.0000
# 6 0.0000 0.0000 0.0000 -19.3706 0.0000 30.7719
#
#
#
# Elastic Compliance Matrix: (Units=1/GPa)
#
#
# Indices 1 2 3 4 5 6 
#
# 1 0.035022 -0.004301 -0.010897 0.000000 0.012061 0.000000
# 2 -0.004301 0.012927 -0.002603 0.000000 0.005090 0.000000
# 3 -0.010897 -0.002603 0.012749 0.000000 -0.017141 0.000000
# 4 0.000000 0.000000 0.000000 0.064171 0.000000 0.040395
# 5 0.012061 0.005090 -0.017141 0.000000 0.049510 0.000000
# 6 0.000000 0.000000 0.000000 0.040395 0.000000 0.057925
#
#
# Mechanical properties :
#
#
# Convention : Reuss Voigt Hill
#
# Bulk Modulus (GPa) = 39.84564 60.77686 50.31125
# Shear Modulus (GPa) = 18.09812 34.76230 26.43021
#
# Velocity S-wave (km/s) = 2.72017 3.76994 3.28723
# Velocity P-wave (km/s) = 5.11434 6.61803 5.91417
#
# Compressibility (1/GPa) = 0.02509685
#
# Stress axis : x y z
#
# Youngs Moduli (GPa) = 28.55313 77.35747 78.43705
#
# Poissons Ratio (x) = 0.33274 0.85471
# Poissons Ratio (y) = 0.12282 0.20416
# Poissons Ratio (z) = 0.31114 0.20135
#
# Static dielectric constant tensor:
#      x y z
#    x 2.022280 0.000000 0.082300 
#    y 0.000000 1.995460 0.000000 
#    z 0.082300 0.000000 2.063980 
# 
# From -- ./inp_files/8222.got.cif
#   From: 2010.05.17/outbox.cif.g08.bks.cpg/sg5_5_cif.got.tgz:8222.got - 2010.06.03 18:56:24.
