data_PCOD9122779
_publ_section_title
;
Structure prediction by ZEFSAII (Michael W. Deem and Ramdas Pophale) SiO2 
 PCOD9122779
Probable space group: C 2
;
_chemical_formula_sum "Si O2"
_cell_formula_units_Z 24
_cell_length_a 11.752465
_cell_length_b 15.341319
_cell_length_c 14.821643
_cell_angle_alpha 90.000000
_cell_angle_beta 153.630969
_cell_angle_gamma 90.000000
_cell_volume 1186.912306
_symmetry_space_group_name_H-M "C 2"
_symmetry_group_IT_number 5
_symmetry_cell_setting 'monoclinic'
loop_
_space_group_symop_operation_xyz
x,y,z
-x,y,-z
1/2+x,1/2+y,z
1/2-x,1/2+y,-z
loop_
_atom_site_type_symbol
_atom_site_label
_atom_site_fract_x
_atom_site_fract_y
_atom_site_fract_z
Si Si1 0.257360 0.453130 0.268322
Si Si2 0.500000 0.757037 0.500000
Si Si3 0.530259 0.836362 0.252100
Si Si4 0.934123 0.162926 0.627770
Si Si5 0.142937 0.964269 0.391268
Si Si6 0.000000 0.602409 0.000000
Si Si7 0.547328 0.384441 0.133510
O O1 0.500000 0.479990 0.500000
O O2 0.379986 0.437727 0.257125
O O3 0.074092 0.535880 0.132658
O O4 0.134523 0.371749 0.231050
O O5 0.365108 0.698778 0.479947
O O6 0.281610 0.815953 0.298499
O O7 0.625712 0.740130 0.345311
O O8 0.644382 0.904355 0.408203
O O9 0.224144 0.840497 0.035509
O O10 0.244081 0.152583 0.843239
O O11 0.823985 0.067440 0.568804
O O12 0.117956 0.946206 0.267619
O O13 0.500000 0.423086 0.000000
#
# Coordination Sequence:
#
# PCOD9122779 Si02
#       7
#     4   2   4   4   4   2   4
#     4   9  20  38  65  91 128 164 203 263 317 371
#     4  12  24  42  64  98 126 166 224 270 320 368
#     4  11  21  40  63  97 130 168 206 262 329 373
#     4  11  22  38  65  95 128 164 212 271 312 374
#     4  10  23  41  64  97 127 167 218 263 314 381
#     4  10  20  36  58 102 120 162 218 264 308 374
#     4  12  22  42  68  90 131 174 211 263 326 379
#
# _framework density 20.220534000000001
#
# number of rings (size 3 to 8) (size 9 to 14) (size 15 to 20)
#    0.000    1.333    3.333    3.000    9.333    0.000 
#    3.000    0.000   22.000    0.000    0.000    0.000 
#    0.000    0.000    0.000    0.000    0.000    0.000 
#
# Total GULP energy -66971.889214 kJ/mol
# GULP energy per Si atom -5580.990768 kJ/mol
# Density = 2.017451 g / cm^3
# Si number density = 20.220534 Si / 1000 Ang^3
#
#
#
# Elastic Constant Matrix: (Units=GPa)
#
#
# Indices 1 2 3 4 5 6 
#
# 1 85.2848 51.5329 10.5900 0.0498 -23.0570 -0.0530
# 2 51.5329 146.5731 27.2713 0.0210 -9.8180 0.0141
# 3 10.5900 27.2713 89.0822 0.0255 -1.3358 0.0240
# 4 0.0498 0.0210 0.0255 19.5652 0.0404 -5.4884
# 5 -23.0570 -9.8180 -1.3358 0.0404 29.5051 0.0365
# 6 -0.0530 0.0141 0.0240 -5.4884 0.0365 40.5946
#
#
#
# Elastic Compliance Matrix: (Units=1/GPa)
#
#
# Indices 1 2 3 4 5 6 
#
# 1 0.018580 -0.005631 -0.000295 -0.000065 0.012632 0.000006
# 2 -0.005631 0.009102 -0.002139 0.000009 -0.001469 -0.000007
# 3 -0.000295 -0.002139 0.011909 -0.000014 -0.000403 -0.000008
# 4 -0.000065 0.000009 -0.000014 0.053127 -0.000130 0.007183
# 5 0.012632 -0.001469 -0.000403 -0.000130 0.043257 -0.000039
# 6 0.000006 -0.000007 -0.000008 0.007183 -0.000039 0.025605
#
#
# Mechanical properties :
#
#
# Convention : Reuss Voigt Hill
#
# Bulk Modulus (GPa) = 42.62565 55.52540 49.07553
# Shear Modulus (GPa) = 26.94952 33.36936 30.15944
#
# Velocity S-wave (km/s) = 3.65469 4.06676 3.86622
# Velocity P-wave (km/s) = 6.23980 7.04066 6.65229
#
# Compressibility (1/GPa) = 0.02346005
#
# Stress axis : x y z
#
# Youngs Moduli (GPa) = 53.82119 109.86555 83.96665
#
# Poissons Ratio (x) = 0.61869 0.02480
# Poissons Ratio (y) = 0.30309 0.17961
# Poissons Ratio (z) = 0.01590 0.23501
#
# Static dielectric constant tensor:
#      x y z
#    x 1.771420 -0.000020 -0.014590 
#    y -0.000020 1.718530 -0.000020 
#    z -0.014590 -0.000020 1.747700 
# 
# From -- ./inp_files/53233.got.cif
#   From: 2010.05.17/outbox.cif.g08.bks.cpg/sg5_27_cif.got.tgz:53233.got - 2010.06.03 18:56:24.
