data_PCOD9122684
_publ_section_title
;
Structure prediction by ZEFSAII (Michael W. Deem and Ramdas Pophale) SiO2 
 PCOD9122684
Probable space group: C 2
;
_chemical_formula_sum "Si O2"
_cell_formula_units_Z 32
_cell_length_a 30.257293
_cell_length_b 6.913320
_cell_length_c 8.514220
_cell_angle_alpha 90.000000
_cell_angle_beta 76.829611
_cell_angle_gamma 90.000000
_cell_volume 1734.144709
_symmetry_space_group_name_H-M "C 2"
_symmetry_group_IT_number 5
_symmetry_cell_setting 'monoclinic'
loop_
_space_group_symop_operation_xyz
x,y,z
-x,y,-z
1/2+x,1/2+y,z
1/2-x,1/2+y,-z
loop_
_atom_site_type_symbol
_atom_site_label
_atom_site_fract_x
_atom_site_fract_y
_atom_site_fract_z
Si Si1 0.795931 0.166990 0.099263
Si Si2 0.704789 0.969569 0.174485
Si Si3 0.651010 0.277663 0.004451
Si Si4 0.042098 0.367438 0.080026
Si Si5 0.065076 0.699712 0.277326
Si Si6 0.882112 0.391506 0.551883
Si Si7 0.367436 0.945931 0.197618
Si Si8 0.045434 0.114482 0.379071
O O1 0.825352 0.306629 0.186703
O O2 0.750102 0.070261 0.203164
O O3 0.784140 0.294125 0.954050
O O4 0.827285 0.986288 0.027818
O O5 0.667882 0.897169 0.330055
O O6 0.680575 0.133502 0.088414
O O7 0.603162 0.285904 0.130518
O O8 0.645231 0.163713 0.845094
O O9 0.035134 0.560389 0.191647
O O10 0.046533 0.196504 0.201870
O O11 0.089169 0.389561 0.945990
O O12 0.000000 0.338643 0.000000
O O13 0.089377 0.559366 0.382922
O O14 0.043672 0.883941 0.375725
O O15 0.879300 0.425967 0.369498
O O16 0.909973 0.197134 0.570529
O O17 0.000000 0.190695 0.500000
#
# Coordination Sequence:
#
# PCOD9122684 Si02
#       8
#     4   4   4   4   4   4   4   4
#     4  11  19  36  58  84 110 147 194 237 279 342
#     4  10  20  35  60  83 107 150 194 231 288 332
#     4   9  18  36  58  80 107 145 191 230 278 338
#     4  10  21  39  60  85 116 153 187 234 280 338
#     4   9  20  37  59  83 112 150 191 231 278 334
#     4  10  22  41  56  83 121 154 184 236 285 337
#     4  10  22  37  56  83 118 152 187 230 291 334
#     4  11  22  37  61  89 112 149 195 233 279 335
#
# _framework density 18.452901000000001
#
# number of rings (size 3 to 8) (size 9 to 14) (size 15 to 20)
#    0.000    2.000    1.250    4.500    0.000    4.500 
#    2.250    2.500    0.000    0.000    0.000    0.000 
#    0.000    0.000    0.000    0.000    0.000    0.000 
#
# Total GULP energy -89266.426657 kJ/mol
# GULP energy per Si atom -5579.151666 kJ/mol
# Density = 1.841090 g / cm^3
# Si number density = 18.452901 Si / 1000 Ang^3
#
#
#
# Elastic Constant Matrix: (Units=GPa)
#
#
# Indices 1 2 3 4 5 6 
#
# 1 70.4783 17.3850 30.4900 0.0000 1.7608 0.0000
# 2 17.3850 78.5535 21.8123 0.0000 -2.0662 0.0000
# 3 30.4900 21.8123 99.7598 0.0000 7.6332 0.0000
# 4 0.0000 0.0000 0.0000 12.4287 0.0000 -11.2553
# 5 1.7608 -2.0662 7.6332 0.0000 26.8606 0.0000
# 6 0.0000 0.0000 0.0000 -11.2553 0.0000 20.3030
#
#
#
# Elastic Compliance Matrix: (Units=1/GPa)
#
#
# Indices 1 2 3 4 5 6 
#
# 1 0.016778 -0.002436 -0.004597 0.000000 0.000019 0.000000
# 2 -0.002436 0.014005 -0.002466 0.000000 0.001938 0.000000
# 3 -0.004597 -0.002466 0.012225 0.000000 -0.003363 0.000000
# 4 0.000000 0.000000 0.000000 0.161573 0.000000 0.089571
# 5 0.000019 0.001938 -0.003363 0.000000 0.038333 0.000000
# 6 0.000000 0.000000 0.000000 0.089571 0.000000 0.098909
#
#
# Mechanical properties :
#
#
# Convention : Reuss Voigt Hill
#
# Bulk Modulus (GPa) = 41.64806 43.12959 42.38882
# Shear Modulus (GPa) = 13.55660 23.85875 18.70767
#
# Velocity S-wave (km/s) = 2.71340 3.59967 3.18749
# Velocity P-wave (km/s) = 5.69523 6.37968 6.04715
#
# Compressibility (1/GPa) = 0.02401072
#
# Stress axis : x y z
#
# Youngs Moduli (GPa) = 59.60249 71.40293 81.79691
#
# Poissons Ratio (x) = 0.17396 0.37599
# Poissons Ratio (y) = 0.14521 0.20170
# Poissons Ratio (z) = 0.27397 0.17607
#
# Static dielectric constant tensor:
#      x y z
#    x 1.643150 0.000000 -0.015680 
#    y 0.000000 1.634140 0.000000 
#    z -0.015680 0.000000 1.613370 
# 
# From -- ./inp_files/32275.got.cif
#   From: 2010.05.17/outbox.cif.g08.bks.cpg/sg5_17_cif.got.tgz:32275.got - 2010.06.03 18:56:24.
