data_PCOD9122143
_publ_section_title
;
Structure prediction by ZEFSAII (Michael W. Deem and Ramdas Pophale) SiO2 
 PCOD9122143
Probable space group: C 2
;
_chemical_formula_sum "Si O2"
_cell_formula_units_Z 28
_cell_length_a 9.595222
_cell_length_b 13.974192
_cell_length_c 23.273381
_cell_angle_alpha 90.000000
_cell_angle_beta 153.316997
_cell_angle_gamma 90.000000
_cell_volume 1401.327808
_symmetry_space_group_name_H-M "C 2"
_symmetry_group_IT_number 5
_symmetry_cell_setting 'monoclinic'
loop_
_space_group_symop_operation_xyz
x,y,z
-x,y,-z
1/2+x,1/2+y,z
1/2-x,1/2+y,-z
loop_
_atom_site_type_symbol
_atom_site_label
_atom_site_fract_x
_atom_site_fract_y
_atom_site_fract_z
Si Si1 0.221210 0.661780 0.028411
Si Si2 0.803768 0.164045 0.576536
Si Si3 0.821469 0.730367 0.597787
Si Si4 0.648652 0.861353 0.347918
Si Si5 0.649827 0.056795 0.767382
Si Si6 0.081379 0.348136 0.185303
Si Si7 0.441651 0.062491 0.818647
O O1 0.537987 0.599845 0.144453
O O2 0.316729 0.772786 0.070905
O O3 0.000000 0.636072 0.000000
O O4 0.062530 0.637500 0.909659
O O5 0.500000 0.129857 0.500000
O O6 0.689546 0.204344 0.473344
O O7 0.933216 0.257911 0.657019
O O8 0.081819 0.088383 0.672880
O O9 0.500000 0.773080 0.500000
O O10 0.878741 0.629592 0.649797
O O11 0.098672 0.800356 0.716723
O O12 0.621800 0.854870 0.269211
O O13 0.000000 0.880391 0.500000
O O14 0.432519 0.950808 0.284180
O O15 0.641702 0.061079 0.833760
O O16 0.033208 0.455626 0.146505
#
# Coordination Sequence:
#
# PCOD9122143 Si02
#       7
#     4   4   4   4   4   4   4
#     4  11  25  45  65  90 128 165 219 276 318 365
#     4  11  22  37  65  97 134 167 209 257 325 380
#     4  11  20  38  61  97 133 166 199 273 319 375
#     4  10  19  38  67  97 125 172 212 250 315 398
#     4  10  23  40  66  91 127 169 221 258 312 385
#     4  10  23  42  65  92 128 167 218 256 318 389
#     4  11  24  43  66  95 122 178 217 261 315 387
#
# _framework density 19.981048999999999
#
# number of rings (size 3 to 8) (size 9 to 14) (size 15 to 20)
#    0.000    1.429    4.286    1.714    4.000    4.000 
#    2.571    2.857    0.000    0.000    0.000    0.000 
#    0.000    0.000    0.000    0.000    0.000    0.000 
#
# Total GULP energy -78160.169409 kJ/mol
# GULP energy per Si atom -5582.869244 kJ/mol
# Density = 1.993557 g / cm^3
# Si number density = 19.981049 Si / 1000 Ang^3
#
#
#
# Elastic Constant Matrix: (Units=GPa)
#
#
# Indices 1 2 3 4 5 6 
#
# 1 83.8469 21.1840 22.2918 0.0003 19.5128 0.0001
# 2 21.1840 104.3063 30.4656 0.0000 15.6302 0.0007
# 3 22.2918 30.4656 69.5434 -0.0018 2.1918 -0.0018
# 4 0.0003 0.0000 -0.0018 18.2861 0.0001 -2.3513
# 5 19.5128 15.6302 2.1918 0.0001 33.6857 -0.0007
# 6 0.0001 0.0007 -0.0018 -2.3513 -0.0007 15.0066
#
#
#
# Elastic Compliance Matrix: (Units=1/GPa)
#
#
# Indices 1 2 3 4 5 6 
#
# 1 0.015139 -0.000575 -0.004342 -0.000001 -0.008220 -0.000001
# 2 -0.000575 0.011848 -0.004853 -0.000001 -0.004849 -0.000001
# 3 -0.004342 -0.004853 0.017784 0.000002 0.003610 0.000003
# 4 -0.000001 -0.000001 0.000002 0.055811 0.000001 0.008745
# 5 -0.008220 -0.004849 0.003610 0.000001 0.036463 0.000003
# 6 -0.000001 -0.000001 0.000003 0.008745 0.000003 0.068008
#
#
# Mechanical properties :
#
#
# Convention : Reuss Voigt Hill
#
# Bulk Modulus (GPa) = 39.63400 45.06436 42.34918
# Shear Modulus (GPa) = 21.45902 25.64602 23.55252
#
# Velocity S-wave (km/s) = 3.28070 3.58651 3.43701
# Velocity P-wave (km/s) = 5.85060 6.30502 6.08205
#
# Compressibility (1/GPa) = 0.02523086
#
# Stress axis : x y z
#
# Youngs Moduli (GPa) = 66.05431 84.40240 56.23134
#
# Poissons Ratio (x) = 0.04850 0.24415
# Poissons Ratio (y) = 0.03796 0.27291
# Poissons Ratio (z) = 0.28680 0.40963
#
# Static dielectric constant tensor:
#      x y z
#    x 1.715330 0.000000 0.001880 
#    y 0.000000 1.700380 0.000000 
#    z 0.001880 0.000000 1.752650 
# 
# From -- ./inp_files/36318.got.cif
#   From: 2010.05.17/outbox.cif.g08.bks.cpg/sg5_19_cif.got.tgz:36318.got - 2010.06.03 18:56:24.
