data_PCOD9122951
_publ_section_title
;
Structure prediction by ZEFSAII (Michael W. Deem and Ramdas Pophale) SiO2 
 PCOD9122951
Probable space group: C 2
;
_chemical_formula_sum "Si O2"
_cell_formula_units_Z 28
_cell_length_a 20.056102
_cell_length_b 11.371411
_cell_length_c 5.762452
_cell_angle_alpha 90.000000
_cell_angle_beta 69.663700
_cell_angle_gamma 90.000000
_cell_volume 1232.303663
_symmetry_space_group_name_H-M "C 2"
_symmetry_group_IT_number 5
_symmetry_cell_setting 'monoclinic'
loop_
_space_group_symop_operation_xyz
x,y,z
-x,y,-z
1/2+x,1/2+y,z
1/2-x,1/2+y,-z
loop_
_atom_site_type_symbol
_atom_site_label
_atom_site_fract_x
_atom_site_fract_y
_atom_site_fract_z
Si Si1 0.914365 0.981930 0.126515
Si Si2 0.500000 0.126089 0.000000
Si Si3 0.809250 0.450149 0.208113
Si Si4 0.920978 0.236351 0.011399
Si Si5 0.620619 0.150445 0.141336
Si Si6 0.647573 0.391255 0.303763
Si Si7 0.000000 0.252702 0.500000
Si Si8 0.408571 0.967127 0.453564
O O1 0.891368 0.924734 0.404128
O O2 0.879618 0.938440 0.919783
O O3 0.000000 0.974919 0.000000
O O4 0.894856 0.121815 0.177332
O O5 0.555218 0.202487 0.075249
O O6 0.451317 0.040609 0.211259
O O7 0.729685 0.423502 0.239455
O O8 0.828403 0.456224 0.458006
O O9 0.865217 0.344493 0.064024
O O10 0.825220 0.579649 0.084621
O O11 0.947760 0.184143 0.731391
O O12 0.000000 0.275877 0.000000
O O13 0.646955 0.249872 0.277772
O O14 0.586900 0.043483 0.324220
O O15 0.056478 0.342903 0.544696
#
# Coordination Sequence:
#
# PCOD9122951 Si02
#       8
#     4   2   4   4   4   4   2   4
#     4  11  30  55  78 107 150 209 267 313 380 471
#     4  10  20  36  66 110 144 196 242 330 378 460
#     4  11  26  45  74 113 154 198 257 325 395 464
#     4  11  24  43  75 111 149 198 252 324 378 454
#     4  11  25  44  72 109 151 202 257 318 395 462
#     4  12  31  51  76 109 156 211 257 313 391 470
#     4  12  18  36  72 114 148 188 248 322 396 434
#     4  11  20  37  67 108 154 179 247 313 393 450
#
# _framework density 22.721672000000002
#
# number of rings (size 3 to 8) (size 9 to 14) (size 15 to 20)
#    0.000    0.857    4.286    1.286   14.000    1.143 
#    0.000    0.000    0.000    0.000    0.000    0.000 
#    0.000    0.000    0.000    0.000    0.000    0.000 
#
# Total GULP energy -77990.700661 kJ/mol
# GULP energy per Si atom -5570.764333 kJ/mol
# Density = 2.266996 g / cm^3
# Si number density = 22.721672 Si / 1000 Ang^3
#
#
#
# Elastic Constant Matrix: (Units=GPa)
#
#
# Indices 1 2 3 4 5 6 
#
# 1 169.0104 38.9156 44.4121 0.0000 11.6002 0.0000
# 2 38.9156 110.0920 29.8383 0.0000 -0.9815 0.0000
# 3 44.4121 29.8383 85.5570 0.0000 11.7604 0.0000
# 4 0.0000 0.0000 0.0000 116.7118 0.0000 5.0906
# 5 11.6002 -0.9815 11.7604 0.0000 22.3071 0.0000
# 6 0.0000 0.0000 0.0000 5.0906 0.0000 28.5278
#
#
#
# Elastic Compliance Matrix: (Units=1/GPa)
#
#
# Indices 1 2 3 4 5 6 
#
# 1 0.007233 -0.001820 -0.002794 0.000000 -0.002368 0.000000
# 2 -0.001820 0.010617 -0.003183 0.000000 0.003092 0.000000
# 3 -0.002794 -0.003183 0.015167 0.000000 -0.006683 0.000000
# 4 0.000000 0.000000 0.000000 0.008635 0.000000 -0.001541
# 5 -0.002368 0.003092 -0.006683 0.000000 0.049720 0.000000
# 6 0.000000 0.000000 0.000000 -0.001541 0.000000 0.035328
#
#
# Mechanical properties :
#
#
# Convention : Reuss Voigt Hill
#
# Bulk Modulus (GPa) = 57.39733 65.66572 61.53152
# Shear Modulus (GPa) = 33.76043 50.27557 42.01800
#
# Velocity S-wave (km/s) = 3.85882 4.70901 4.30495
# Velocity P-wave (km/s) = 6.72086 7.65043 7.20066
#
# Compressibility (1/GPa) = 0.01742241
#
# Stress axis : x y z
#
# Youngs Moduli (GPa) = 138.26042 94.18855 65.93204
#
# Poissons Ratio (x) = 0.17147 0.18422
# Poissons Ratio (y) = 0.25170 0.20984
# Poissons Ratio (z) = 0.38630 0.29977
#
# Static dielectric constant tensor:
#      x y z
#    x 1.870470 0.000000 0.079670 
#    y 0.000000 1.842980 0.000000 
#    z 0.079670 0.000000 2.072980 
# 
# From -- ./inp_files/9564.got.cif
#   From: 2010.05.17/outbox.cif.g08.bks.cpg/sg5_5_cif.got.tgz:9564.got - 2010.06.03 18:56:24.
