data_PCOD9122982
_publ_section_title
;
Structure prediction by ZEFSAII (Michael W. Deem and Ramdas Pophale) SiO2 
 PCOD9122982
Probable space group: C 2
;
_chemical_formula_sum "Si O2"
_cell_formula_units_Z 30
_cell_length_a 15.111374
_cell_length_b 12.745399
_cell_length_c 14.586820
_cell_angle_alpha 90.000000
_cell_angle_beta 30.498586
_cell_angle_gamma 90.000000
_cell_volume 1425.833100
_symmetry_space_group_name_H-M "C 2"
_symmetry_group_IT_number 5
_symmetry_cell_setting 'monoclinic'
loop_
_space_group_symop_operation_xyz
x,y,z
-x,y,-z
1/2+x,1/2+y,z
1/2-x,1/2+y,-z
loop_
_atom_site_type_symbol
_atom_site_label
_atom_site_fract_x
_atom_site_fract_y
_atom_site_fract_z
Si Si1 0.144409 0.062430 0.443049
Si Si2 0.392397 0.652831 0.807670
Si Si3 0.427849 0.716499 0.977005
Si Si4 0.976595 0.581503 0.830914
Si Si5 0.044615 0.377305 0.645885
Si Si6 0.242662 0.830868 0.380805
Si Si7 0.500000 0.992584 0.500000
Si Si8 0.436507 0.184066 0.674347
O O1 0.346720 0.097095 0.268287
O O2 0.000000 0.104164 0.500000
O O3 0.052032 0.091133 0.620796
O O4 0.162920 0.938051 0.416945
O O5 0.413367 0.649230 0.898547
O O6 0.417470 0.775832 0.758365
O O7 0.203316 0.603790 0.954883
O O8 0.570617 0.804940 0.830019
O O9 0.500000 0.655781 0.000000
O O10 0.234394 0.755913 0.171586
O O11 0.979584 0.469255 0.773983
O O12 0.977116 0.659084 0.743766
O O13 0.217555 0.340212 0.545693
O O14 0.075070 0.421027 0.515880
O O15 0.109469 0.737473 0.482526
O O16 0.393293 0.076636 0.658091
#
# Coordination Sequence:
#
# PCOD9122982 Si02
#       8
#     4   4   4   4   4   4   2   4
#     4  11  25  39  60  92 126 172 222 261 318 390
#     4  10  22  41  62  88 131 176 209 261 328 388
#     4  10  21  36  63  95 125 159 207 264 319 378
#     4   9  20  41  61  92 124 163 215 266 321 382
#     4   9  20  39  63  96 128 172 209 272 325 387
#     4  10  22  39  59  94 133 163 211 261 331 383
#     4  10  20  36  70  98 128 164 226 268 320 390
#     4  10  20  37  66  93 125 168 205 267 331 378
#
# _framework density 21.040330999999998
#
# number of rings (size 3 to 8) (size 9 to 14) (size 15 to 20)
#    0.000    2.133    0.000    2.400    3.733    6.933 
#    0.000    0.000    0.000    9.600    0.000    0.000 
#    0.000    0.000    0.000    0.000    0.000    0.000 
#
# Total GULP energy -83515.225983 kJ/mol
# GULP energy per Si atom -5567.681732 kJ/mol
# Density = 2.099244 g / cm^3
# Si number density = 21.040331 Si / 1000 Ang^3
#
#
#
# Elastic Constant Matrix: (Units=GPa)
#
#
# Indices 1 2 3 4 5 6 
#
# 1 127.7836 24.5576 22.3996 0.0001 -16.8034 0.0000
# 2 24.5576 53.5061 40.8270 0.0003 -21.3929 -0.0001
# 3 22.3996 40.8270 96.0904 0.0006 -26.1131 -0.0002
# 4 0.0001 0.0003 0.0006 18.5327 -0.0001 -5.7157
# 5 -16.8034 -21.3929 -26.1131 -0.0001 30.9761 0.0000
# 6 0.0000 -0.0001 -0.0002 -5.7157 0.0000 25.4757
#
#
#
# Elastic Compliance Matrix: (Units=1/GPa)
#
#
# Indices 1 2 3 4 5 6 
#
# 1 0.008747 -0.002873 -0.000088 0.000000 0.002686 0.000000
# 2 -0.002873 0.032471 -0.009672 0.000000 0.012714 0.000000
# 3 -0.000088 -0.009672 0.016485 0.000000 0.007170 0.000000
# 4 0.000000 0.000000 0.000000 0.057970 0.000000 0.013006
# 5 0.002686 0.012714 0.007170 0.000000 0.048565 0.000000
# 6 0.000000 0.000000 0.000000 0.013006 0.000000 0.042171
#
#
# Mechanical properties :
#
#
# Convention : Reuss Voigt Hill
#
# Bulk Modulus (GPa) = 30.82912 50.32762 40.57837
# Shear Modulus (GPa) = 20.61969 27.63663 24.12816
#
# Velocity S-wave (km/s) = 3.13390 3.62817 3.39005
# Velocity P-wave (km/s) = 5.27061 6.44383 5.88652
#
# Compressibility (1/GPa) = 0.03243687
#
# Stress axis : x y z
#
# Youngs Moduli (GPa) = 114.33048 30.79666 60.66074
#
# Poissons Ratio (x) = 0.08848 0.00535
# Poissons Ratio (y) = 0.32849 0.58669
# Poissons Ratio (z) = 0.01009 0.29785
#
# Static dielectric constant tensor:
#      x y z
#    x 1.845700 0.000000 0.030070 
#    y 0.000000 1.758500 0.000000 
#    z 0.030070 0.000000 1.783030 
# 
# From -- ./inp_files/54774.got.cif
#   From: 2010.05.17/outbox.cif.g08.bks.cpg/sg5_28_cif.got.tgz:54774.got - 2010.06.03 18:56:24.
