data_PCOD9122250
_publ_section_title
;
Structure prediction by ZEFSAII (Michael W. Deem and Ramdas Pophale) SiO2 
 PCOD9122250
Probable space group: C 2
;
_chemical_formula_sum "Si O2"
_cell_formula_units_Z 26
_cell_length_a 8.642130
_cell_length_b 27.705852
_cell_length_c 8.422609
_cell_angle_alpha 90.000000
_cell_angle_beta 143.257897
_cell_angle_gamma 90.000000
_cell_volume 1206.411957
_symmetry_space_group_name_H-M "C 2"
_symmetry_group_IT_number 5
_symmetry_cell_setting 'monoclinic'
loop_
_space_group_symop_operation_xyz
x,y,z
-x,y,-z
1/2+x,1/2+y,z
1/2-x,1/2+y,-z
loop_
_atom_site_type_symbol
_atom_site_label
_atom_site_fract_x
_atom_site_fract_y
_atom_site_fract_z
Si Si1 0.796410 0.807000 0.467177
Si Si2 0.299755 0.666599 0.111173
Si Si3 0.000000 0.382031 0.000000
Si Si4 0.294833 0.386379 0.695933
Si Si5 0.292732 0.204877 0.601624
Si Si6 0.711063 0.557817 0.816724
Si Si7 0.935835 0.958540 0.265558
O O1 0.910063 0.840631 0.697807
O O2 0.710279 0.759061 0.487494
O O3 0.000000 0.792454 0.500000
O O4 0.609433 0.844974 0.222900
O O5 0.603875 0.673700 0.336419
O O6 0.253982 0.688507 0.252874
O O7 0.249710 0.609730 0.070400
O O8 0.097875 0.694813 0.834444
O O9 0.790515 0.418121 0.908359
O O10 0.314760 0.433334 0.603093
O O11 0.000000 0.376264 0.500000
O O12 0.500000 0.397302 0.000000
O O13 0.500000 0.566465 0.500000
O O14 0.624810 0.511575 0.849638
O O15 0.000000 0.543487 0.000000
O O16 0.000000 0.968442 0.500000
#
# Coordination Sequence:
#
# PCOD9122250 Si02
#       7
#     4   4   2   4   4   4   4
#     4  12  27  42  65  94 133 190 225 276 333 407
#     4  10  19  40  59  99 131 155 219 282 326 385
#     4  12  20  44  64  92 146 170 236 266 328 412
#     4  12  27  43  65  95 139 178 228 278 334 400
#     4  10  22  35  61  87 134 163 210 274 327 377
#     4  11  19  34  66 101 125 170 218 281 327 392
#     4  11  23  41  68 100 136 179 222 278 341 403
#
# _framework density 21.551508999999999
#
# number of rings (size 3 to 8) (size 9 to 14) (size 15 to 20)
#    0.000    0.923    6.923    0.923    6.462    0.000 
#    0.000    0.000    0.000    2.769    0.000    0.000 
#    0.000    0.000    0.000    0.000    0.000    0.000 
#
# Total GULP energy -72413.892913 kJ/mol
# GULP energy per Si atom -5570.299455 kJ/mol
# Density = 2.150246 g / cm^3
# Si number density = 21.551509 Si / 1000 Ang^3
#
#
#
# Elastic Constant Matrix: (Units=GPa)
#
#
# Indices 1 2 3 4 5 6 
#
# 1 39.5628 13.3617 0.2929 0.0000 0.4665 0.0000
# 2 13.3617 151.4278 0.6117 0.0000 -6.7411 0.0000
# 3 0.2929 0.6117 84.9334 0.0000 23.8027 0.0000
# 4 0.0000 0.0000 0.0000 17.7492 0.0000 13.0938
# 5 0.4665 -6.7411 23.8027 0.0000 20.9446 0.0000
# 6 0.0000 0.0000 0.0000 13.0938 0.0000 31.5979
#
#
#
# Elastic Compliance Matrix: (Units=1/GPa)
#
#
# Indices 1 2 3 4 5 6 
#
# 1 0.026101 -0.002388 0.000448 0.000000 -0.001859 0.000000
# 2 -0.002388 0.006972 -0.001006 0.000000 0.003441 0.000000
# 3 0.000448 -0.001006 0.017422 0.000000 -0.020133 0.000000
# 4 0.000000 0.000000 0.000000 0.081147 0.000000 -0.033626
# 5 -0.001859 0.003441 -0.020133 0.000000 0.071774 0.000000
# 6 0.000000 0.000000 0.000000 -0.033626 0.000000 0.045582
#
#
# Mechanical properties :
#
#
# Convention : Reuss Voigt Hill
#
# Bulk Modulus (GPa) = 22.41969 33.82853 28.12411
# Shear Modulus (GPa) = 18.53515 31.50218 25.01866
#
# Velocity S-wave (km/s) = 2.93582 3.82739 3.41086
# Velocity P-wave (km/s) = 4.68161 5.93823 5.34696
#
# Compressibility (1/GPa) = 0.04460366
#
# Stress axis : x y z
#
# Youngs Moduli (GPa) = 38.31230 143.43667 57.39874
#
# Poissons Ratio (x) = 0.34248 -0.02573
# Poissons Ratio (y) = 0.09148 0.05775
# Poissons Ratio (z) = -0.01717 0.14433
#
# Static dielectric constant tensor:
#      x y z
#    x 1.897240 0.000000 -0.016460 
#    y 0.000000 1.811950 0.000000 
#    z -0.016460 0.000000 1.898920 
# 
# From -- ./inp_files/17476.got.cif
#   From: 2010.05.17/outbox.cif.g08.bks.cpg/sg5_9_cif.got.tgz:17476.got - 2010.06.03 18:56:24.
