data_PCOD9122994
_publ_section_title
;
Structure prediction by ZEFSAII (Michael W. Deem and Ramdas Pophale) SiO2 
 PCOD9122994
Probable space group: C 2
;
_chemical_formula_sum "Si O2"
_cell_formula_units_Z 32
_cell_length_a 27.291945
_cell_length_b 5.269145
_cell_length_c 12.418898
_cell_angle_alpha 90.000000
_cell_angle_beta 115.811478
_cell_angle_gamma 90.000000
_cell_volume 1607.725624
_symmetry_space_group_name_H-M "C 2"
_symmetry_group_IT_number 5
_symmetry_cell_setting 'monoclinic'
loop_
_space_group_symop_operation_xyz
x,y,z
-x,y,-z
1/2+x,1/2+y,z
1/2-x,1/2+y,-z
loop_
_atom_site_type_symbol
_atom_site_label
_atom_site_fract_x
_atom_site_fract_y
_atom_site_fract_z
Si Si1 0.565155 0.080010 0.052939
Si Si2 0.933759 0.098273 0.326071
Si Si3 0.237532 0.947985 0.056211
Si Si4 0.907643 0.782916 0.491968
Si Si5 0.548179 0.773152 0.362008
Si Si6 0.158702 0.497485 0.725372
Si Si7 0.053390 0.089512 0.126206
Si Si8 0.379692 0.296410 0.097583
O O1 0.579639 0.311181 0.146899
O O2 0.589421 0.807772 0.105786
O O3 0.500000 0.046001 0.000000
O O4 0.582549 0.154071 0.950260
O O5 0.939469 0.857310 0.411172
O O6 0.914274 0.011920 0.189852
O O7 0.884686 0.269350 0.325410
O O8 0.990644 0.236882 0.367007
O O9 0.278813 0.925657 0.195626
O O10 0.256716 0.725732 0.992118
O O11 0.173978 0.897039 0.013400
O O12 0.931068 0.551791 0.585399
O O13 0.851667 0.682868 0.385151
O O14 0.912144 0.044730 0.561286
O O15 0.539537 0.707543 0.228492
O O16 0.141518 0.629096 0.822252
O O17 0.000000 0.052343 0.000000
#
# Coordination Sequence:
#
# PCOD9122994 Si02
#       8
#     4   4   4   4   4   4   4   4
#     4  10  21  35  55  82 117 149 193 230 282 350
#     4  11  22  35  57  83 122 156 192 230 282 353
#     4  10  20  37  56  86 119 155 194 237 286 351
#     4  11  25  38  54  85 117 158 202 232 276 355
#     4  12  25  37  58  80 120 161 192 234 293 341
#     4  10  22  37  58  85 122 155 195 235 281 352
#     4  10  22  39  55  78 112 149 195 238 280 340
#     4  10  22  35  61  88 122 158 188 238 302 337
#
# _framework density 19.903891999999999
#
# number of rings (size 3 to 8) (size 9 to 14) (size 15 to 20)
#    0.000    1.500    2.500    2.625   10.500    0.000 
#    0.000    0.000    0.000    0.000    0.000    3.500 
#    0.000    0.000    0.000    0.000    0.000    0.000 
#
# Total GULP energy -89197.804893 kJ/mol
# GULP energy per Si atom -5574.862806 kJ/mol
# Density = 1.985859 g / cm^3
# Si number density = 19.903892 Si / 1000 Ang^3
#
#
#
# Elastic Constant Matrix: (Units=GPa)
#
#
# Indices 1 2 3 4 5 6 
#
# 1 27.8424 -6.2554 17.9166 0.0000 2.5734 0.0000
# 2 -6.2554 97.7851 14.8763 0.0000 8.9429 0.0000
# 3 17.9166 14.8763 95.9368 0.0000 7.3436 0.0000
# 4 0.0000 0.0000 0.0000 31.4208 0.0000 0.3781
# 5 2.5734 8.9429 7.3436 0.0000 18.4223 0.0000
# 6 0.0000 0.0000 0.0000 0.3781 0.0000 10.8518
#
#
#
# Elastic Compliance Matrix: (Units=1/GPa)
#
#
# Indices 1 2 3 4 5 6 
#
# 1 0.042693 0.004432 -0.008292 0.000000 -0.004810 0.000000
# 2 0.004432 0.011322 -0.002182 0.000000 -0.005245 0.000000
# 3 -0.008292 -0.002182 0.012523 0.000000 -0.002774 0.000000
# 4 0.000000 0.000000 0.000000 0.031839 0.000000 -0.001109
# 5 -0.004810 -0.005245 -0.002774 0.000000 0.058606 0.000000
# 6 0.000000 0.000000 0.000000 -0.001109 0.000000 0.092189
#
#
# Mechanical properties :
#
#
# Convention : Reuss Voigt Hill
#
# Bulk Modulus (GPa) = 18.36400 30.51547 24.43973
# Shear Modulus (GPa) = 17.89503 25.14076 21.51790
#
# Velocity S-wave (km/s) = 3.00171 3.55788 3.29156
# Velocity P-wave (km/s) = 4.61086 5.67826 5.17217
#
# Compressibility (1/GPa) = 0.05445436
#
# Stress axis : x y z
#
# Youngs Moduli (GPa) = 23.42310 88.32591 79.85420
#
# Poissons Ratio (x) = -0.39150 0.66217
# Poissons Ratio (y) = -0.10382 0.17423
# Poissons Ratio (z) = 0.19423 0.19271
#
# Static dielectric constant tensor:
#      x y z
#    x 2.087980 0.000000 0.682410 
#    y 0.000000 1.811460 0.000000 
#    z 0.682410 0.000000 2.892020 
# 
# From -- ./inp_files/47044.got.cif
#   From: 2010.05.17/outbox.cif.g08.bks.cpg/sg5_24_cif.got.tgz:47044.got - 2010.06.03 18:56:24.
