data_PCOD9122045
_publ_section_title
;
Structure prediction by ZEFSAII (Michael W. Deem and Ramdas Pophale) SiO2 
 PCOD9122045
Probable space group: C 2
;
_chemical_formula_sum "Si O2"
_cell_formula_units_Z 28
_cell_length_a 8.472717
_cell_length_b 16.978245
_cell_length_c 20.226393
_cell_angle_alpha 90.000000
_cell_angle_beta 150.620866
_cell_angle_gamma 90.000000
_cell_volume 1427.412449
_symmetry_space_group_name_H-M "C 2"
_symmetry_group_IT_number 5
_symmetry_cell_setting 'monoclinic'
loop_
_space_group_symop_operation_xyz
x,y,z
-x,y,-z
1/2+x,1/2+y,z
1/2-x,1/2+y,-z
loop_
_atom_site_type_symbol
_atom_site_label
_atom_site_fract_x
_atom_site_fract_y
_atom_site_fract_z
Si Si1 0.691977 0.261900 0.508271
Si Si2 0.408200 0.617161 0.289615
Si Si3 0.290428 0.884098 0.360742
Si Si4 0.810958 0.588608 0.657975
Si Si5 0.190134 0.670119 0.007783
Si Si6 0.390275 0.539837 0.774561
Si Si7 0.135263 0.747010 0.748855
O O1 0.500000 0.296287 0.500000
O O2 0.449196 0.242039 0.359879
O O3 0.856487 0.181341 0.592624
O O4 0.958912 0.323522 0.581376
O O5 0.290261 0.559701 0.305901
O O6 0.579141 0.581093 0.287017
O O7 0.077389 0.657232 0.144588
O O8 0.500000 0.916694 0.500000
O O9 0.991449 0.831527 0.275981
O O10 0.147433 0.949474 0.260104
O O11 0.500000 0.583535 0.500000
O O12 0.094683 0.553260 0.717063
O O13 0.915762 0.680027 0.702381
O O14 0.324015 0.584493 0.081276
O O15 0.499079 0.722651 0.103864
O O16 0.000000 0.706753 0.000000
#
# Coordination Sequence:
#
# PCOD9122045 Si02
#       7
#     4   4   4   4   4   4   4
#     4  11  20  36  63  91 120 157 204 253 303 356
#     4  11  22  38  65  91 119 161 207 252 304 356
#     4  10  22  39  57  91 127 158 196 249 313 360
#     4  11  20  35  62  93 119 153 211 252 294 359
#     4   9  20  39  62  92 119 157 208 252 298 362
#     4  10  24  38  59  89 126 161 200 248 302 364
#     4  10  19  38  60  87 123 155 200 258 293 362
#
# _framework density 19.615914
#
# number of rings (size 3 to 8) (size 9 to 14) (size 15 to 20)
#    0.000    1.714    2.857    3.000    2.000    2.857 
#    2.571    4.286    0.000    0.000    0.000    0.000 
#    0.000    0.000    0.000    0.000    0.000    0.000 
#
# Total GULP energy -78018.096948 kJ/mol
# GULP energy per Si atom -5572.721211 kJ/mol
# Density = 1.957127 g / cm^3
# Si number density = 19.615914 Si / 1000 Ang^3
#
#
#
# Elastic Constant Matrix: (Units=GPa)
#
#
# Indices 1 2 3 4 5 6 
#
# 1 108.5994 3.8258 34.8879 -0.0072 -10.1504 -0.0021
# 2 3.8258 51.6405 12.6889 -0.0089 -3.9871 -0.0026
# 3 34.8879 12.6889 61.3613 -0.0097 18.3288 -0.0027
# 4 -0.0072 -0.0089 -0.0097 13.2012 -0.0049 -9.5006
# 5 -10.1504 -3.9871 18.3288 -0.0049 25.9638 -0.0015
# 6 -0.0021 -0.0026 -0.0027 -9.5006 -0.0015 21.3466
#
#
#
# Elastic Compliance Matrix: (Units=1/GPa)
#
#
# Indices 1 2 3 4 5 6 
#
# 1 0.015294 0.003718 -0.014472 0.000011 0.016766 0.000006
# 2 0.003718 0.022612 -0.010468 0.000024 0.012316 0.000013
# 3 -0.014472 -0.010468 0.036572 -0.000001 -0.033083 -0.000001
# 4 0.000011 0.000024 -0.000001 0.111448 0.000032 0.049601
# 5 0.016766 0.012316 -0.033083 0.000032 0.070316 0.000018
# 6 0.000006 0.000013 -0.000001 0.049601 0.000018 0.068922
#
#
# Mechanical properties :
#
#
# Convention : Reuss Voigt Hill
#
# Bulk Modulus (GPa) = 31.21909 36.04513 33.63211
# Shear Modulus (GPa) = 13.21749 23.44888 18.33319
#
# Velocity S-wave (km/s) = 2.59861 3.46121 3.06045
# Velocity P-wave (km/s) = 4.99534 5.86418 5.44711
#
# Compressibility (1/GPa) = 0.03203169
#
# Stress axis : x y z
#
# Youngs Moduli (GPa) = 65.38706 44.22348 27.34323
#
# Poissons Ratio (x) = -0.16440 0.39572
# Poissons Ratio (y) = -0.24308 0.28624
# Poissons Ratio (z) = 0.94630 0.46295
#
# Static dielectric constant tensor:
#      x y z
#    x 1.772550 0.000000 -0.001410 
#    y 0.000000 1.693520 0.000010 
#    z -0.001410 0.000010 1.726840 
# 
# From -- ./inp_files/64752.got.cif
#   From: 2010.05.17/outbox.cif.g08.bks.cpg/sg5_33_cif.got.tgz:64752.got - 2010.06.03 18:56:24.
