data_PCOD9122361
_publ_section_title
;
Structure prediction by ZEFSAII (Michael W. Deem and Ramdas Pophale) SiO2 
 PCOD9122361
Probable space group: C 2
;
_chemical_formula_sum "Si O2"
_cell_formula_units_Z 20
_cell_length_a 7.830124
_cell_length_b 6.571583
_cell_length_c 19.025006
_cell_angle_alpha 90.000000
_cell_angle_beta 138.255986
_cell_angle_gamma 90.000000
_cell_volume 651.792945
_symmetry_space_group_name_H-M "C 2"
_symmetry_group_IT_number 5
_symmetry_cell_setting 'monoclinic'
loop_
_space_group_symop_operation_xyz
x,y,z
-x,y,-z
1/2+x,1/2+y,z
1/2-x,1/2+y,-z
loop_
_atom_site_type_symbol
_atom_site_label
_atom_site_fract_x
_atom_site_fract_y
_atom_site_fract_z
Si Si1 0.041121 0.361210 0.434495
Si Si2 0.402098 0.318596 0.356828
Si Si3 0.344964 0.803762 0.235028
Si Si4 0.805563 0.255698 0.852190
Si Si5 0.907794 0.837470 0.051671
O O1 0.345991 0.396080 0.526084
O O2 0.000000 0.286555 0.500000
O O3 0.915958 0.579583 0.383305
O O4 0.912275 0.231527 0.333580
O O5 0.393635 0.326919 0.270007
O O6 0.118717 0.374936 0.293144
O O7 0.148967 0.666013 0.131934
O O8 0.169175 0.007853 0.165294
O O9 0.676514 0.299354 0.887268
O O10 0.107854 0.300385 0.937430
O O11 0.000000 0.921075 0.000000
#
# Coordination Sequence:
#
# PCOD9122361 Si02
#       5
#     4   4   4   4   4
#     4  11  24  42  65  96 127 170 217 266 315 381
#     4  11  22  46  64  93 132 172 209 266 325 377
#     4   9  21  40  71  88 129 176 205 258 330 369
#     4   9  20  39  66  94 124 168 211 257 317 379
#     4  10  19  42  65  91 133 167 208 266 320 373
#
# _framework density 30.684588999999999
#
# number of rings (size 3 to 8) (size 9 to 14) (size 15 to 20)
#    1.200    0.800    2.000    1.800    0.000    3.200 
#   10.800    1.000    0.000    0.000    0.000    0.000 
#    0.000    0.000    0.000    0.000    0.000    0.000 
#
# Total GULP energy -55744.263257 kJ/mol
# GULP energy per Si atom -5574.426326 kJ/mol
# Density = 3.061475 g / cm^3
# Si number density = 30.684589 Si / 1000 Ang^3
#
#
#
# Elastic Constant Matrix: (Units=GPa)
#
#
# Indices 1 2 3 4 5 6 
#
# 1 252.7307 59.5218 95.1136 0.0000 12.2427 0.0000
# 2 59.5218 78.1286 66.2473 0.0000 11.9830 0.0000
# 3 95.1136 66.2473 289.1896 0.0000 21.5800 0.0000
# 4 0.0000 0.0000 0.0000 2.5686 0.0000 -18.8315
# 5 12.2427 11.9830 21.5800 0.0000 72.7495 0.0000
# 6 0.0000 0.0000 0.0000 -18.8315 0.0000 2.3608
#
#
#
# Elastic Compliance Matrix: (Units=1/GPa)
#
#
# Indices 1 2 3 4 5 6 
#
# 1 0.005030 -0.003007 -0.000960 0.000000 -0.000066 0.000000
# 2 -0.003007 0.017861 -0.002987 0.000000 -0.001550 0.000000
# 3 -0.000960 -0.002987 0.004509 0.000000 -0.000684 0.000000
# 4 0.000000 0.000000 0.000000 -0.006773 0.000000 -0.054026
# 5 -0.000066 -0.001550 -0.000684 0.000000 0.014215 0.000000
# 6 0.000000 0.000000 0.000000 -0.054026 0.000000 -0.007369
#
#
# Mechanical properties :
#
#
# Convention : Reuss Voigt Hill
#
# Bulk Modulus (GPa) = 74.12602 117.97935 96.05269
# Shear Modulus (GPa) = 108.98391 42.14686 75.56538
#
# Velocity S-wave (km/s) = 5.96612 3.71017 4.96789
# Velocity P-wave (km/s) = 8.46577 7.54230 8.01734
#
# Compressibility (1/GPa) = 0.01349054
#
# Stress axis : x y z
#
# Youngs Moduli (GPa) = 198.81905 55.98843 221.77588
#
# Poissons Ratio (x) = 0.16838 0.21299
# Poissons Ratio (y) = 0.59792 0.66240
# Poissons Ratio (z) = 0.19094 0.16723
#
# Static dielectric constant tensor:
#      x y z
#    x 2.416400 0.000000 -0.010410 
#    y 0.000000 3.018060 0.000000 
#    z -0.010410 0.000000 2.289930 
# 
# From -- ./inp_files/64352.got.cif
#   From: 2010.05.17/outbox.cif.g08.bks.cpg/sg5_33_cif.got.tgz:64352.got - 2010.06.03 18:56:24.
