data_PCOD9122722
_publ_section_title
;
Structure prediction by ZEFSAII (Michael W. Deem and Ramdas Pophale) SiO2 
 PCOD9122722
Probable space group: C 2
;
_chemical_formula_sum "Si O2"
_cell_formula_units_Z 20
_cell_length_a 18.822407
_cell_length_b 5.403996
_cell_length_c 7.701590
_cell_angle_alpha 90.000000
_cell_angle_beta 79.407276
_cell_angle_gamma 90.000000
_cell_volume 770.026808
_symmetry_space_group_name_H-M "C 2"
_symmetry_group_IT_number 5
_symmetry_cell_setting 'monoclinic'
loop_
_space_group_symop_operation_xyz
x,y,z
-x,y,-z
1/2+x,1/2+y,z
1/2-x,1/2+y,-z
loop_
_atom_site_type_symbol
_atom_site_label
_atom_site_fract_x
_atom_site_fract_y
_atom_site_fract_z
Si Si1 0.866280 0.394720 0.694343
Si Si2 0.068150 0.046385 0.843408
Si Si3 0.018466 0.541011 0.787988
Si Si4 0.686154 0.389558 0.427999
Si Si5 0.722491 0.561088 0.799923
O O1 0.943967 0.454468 0.736360
O O2 0.853132 0.626535 0.572518
O O3 0.794085 0.435530 0.847805
O O4 0.858621 0.121938 0.621307
O O5 0.143424 0.020560 0.913865
O O6 0.049919 0.811328 0.732046
O O7 0.071769 0.308790 0.744854
O O8 0.000000 0.071657 0.000000
O O9 0.000000 0.570806 0.000000
O O10 0.711159 0.436457 0.612625
O O11 0.753697 0.337935 0.266505
#
# Coordination Sequence:
#
# PCOD9122722 Si02
#       5
#     4   4   4   4   4
#     4  10  20  37  62  91 122 156 210 251 303 369
#     4  10  23  40  61  87 125 166 204 252 318 360
#     4  10  22  42  59  84 129 166 203 254 306 374
#     4  10  20  35  64  94 118 155 209 254 305 353
#     4  10  21  38  66  90 123 160 205 259 300 372
#
# _framework density 25.973120000000002
#
# number of rings (size 3 to 8) (size 9 to 14) (size 15 to 20)
#    1.200    0.800    2.000    1.200    2.800    0.000 
#    0.000   14.000    0.000    0.000    0.000    0.000 
#    0.000    0.000    0.000    0.000    0.000    0.000 
#
# Total GULP energy -55804.160394 kJ/mol
# GULP energy per Si atom -5580.416039 kJ/mol
# Density = 2.591400 g / cm^3
# Si number density = 25.973120 Si / 1000 Ang^3
#
#
#
# Elastic Constant Matrix: (Units=GPa)
#
#
# Indices 1 2 3 4 5 6 
#
# 1 99.2354 27.8049 2.5893 0.0000 1.4996 0.0000
# 2 27.8049 215.0214 11.9704 0.0000 17.8892 0.0000
# 3 2.5893 11.9704 50.9475 0.0000 -12.7695 0.0000
# 4 0.0000 0.0000 0.0000 15.1124 0.0000 11.9571
# 5 1.4996 17.8892 -12.7695 0.0000 49.8240 0.0000
# 6 0.0000 0.0000 0.0000 11.9571 0.0000 84.2044
#
#
#
# Elastic Compliance Matrix: (Units=1/GPa)
#
#
# Indices 1 2 3 4 5 6 
#
# 1 0.010459 -0.001353 -0.000183 0.000000 0.000124 0.000000
# 2 -0.001353 0.005105 -0.001688 0.000000 -0.002225 0.000000
# 3 -0.000183 -0.001688 0.021573 0.000000 0.006141 0.000000
# 4 0.000000 0.000000 0.000000 0.074546 0.000000 -0.010586
# 5 0.000124 -0.002225 0.006141 0.000000 0.022440 0.000000
# 6 0.000000 0.000000 0.000000 -0.010586 0.000000 0.013379
#
#
# Mechanical properties :
#
#
# Convention : Reuss Voigt Hill
#
# Bulk Modulus (GPa) = 32.58431 49.99264 41.28847
# Shear Modulus (GPa) = 30.45465 51.35080 40.90273
#
# Velocity S-wave (km/s) = 3.42796 4.45125 3.97269
# Velocity P-wave (km/s) = 5.31418 6.76076 6.08064
#
# Compressibility (1/GPa) = 0.03068962
#
# Stress axis : x y z
#
# Youngs Moduli (GPa) = 95.61207 195.89803 46.35405
#
# Poissons Ratio (x) = 0.26498 0.00847
# Poissons Ratio (y) = 0.12933 0.07826
# Poissons Ratio (z) = 0.01747 0.33073
#
# Static dielectric constant tensor:
#      x y z
#    x 1.780940 0.000000 0.191200 
#    y 0.000000 2.073400 0.000000 
#    z 0.191200 0.000000 1.883440 
# 
# From -- ./inp_files/41029.got.cif
#   From: 2010.05.17/outbox.cif.g08.bks.cpg/sg5_21_cif.got.tgz:41029.got - 2010.06.03 18:56:24.
