data_PCOD9122055
_publ_section_title
;
Structure prediction by ZEFSAII (Michael W. Deem and Ramdas Pophale) SiO2 
 PCOD9122055
Probable space group: C 2
;
_chemical_formula_sum "Si O2"
_cell_formula_units_Z 28
_cell_length_a 29.369071
_cell_length_b 8.461533
_cell_length_c 7.803916
_cell_angle_alpha 90.000000
_cell_angle_beta 47.974531
_cell_angle_gamma 90.000000
_cell_volume 1440.626515
_symmetry_space_group_name_H-M "C 2"
_symmetry_group_IT_number 5
_symmetry_cell_setting 'monoclinic'
loop_
_space_group_symop_operation_xyz
x,y,z
-x,y,-z
1/2+x,1/2+y,z
1/2-x,1/2+y,-z
loop_
_atom_site_type_symbol
_atom_site_label
_atom_site_fract_x
_atom_site_fract_y
_atom_site_fract_z
Si Si1 0.829046 0.066750 0.221615
Si Si2 0.752549 0.627248 0.235572
Si Si3 0.561862 0.771104 0.918421
Si Si4 0.628236 0.206142 0.897459
Si Si5 0.250999 0.987290 0.889988
Si Si6 0.117001 0.536894 0.564828
Si Si7 0.991022 0.554159 0.715593
O O1 0.785957 0.104894 0.493417
O O2 0.890358 0.168835 0.094175
O O3 0.790781 0.083833 0.141203
O O4 0.848804 0.884211 0.172275
O O5 0.823444 0.606645 0.111515
O O6 0.748703 0.805376 0.171332
O O7 0.731544 0.513454 0.134945
O O8 0.599408 0.858803 0.671373
O O9 0.500000 0.689875 0.000000
O O10 0.535567 0.913203 0.101012
O O11 0.628483 0.133677 0.708139
O O12 0.560255 0.189282 0.143915
O O13 0.321432 0.041915 0.698461
O O14 0.056768 0.601624 0.623930
O O15 0.000000 0.499915 0.500000
#
# Coordination Sequence:
#
# PCOD9122055 Si02
#       7
#     4   4   4   4   4   4   4
#     4  11  23  42  62  90 130 158 199 257 315 361
#     4  11  24  39  61  94 126 162 206 252 309 366
#     4   9  20  39  63  85 115 161 208 246 304 358
#     4  10  22  38  61  89 121 164 199 251 312 360
#     4  11  24  38  64  94 122 164 206 253 306 367
#     4  10  19  38  61  85 117 162 207 244 298 361
#     4  10  21  38  61  89 118 160 211 253 294 363
#
# _framework density 19.435987999999998
#
# number of rings (size 3 to 8) (size 9 to 14) (size 15 to 20)
#    0.000    1.714    2.857    2.143    2.000    4.571 
#    0.000    0.714    0.000    0.000    0.000    0.000 
#    0.000    0.000    0.000    0.000    0.000    0.000 
#
# Total GULP energy -78121.221617 kJ/mol
# GULP energy per Si atom -5580.087258 kJ/mol
# Density = 1.939175 g / cm^3
# Si number density = 19.435988 Si / 1000 Ang^3
#
#
#
# Elastic Constant Matrix: (Units=GPa)
#
#
# Indices 1 2 3 4 5 6 
#
# 1 148.9452 24.9003 39.6299 0.0000 -12.8809 0.0000
# 2 24.9003 30.3875 -5.6018 0.0000 -10.5647 0.0000
# 3 39.6299 -5.6018 33.9667 0.0000 -6.3473 0.0000
# 4 0.0000 0.0000 0.0000 14.6933 0.0000 0.5561
# 5 -12.8809 -10.5647 -6.3473 0.0000 40.5454 0.0000
# 6 0.0000 0.0000 0.0000 0.5561 0.0000 28.0132
#
#
#
# Elastic Compliance Matrix: (Units=1/GPa)
#
#
# Indices 1 2 3 4 5 6 
#
# 1 0.014751 -0.016894 -0.020544 0.000000 -0.002932 0.000000
# 2 -0.016894 0.057753 0.031980 0.000000 0.014688 0.000000
# 3 -0.020544 0.031980 0.060800 0.000000 0.011324 0.000000
# 4 0.000000 0.000000 0.000000 0.068109 0.000000 -0.001352
# 5 -0.002932 0.014688 0.011324 0.000000 0.029332 0.000000
# 6 0.000000 0.000000 0.000000 -0.001352 0.000000 0.035724
#
#
# Mechanical properties :
#
#
# Convention : Reuss Voigt Hill
#
# Bulk Modulus (GPa) = 8.17077 36.79515 22.48296
# Shear Modulus (GPa) = 15.71429 26.94178 21.32803
#
# Velocity S-wave (km/s) = 2.84653 3.72718 3.31622
# Velocity P-wave (km/s) = 3.87513 6.12332 5.12405
#
# Compressibility (1/GPa) = 0.12238751
#
# Stress axis : x y z
#
# Youngs Moduli (GPa) = 67.79323 17.31512 16.44735
#
# Poissons Ratio (x) = 0.29251 0.33790
# Poissons Ratio (y) = 1.14527 -0.52598
# Poissons Ratio (z) = 1.39275 -0.55373
#
# Static dielectric constant tensor:
#      x y z
#    x 1.713110 0.000000 -0.021400 
#    y 0.000000 1.686770 0.000000 
#    z -0.021400 0.000000 1.691710 
# 
# From -- ./inp_files/32479.got.cif
#   From: 2010.05.17/outbox.cif.g08.bks.cpg/sg5_17_cif.got.tgz:32479.got - 2010.06.03 18:56:24.
