data_PCOD9122070
_publ_section_title
;
Structure prediction by ZEFSAII (Michael W. Deem and Ramdas Pophale) SiO2 
 PCOD9122070
Probable space group: C 2
;
_chemical_formula_sum "Si O2"
_cell_formula_units_Z 28
_cell_length_a 30.390316
_cell_length_b 6.285922
_cell_length_c 6.895433
_cell_angle_alpha 90.000000
_cell_angle_beta 66.188388
_cell_angle_gamma 90.000000
_cell_volume 1205.116038
_symmetry_space_group_name_H-M "C 2"
_symmetry_group_IT_number 5
_symmetry_cell_setting 'monoclinic'
loop_
_space_group_symop_operation_xyz
x,y,z
-x,y,-z
1/2+x,1/2+y,z
1/2-x,1/2+y,-z
loop_
_atom_site_type_symbol
_atom_site_label
_atom_site_fract_x
_atom_site_fract_y
_atom_site_fract_z
Si Si1 0.589882 0.174750 0.871941
Si Si2 0.686999 0.331528 0.734751
Si Si3 0.500000 0.187383 0.500000
Si Si4 0.455433 0.543920 0.828241
Si Si5 0.306367 0.061945 0.910721
Si Si6 0.500000 0.904036 0.000000
Si Si7 0.734488 0.723479 0.715857
Si Si8 0.592040 0.911796 0.267722
O O1 0.643389 0.215387 0.700810
O O2 0.544725 0.052684 0.860923
O O3 0.574294 0.414058 0.959294
O O4 0.596964 0.023555 0.047496
O O5 0.688359 0.586108 0.735886
O O6 0.735384 0.279415 0.529407
O O7 0.684333 0.267584 0.967885
O O8 0.488517 0.355946 0.689128
O O9 0.547027 0.040766 0.435452
O O10 0.485193 0.741393 0.857797
O O11 0.421348 0.663432 0.733203
O O12 0.283486 0.913525 0.117703
O O13 0.355667 0.960842 0.740908
O O14 0.269875 0.098848 0.800502
#
# Coordination Sequence:
#
# PCOD9122070 Si02
#       8
#     4   4   2   4   4   2   4   4
#     4   9  20  38  62  88 128 169 210 264 325 382
#     4  11  23  42  67  97 132 171 219 277 334 388
#     4  10  20  38  62  90 128 168 210 256 318 386
#     4  10  19  38  62  88 124 174 206 257 322 380
#     4  11  23  42  67  97 132 171 219 277 334 388
#     4  10  20  38  62  90 128 168 210 256 318 386
#     4  12  23  42  70  96 130 172 222 273 334 398
#     4   9  20  38  62  88 128 169 210 264 325 382
#
# _framework density 23.234279000000001
#
# number of rings (size 3 to 8) (size 9 to 14) (size 15 to 20)
#    0.000    1.714    2.857    1.714    0.000    0.000 
#   12.857    0.000    0.000    0.000    0.000    0.000 
#    0.000    0.000    0.000    0.000    0.000    0.000 
#
# Total GULP energy -78057.474541 kJ/mol
# GULP energy per Si atom -5575.533896 kJ/mol
# Density = 2.318140 g / cm^3
# Si number density = 23.234279 Si / 1000 Ang^3
#
#
#
# Elastic Constant Matrix: (Units=GPa)
#
#
# Indices 1 2 3 4 5 6 
#
# 1 54.9579 10.8852 6.1453 0.0000 -15.6451 0.0000
# 2 10.8852 88.0628 5.6372 0.0000 -8.1835 0.0000
# 3 6.1453 5.6372 62.5046 0.0000 -10.3634 0.0000
# 4 0.0000 0.0000 0.0000 18.2438 0.0000 -0.1214
# 5 -15.6451 -8.1835 -10.3634 0.0000 34.5773 0.0000
# 6 0.0000 0.0000 0.0000 -0.1214 0.0000 25.7811
#
#
#
# Elastic Compliance Matrix: (Units=1/GPa)
#
#
# Indices 1 2 3 4 5 6 
#
# 1 0.021161 -0.001749 -0.000425 0.000000 0.009033 0.000000
# 2 -0.001749 0.011779 -0.000589 0.000000 0.001820 0.000000
# 3 -0.000425 -0.000589 0.016877 0.000000 0.004727 0.000000
# 4 0.000000 0.000000 0.000000 0.054815 0.000000 0.000258
# 5 0.009033 0.001820 0.004727 0.000000 0.034855 0.000000
# 6 0.000000 0.000000 0.000000 0.000258 0.000000 0.038789
#
#
# Mechanical properties :
#
#
# Convention : Reuss Voigt Hill
#
# Bulk Modulus (GPa) = 22.57745 27.87338 25.22542
# Shear Modulus (GPa) = 25.18054 27.91095 26.54574
#
# Velocity S-wave (km/s) = 3.29563 3.46971 3.38379
# Velocity P-wave (km/s) = 4.92138 5.29855 5.11344
#
# Compressibility (1/GPa) = 0.04429199
#
# Stress axis : x y z
#
# Youngs Moduli (GPa) = 47.25610 84.90027 59.25081
#
# Poissons Ratio (x) = 0.14849 0.02518
# Poissons Ratio (y) = 0.08265 0.03487
# Poissons Ratio (z) = 0.02008 0.04997
#
# Static dielectric constant tensor:
#      x y z
#    x 2.024290 0.000000 0.023270 
#    y 0.000000 1.901260 0.000000 
#    z 0.023270 0.000000 1.920260 
# 
# From -- ./inp_files/31413.got.cif
#   From: 2010.05.17/outbox.cif.g08.bks.cpg/sg5_16_cif.got.tgz:31413.got - 2010.06.03 18:56:24.
