data_PCOD9122312
_publ_section_title
;
Structure prediction by ZEFSAII (Michael W. Deem and Ramdas Pophale) SiO2 
 PCOD9122312
Probable space group: C 2
;
_chemical_formula_sum "Si O2"
_cell_formula_units_Z 18
_cell_length_a 9.296819
_cell_length_b 17.033105
_cell_length_c 7.846875
_cell_angle_alpha 90.000000
_cell_angle_beta 131.776722
_cell_angle_gamma 90.000000
_cell_volume 926.651205
_symmetry_space_group_name_H-M "C 2"
_symmetry_group_IT_number 5
_symmetry_cell_setting 'monoclinic'
loop_
_space_group_symop_operation_xyz
x,y,z
-x,y,-z
1/2+x,1/2+y,z
1/2-x,1/2+y,-z
loop_
_atom_site_type_symbol
_atom_site_label
_atom_site_fract_x
_atom_site_fract_y
_atom_site_fract_z
Si Si1 0.057937 0.814750 0.865703
Si Si2 0.663618 0.447156 0.485977
Si Si3 0.786196 0.061131 0.761242
Si Si4 0.000000 0.702349 0.500000
Si Si5 0.427228 0.909184 0.254242
O O1 0.010665 0.758385 0.672239
O O2 0.922484 0.890334 0.727642
O O3 0.272907 0.850060 0.051850
O O4 0.000000 0.777758 0.000000
O O5 0.500000 0.449408 0.500000
O O6 0.698964 0.528477 0.418967
O O7 0.877303 0.417587 0.702194
O O8 0.677738 0.143124 0.664869
O O9 0.670892 0.994638 0.781507
O O10 0.000000 0.068820 0.000000
O O11 0.500000 0.882098 0.500000
#
# Coordination Sequence:
#
# PCOD9122312 Si02
#       5
#     4   4   4   2   4
#     4  12  23  45  70 105 141 181 233 294 344 415
#     4  11  21  40  73 104 132 183 246 275 332 432
#     4  11  21  46  69  96 141 188 224 288 349 408
#     4  12  28  44  68 108 150 172 230 302 360 388
#     4  10  19  40  78  94 129 189 235 274 338 417
#
# _framework density 19.424785
#
# number of rings (size 3 to 8) (size 9 to 14) (size 15 to 20)
#    0.000    0.889   11.111    0.000    0.000    2.667 
#    4.000    0.000    0.000    0.000    0.000    0.000 
#    0.000    0.000    0.000    0.000    0.000    0.000 
#
# Total GULP energy -50209.964085 kJ/mol
# GULP energy per Si atom -5578.884898 kJ/mol
# Density = 1.938057 g / cm^3
# Si number density = 19.424785 Si / 1000 Ang^3
#
#
#
# Elastic Constant Matrix: (Units=GPa)
#
#
# Indices 1 2 3 4 5 6 
#
# 1 133.3659 21.6075 41.7527 0.0000 14.3446 0.0000
# 2 21.6075 60.1013 25.5447 0.0000 -5.5766 0.0000
# 3 41.7527 25.5447 108.8507 0.0000 23.5587 0.0000
# 4 0.0000 0.0000 0.0000 34.6936 0.0000 4.2959
# 5 14.3446 -5.5766 23.5587 0.0000 49.3910 0.0000
# 6 0.0000 0.0000 0.0000 4.2959 0.0000 9.7234
#
#
#
# Elastic Compliance Matrix: (Units=1/GPa)
#
#
# Indices 1 2 3 4 5 6 
#
# 1 0.008822 -0.002259 -0.002503 0.000000 -0.001624 0.000000
# 2 -0.002259 0.020063 -0.004989 0.000000 0.005301 0.000000
# 3 -0.002503 -0.004989 0.012581 0.000000 -0.005837 0.000000
# 4 0.000000 0.000000 0.000000 0.030492 0.000000 -0.013472
# 5 -0.001624 0.005301 -0.005837 0.000000 0.024101 0.000000
# 6 0.000000 0.000000 0.000000 -0.013472 0.000000 0.108797
#
#
# Mechanical properties :
#
#
# Convention : Reuss Voigt Hill
#
# Bulk Modulus (GPa) = 45.52629 53.34751 49.43690
# Shear Modulus (GPa) = 21.58159 32.98914 27.28537
#
# Velocity S-wave (km/s) = 3.33683 4.12552 3.75196
# Velocity P-wave (km/s) = 6.19145 7.08636 6.65396
#
# Compressibility (1/GPa) = 0.02196533
#
# Stress axis : x y z
#
# Youngs Moduli (GPa) = 113.35020 49.84282 79.48439
#
# Poissons Ratio (x) = 0.11258 0.19891
# Poissons Ratio (y) = 0.25603 0.39657
# Poissons Ratio (z) = 0.28366 0.24868
#
# Static dielectric constant tensor:
#      x y z
#    x 1.799160 0.000000 0.016920 
#    y 0.000000 1.645690 0.000000 
#    z 0.016920 0.000000 1.695780 
# 
# From -- ./inp_files/15576.got.cif
#   From: 2010.05.17/outbox.cif.g08.bks.cpg/sg5_8_cif.got.tgz:15576.got - 2010.06.03 18:56:24.
