data_PCOD9122614
_publ_section_title
;
Structure prediction by ZEFSAII (Michael W. Deem and Ramdas Pophale) SiO2 
 PCOD9122614
Probable space group: C 2
;
_chemical_formula_sum "Si O2"
_cell_formula_units_Z 28
_cell_length_a 14.409570
_cell_length_b 5.398446
_cell_length_c 17.400134
_cell_angle_alpha 90.000000
_cell_angle_beta 67.274421
_cell_angle_gamma 90.000000
_cell_volume 1248.462571
_symmetry_space_group_name_H-M "C 2"
_symmetry_group_IT_number 5
_symmetry_cell_setting 'monoclinic'
loop_
_space_group_symop_operation_xyz
x,y,z
-x,y,-z
1/2+x,1/2+y,z
1/2-x,1/2+y,-z
loop_
_atom_site_type_symbol
_atom_site_label
_atom_site_fract_x
_atom_site_fract_y
_atom_site_fract_z
Si Si1 0.069853 0.620610 0.320654
Si Si2 0.000000 0.603002 0.000000
Si Si3 0.000000 0.835107 0.500000
Si Si4 0.992677 0.356205 0.866821
Si Si5 0.460529 0.620653 0.299581
Si Si6 0.181976 0.665983 0.146367
Si Si7 0.688916 0.545153 0.531057
Si Si8 0.846151 0.985538 0.979598
O O1 0.176627 0.649484 0.240405
O O2 0.055793 0.673142 0.416021
O O3 0.022299 0.349705 0.318557
O O4 0.009396 0.856689 0.304194
O O5 0.939083 0.477846 0.090573
O O6 0.080523 0.771310 0.017060
O O7 0.911300 0.995247 0.488312
O O8 0.926909 0.547173 0.838999
O O9 0.039490 0.170150 0.791293
O O10 0.913434 0.226214 0.949141
O O11 0.351419 0.617902 0.371996
O O12 0.187732 0.923357 0.097097
O O13 0.262951 0.513106 0.071380
O O14 0.747383 0.283108 0.516243
#
# Coordination Sequence:
#
# PCOD9122614 Si02
#       8
#     4   2   2   4   4   4   4   4
#     4  10  21  39  68 102 128 176 222 276 346 401
#     4  10  24  36  56  86 128 168 214 262 346 384
#     4  10  24  46  76 104 146 182 228 298 344 412
#     4  10  20  38  60  87 125 173 212 264 335 398
#     4  10  21  40  70  95 131 174 224 270 337 418
#     4  10  20  34  65  94 118 168 223 271 323 393
#     4  11  24  44  74 106 137 181 231 284 354 415
#     4  11  19  37  61  87 124 165 214 276 319 391
#
# _framework density 22.427585000000001
#
# number of rings (size 3 to 8) (size 9 to 14) (size 15 to 20)
#    0.000    1.714    2.857    2.143    0.000    5.143 
#    0.000    2.857    9.429    0.000    0.000    0.000 
#    0.000    0.000    0.000    0.000    0.000    0.000 
#
# Total GULP energy -77968.622069 kJ/mol
# GULP energy per Si atom -5569.187291 kJ/mol
# Density = 2.237654 g / cm^3
# Si number density = 22.427585 Si / 1000 Ang^3
#
#
#
# Elastic Constant Matrix: (Units=GPa)
#
#
# Indices 1 2 3 4 5 6 
#
# 1 42.7966 8.0108 19.2471 -0.0003 0.0574 0.0002
# 2 8.0108 76.6518 19.2046 -0.0001 -1.6116 0.0003
# 3 19.2471 19.2046 185.8408 0.0002 -5.2204 -0.0008
# 4 -0.0003 -0.0001 0.0002 25.9816 -0.0001 21.3723
# 5 0.0574 -1.6116 -5.2204 -0.0001 27.6540 0.0001
# 6 0.0002 0.0003 -0.0008 21.3723 0.0001 -4.1878
#
#
#
# Elastic Compliance Matrix: (Units=1/GPa)
#
#
# Indices 1 2 3 4 5 6 
#
# 1 0.024814 -0.002010 -0.002380 0.000000 -0.000618 0.000001
# 2 -0.002010 0.013563 -0.001177 0.000000 0.000572 0.000000
# 3 -0.002380 -0.001177 0.005778 0.000000 0.001027 0.000000
# 4 0.000000 0.000000 0.000000 0.007404 0.000000 0.037788
# 5 -0.000618 0.000572 0.001027 0.000000 0.036390 0.000000
# 6 0.000001 0.000000 0.000000 0.037788 0.000000 -0.045938
#
#
# Mechanical properties :
#
#
# Convention : Reuss Voigt Hill
#
# Bulk Modulus (GPa) = 30.28403 44.24601 37.26502
# Shear Modulus (GPa) = 77.94085 27.14470 52.54277
#
# Velocity S-wave (km/s) = 5.90150 3.48275 4.84547
# Velocity P-wave (km/s) = 7.74398 5.99533 6.92507
#
# Compressibility (1/GPa) = 0.03302070
#
# Stress axis : x y z
#
# Youngs Moduli (GPa) = 40.30057 73.72950 173.07304
#
# Poissons Ratio (x) = 0.14820 0.41183
# Poissons Ratio (y) = 0.08101 0.20377
# Poissons Ratio (z) = 0.09590 0.08680
#
# Static dielectric constant tensor:
#      x y z
#    x 1.984640 0.000000 0.057260 
#    y 0.000000 1.948770 0.000000 
#    z 0.057260 0.000000 1.938690 
# 
# From -- ./inp_files/61059.got.cif
#   From: 2010.05.17/outbox.cif.g08.bks.cpg/sg5_31_cif.got.tgz:61059.got - 2010.06.03 18:56:24.
