data_PCOD9122359
_publ_section_title
;
Structure prediction by ZEFSAII (Michael W. Deem and Ramdas Pophale) SiO2 
 PCOD9122359
Probable space group: C 2
;
_chemical_formula_sum "Si O2"
_cell_formula_units_Z 30
_cell_length_a 14.706612
_cell_length_b 15.527101
_cell_length_c 15.041463
_cell_angle_alpha 90.000000
_cell_angle_beta 21.004421
_cell_angle_gamma 90.000000
_cell_volume 1231.145954
_symmetry_space_group_name_H-M "C 2"
_symmetry_group_IT_number 5
_symmetry_cell_setting 'monoclinic'
loop_
_space_group_symop_operation_xyz
x,y,z
-x,y,-z
1/2+x,1/2+y,z
1/2-x,1/2+y,-z
loop_
_atom_site_type_symbol
_atom_site_label
_atom_site_fract_x
_atom_site_fract_y
_atom_site_fract_z
Si Si1 0.183959 0.679820 0.004320
Si Si2 0.881927 0.157357 0.257380
Si Si3 0.000000 0.652692 0.000000
Si Si4 0.584803 0.471749 0.020530
Si Si5 0.979130 0.335299 0.160768
Si Si6 0.732827 0.505154 0.349684
Si Si7 0.444262 0.339220 0.299696
Si Si8 0.439609 0.041114 0.335413
O O1 0.965526 0.745518 0.234491
O O2 0.193083 0.696682 0.891488
O O3 0.120134 0.583652 0.095994
O O4 0.440967 0.691665 0.823669
O O5 0.002985 0.072635 0.102414
O O6 0.877654 0.246670 0.207511
O O7 0.633547 0.115868 0.528191
O O8 0.832459 0.593033 0.216132
O O9 0.451582 0.413020 0.217158
O O10 0.500000 0.442433 0.000000
O O11 0.884681 0.473569 0.772079
O O12 0.921068 0.425549 0.167688
O O13 0.791061 0.342747 0.418918
O O14 0.281030 0.339990 0.901956
O O15 0.500000 0.481255 0.500000
O O16 0.705140 0.518375 0.482799
#
# Coordination Sequence:
#
# PCOD9122359 Si02
#       8
#     4   4   2   4   4   4   4   4
#     4   9  20  37  66  94 129 170 220 271 341 393
#     4  10  21  42  66  90 127 181 226 274 329 401
#     4  10  22  38  62 102 134 168 214 282 340 412
#     4  11  25  41  66  97 135 178 228 278 336 401
#     4  11  24  44  72  97 135 180 227 277 339 401
#     4  11  23  38  64 100 132 173 217 276 339 404
#     4  11  23  45  70 100 133 180 226 280 339 400
#     4  10  19  42  65  90 129 176 219 274 331 401
#
# _framework density 24.367540000000002
#
# number of rings (size 3 to 8) (size 9 to 14) (size 15 to 20)
#    0.000    1.600    2.667    1.600    2.800    0.533 
#    3.600    0.000    0.000    0.000    0.000    0.000 
#    0.000    0.000    0.000    0.000    0.000    0.000 
#
# Total GULP energy -83551.015069 kJ/mol
# GULP energy per Si atom -5570.067671 kJ/mol
# Density = 2.431208 g / cm^3
# Si number density = 24.367540 Si / 1000 Ang^3
#
#
#
# Elastic Constant Matrix: (Units=GPa)
#
#
# Indices 1 2 3 4 5 6 
#
# 1 110.1164 -4.6324 35.0552 0.0190 0.2633 -0.0163
# 2 -4.6324 68.7746 -0.5960 0.0725 7.1734 -0.0281
# 3 35.0552 -0.5960 75.4561 0.1526 -0.7658 0.0266
# 4 0.0190 0.0725 0.1526 38.5076 0.0001 8.9788
# 5 0.2633 7.1734 -0.7658 0.0001 27.9067 0.0020
# 6 -0.0163 -0.0281 0.0266 8.9788 0.0020 -16.1060
#
#
#
# Elastic Compliance Matrix: (Units=1/GPa)
#
#
# Indices 1 2 3 4 5 6 
#
# 1 0.010694 0.000721 -0.004967 0.000016 -0.000423 -0.000012
# 2 0.000721 0.014990 -0.000256 -0.000019 -0.003867 -0.000038
# 3 -0.004967 -0.000256 0.015564 -0.000058 0.000540 -0.000001
# 4 0.000016 -0.000019 -0.000058 0.022982 0.000002 0.012812
# 5 -0.000423 -0.003867 0.000540 0.000002 0.036847 0.000014
# 6 -0.000012 -0.000038 -0.000001 0.012812 0.000014 -0.054946
#
#
# Mechanical properties :
#
#
# Convention : Reuss Voigt Hill
#
# Bulk Modulus (GPa) = 31.01267 34.88896 32.95082
# Shear Modulus (GPa) = 75.89506 25.02968 50.46237
#
# Velocity S-wave (km/s) = 5.58691 3.20843 4.55563
# Velocity P-wave (km/s) = 7.37379 5.29851 6.42055
#
# Compressibility (1/GPa) = 0.03224488
#
# Stress axis : x y z
#
# Youngs Moduli (GPa) = 93.51232 66.71130 64.25195
#
# Poissons Ratio (x) = -0.04812 0.31912
# Poissons Ratio (y) = -0.06745 0.01644
# Poissons Ratio (z) = 0.46445 0.01707
#
# Static dielectric constant tensor:
#      x y z
#    x 2.124720 0.000000 -0.057500 
#    y 0.000000 2.105790 0.000050 
#    z -0.057500 0.000050 1.995290 
# 
# From -- ./inp_files/61860.got.cif
#   From: 2010.05.17/outbox.cif.g08.bks.cpg/sg5_31_cif.got.tgz:61860.got - 2010.06.03 18:56:24.
