data_PCOD9122436
_publ_section_title
;
Structure prediction by ZEFSAII (Michael W. Deem and Ramdas Pophale) SiO2 
 PCOD9122436
Probable space group: C 2
;
_chemical_formula_sum "Si O2"
_cell_formula_units_Z 22
_cell_length_a 20.410509
_cell_length_b 9.027157
_cell_length_c 5.598701
_cell_angle_alpha 90.000000
_cell_angle_beta 66.585682
_cell_angle_gamma 90.000000
_cell_volume 946.611349
_symmetry_space_group_name_H-M "C 2"
_symmetry_group_IT_number 5
_symmetry_cell_setting 'monoclinic'
loop_
_space_group_symop_operation_xyz
x,y,z
-x,y,-z
1/2+x,1/2+y,z
1/2-x,1/2+y,-z
loop_
_atom_site_type_symbol
_atom_site_label
_atom_site_fract_x
_atom_site_fract_y
_atom_site_fract_z
Si Si1 0.476419 0.997760 0.288716
Si Si2 0.000000 0.786089 0.500000
Si Si3 0.625713 0.427898 0.589397
Si Si4 0.297157 0.619640 0.224616
Si Si5 0.658238 0.129764 0.726504
Si Si6 0.767385 0.417826 0.054862
O O1 0.500000 0.918427 0.500000
O O2 0.513315 0.161300 0.273832
O O3 0.392495 0.033918 0.377105
O O4 0.500000 0.934701 0.000000
O O5 0.936816 0.890298 0.502898
O O6 0.631490 0.576480 0.737251
O O7 0.624256 0.291354 0.777661
O O8 0.698702 0.422764 0.330131
O O9 0.236028 0.657817 0.502721
O O10 0.299835 0.753981 0.033491
O O11 0.264743 0.474445 0.144427
O O12 0.673753 0.035684 0.939676
#
# Coordination Sequence:
#
# PCOD9122436 Si02
#       6
#     4   2   4   4   4   4
#     4   9  19  32  55  87 114 148 189 235 285 337
#     4   8  18  32  54  80 110 150 184 240 274 344
#     4   9  18  35  53  81 104 141 189 231 288 332
#     4  10  20  33  52  82 109 145 187 231 290 337
#     4   9  19  34  55  78 111 139 185 234 284 333
#     4  10  20  32  55  78 108 143 185 237 285 340
#
# _framework density 23.240797000000001
#
# number of rings (size 3 to 8) (size 9 to 14) (size 15 to 20)
#    0.545    2.182    0.000    1.091    2.545    4.364 
#    0.000    0.000    2.000    0.000    0.000    0.000 
#    0.000    0.000    0.000    0.000    0.000    0.000 
#
# Total GULP energy -61254.074051 kJ/mol
# GULP energy per Si atom -5568.552186 kJ/mol
# Density = 2.318790 g / cm^3
# Si number density = 23.240797 Si / 1000 Ang^3
#
#
#
# Elastic Constant Matrix: (Units=GPa)
#
#
# Indices 1 2 3 4 5 6 
#
# 1 116.7742 20.0475 7.8123 0.0000 31.5184 0.0000
# 2 20.0475 41.7103 3.6889 0.0000 6.8051 0.0000
# 3 7.8123 3.6889 58.0588 0.0000 16.4966 0.0000
# 4 0.0000 0.0000 0.0000 17.0268 0.0000 14.5340
# 5 31.5184 6.8051 16.4966 0.0000 34.0121 0.0000
# 6 0.0000 0.0000 0.0000 14.5340 0.0000 29.6282
#
#
#
# Elastic Compliance Matrix: (Units=1/GPa)
#
#
# Indices 1 2 3 4 5 6 
#
# 1 0.012235 -0.004185 0.001860 0.000000 -0.011403 0.000000
# 2 -0.004185 0.026217 -0.000828 0.000000 -0.000966 0.000000
# 3 0.001860 -0.000828 0.020261 0.000000 -0.011385 0.000000
# 4 0.000000 0.000000 0.000000 0.101039 0.000000 -0.049564
# 5 -0.011403 -0.000966 -0.011385 0.000000 0.045683 0.000000
# 6 0.000000 0.000000 0.000000 -0.049564 0.000000 0.058065
#
#
# Mechanical properties :
#
#
# Convention : Reuss Voigt Hill
#
# Bulk Modulus (GPa) = 19.08165 31.07119 25.07642
# Shear Modulus (GPa) = 17.40485 28.46638 22.93562
#
# Velocity S-wave (km/s) = 2.73956 3.50358 3.14485
# Velocity P-wave (km/s) = 4.27026 5.45573 4.89899
#
# Compressibility (1/GPa) = 0.05240638
#
# Stress axis : x y z
#
# Youngs Moduli (GPa) = 81.73066 38.14310 49.35564
#
# Poissons Ratio (x) = 0.15962 -0.09178
# Poissons Ratio (y) = 0.34203 0.04088
# Poissons Ratio (z) = -0.15198 0.03159
#
# Static dielectric constant tensor:
#      x y z
#    x 1.907380 0.000000 0.003120 
#    y 0.000000 1.902010 0.000000 
#    z 0.003120 0.000000 1.923650 
# 
# From -- ./inp_files/9261.got.cif
#   From: 2010.05.17/outbox.cif.g08.bks.cpg/sg5_5_cif.got.tgz:9261.got - 2010.06.03 18:56:24.
