data_PCOD9122325
_publ_section_title
;
Structure prediction by ZEFSAII (Michael W. Deem and Ramdas Pophale) SiO2 
 PCOD9122325
Probable space group: C 2
;
_chemical_formula_sum "Si O2"
_cell_formula_units_Z 32
_cell_length_a 23.241894
_cell_length_b 9.318540
_cell_length_c 18.527828
_cell_angle_alpha 90.000000
_cell_angle_beta 21.681454
_cell_angle_gamma 90.000000
_cell_volume 1482.500523
_symmetry_space_group_name_H-M "C 2"
_symmetry_group_IT_number 5
_symmetry_cell_setting 'monoclinic'
loop_
_space_group_symop_operation_xyz
x,y,z
-x,y,-z
1/2+x,1/2+y,z
1/2-x,1/2+y,-z
loop_
_atom_site_type_symbol
_atom_site_label
_atom_site_fract_x
_atom_site_fract_y
_atom_site_fract_z
Si Si1 0.891599 0.797120 0.371963
Si Si2 0.757461 0.776543 0.049568
Si Si3 0.867657 0.578279 0.572146
Si Si4 0.799115 0.025169 0.782294
Si Si5 0.237770 0.558351 0.156916
Si Si6 0.428718 0.811888 0.878376
Si Si7 0.369523 0.404742 0.555271
Si Si8 0.281138 0.983231 0.516701
O O1 0.852619 0.895261 0.488183
O O2 0.876624 0.902187 0.321047
O O3 0.794241 0.649314 0.477565
O O4 0.067010 0.738441 0.177721
O O5 0.696543 0.681330 0.187033
O O6 0.644648 0.768558 0.113168
O O7 0.768295 0.939072 0.062395
O O8 0.783916 0.501957 0.736511
O O9 0.814979 0.744185 0.638952
O O10 0.822025 0.497320 0.552826
O O11 0.055182 0.599178 0.356067
O O12 0.789204 0.011440 0.706983
O O13 0.950611 0.938249 0.634614
O O14 0.657256 0.945498 0.984866
O O15 0.371221 0.678721 0.994564
O O16 0.597141 0.877712 0.665524
#
# Coordination Sequence:
#
# PCOD9122325 Si02
#       8
#     4   4   4   4   4   4   4   4
#     4  11  25  44  64  92 129 171 214 267 320 386
#     4  12  24  37  63 104 131 155 215 276 320 369
#     4  10  19  41  63  95 129 165 209 261 323 387
#     4  11  20  38  65  99 126 160 210 271 317 376
#     4  11  21  36  67  97 128 163 208 265 329 378
#     4  12  20  40  68  97 122 168 213 263 316 382
#     4  10  20  39  66  93 128 166 211 259 324 383
#     4  11  25  43  66  91 129 170 218 264 321 383
#
# _framework density 21.585152000000001
#
# number of rings (size 3 to 8) (size 9 to 14) (size 15 to 20)
#    0.000    1.000    6.250    2.250    1.750    2.000 
#    2.250    1.250    0.000    0.000    0.000    0.000 
#    0.000    0.000    0.000    0.000    0.000    0.000 
#
# Total GULP energy -89147.726467 kJ/mol
# GULP energy per Si atom -5571.732904 kJ/mol
# Density = 2.153602 g / cm^3
# Si number density = 21.585152 Si / 1000 Ang^3
#
#
#
# Elastic Constant Matrix: (Units=GPa)
#
#
# Indices 1 2 3 4 5 6 
#
# 1 81.8663 30.0066 23.1370 0.0000 14.4216 0.0000
# 2 30.0066 52.5432 15.4110 0.0000 3.7999 0.0000
# 3 23.1370 15.4110 49.1502 0.0000 15.7544 0.0000
# 4 0.0000 0.0000 0.0000 29.8483 0.0000 1.1041
# 5 14.4216 3.7999 15.7544 0.0000 24.2779 0.0000
# 6 0.0000 0.0000 0.0000 1.1041 0.0000 24.5312
#
#
#
# Elastic Compliance Matrix: (Units=1/GPa)
#
#
# Indices 1 2 3 4 5 6 
#
# 1 0.017496 -0.008507 -0.003364 0.000000 -0.006879 0.000000
# 2 -0.008507 0.025126 -0.005344 0.000000 0.004589 0.000000
# 3 -0.003364 -0.005344 0.028657 0.000000 -0.015762 0.000000
# 4 0.000000 0.000000 0.000000 0.033559 0.000000 -0.001510
# 5 -0.006879 0.004589 -0.015762 0.000000 0.054786 0.000000
# 6 0.000000 0.000000 0.000000 -0.001510 0.000000 0.040832
#
#
# Mechanical properties :
#
#
# Convention : Reuss Voigt Hill
#
# Bulk Modulus (GPa) = 27.13862 35.62989 31.38425
# Shear Modulus (GPa) = 20.22908 23.39847 21.81378
#
# Velocity S-wave (km/s) = 3.06465 3.29600 3.18243
# Velocity P-wave (km/s) = 5.01228 5.57022 5.29860
#
# Compressibility (1/GPa) = 0.03684786
#
# Stress axis : x y z
#
# Youngs Moduli (GPa) = 57.15702 39.79927 34.89546
#
# Poissons Ratio (x) = 0.33859 0.11737
# Poissons Ratio (y) = 0.48626 0.18649
# Poissons Ratio (z) = 0.19225 0.21270
#
# Static dielectric constant tensor:
#      x y z
#    x 1.828970 0.000000 -0.015690 
#    y 0.000000 1.803310 0.000000 
#    z -0.015690 0.000000 1.827520 
# 
# From -- ./inp_files/67559.got.cif
#   From: 2010.05.17/outbox.cif.g08.bks.cpg/sg5_34_cif.got.tgz:67559.got - 2010.06.03 18:56:24.
