data_PCOD9122028
_publ_section_title
;
Structure prediction by ZEFSAII (Michael W. Deem and Ramdas Pophale) SiO2 
 PCOD9122028
Probable space group: C 2
;
_chemical_formula_sum "Si O2"
_cell_formula_units_Z 26
_cell_length_a 5.441940
_cell_length_b 29.179096
_cell_length_c 7.592243
_cell_angle_alpha 90.000000
_cell_angle_beta 65.530073
_cell_angle_gamma 90.000000
_cell_volume 1097.292474
_symmetry_space_group_name_H-M "C 2"
_symmetry_group_IT_number 5
_symmetry_cell_setting 'monoclinic'
loop_
_space_group_symop_operation_xyz
x,y,z
-x,y,-z
1/2+x,1/2+y,z
1/2-x,1/2+y,-z
loop_
_atom_site_type_symbol
_atom_site_label
_atom_site_fract_x
_atom_site_fract_y
_atom_site_fract_z
Si Si1 0.000000 0.412151 0.500000
Si Si2 0.000000 0.081889 0.000000
Si Si3 0.948009 0.560694 0.313143
Si Si4 0.676921 0.744139 0.131009
Si Si5 0.738563 0.468328 0.299576
Si Si6 0.264181 0.645545 0.794667
Si Si7 0.264380 0.844038 0.794907
Si Si8 0.000000 0.405694 0.000000
O O1 0.013694 0.447713 0.659392
O O2 0.237451 0.375246 0.379436
O O3 0.722959 0.056229 0.119462
O O4 0.025455 0.115428 0.159111
O O5 0.751770 0.522819 0.286992
O O6 0.830502 0.612229 0.333165
O O7 0.000000 0.549525 0.500000
O O8 0.627902 0.697032 0.252370
O O9 0.641060 0.791575 0.246486
O O10 0.500000 0.744002 0.000000
O O11 0.000000 0.743911 0.000000
O O12 0.500000 0.455714 0.500000
O O13 0.755694 0.440757 0.113622
O O14 0.000000 0.648021 0.000000
O O15 0.485541 0.870710 0.843869
O O16 0.000000 0.845565 0.000000
#
# Coordination Sequence:
#
# PCOD9122028 Si02
#       8
#     2   2   4   4   4   4   4   2
#     4  10  22  42  58  92 126 164 212 262 324 374
#     4  10  22  41  64  84 124 164 213 268 314 380
#     4  11  25  40  60  92 124 174 212 263 327 386
#     4  10  19  37  68  98 128 171 218 267 334 390
#     4  11  24  40  60  88 127 164 210 267 319 383
#     4   9  20  38  63  92 123 167 214 265 324 385
#     4  10  20  38  64  89 123 163 208 264 320 390
#     4  10  22  37  60  92 116 164 215 254 322 388
#
# _framework density 23.694683999999999
#
# number of rings (size 3 to 8) (size 9 to 14) (size 15 to 20)
#    0.000    1.846    2.308    0.923    5.385    0.000 
#    5.538    1.538    0.000    0.000    0.000    0.000 
#    0.000    0.000    0.000    0.000    0.000    0.000 
#
# Total GULP energy -72425.469311 kJ/mol
# GULP energy per Si atom -5571.189947 kJ/mol
# Density = 2.364075 g / cm^3
# Si number density = 23.694684 Si / 1000 Ang^3
#
#
#
# Elastic Constant Matrix: (Units=GPa)
#
#
# Indices 1 2 3 4 5 6 
#
# 1 53.1489 11.7473 8.7854 0.0000 2.0960 0.0000
# 2 11.7473 183.7897 42.8714 0.0000 6.6197 0.0000
# 3 8.7854 42.8714 94.9367 0.0000 -5.7664 0.0000
# 4 0.0000 0.0000 0.0000 27.1972 0.0000 -0.1518
# 5 2.0960 6.6197 -5.7664 0.0000 27.0193 0.0000
# 6 0.0000 0.0000 0.0000 -0.1518 0.0000 19.4485
#
#
#
# Elastic Compliance Matrix: (Units=1/GPa)
#
#
# Indices 1 2 3 4 5 6 
#
# 1 0.019311 -0.000823 -0.001514 0.000000 -0.001620 0.000000
# 2 -0.000823 0.006237 -0.002866 0.000000 -0.002076 0.000000
# 3 -0.001514 -0.002866 0.012175 0.000000 0.003418 0.000000
# 4 0.000000 0.000000 0.000000 0.036770 0.000000 0.000287
# 5 -0.001620 -0.002076 0.003418 0.000000 0.038374 0.000000
# 6 0.000000 0.000000 0.000000 0.000287 0.000000 0.051420
#
#
# Mechanical properties :
#
#
# Convention : Reuss Voigt Hill
#
# Bulk Modulus (GPa) = 36.60686 50.96482 43.78584
# Shear Modulus (GPa) = 27.20351 32.63111 29.91731
#
# Velocity S-wave (km/s) = 3.39202 3.71502 3.55719
# Velocity P-wave (km/s) = 5.55193 6.32120 5.94901
#
# Compressibility (1/GPa) = 0.02731728
#
# Stress axis : x y z
#
# Youngs Moduli (GPa) = 51.78384 160.33346 82.13242
#
# Poissons Ratio (x) = 0.13193 0.12433
# Poissons Ratio (y) = 0.04261 0.23543
# Poissons Ratio (z) = 0.07839 0.45959
#
# Static dielectric constant tensor:
#      x y z
#    x 2.161810 0.000000 0.020550 
#    y 0.000000 1.902430 0.000000 
#    z 0.020550 0.000000 2.056660 
# 
# From -- ./inp_files/13176.got.cif
#   From: 2010.05.17/outbox.cif.g08.bks.cpg/sg5_7_cif.got.tgz:13176.got - 2010.06.03 18:56:24.
