data_PCOD9122489
_publ_section_title
;
Structure prediction by ZEFSAII (Michael W. Deem and Ramdas Pophale) SiO2 
 PCOD9122489
Probable space group: C 2
;
_chemical_formula_sum "Si O2"
_cell_formula_units_Z 32
_cell_length_a 14.820034
_cell_length_b 5.035194
_cell_length_c 18.162393
_cell_angle_alpha 90.000000
_cell_angle_beta 79.284598
_cell_angle_gamma 90.000000
_cell_volume 1331.676749
_symmetry_space_group_name_H-M "C 2"
_symmetry_group_IT_number 5
_symmetry_cell_setting 'monoclinic'
loop_
_space_group_symop_operation_xyz
x,y,z
-x,y,-z
1/2+x,1/2+y,z
1/2-x,1/2+y,-z
loop_
_atom_site_type_symbol
_atom_site_label
_atom_site_fract_x
_atom_site_fract_y
_atom_site_fract_z
Si Si1 0.025860 0.711940 0.787177
Si Si2 0.905699 0.537410 0.077672
Si Si3 0.362003 0.529620 0.009918
Si Si4 0.938641 0.346334 0.399299
Si Si5 0.843391 0.850242 0.345813
Si Si6 0.202627 0.222820 0.472005
Si Si7 0.431683 0.717062 0.737409
Si Si8 0.716397 0.757759 0.123655
O O1 0.030133 0.673573 0.872610
O O2 0.124330 0.806955 0.741704
O O3 0.005003 0.417703 0.762387
O O4 0.955118 0.920027 0.761627
O O5 0.918053 0.239029 0.050472
O O6 0.802077 0.563349 0.125220
O O7 0.899893 0.733717 0.009421
O O8 0.265218 0.496821 0.070211
O O9 0.347751 0.629441 0.929785
O O10 0.910198 0.646414 0.381748
O O11 0.900493 0.292649 0.487568
O O12 0.038525 0.261035 0.352700
O O13 0.870279 0.145737 0.365480
O O14 0.740602 0.777290 0.384570
O O15 0.267637 0.426883 0.509247
O O16 0.338505 0.803694 0.792693
#
# Coordination Sequence:
#
# PCOD9122489 Si02
#       8
#     4   4   4   4   4   4   4   4
#     4  10  20  34  46  74 105 126 151 198 247 292
#     4  10  20  35  54  69  96 127 159 198 234 289
#     4  10  20  35  57  70  88 124 169 201 228 279
#     4   8  14  25  37  63  91 118 149 190 229 272
#     4   8  14  24  40  59  90 126 150 179 227 277
#     4   8  12  20  37  57  84 120 154 179 216 271
#     4  10  21  31  51  72 101 126 154 199 254 280
#     4  10  21  36  57  70  91 125 167 201 234 288
#
# _framework density 24.029858000000001
#
# number of rings (size 3 to 8) (size 9 to 14) (size 15 to 20)
#    0.750    2.000    1.250    0.750    1.750    0.000 
#    0.000    3.750    0.000    0.000    0.000    0.875 
#    0.000    0.000    4.250    0.125    0.000    0.000 
#
# Total GULP energy -89093.569127 kJ/mol
# GULP energy per Si atom -5568.348070 kJ/mol
# Density = 2.397517 g / cm^3
# Si number density = 24.029858 Si / 1000 Ang^3
#
#
#
# Elastic Constant Matrix: (Units=GPa)
#
#
# Indices 1 2 3 4 5 6 
#
# 1 48.5246 -8.9411 37.0987 0.0000 -30.9737 0.0000
# 2 -8.9411 102.8954 -3.7127 0.0000 7.0122 0.0000
# 3 37.0987 -3.7127 143.4130 0.0000 -57.9212 0.0000
# 4 0.0000 0.0000 0.0000 20.3694 0.0000 6.0138
# 5 -30.9737 7.0122 -57.9212 0.0000 48.1157 0.0000
# 6 0.0000 0.0000 0.0000 6.0138 0.0000 -24.0923
#
#
#
# Elastic Compliance Matrix: (Units=1/GPa)
#
#
# Indices 1 2 3 4 5 6 
#
# 1 0.035220 0.001531 -0.000009 0.000000 0.022438 0.000000
# 2 0.001531 0.009912 -0.000632 0.000000 -0.001220 0.000000
# 3 -0.000009 -0.000632 0.013611 0.000000 0.016472 0.000000
# 4 0.000000 0.000000 0.000000 0.045724 0.000000 0.011413
# 5 0.022438 -0.001220 0.016472 0.000000 0.055234 0.000000
# 6 0.000000 0.000000 0.000000 0.011413 0.000000 -0.038658
#
#
# Mechanical properties :
#
#
# Convention : Reuss Voigt Hill
#
# Bulk Modulus (GPa) = 16.52272 38.19144 27.35708
# Shear Modulus (GPa) = 35.85866 26.90442 31.38154
#
# Velocity S-wave (km/s) = 3.86716 3.34971 3.61770
# Velocity P-wave (km/s) = 5.17984 5.55775 5.37212
#
# Compressibility (1/GPa) = 0.06052271
#
# Stress axis : x y z
#
# Youngs Moduli (GPa) = 28.39335 100.88807 73.46853
#
# Poissons Ratio (x) = -0.15445 0.00065
# Poissons Ratio (y) = -0.04347 0.04644
# Poissons Ratio (z) = 0.00025 0.06378
#
# Static dielectric constant tensor:
#      x y z
#    x 1.969820 0.000000 -0.095220 
#    y 0.000000 1.847860 0.000000 
#    z -0.095220 0.000000 2.059850 
# 
# From -- ./inp_files/65684.got.cif
#   From: 2010.05.17/outbox.cif.g08.bks.cpg/sg5_33_cif.got.tgz:65684.got - 2010.06.03 18:56:24.
