data_PCOD9122485
_publ_section_title
;
Structure prediction by ZEFSAII (Michael W. Deem and Ramdas Pophale) SiO2 
 PCOD9122485
Probable space group: C 2
;
_chemical_formula_sum "Si O2"
_cell_formula_units_Z 24
_cell_length_a 25.850642
_cell_length_b 6.049853
_cell_length_c 19.180074
_cell_angle_alpha 90.000000
_cell_angle_beta 18.950310
_cell_angle_gamma 90.000000
_cell_volume 974.121111
_symmetry_space_group_name_H-M "C 2"
_symmetry_group_IT_number 5
_symmetry_cell_setting 'monoclinic'
loop_
_space_group_symop_operation_xyz
x,y,z
-x,y,-z
1/2+x,1/2+y,z
1/2-x,1/2+y,-z
loop_
_atom_site_type_symbol
_atom_site_label
_atom_site_fract_x
_atom_site_fract_y
_atom_site_fract_z
Si Si1 0.563613 0.228710 0.553849
Si Si2 0.665486 0.060839 0.829914
Si Si3 0.441261 0.098750 0.218481
Si Si4 0.898294 0.944449 0.880879
Si Si5 0.841284 0.426831 0.690155
Si Si6 0.149984 0.330174 0.546381
O O1 0.692930 0.425722 0.384997
O O2 0.405868 0.326436 0.794350
O O3 0.584912 0.125445 0.450004
O O4 0.618148 0.027513 0.533966
O O5 0.723636 0.296479 0.787016
O O6 0.500000 0.044432 0.000000
O O7 0.593637 0.965748 0.994777
O O8 0.505266 0.277321 0.191700
O O9 0.321823 0.220394 0.317221
O O10 0.335660 0.926915 0.394488
O O11 0.741897 0.973983 0.128963
O O12 0.000460 0.165458 0.739073
O O13 0.000000 0.278008 0.500000
#
# Coordination Sequence:
#
# PCOD9122485 Si02
#       6
#     4   4   4   4   4   4
#     4  11  24  42  66 104 142 186 238 295 360 431
#     4  11  24  41  69 108 146 185 231 299 362 433
#     4  10  20  33  62  96 137 186 225 284 357 426
#     4  10  22  41  64  98 135 184 235 295 356 425
#     4  11  26  50  72 104 143 192 246 296 363 435
#     4  11  20  37  64  99 141 183 237 289 357 430
#
# _framework density 24.637594
#
# number of rings (size 3 to 8) (size 9 to 14) (size 15 to 20)
#    0.000    1.333    1.667    4.000    2.333    4.000 
#    6.000    0.000    0.000    0.000    0.000    0.000 
#    0.000    0.000    0.000    0.000    0.000    0.000 
#
# Total GULP energy -66803.577342 kJ/mol
# GULP energy per Si atom -5566.964779 kJ/mol
# Density = 2.458152 g / cm^3
# Si number density = 24.637594 Si / 1000 Ang^3
#
#
#
# Elastic Constant Matrix: (Units=GPa)
#
#
# Indices 1 2 3 4 5 6 
#
# 1 71.4634 24.0433 25.0146 0.0001 18.5081 -0.0002
# 2 24.0433 50.0276 36.4074 -0.0042 32.7665 -0.0022
# 3 25.0146 36.4074 175.7152 -0.0023 53.4850 -0.0014
# 4 0.0001 -0.0042 -0.0023 31.2191 0.0004 18.1215
# 5 18.5081 32.7665 53.4850 0.0004 37.3602 0.0010
# 6 -0.0002 -0.0022 -0.0014 18.1215 0.0010 22.7378
#
#
#
# Elastic Compliance Matrix: (Units=1/GPa)
#
#
# Indices 1 2 3 4 5 6 
#
# 1 0.016844 -0.006389 -0.000425 -0.000001 -0.002132 0.000001
# 2 -0.006389 0.051984 0.005411 0.000007 -0.050172 0.000002
# 3 -0.000425 0.005411 0.010653 0.000001 -0.019785 0.000001
# 4 -0.000001 0.000007 0.000001 0.059607 -0.000006 -0.047505
# 5 -0.002132 -0.050172 -0.019785 -0.000006 0.100151 -0.000006
# 6 0.000001 0.000002 0.000001 -0.047505 -0.000006 0.081840
#
#
# Mechanical properties :
#
#
# Convention : Reuss Voigt Hill
#
# Bulk Modulus (GPa) = 13.04249 52.01519 32.52884
# Shear Modulus (GPa) = 14.30849 32.37947 23.34398
#
# Velocity S-wave (km/s) = 2.41251 3.62916 3.08148
# Velocity P-wave (km/s) = 3.61462 6.22246 5.08845
#
# Compressibility (1/GPa) = 0.07667245
#
# Stress axis : x y z
#
# Youngs Moduli (GPa) = 59.36902 19.23686 93.87136
#
# Poissons Ratio (x) = 0.12291 0.03990
# Poissons Ratio (y) = 0.37933 -0.50789
# Poissons Ratio (z) = 0.02523 -0.10408
#
# Static dielectric constant tensor:
#      x y z
#    x 2.181580 -0.000010 0.076890 
#    y -0.000010 1.982590 0.000000 
#    z 0.076890 0.000000 2.011490 
# 
# From -- ./inp_files/67661.got.cif
#   From: 2010.05.17/outbox.cif.g08.bks.cpg/sg5_34_cif.got.tgz:67661.got - 2010.06.03 18:56:24.
