data_PCOD9122578
_publ_section_title
;
Structure prediction by ZEFSAII (Michael W. Deem and Ramdas Pophale) SiO2 
 PCOD9122578
Probable space group: C 2
;
_chemical_formula_sum "Si O2"
_cell_formula_units_Z 28
_cell_length_a 14.390472
_cell_length_b 13.469898
_cell_length_c 13.967137
_cell_angle_alpha 90.000000
_cell_angle_beta 28.560240
_cell_angle_gamma 90.000000
_cell_volume 1294.343541
_symmetry_space_group_name_H-M "C 2"
_symmetry_group_IT_number 5
_symmetry_cell_setting 'monoclinic'
loop_
_space_group_symop_operation_xyz
x,y,z
-x,y,-z
1/2+x,1/2+y,z
1/2-x,1/2+y,-z
loop_
_atom_site_type_symbol
_atom_site_label
_atom_site_fract_x
_atom_site_fract_y
_atom_site_fract_z
Si Si1 0.234283 0.519520 0.510851
Si Si2 0.992472 0.688958 0.620906
Si Si3 0.958547 0.146240 0.436339
Si Si4 0.352060 0.229452 0.051442
Si Si5 0.061826 0.498542 0.051448
Si Si6 0.717295 0.800685 0.518497
Si Si7 0.793336 0.301725 0.002877
O O1 0.098169 0.592387 0.571323
O O2 0.432384 0.570772 0.370446
O O3 0.244884 0.411370 0.455200
O O4 0.121320 0.498578 0.712352
O O5 0.124126 0.777487 0.544383
O O6 0.000000 0.684189 0.500000
O O7 0.780534 0.717618 0.855958
O O8 0.777974 0.218383 0.570933
O O9 0.000000 0.091472 0.500000
O O10 0.131160 0.226605 0.287864
O O11 0.370891 0.112438 0.008680
O O12 0.500000 0.256393 0.000000
O O13 0.350134 0.293143 0.957774
O O14 0.203653 0.411378 0.956252
O O15 0.000000 0.475669 0.000000
O O16 0.510040 0.786475 0.762392
#
# Coordination Sequence:
#
# PCOD9122578 Si02
#       7
#     4   4   4   4   4   4   4
#     4  10  21  41  56  86 124 149 202 249 290 365
#     4  11  24  39  63  87 119 164 198 248 307 353
#     4  10  20  34  59  87 115 154 195 247 296 352
#     4  10  20  37  59  86 118 157 197 247 305 352
#     4  10  20  35  62  87 114 156 194 247 299 347
#     4   9  23  40  59  88 121 157 200 248 295 360
#     4  10  22  39  60  88 124 153 204 249 296 359
#
# _framework density 21.632587999999998
#
# number of rings (size 3 to 8) (size 9 to 14) (size 15 to 20)
#    0.000    2.000    1.429    1.714    8.000    1.143 
#    0.000    0.000    0.000    0.857    0.000    0.000 
#    0.000    0.000    0.000    0.000    0.000    0.000 
#
# Total GULP energy -77966.372896 kJ/mol
# GULP energy per Si atom -5569.026635 kJ/mol
# Density = 2.158335 g / cm^3
# Si number density = 21.632588 Si / 1000 Ang^3
#
#
#
# Elastic Constant Matrix: (Units=GPa)
#
#
# Indices 1 2 3 4 5 6 
#
# 1 158.1501 58.6365 35.3064 -0.0038 0.3296 0.0007
# 2 58.6365 119.6788 2.3490 -0.0096 -3.9422 0.0036
# 3 35.3064 2.3490 56.7484 -0.0103 0.6393 0.0040
# 4 -0.0038 -0.0096 -0.0103 21.9410 0.0047 -10.6523
# 5 0.3296 -3.9422 0.6393 0.0047 27.0612 -0.0012
# 6 0.0007 0.0036 0.0040 -10.6523 -0.0012 23.8013
#
#
#
# Elastic Compliance Matrix: (Units=1/GPa)
#
#
# Indices 1 2 3 4 5 6 
#
# 1 0.009198 -0.004418 -0.005532 -0.000003 -0.000625 0.000000
# 2 -0.004418 0.010526 0.002296 0.000005 0.001533 0.000000
# 3 -0.005532 0.002296 0.020970 0.000010 -0.000094 0.000001
# 4 -0.000003 0.000005 0.000010 0.058229 -0.000009 0.026061
# 5 -0.000625 0.001533 -0.000094 -0.000009 0.037186 -0.000002
# 6 0.000000 0.000000 0.000001 0.026061 -0.000002 0.053678
#
#
# Mechanical properties :
#
#
# Convention : Reuss Voigt Hill
#
# Bulk Modulus (GPa) = 39.39566 58.57347 48.98456
# Shear Modulus (GPa) = 23.41285 30.44639 26.92962
#
# Velocity S-wave (km/s) = 3.29339 3.75564 3.53209
# Velocity P-wave (km/s) = 5.71950 6.77804 6.27114
#
# Compressibility (1/GPa) = 0.02538351
#
# Stress axis : x y z
#
# Youngs Moduli (GPa) = 108.72277 95.00356 47.68780
#
# Poissons Ratio (x) = 0.41976 0.26383
# Poissons Ratio (y) = 0.48038 -0.10949
# Poissons Ratio (z) = 0.60151 -0.21812
#
# Static dielectric constant tensor:
#      x y z
#    x 1.796710 0.000000 0.016470 
#    y 0.000000 1.827880 0.000000 
#    z 0.016470 0.000000 1.963500 
# 
# From -- ./inp_files/54733.got.cif
#   From: 2010.05.17/outbox.cif.g08.bks.cpg/sg5_28_cif.got.tgz:54733.got - 2010.06.03 18:56:24.
