data_PCOD9122530
_publ_section_title
;
Structure prediction by ZEFSAII (Michael W. Deem and Ramdas Pophale) SiO2 
 PCOD9122530
Probable space group: C 2
;
_chemical_formula_sum "Si O2"
_cell_formula_units_Z 32
_cell_length_a 11.654419
_cell_length_b 21.059829
_cell_length_c 10.119726
_cell_angle_alpha 90.000000
_cell_angle_beta 46.715487
_cell_angle_gamma 90.000000
_cell_volume 1808.092352
_symmetry_space_group_name_H-M "C 2"
_symmetry_group_IT_number 5
_symmetry_cell_setting 'monoclinic'
loop_
_space_group_symop_operation_xyz
x,y,z
-x,y,-z
1/2+x,1/2+y,z
1/2-x,1/2+y,-z
loop_
_atom_site_type_symbol
_atom_site_label
_atom_site_fract_x
_atom_site_fract_y
_atom_site_fract_z
Si Si1 0.176449 0.034650 0.686935
Si Si2 0.111524 0.653108 0.538868
Si Si3 0.684957 0.904587 0.492290
Si Si4 0.807833 0.020697 0.012777
Si Si5 0.612074 0.130466 0.038239
Si Si6 0.682209 0.750430 0.202250
Si Si7 0.823865 0.391384 0.820617
Si Si8 0.696727 0.763970 0.502474
O O1 0.265923 0.094951 0.559102
O O2 0.224537 0.032296 0.804910
O O3 0.228635 0.971703 0.565589
O O4 0.988101 0.037203 0.838686
O O5 0.211701 0.716732 0.475738
O O6 0.000000 0.651190 0.500000
O O7 0.999499 0.647788 0.752612
O O8 0.509113 0.907109 0.691795
O O9 0.685482 0.895530 0.332073
O O10 0.745244 0.836560 0.494275
O O11 0.699760 0.065408 0.008793
O O12 0.775866 0.945383 0.028346
O O13 0.500000 0.123825 0.000000
O O14 0.736302 0.188197 0.920857
O O15 0.727720 0.819483 0.106406
O O16 0.727107 0.751107 0.322584
O O17 0.492085 0.752619 0.338051
#
# Coordination Sequence:
#
# PCOD9122530 Si02
#       8
#     4   4   4   4   4   4   4   4
#     4  10  20  34  56  84 111 148 187 236 278 330
#     4  12  23  37  56  81 118 154 187 229 279 337
#     4   8  15  29  55  82 109 142 183 231 278 327
#     4  10  20  35  54  84 114 144 191 234 280 328
#     4  12  23  37  56  83 117 151 189 233 275 335
#     4   9  18  35  57  85 112 145 187 233 279 331
#     4   8  15  30  55  81 111 140 182 235 276 326
#     4   9  18  35  57  84 113 147 186 230 283 331
#
# _framework density 17.69821
#
# number of rings (size 3 to 8) (size 9 to 14) (size 15 to 20)
#    0.000    2.250    2.500    3.000    1.750    1.000 
#    2.250    0.000    0.000    9.000    0.000    0.000 
#    0.000    0.000    0.000    0.000    0.000    0.000 
#
# Total GULP energy -89113.465600 kJ/mol
# GULP energy per Si atom -5569.591600 kJ/mol
# Density = 1.765793 g / cm^3
# Si number density = 17.698210 Si / 1000 Ang^3
#
#
#
# Elastic Constant Matrix: (Units=GPa)
#
#
# Indices 1 2 3 4 5 6 
#
# 1 55.9483 39.3992 20.2469 0.0000 -4.9836 0.0000
# 2 39.3992 155.8362 50.2705 0.0000 -14.2580 0.0000
# 3 20.2469 50.2705 55.8678 0.0000 2.0828 0.0000
# 4 0.0000 0.0000 0.0000 37.1229 0.0000 -3.5002
# 5 -4.9836 -14.2580 2.0828 0.0000 11.0934 0.0000
# 6 0.0000 0.0000 0.0000 -3.5002 0.0000 27.4452
#
#
#
# Elastic Compliance Matrix: (Units=1/GPa)
#
#
# Indices 1 2 3 4 5 6 
#
# 1 0.022860 -0.003358 -0.005524 0.000000 0.006991 0.000000
# 2 -0.003358 0.011991 -0.010162 0.000000 0.015810 0.000000
# 3 -0.005524 -0.010162 0.029833 0.000000 -0.021143 0.000000
# 4 0.000000 0.000000 0.000000 0.027265 0.000000 0.003477
# 5 0.006991 0.015810 -0.021143 0.000000 0.117574 0.000000
# 6 0.000000 0.000000 0.000000 0.003477 0.000000 0.036880
#
#
# Mechanical properties :
#
#
# Convention : Reuss Voigt Hill
#
# Bulk Modulus (GPa) = 37.59843 54.16506 45.88174
# Shear Modulus (GPa) = 17.04419 25.64802 21.34611
#
# Velocity S-wave (km/s) = 3.10667 3.81095 3.47669
# Velocity P-wave (km/s) = 5.84455 7.07359 6.48824
#
# Compressibility (1/GPa) = 0.02659686
#
# Stress axis : x y z
#
# Youngs Moduli (GPa) = 43.74439 83.39898 33.51999
#
# Poissons Ratio (x) = 0.28007 0.18515
# Poissons Ratio (y) = 0.14690 0.34062
# Poissons Ratio (z) = 0.24162 0.84747
#
# Static dielectric constant tensor:
#      x y z
#    x 1.572930 0.000000 -0.008950 
#    y 0.000000 1.636140 0.000000 
#    z -0.008950 0.000000 1.589370 
# 
# From -- ./inp_files/40635.got.cif
#   From: 2010.05.17/outbox.cif.g08.bks.cpg/sg5_21_cif.got.tgz:40635.got - 2010.06.03 18:56:24.
