data_PCOD9122662
_publ_section_title
;
Structure prediction by ZEFSAII (Michael W. Deem and Ramdas Pophale) SiO2 
 PCOD9122662
Probable space group: C 2
;
_chemical_formula_sum "Si O2"
_cell_formula_units_Z 28
_cell_length_a 7.707562
_cell_length_b 13.354603
_cell_length_c 14.009639
_cell_angle_alpha 90.000000
_cell_angle_beta 63.212538
_cell_angle_gamma 90.000000
_cell_volume 1287.279725
_symmetry_space_group_name_H-M "C 2"
_symmetry_group_IT_number 5
_symmetry_cell_setting 'monoclinic'
loop_
_space_group_symop_operation_xyz
x,y,z
-x,y,-z
1/2+x,1/2+y,z
1/2-x,1/2+y,-z
loop_
_atom_site_type_symbol
_atom_site_label
_atom_site_fract_x
_atom_site_fract_y
_atom_site_fract_z
Si Si1 0.795701 0.438250 0.384534
Si Si2 0.891906 0.527753 0.830007
Si Si3 0.516050 0.608067 0.153802
Si Si4 0.854441 0.706421 0.948913
Si Si5 0.699120 0.702716 0.623959
Si Si6 0.670024 0.425106 0.041841
Si Si7 0.500000 0.595930 0.500000
Si Si8 0.500000 0.047512 0.500000
O O1 0.749494 0.320416 0.389311
O O2 0.625489 0.517889 0.405349
O O3 0.976858 0.465382 0.272788
O O4 0.862014 0.474952 0.473440
O O5 0.688651 0.566755 0.835734
O O6 0.850451 0.461958 0.934438
O O7 0.967471 0.633959 0.848870
O O8 0.653523 0.662814 0.042104
O O9 0.463172 0.676909 0.256155
O O10 0.630225 0.503532 0.136020
O O11 0.812985 0.815674 0.919962
O O12 0.000000 0.717232 0.000000
O O13 0.621726 0.666990 0.539875
O O14 0.877707 0.625145 0.595886
O O15 0.500000 0.426024 0.000000
#
# Coordination Sequence:
#
# PCOD9122662 Si02
#       8
#     4   4   4   4   4   4   2   2
#     4  11  22  42  65  91 124 164 203 258 313 362
#     4  10  20  38  59  86 119 157 205 245 299 377
#     4  10  20  38  59  86 120 158 205 245 300 376
#     4  10  20  35  58  87 122 158 196 254 304 353
#     4  11  22  42  66  90 125 166 200 259 315 357
#     4   8  17  35  56  83 117 157 196 236 293 362
#     4  10  26  42  62  94 126 152 218 264 290 386
#     4  10  22  42  64  92 120 164 212 250 310 376
#
# _framework density 21.751291999999999
#
# number of rings (size 3 to 8) (size 9 to 14) (size 15 to 20)
#    0.000    2.000    1.429    3.000    2.000    0.000 
#    2.571    7.143    0.000    0.000    0.000    0.000 
#    0.000    0.000    0.000    0.000    0.000    0.000 
#
# Total GULP energy -78015.187847 kJ/mol
# GULP energy per Si atom -5572.513418 kJ/mol
# Density = 2.170179 g / cm^3
# Si number density = 21.751292 Si / 1000 Ang^3
#
#
#
# Elastic Constant Matrix: (Units=GPa)
#
#
# Indices 1 2 3 4 5 6 
#
# 1 28.6246 -4.5585 -4.3295 0.0000 -10.2187 0.0000
# 2 -4.5585 145.4549 18.9749 0.0000 -0.5475 0.0000
# 3 -4.3295 18.9749 57.0604 0.0000 -11.2443 0.0000
# 4 0.0000 0.0000 0.0000 14.2037 0.0000 10.6045
# 5 -10.2187 -0.5475 -11.2443 0.0000 18.8744 0.0000
# 6 0.0000 0.0000 0.0000 10.6045 0.0000 11.6662
#
#
#
# Elastic Compliance Matrix: (Units=1/GPa)
#
#
# Indices 1 2 3 4 5 6 
#
# 1 0.047778 0.000344 0.009755 0.000000 0.031689 0.000000
# 2 0.000344 0.007221 -0.002603 0.000000 -0.001155 0.000000
# 3 0.009755 -0.002603 0.022838 0.000000 0.018812 0.000000
# 4 0.000000 0.000000 0.000000 0.219094 0.000000 -0.199155
# 5 0.031689 -0.001155 0.018812 0.000000 0.081312 0.000000
# 6 0.000000 0.000000 0.000000 -0.199155 0.000000 0.266749
#
#
# Mechanical properties :
#
#
# Convention : Reuss Voigt Hill
#
# Bulk Modulus (GPa) = 10.77232 27.92374 19.34803
# Shear Modulus (GPa) = 7.56497 23.68574 15.62535
#
# Velocity S-wave (km/s) = 1.86695 3.30348 2.68314
# Velocity P-wave (km/s) = 3.10009 5.23605 4.30272
#
# Compressibility (1/GPa) = 0.09283050
#
# Stress axis : x y z
#
# Youngs Moduli (GPa) = 20.93015 138.48602 43.78651
#
# Poissons Ratio (x) = -0.04764 -0.42716
# Poissons Ratio (y) = -0.00720 0.11396
# Poissons Ratio (z) = -0.20418 0.36044
#
# Static dielectric constant tensor:
#      x y z
#    x 1.960990 0.000000 -0.012560 
#    y 0.000000 1.823390 0.000000 
#    z -0.012560 0.000000 1.804560 
# 
# From -- ./inp_files/50704.got.cif
#   From: 2010.05.17/outbox.cif.g08.bks.cpg/sg5_26_cif.got.tgz:50704.got - 2010.06.03 18:56:24.
