data_PCOD9122481
_publ_section_title
;
Structure prediction by ZEFSAII (Michael W. Deem and Ramdas Pophale) SiO2 
 PCOD9122481
Probable space group: C 2
;
_chemical_formula_sum "Si O2"
_cell_formula_units_Z 32
_cell_length_a 11.100608
_cell_length_b 16.855973
_cell_length_c 21.721762
_cell_angle_alpha 90.000000
_cell_angle_beta 156.807125
_cell_angle_gamma 90.000000
_cell_volume 1600.669987
_symmetry_space_group_name_H-M "C 2"
_symmetry_group_IT_number 5
_symmetry_cell_setting 'monoclinic'
loop_
_space_group_symop_operation_xyz
x,y,z
-x,y,-z
1/2+x,1/2+y,z
1/2-x,1/2+y,-z
loop_
_atom_site_type_symbol
_atom_site_label
_atom_site_fract_x
_atom_site_fract_y
_atom_site_fract_z
Si Si1 0.374265 0.811130 0.322445
Si Si2 0.826977 0.621248 0.129794
Si Si3 0.309749 0.681900 0.183459
Si Si4 0.857922 0.056839 0.303405
Si Si5 0.209150 0.681879 0.425135
Si Si6 0.299009 0.762120 0.735176
Si Si7 0.296962 0.799785 0.964222
Si Si8 0.597364 0.411090 0.479367
O O1 0.306801 0.745333 0.237893
O O2 0.584465 0.762225 0.470445
O O3 0.559884 0.882825 0.377185
O O4 0.045562 0.834238 0.195845
O O5 0.740492 0.704416 0.057830
O O6 0.020437 0.567384 0.174279
O O7 0.068057 0.649527 0.295492
O O8 0.500000 0.587904 0.000000
O O9 0.359127 0.596031 0.236840
O O10 0.558077 0.711915 0.252190
O O11 0.000000 0.683367 0.000000
O O12 0.091345 0.112555 0.451400
O O13 0.976573 0.968878 0.369470
O O14 0.910391 0.704089 0.323427
O O15 0.086904 0.829580 0.607970
O O16 0.531979 0.807642 0.890388
O O17 0.500000 0.823684 0.000000
O O18 0.500000 0.448225 0.500000
#
# Coordination Sequence:
#
# PCOD9122481 Si02
#       8
#     4   4   4   4   4   4   4   4
#     4  10  21  36  62  96 124 167 223 270 326 390
#     4  11  19  34  58  92 124 159 209 267 326 378
#     4  11  20  38  69  96 124 169 225 282 318 397
#     4  11  24  39  61  95 133 165 211 273 339 387
#     4  10  20  33  60  88 123 161 213 270 314 387
#     4  11  21  37  64  93 121 168 231 272 324 395
#     4  11  20  36  63  95 125 162 225 281 323 378
#     4  11  23  41  62  93 137 176 215 272 340 403
#
# _framework density 19.991629
#
# number of rings (size 3 to 8) (size 9 to 14) (size 15 to 20)
#    0.000    1.250    7.500    1.125    0.000    0.000 
#    0.000    3.750    5.500    0.000    0.000    0.000 
#    0.000    0.000    0.000    0.000    0.000    0.000 
#
# Total GULP energy -89239.581630 kJ/mol
# GULP energy per Si atom -5577.473852 kJ/mol
# Density = 1.994613 g / cm^3
# Si number density = 19.991629 Si / 1000 Ang^3
#
#
#
# Elastic Constant Matrix: (Units=GPa)
#
#
# Indices 1 2 3 4 5 6 
#
# 1 117.3469 26.3572 48.6383 -0.0075 18.1714 0.0119
# 2 26.3572 50.8414 11.1071 -0.0056 12.2424 -0.0030
# 3 48.6383 11.1071 101.0500 -0.0013 19.6022 0.0198
# 4 -0.0075 -0.0056 -0.0013 38.6553 -0.0142 -17.6379
# 5 18.1714 12.2424 19.6022 -0.0142 43.2552 0.0259
# 6 0.0119 -0.0030 0.0198 -17.6379 0.0259 29.9784
#
#
#
# Elastic Compliance Matrix: (Units=1/GPa)
#
#
# Indices 1 2 3 4 5 6 
#
# 1 0.011833 -0.004724 -0.004903 0.000001 -0.001413 0.000000
# 2 -0.004724 0.023143 0.000675 0.000006 -0.004872 0.000011
# 3 -0.004903 0.000675 0.012958 -0.000004 -0.004004 -0.000006
# 4 0.000001 0.000006 -0.000004 0.035363 -0.000001 0.020806
# 5 -0.001413 -0.004872 -0.004004 -0.000001 0.026905 -0.000021
# 6 0.000000 0.000011 -0.000006 0.020806 -0.000021 0.045599
#
#
# Mechanical properties :
#
#
# Convention : Reuss Voigt Hill
#
# Bulk Modulus (GPa) = 33.29719 49.04928 41.17324
# Shear Modulus (GPa) = 27.21589 34.58682 30.90135
#
# Velocity S-wave (km/s) = 3.69367 4.16392 3.93582
# Velocity P-wave (km/s) = 5.90615 6.90694 6.42606
#
# Compressibility (1/GPa) = 0.03003256
#
# Stress axis : x y z
#
# Youngs Moduli (GPa) = 84.50616 43.20880 77.17030
#
# Poissons Ratio (x) = 0.20410 0.37833
# Poissons Ratio (y) = 0.39917 -0.05207
# Poissons Ratio (z) = 0.41430 -0.02915
#
# Static dielectric constant tensor:
#      x y z
#    x 1.544360 0.000040 0.002990 
#    y 0.000040 1.670710 -0.000010 
#    z 0.002990 -0.000010 1.753750 
# 
# From -- ./inp_files/68449.got.cif
#   From: 2010.05.17/outbox.cif.g08.bks.cpg/sg5_35_cif.got.tgz:68449.got - 2010.06.03 18:56:24.
