data_PCOD9123075
_publ_section_title
;
Structure prediction by ZEFSAII (Michael W. Deem and Ramdas Pophale) SiO2 
 PCOD9123075
Probable space group: C 2
;
_chemical_formula_sum "Si O2"
_cell_formula_units_Z 32
_cell_length_a 9.012397
_cell_length_b 14.734728
_cell_length_c 11.389548
_cell_angle_alpha 90.000000
_cell_angle_beta 95.259814
_cell_angle_gamma 90.000000
_cell_volume 1506.108835
_symmetry_space_group_name_H-M "C 2"
_symmetry_group_IT_number 5
_symmetry_cell_setting 'monoclinic'
loop_
_space_group_symop_operation_xyz
x,y,z
-x,y,-z
1/2+x,1/2+y,z
1/2-x,1/2+y,-z
loop_
_atom_site_type_symbol
_atom_site_label
_atom_site_fract_x
_atom_site_fract_y
_atom_site_fract_z
Si Si1 0.346207 0.266620 0.924675
Si Si2 0.769642 0.094824 0.224181
Si Si3 0.804060 0.598253 0.232077
Si Si4 0.485046 0.952761 0.860652
Si Si5 0.425305 0.163917 0.610478
Si Si6 0.708188 0.790828 0.154233
Si Si7 0.016539 0.845471 0.295079
Si Si8 0.048524 0.047889 0.372104
O O1 0.266669 0.179365 0.862360
O O2 0.394268 0.332317 0.821522
O O3 0.500000 0.236528 0.000000
O O4 0.250585 0.311441 0.021548
O O5 0.721871 0.118948 0.354302
O O6 0.942391 0.078030 0.255432
O O7 0.664503 0.010770 0.181916
O O8 0.868168 0.504600 0.180452
O O9 0.959428 0.645666 0.275858
O O10 0.714937 0.680227 0.160641
O O11 0.711267 0.579203 0.343029
O O12 0.440084 0.848465 0.824743
O O13 0.500000 0.958628 0.000000
O O14 0.500000 0.127756 0.500000
O O15 0.415651 0.271345 0.611303
O O16 0.843729 0.826008 0.247477
O O17 0.037421 0.940355 0.357933
O O18 0.000000 0.074936 0.500000
#
# Coordination Sequence:
#
# PCOD9123075 Si02
#       8
#     4   4   4   4   4   4   4   4
#     4   9  18  36  63  95 126 162 206 265 330 396
#     4  10  20  37  61  87 125 164 211 256 320 392
#     4  10  24  40  60  91 135 161 214 268 322 388
#     4  11  22  39  66  93 126 172 209 259 328 406
#     4   9  17  36  63  85 109 165 217 260 319 375
#     4  10  20  40  63  90 129 164 204 264 323 399
#     4   9  19  36  61  87 122 158 211 261 311 385
#     4  12  24  40  60  90 128 168 211 269 320 373
#
# _framework density 21.246804999999998
#
# number of rings (size 3 to 8) (size 9 to 14) (size 15 to 20)
#    0.000    2.000    1.250    4.500    1.750    1.000 
#    2.250    1.875    0.000    0.000    0.000    0.000 
#    0.000    0.000    0.000    0.000    0.000    0.000 
#
# Total GULP energy -89090.523349 kJ/mol
# GULP energy per Si atom -5568.157709 kJ/mol
# Density = 2.119845 g / cm^3
# Si number density = 21.246805 Si / 1000 Ang^3
#
#
#
# Elastic Constant Matrix: (Units=GPa)
#
#
# Indices 1 2 3 4 5 6 
#
# 1 60.8876 42.2103 8.2794 0.0000 -0.8378 0.0000
# 2 42.2103 62.1941 13.1415 0.0000 2.9910 0.0000
# 3 8.2794 13.1415 50.0651 0.0000 -6.4888 0.0000
# 4 0.0000 0.0000 0.0000 1.8031 0.0000 -10.4995
# 5 -0.8378 2.9910 -6.4888 0.0000 30.9850 0.0000
# 6 0.0000 0.0000 0.0000 -10.4995 0.0000 18.7293
#
#
#
# Elastic Compliance Matrix: (Units=1/GPa)
#
#
# Indices 1 2 3 4 5 6 
#
# 1 0.031312 -0.021590 0.000893 0.000000 0.003118 0.000000
# 2 -0.021590 0.032124 -0.005488 0.000000 -0.004834 0.000000
# 3 0.000893 -0.005488 0.021934 0.000000 0.005147 0.000000
# 4 0.000000 0.000000 0.000000 -0.244928 0.000000 -0.137305
# 5 0.003118 -0.004834 0.005147 0.000000 0.033903 0.000000
# 6 0.000000 0.000000 0.000000 -0.137305 0.000000 -0.023580
#
#
# Mechanical properties :
#
#
# Convention : Reuss Voigt Hill
#
# Bulk Modulus (GPa) = 30.30330 33.37881 31.84105
# Shear Modulus (GPa) = -58.23102 17.60451 -20.31325
#
# Velocity S-wave (km/s) = -5.24084 2.88162 -3.09538
# Velocity P-wave (km/s) = 4.72530 5.17839 1.49788
#
# Compressibility (1/GPa) = 0.03299971
#
# Stress axis : x y z
#
# Youngs Moduli (GPa) = 31.93618 31.12969 45.59124
#
# Poissons Ratio (x) = 0.67209 -0.04071
# Poissons Ratio (y) = 0.68950 0.25021
# Poissons Ratio (z) = -0.02852 0.17085
#
# Static dielectric constant tensor:
#      x y z
#    x 1.776680 0.000000 -0.012920 
#    y 0.000000 1.837850 0.000000 
#    z -0.012920 0.000000 1.778170 
# 
# From -- ./inp_files/36390.got.cif
#   From: 2010.05.17/outbox.cif.g08.bks.cpg/sg5_19_cif.got.tgz:36390.got - 2010.06.03 18:56:24.
