data_PCOD9123891
_publ_section_title
;
Structure prediction by ZEFSAII (Michael W. Deem and Ramdas Pophale) SiO2 
 PCOD9123891
Probable space group: C 2
;
_chemical_formula_sum "Si O2"
_cell_formula_units_Z 28
_cell_length_a 14.882821
_cell_length_b 8.594141
_cell_length_c 14.094005
_cell_angle_alpha 90.000000
_cell_angle_beta 136.208506
_cell_angle_gamma 90.000000
_cell_volume 1247.529578
_symmetry_space_group_name_H-M "C 2"
_symmetry_group_IT_number 5
_symmetry_cell_setting 'monoclinic'
loop_
_space_group_symop_operation_xyz
x,y,z
-x,y,-z
1/2+x,1/2+y,z
1/2-x,1/2+y,-z
loop_
_atom_site_type_symbol
_atom_site_label
_atom_site_fract_x
_atom_site_fract_y
_atom_site_fract_z
Si Si1 0.049904 0.270110 0.732382
Si Si2 0.105517 0.502808 0.246000
Si Si3 0.620448 0.473303 0.447828
Si Si4 0.575482 0.363017 0.212829
Si Si5 0.500000 0.818944 0.000000
Si Si6 0.500000 0.236190 0.500000
Si Si7 0.801906 0.498528 0.261133
Si Si8 0.843948 0.098002 0.022589
O O1 0.107095 0.350088 0.683342
O O2 0.162041 0.188384 0.882414
O O3 0.975263 0.397314 0.740594
O O4 0.953540 0.133006 0.629539
O O5 0.251129 0.504609 0.395027
O O6 0.058341 0.678839 0.195479
O O7 0.095368 0.420437 0.136596
O O8 0.649378 0.401038 0.367155
O O9 0.534745 0.347844 0.439008
O O10 0.665685 0.441695 0.201065
O O11 0.437085 0.449576 0.109070
O O12 0.578380 0.713497 0.987296
O O13 0.377007 0.127890 0.379017
O O14 0.778543 0.554593 0.134542
#
# Coordination Sequence:
#
# PCOD9123891 Si02
#       8
#     4   4   4   4   2   2   4   4
#     4  10  26  44  69 101 138 179 233 284 354 404
#     4  11  24  42  71  99 136 181 229 286 340 427
#     4  11  26  47  67  99 139 186 228 285 347 421
#     4  11  25  43  76  96 136 183 237 277 356 414
#     4  10  20  40  68 100 126 174 232 270 346 402
#     4  12  30  42  70 104 140 186 232 284 350 418
#     4  12  26  45  69 103 142 178 233 295 340 408
#     4  10  22  47  68  96 138 182 224 285 343 413
#
# _framework density 22.444358000000001
#
# number of rings (size 3 to 8) (size 9 to 14) (size 15 to 20)
#    0.000    1.143    1.429    2.571   14.000    3.429 
#    2.571    0.000    0.000    0.000    0.000    0.000 
#    0.000    0.000    0.000    0.000    0.000    0.000 
#
# Total GULP energy -78329.116432 kJ/mol
# GULP energy per Si atom -5594.936888 kJ/mol
# Density = 2.239327 g / cm^3
# Si number density = 22.444358 Si / 1000 Ang^3
#
#
#
# Elastic Constant Matrix: (Units=GPa)
#
#
# Indices 1 2 3 4 5 6 
#
# 1 41.2156 15.7249 -7.0207 0.0000 -8.0654 0.0000
# 2 15.7249 142.2642 30.1358 0.0000 -3.7203 0.0000
# 3 -7.0207 30.1358 100.6936 0.0000 -15.8216 0.0000
# 4 0.0000 0.0000 0.0000 19.2489 0.0000 -10.1782
# 5 -8.0654 -3.7203 -15.8216 0.0000 25.0351 0.0000
# 6 0.0000 0.0000 0.0000 -10.1782 0.0000 21.6783
#
#
#
# Elastic Compliance Matrix: (Units=1/GPa)
#
#
# Indices 1 2 3 4 5 6 
#
# 1 0.028985 -0.003969 0.005089 0.000000 0.011964 0.000000
# 2 -0.003969 0.008051 -0.002997 0.000000 -0.001976 0.000000
# 3 0.005089 -0.002997 0.012624 0.000000 0.009172 0.000000
# 4 0.000000 0.000000 0.000000 0.069108 0.000000 0.032447
# 5 0.011964 -0.001976 0.009172 0.000000 0.049301 0.000000
# 6 0.000000 0.000000 0.000000 0.032447 0.000000 0.061363
#
#
# Mechanical properties :
#
#
# Convention : Reuss Voigt Hill
#
# Bulk Modulus (GPa) = 21.78373 40.20593 30.99483
# Shear Modulus (GPa) = 20.12170 29.54802 24.83486
#
# Velocity S-wave (km/s) = 2.99743 3.63230 3.33003
# Velocity P-wave (km/s) = 4.65899 5.96187 5.35024
#
# Compressibility (1/GPa) = 0.04590583
#
# Stress axis : x y z
#
# Youngs Moduli (GPa) = 34.50074 124.20849 79.21458
#
# Poissons Ratio (x) = 0.49296 -0.40309
# Poissons Ratio (y) = 0.13693 0.23738
# Poissons Ratio (z) = -0.17556 0.37222
#
# Static dielectric constant tensor:
#      x y z
#    x 1.836660 0.000000 0.018910 
#    y 0.000000 1.826960 0.000000 
#    z 0.018910 0.000000 1.854680 
# 
# From -- ./inp_files/54343.got.cif
#   From: 2010.05.17/outbox.cif.g08.bks.cpg/sg5_28_cif.got.tgz:54343.got - 2010.06.03 18:56:24.
