data_PCOD9123029
_publ_section_title
;
Structure prediction by ZEFSAII (Michael W. Deem and Ramdas Pophale) SiO2 
 PCOD9123029
Probable space group: C 2
;
_chemical_formula_sum "Si O2"
_cell_formula_units_Z 28
_cell_length_a 15.717888
_cell_length_b 10.769053
_cell_length_c 15.736444
_cell_angle_alpha 90.000000
_cell_angle_beta 28.679734
_cell_angle_gamma 90.000000
_cell_volume 1278.324205
_symmetry_space_group_name_H-M "C 2"
_symmetry_group_IT_number 5
_symmetry_cell_setting 'monoclinic'
loop_
_space_group_symop_operation_xyz
x,y,z
-x,y,-z
1/2+x,1/2+y,z
1/2-x,1/2+y,-z
loop_
_atom_site_type_symbol
_atom_site_label
_atom_site_fract_x
_atom_site_fract_y
_atom_site_fract_z
Si Si1 0.272253 0.943390 0.938968
Si Si2 0.387463 0.922847 0.020076
Si Si3 0.967099 0.404675 0.433749
Si Si4 0.153318 0.670221 0.479272
Si Si5 0.481308 0.430358 0.429192
Si Si6 0.524689 0.635721 0.074188
Si Si7 0.100249 0.851817 0.669028
O O1 0.392525 0.873525 0.763633
O O2 0.383553 0.973128 0.926992
O O3 0.092697 0.866868 0.120083
O O4 0.188545 0.068052 0.973660
O O5 0.183958 0.915078 0.225359
O O6 0.500000 0.979514 0.000000
O O7 0.448613 0.781765 0.956020
O O8 0.971991 0.555465 0.431110
O O9 0.770312 0.366451 0.578321
O O10 0.000000 0.358503 0.500000
O O11 0.347875 0.623038 0.284700
O O12 0.120431 0.720560 0.602794
O O13 0.115817 0.799564 0.462858
O O14 0.500000 0.507085 0.500000
O O15 0.389546 0.454173 0.418142
O O16 0.500000 0.585225 0.000000
#
# Coordination Sequence:
#
# PCOD9123029 Si02
#       7
#     4   4   4   4   4   4   4
#     4  11  23  38  60  91 132 160 202 258 313 368
#     4  10  21  36  59  91 121 161 205 250 312 363
#     4  12  23  38  64  94 122 160 209 258 310 364
#     4  10  20  37  59  87 127 152 203 255 309 367
#     4   9  17  32  56  82 115 150 194 245 299 350
#     4  11  20  35  63  94 122 157 208 261 308 362
#     4   9  23  39  54  92 125 162 196 254 314 370
#
# _framework density 21.903676999999998
#
# number of rings (size 3 to 8) (size 9 to 14) (size 15 to 20)
#    0.857    0.857    1.429    4.714    2.000    0.000 
#    0.000    0.000    0.000    5.143    0.000    0.000 
#    0.000    0.000    0.000    0.000    0.000    0.000 
#
# Total GULP energy -77952.375340 kJ/mol
# GULP energy per Si atom -5568.026810 kJ/mol
# Density = 2.185382 g / cm^3
# Si number density = 21.903677 Si / 1000 Ang^3
#
#
#
# Elastic Constant Matrix: (Units=GPa)
#
#
# Indices 1 2 3 4 5 6 
#
# 1 212.6129 9.8877 50.6837 0.0000 3.9615 0.0000
# 2 9.8877 14.8621 -3.9745 0.0004 3.1331 -0.0002
# 3 50.6837 -3.9745 125.2153 0.0005 8.0201 -0.0003
# 4 0.0000 0.0004 0.0005 -6.2998 -0.0003 2.1311
# 5 3.9615 3.1331 8.0201 -0.0003 32.8535 0.0002
# 6 0.0000 -0.0002 -0.0003 2.1311 0.0002 21.9472
#
#
#
# Elastic Compliance Matrix: (Units=1/GPa)
#
#
# Indices 1 2 3 4 5 6 
#
# 1 0.005464 -0.004340 -0.002371 -0.000001 0.000334 0.000000
# 2 -0.004340 0.072982 0.004557 0.000006 -0.007549 0.000000
# 3 -0.002371 0.004557 0.009245 0.000001 -0.002405 0.000000
# 4 -0.000001 0.000006 0.000001 -0.153688 -0.000002 0.014923
# 5 0.000334 -0.007549 -0.002405 -0.000002 0.031705 0.000000
# 6 0.000000 0.000000 0.000000 0.014923 0.000000 0.044115
#
#
# Mechanical properties :
#
#
# Convention : Reuss Voigt Hill
#
# Bulk Modulus (GPa) = 11.99282 51.76491 31.87886
# Shear Modulus (GPa) = 119.26033 29.43975 74.35004
#
# Velocity S-wave (km/s) = 7.38687 3.67011 5.83248
# Velocity P-wave (km/s) = 8.84543 6.45321 7.74227
#
# Compressibility (1/GPa) = 0.08338326
#
# Stress axis : x y z
#
# Youngs Moduli (GPa) = 183.01062 13.70196 108.17109
#
# Poissons Ratio (x) = 0.05946 0.25646
# Poissons Ratio (y) = 0.79421 -0.49290
# Poissons Ratio (z) = 0.43389 -0.06244
#
# Static dielectric constant tensor:
#      x y z
#    x 2.042080 0.000000 0.158930 
#    y 0.000000 1.810530 0.000000 
#    z 0.158930 0.000000 1.890340 
# 
# From -- ./inp_files/54736.got.cif
#   From: 2010.05.17/outbox.cif.g08.bks.cpg/sg5_28_cif.got.tgz:54736.got - 2010.06.03 18:56:24.
