data_PCOD9123221
_publ_section_title
;
Structure prediction by ZEFSAII (Michael W. Deem and Ramdas Pophale) SiO2 
 PCOD9123221
Probable space group: C 2
;
_chemical_formula_sum "Si O2"
_cell_formula_units_Z 30
_cell_length_a 17.114361
_cell_length_b 6.014250
_cell_length_c 14.301423
_cell_angle_alpha 90.000000
_cell_angle_beta 96.865009
_cell_angle_gamma 90.000000
_cell_volume 1461.492325
_symmetry_space_group_name_H-M "C 2"
_symmetry_group_IT_number 5
_symmetry_cell_setting 'monoclinic'
loop_
_space_group_symop_operation_xyz
x,y,z
-x,y,-z
1/2+x,1/2+y,z
1/2-x,1/2+y,-z
loop_
_atom_site_type_symbol
_atom_site_label
_atom_site_fract_x
_atom_site_fract_y
_atom_site_fract_z
Si Si1 0.997009 0.482670 0.302857
Si Si2 0.000000 0.526160 0.000000
Si Si3 0.415456 0.717116 0.844360
Si Si4 0.860090 0.661205 0.591722
Si Si5 0.645550 0.657986 0.747246
Si Si6 0.216056 0.962781 0.265174
Si Si7 0.214513 0.839678 0.600113
Si Si8 0.953482 0.849443 0.150544
O O1 0.924978 0.312901 0.302056
O O2 0.965195 0.697392 0.243546
O O3 0.057709 0.356891 0.242333
O O4 0.051968 0.564867 0.394417
O O5 0.060843 0.372165 0.065846
O O6 0.950610 0.679699 0.064156
O O7 0.328855 0.627714 0.811227
O O8 0.470520 0.500756 0.857448
O O9 0.843947 0.810045 0.682652
O O10 0.839109 0.803013 0.497757
O O11 0.795239 0.465046 0.584521
O O12 0.721194 0.809136 0.777859
O O13 0.671515 0.490442 0.670128
O O14 0.614908 0.522115 0.832701
O O15 0.262924 0.108426 0.347947
#
# Coordination Sequence:
#
# PCOD9123221 Si02
#       8
#     4   2   4   4   4   4   4   4
#     4  10  20  39  64  93 124 171 213 267 312 383
#     4  10  22  36  70 110 120 154 216 280 312 390
#     4  10  20  37  68 103 119 159 222 264 321 377
#     4  11  21  37  67  90 131 172 229 262 307 370
#     4  10  24  39  63  95 133 174 209 260 334 374
#     4  11  21  39  64  98 125 177 215 268 315 379
#     4  11  22  39  62  97 130 174 218 272 308 372
#     4  10  20  41  63 101 126 161 211 267 320 388
#
# _framework density 20.526962999999999
#
# number of rings (size 3 to 8) (size 9 to 14) (size 15 to 20)
#    0.000    1.600    4.000    1.200    0.000    0.000 
#    0.000    4.000    2.933    0.000  156.000    0.000 
#    0.000    0.000    0.000    0.000    0.000    0.000 
#
# Total GULP energy -83790.061019 kJ/mol
# GULP energy per Si atom -5586.004068 kJ/mol
# Density = 2.048024 g / cm^3
# Si number density = 20.526963 Si / 1000 Ang^3
#
#
#
# Elastic Constant Matrix: (Units=GPa)
#
#
# Indices 1 2 3 4 5 6 
#
# 1 84.7013 32.8344 32.9977 0.0000 2.9881 0.0000
# 2 32.8344 87.6254 21.8799 0.0000 4.7216 0.0000
# 3 32.9977 21.8799 72.4337 0.0000 13.0474 0.0000
# 4 0.0000 0.0000 0.0000 27.1210 0.0000 -2.7455
# 5 2.9881 4.7216 13.0474 0.0000 12.5440 0.0000
# 6 0.0000 0.0000 0.0000 -2.7455 0.0000 22.9090
#
#
#
# Elastic Compliance Matrix: (Units=1/GPa)
#
#
# Indices 1 2 3 4 5 6 
#
# 1 0.016071 -0.004584 -0.006839 0.000000 0.005011 0.000000
# 2 -0.004584 0.013660 -0.001610 0.000000 -0.002375 0.000000
# 3 -0.006839 -0.001610 0.020926 0.000000 -0.019530 0.000000
# 4 0.000000 0.000000 0.000000 0.037325 0.000000 0.004473
# 5 0.005011 -0.002375 -0.019530 0.000000 0.099734 0.000000
# 6 0.000000 0.000000 0.000000 0.004473 0.000000 0.044187
#
#
# Mechanical properties :
#
#
# Convention : Reuss Voigt Hill
#
# Bulk Modulus (GPa) = 40.66736 46.68718 43.67727
# Shear Modulus (GPa) = 18.78534 22.98469 20.88501
#
# Velocity S-wave (km/s) = 3.02843 3.34987 3.19320
# Velocity P-wave (km/s) = 5.66421 6.14458 5.90928
#
# Compressibility (1/GPa) = 0.02458975
#
# Stress axis : x y z
#
# Youngs Moduli (GPa) = 62.22456 73.20642 47.78841
#
# Poissons Ratio (x) = 0.33560 0.32682
# Poissons Ratio (y) = 0.28525 0.07694
# Poissons Ratio (z) = 0.42555 0.11787
#
# Static dielectric constant tensor:
#      x y z
#    x 1.728240 0.000000 -0.001710 
#    y 0.000000 1.768040 0.000000 
#    z -0.001710 0.000000 1.724830 
# 
# From -- ./inp_files/55489.got.cif
#   From: 2010.05.17/outbox.cif.g08.bks.cpg/sg5_28_cif.got.tgz:55489.got - 2010.06.03 18:56:24.
