data_PCOD9123368
_publ_section_title
;
Structure prediction by ZEFSAII (Michael W. Deem and Ramdas Pophale) SiO2 
 PCOD9123368
Probable space group: C 2
;
_chemical_formula_sum "Si O2"
_cell_formula_units_Z 22
_cell_length_a 7.428665
_cell_length_b 14.192295
_cell_length_c 8.196178
_cell_angle_alpha 90.000000
_cell_angle_beta 83.454925
_cell_angle_gamma 90.000000
_cell_volume 858.489530
_symmetry_space_group_name_H-M "C 2"
_symmetry_group_IT_number 5
_symmetry_cell_setting 'monoclinic'
loop_
_space_group_symop_operation_xyz
x,y,z
-x,y,-z
1/2+x,1/2+y,z
1/2-x,1/2+y,-z
loop_
_atom_site_type_symbol
_atom_site_label
_atom_site_fract_x
_atom_site_fract_y
_atom_site_fract_z
Si Si1 0.226664 0.700820 0.825996
Si Si2 0.151098 0.440713 0.668745
Si Si3 0.286593 0.598533 0.485309
Si Si4 0.862359 0.245076 0.227251
Si Si5 0.500000 0.044493 0.000000
Si Si6 0.444023 0.368699 0.845509
O O1 0.207607 0.650740 0.651484
O O2 0.436982 0.717370 0.837814
O O3 0.160628 0.620963 0.961140
O O4 0.107527 0.795427 0.809391
O O5 0.184291 0.499355 0.501628
O O6 0.110208 0.331434 0.647343
O O7 0.027815 0.480529 0.833015
O O8 0.359708 0.436495 0.720601
O O9 0.500000 0.593928 0.500000
O O10 0.262757 0.659581 0.326407
O O11 0.729667 0.298122 0.114941
O O12 0.500000 0.425075 0.000000
#
# Coordination Sequence:
#
# PCOD9123368 Si02
#       6
#     4   4   4   4   2   4
#     4  10  20  39  68  92 136 185 226 291 343 415
#     4   9  22  38  68 100 140 178 229 295 331 423
#     4   9  19  41  67  95 138 173 238 288 341 413
#     4   9  22  40  72  94 137 193 222 289 352 406
#     4  10  20  38  62  98 146 168 238 278 336 428
#     4  10  22  39  67 100 133 188 230 278 352 416
#
# _framework density 25.626404999999998
#
# number of rings (size 3 to 8) (size 9 to 14) (size 15 to 20)
#    1.091    1.455    0.909    0.000    2.545    2.909 
#    0.000    5.455   32.000    0.000    0.000    0.000 
#    0.000    0.000    0.000    0.000    0.000    0.000 
#
# Total GULP energy -61310.657230 kJ/mol
# GULP energy per Si atom -5573.696112 kJ/mol
# Density = 2.556808 g / cm^3
# Si number density = 25.626405 Si / 1000 Ang^3
#
#
#
# Elastic Constant Matrix: (Units=GPa)
#
#
# Indices 1 2 3 4 5 6 
#
# 1 102.7723 8.9703 26.6183 0.0000 -1.8880 0.0000
# 2 8.9703 87.5276 31.1509 0.0000 -27.2670 0.0000
# 3 26.6183 31.1509 84.8466 0.0000 -12.1359 0.0000
# 4 0.0000 0.0000 0.0000 23.8399 0.0000 -0.8972
# 5 -1.8880 -27.2670 -12.1359 0.0000 29.7656 0.0000
# 6 0.0000 0.0000 0.0000 -0.8972 0.0000 27.6428
#
#
#
# Elastic Compliance Matrix: (Units=1/GPa)
#
#
# Indices 1 2 3 4 5 6 
#
# 1 0.010607 -0.000140 -0.003396 0.000000 -0.000840 0.000000
# 2 -0.000140 0.017385 -0.004314 0.000000 0.014158 0.000000
# 3 -0.003396 -0.004314 0.014696 0.000000 0.001825 0.000000
# 4 0.000000 0.000000 0.000000 0.041998 0.000000 0.001363
# 5 -0.000840 0.014158 0.001825 0.000000 0.047256 0.000000
# 6 0.000000 0.000000 0.000000 0.001363 0.000000 0.036220
#
#
# Mechanical properties :
#
#
# Convention : Reuss Voigt Hill
#
# Bulk Modulus (GPa) = 37.05387 45.40283 41.22835
# Shear Modulus (GPa) = 25.92575 30.14346 28.03461
#
# Velocity S-wave (km/s) = 3.18414 3.43339 3.31112
# Velocity P-wave (km/s) = 5.29235 5.78561 5.54447
#
# Compressibility (1/GPa) = 0.02698774
#
# Stress axis : x y z
#
# Youngs Moduli (GPa) = 94.28011 57.52017 68.04447
#
# Poissons Ratio (x) = 0.00806 0.23110
# Poissons Ratio (y) = 0.01320 0.29353
# Poissons Ratio (z) = 0.32021 0.24813
#
# Static dielectric constant tensor:
#      x y z
#    x 1.977910 0.000000 0.032470 
#    y 0.000000 2.099650 0.000000 
#    z 0.032470 0.000000 2.165030 
# 
# From -- ./inp_files/15678.got.cif
#   From: 2010.05.17/outbox.cif.g08.bks.cpg/sg5_8_cif.got.tgz:15678.got - 2010.06.03 18:56:24.
