data_PCOD9123789
_publ_section_title
;
Structure prediction by ZEFSAII (Michael W. Deem and Ramdas Pophale) SiO2 
 PCOD9123789
Probable space group: C 2
;
_chemical_formula_sum "Si O2"
_cell_formula_units_Z 28
_cell_length_a 13.505674
_cell_length_b 5.393442
_cell_length_c 19.183452
_cell_angle_alpha 90.000000
_cell_angle_beta 55.765156
_cell_angle_gamma 90.000000
_cell_volume 1155.253378
_symmetry_space_group_name_H-M "C 2"
_symmetry_group_IT_number 5
_symmetry_cell_setting 'monoclinic'
loop_
_space_group_symop_operation_xyz
x,y,z
-x,y,-z
1/2+x,1/2+y,z
1/2-x,1/2+y,-z
loop_
_atom_site_type_symbol
_atom_site_label
_atom_site_fract_x
_atom_site_fract_y
_atom_site_fract_z
Si Si1 0.209585 0.729140 0.340000
Si Si2 0.355947 0.106805 0.375345
Si Si3 0.907978 0.841958 0.222913
Si Si4 0.892388 0.398973 0.507288
Si Si5 0.788695 0.486777 0.022341
Si Si6 0.486420 0.643563 0.076971
Si Si7 0.269755 0.957544 0.184888
O O1 0.285957 0.493923 0.284849
O O2 0.119462 0.620997 0.431972
O O3 0.177285 0.883198 0.283069
O O4 0.300824 0.892659 0.349165
O O5 0.440903 0.250110 0.287107
O O6 0.237865 0.265888 0.444199
O O7 0.415403 0.996226 0.420501
O O8 0.865541 0.628061 0.187539
O O9 0.002232 0.006899 0.143828
O O10 0.000000 0.240940 0.500000
O O11 0.743545 0.554935 0.118407
O O12 0.776281 0.738787 0.982699
O O13 0.924611 0.376637 0.966588
O O14 0.347482 0.716165 0.134632
O O15 0.500000 0.490737 0.000000
#
# Coordination Sequence:
#
# PCOD9123789 Si02
#       7
#     4   4   4   4   4   4   4
#     4   9  19  39  62  89 123 167 209 279 335 399
#     4  10  20  40  63  92 133 165 219 284 331 409
#     4   9  19  36  70  90 119 165 223 268 337 393
#     4  11  22  38  65  93 128 174 221 271 342 408
#     4  11  26  41  61  95 139 176 216 283 342 391
#     4   9  20  37  63  89 118 171 224 263 322 413
#     4   9  20  39  66  88 121 175 220 269 332 402
#
# _framework density 24.237110000000001
#
# number of rings (size 3 to 8) (size 9 to 14) (size 15 to 20)
#    0.000    2.286    1.429    0.000    8.000    1.143 
#    2.571    0.000    0.000    0.000    0.000    0.000 
#    0.000    0.000    0.000    0.000    0.000    0.000 
#
# Total GULP energy -78009.555869 kJ/mol
# GULP energy per Si atom -5572.111134 kJ/mol
# Density = 2.418194 g / cm^3
# Si number density = 24.237110 Si / 1000 Ang^3
#
#
#
# Elastic Constant Matrix: (Units=GPa)
#
#
# Indices 1 2 3 4 5 6 
#
# 1 85.2387 -0.6596 25.8181 0.0016 28.2913 0.0041
# 2 -0.6596 37.6115 33.2156 0.0069 10.3289 0.0073
# 3 25.8181 33.2156 158.9471 0.0005 45.0793 0.0008
# 4 0.0016 0.0069 0.0005 32.5366 0.0002 -1.9915
# 5 28.2913 10.3289 45.0793 0.0002 33.5629 0.0012
# 6 0.0041 0.0073 0.0008 -1.9915 0.0012 14.1137
#
#
#
# Elastic Compliance Matrix: (Units=1/GPa)
#
#
# Indices 1 2 3 4 5 6 
#
# 1 0.017154 0.003904 0.001356 -0.000002 -0.017482 -0.000006
# 2 0.003904 0.033536 -0.006109 -0.000008 -0.005407 -0.000019
# 3 0.001356 -0.006109 0.011531 0.000001 -0.014751 0.000004
# 4 -0.000002 -0.000008 0.000001 0.031002 0.000002 0.004375
# 5 -0.017482 -0.005407 -0.014751 0.000002 0.066007 0.000003
# 6 -0.000006 -0.000019 0.000004 0.004375 0.000003 0.071471
#
#
# Mechanical properties :
#
#
# Convention : Reuss Voigt Hill
#
# Bulk Modulus (GPa) = 16.52250 44.28282 30.40266
# Shear Modulus (GPa) = 19.79629 30.93753 25.36691
#
# Velocity S-wave (km/s) = 2.86103 3.57662 3.23865
# Velocity P-wave (km/s) = 4.21258 5.94699 5.15327
#
# Compressibility (1/GPa) = 0.06052354
#
# Stress axis : x y z
#
# Youngs Moduli (GPa) = 58.29647 29.81892 86.72067
#
# Poissons Ratio (x) = -0.11642 -0.11759
# Poissons Ratio (y) = -0.22761 0.52976
# Poissons Ratio (z) = -0.07905 0.18216
#
# Static dielectric constant tensor:
#      x y z
#    x 2.036280 0.000000 -0.021080 
#    y 0.000000 2.009740 0.000000 
#    z -0.021080 0.000000 2.020980 
# 
# From -- ./inp_files/61073.got.cif
#   From: 2010.05.17/outbox.cif.g08.bks.cpg/sg5_31_cif.got.tgz:61073.got - 2010.06.03 18:56:24.
