data_PCOD9123874
_publ_section_title
;
Structure prediction by ZEFSAII (Michael W. Deem and Ramdas Pophale) SiO2 
 PCOD9123874
Probable space group: C 2
;
_chemical_formula_sum "Si O2"
_cell_formula_units_Z 24
_cell_length_a 11.772447
_cell_length_b 8.651914
_cell_length_c 26.995780
_cell_angle_alpha 90.000000
_cell_angle_beta 26.070296
_cell_angle_gamma 90.000000
_cell_volume 1208.391200
_symmetry_space_group_name_H-M "C 2"
_symmetry_group_IT_number 5
_symmetry_cell_setting 'monoclinic'
loop_
_space_group_symop_operation_xyz
x,y,z
-x,y,-z
1/2+x,1/2+y,z
1/2-x,1/2+y,-z
loop_
_atom_site_type_symbol
_atom_site_label
_atom_site_fract_x
_atom_site_fract_y
_atom_site_fract_z
Si Si1 0.331001 0.827320 0.171558
Si Si2 0.713595 0.711495 0.104519
Si Si3 0.500000 0.906101 0.000000
Si Si4 0.000000 0.407321 0.500000
Si Si5 0.514048 0.620913 0.704018
Si Si6 0.380382 0.195955 0.406579
Si Si7 0.813153 0.859555 0.526811
O O1 0.557925 0.789694 0.121245
O O2 0.094952 0.717182 0.280394
O O3 0.413938 0.812573 0.081902
O O4 0.214157 0.001601 0.221110
O O5 0.566012 0.707905 0.214606
O O6 0.000000 0.781045 0.000000
O O7 0.776634 0.528293 0.070401
O O8 0.229905 0.515000 0.389715
O O9 0.130333 0.294866 0.488720
O O10 0.591423 0.741695 0.631442
O O11 0.470254 0.277997 0.421482
O O12 0.304716 0.020575 0.444031
O O13 0.000000 0.887439 0.500000
#
# Coordination Sequence:
#
# PCOD9123874 Si02
#       7
#     4   4   2   2   4   4   4
#     4  10  20  41  67  94 126 172 222 269 322 389
#     4   9  20  41  66  93 126 171 216 269 325 379
#     4   8  20  42  64  90 126 170 210 274 330 364
#     4  10  20  40  66  98 134 172 212 262 324 394
#     4  10  21  39  66  94 134 172 209 269 331 381
#     4  11  24  40  66  98 135 174 218 260 328 392
#     4  12  24  42  63  98 133 175 211 266 323 397
#
# _framework density 19.861117
#
# number of rings (size 3 to 8) (size 9 to 14) (size 15 to 20)
#    0.500    1.333    1.667    3.000    2.333    0.000 
#    3.000    3.333    0.000    0.000    0.000    0.000 
#    0.000    0.000    0.000    0.000    0.000    0.000 
#
# Total GULP energy -66954.552142 kJ/mol
# GULP energy per Si atom -5579.546012 kJ/mol
# Density = 1.981591 g / cm^3
# Si number density = 19.861117 Si / 1000 Ang^3
#
#
#
# Elastic Constant Matrix: (Units=GPa)
#
#
# Indices 1 2 3 4 5 6 
#
# 1 109.0167 45.5276 52.1666 -0.0046 -6.8351 -0.0018
# 2 45.5276 85.7906 39.4112 0.0014 1.0744 0.0017
# 3 52.1666 39.4112 112.4099 -0.0071 15.9245 -0.0043
# 4 -0.0046 0.0014 -0.0071 10.3939 -0.0016 11.3541
# 5 -6.8351 1.0744 15.9245 -0.0016 35.7630 0.0010
# 6 -0.0018 0.0017 -0.0043 11.3541 0.0010 28.6441
#
#
#
# Elastic Compliance Matrix: (Units=1/GPa)
#
#
# Indices 1 2 3 4 5 6 
#
# 1 0.014330 -0.005085 -0.005632 0.000007 0.005400 -0.000003
# 2 -0.005085 0.015817 -0.003181 -0.000008 -0.000030 0.000002
# 3 -0.005632 -0.003181 0.013624 0.000007 -0.007047 -0.000001
# 4 0.000007 -0.000008 0.000007 0.169684 0.000008 -0.067260
# 5 0.005400 -0.000030 -0.007047 0.000008 0.032133 -0.000005
# 6 -0.000003 0.000002 -0.000001 -0.067260 -0.000005 0.061572
#
#
# Mechanical properties :
#
#
# Convention : Reuss Voigt Hill
#
# Bulk Modulus (GPa) = 62.60496 64.60311 63.60404
# Shear Modulus (GPa) = 14.69375 26.30098 20.49737
#
# Velocity S-wave (km/s) = 2.72292 3.64297 3.21602
# Velocity P-wave (km/s) = 6.44015 7.09175 6.77379
#
# Compressibility (1/GPa) = 0.01597317
#
# Stress axis : x y z
#
# Youngs Moduli (GPa) = 69.78230 63.22476 73.40222
#
# Poissons Ratio (x) = 0.32150 0.41343
# Poissons Ratio (y) = 0.35484 0.23351
# Poissons Ratio (z) = 0.39305 0.20113
#
# Static dielectric constant tensor:
#      x y z
#    x 1.720300 0.000000 -0.007380 
#    y 0.000000 1.692600 0.000000 
#    z -0.007380 0.000000 1.718730 
# 
# From -- ./inp_files/70308.got.cif
#   From: 2010.05.17/outbox.cif.g08.bks.cpg/sg5_36_cif.got.tgz:70308.got - 2010.06.03 18:56:24.
