data_PCOD9123470
_publ_section_title
;
Structure prediction by ZEFSAII (Michael W. Deem and Ramdas Pophale) SiO2 
 PCOD9123470
Probable space group: C 2
;
_chemical_formula_sum "Si O2"
_cell_formula_units_Z 32
_cell_length_a 11.219939
_cell_length_b 15.643167
_cell_length_c 16.126296
_cell_angle_alpha 90.000000
_cell_angle_beta 35.514644
_cell_angle_gamma 90.000000
_cell_volume 1644.218062
_symmetry_space_group_name_H-M "C 2"
_symmetry_group_IT_number 5
_symmetry_cell_setting 'monoclinic'
loop_
_space_group_symop_operation_xyz
x,y,z
-x,y,-z
1/2+x,1/2+y,z
1/2-x,1/2+y,-z
loop_
_atom_site_type_symbol
_atom_site_label
_atom_site_fract_x
_atom_site_fract_y
_atom_site_fract_z
Si Si1 0.833968 0.793410 0.025661
Si Si2 0.903801 0.844562 0.369335
Si Si3 0.492693 0.051174 0.096311
Si Si4 0.439634 0.464175 0.863014
Si Si5 0.328612 0.432391 0.653864
Si Si6 0.919251 0.683474 0.822205
Si Si7 0.708393 0.541883 0.831989
Si Si8 0.014565 0.383766 0.689075
O O1 0.634555 0.810589 0.193471
O O2 0.911642 0.883066 0.941254
O O3 0.798974 0.732380 0.965557
O O4 0.000000 0.766709 0.000000
O O5 0.668423 0.857151 0.528954
O O6 0.976577 0.919910 0.267096
O O7 0.048349 0.858073 0.368167
O O8 0.950292 0.755326 0.298330
O O9 0.457360 0.115264 0.192456
O O10 0.302334 0.986572 0.207089
O O11 0.500000 0.087865 0.000000
O O12 0.714632 0.006803 0.985618
O O13 0.611351 0.532371 0.795555
O O14 0.500000 0.479081 0.500000
O O15 0.158171 0.403303 0.685830
O O16 0.793885 0.628881 0.824722
O O17 0.877597 0.467315 0.746135
O O18 0.500000 0.523089 0.000000
#
# Coordination Sequence:
#
# PCOD9123470 Si02
#       8
#     4   4   4   4   4   4   4   4
#     4  11  20  39  64  93 128 166 215 263 311 383
#     4  10  25  41  64  97 129 168 219 259 315 389
#     4  12  21  40  66  94 122 167 213 268 314 376
#     4  11  20  39  66  97 118 168 227 253 309 392
#     4  10  20  38  66  92 122 168 214 252 307 389
#     4  11  25  40  61  97 135 155 206 279 324 357
#     4  12  20  40  71  96 124 168 216 267 323 371
#     4  11  20  41  71  90 127 178 214 253 317 395
#
# _framework density 19.462139000000001
#
# number of rings (size 3 to 8) (size 9 to 14) (size 15 to 20)
#    0.000    1.000    7.500    0.375    0.000    1.500 
#    0.000    3.750    8.250    0.000    0.000    0.000 
#    0.000    0.000    0.000    0.000    0.000    0.000 
#
# Total GULP energy -89119.083208 kJ/mol
# GULP energy per Si atom -5569.942700 kJ/mol
# Density = 1.941784 g / cm^3
# Si number density = 19.462139 Si / 1000 Ang^3
#
#
#
# Elastic Constant Matrix: (Units=GPa)
#
#
# Indices 1 2 3 4 5 6 
#
# 1 93.7549 45.1495 48.7127 0.0011 -5.0417 -0.0005
# 2 45.1495 93.7764 55.3294 -0.0026 -4.7684 0.0006
# 3 48.7127 55.3294 150.9532 -0.0002 -6.9392 0.0004
# 4 0.0011 -0.0026 -0.0002 -6.0763 0.0001 15.5551
# 5 -5.0417 -4.7684 -6.9392 0.0001 27.6541 0.0004
# 6 -0.0005 0.0006 0.0004 15.5551 0.0004 29.1013
#
#
#
# Elastic Compliance Matrix: (Units=1/GPa)
#
#
# Indices 1 2 3 4 5 6 
#
# 1 0.014759 -0.005449 -0.002716 0.000003 0.001070 -0.000001
# 2 -0.005449 0.015651 -0.003946 -0.000004 0.000715 0.000002
# 3 -0.002716 -0.003946 0.008997 0.000000 0.001082 0.000000
# 4 0.000003 -0.000004 0.000000 -0.069489 0.000000 0.037143
# 5 0.001070 0.000715 0.001082 0.000000 0.036751 0.000000
# 6 -0.000001 0.000002 0.000000 0.037143 0.000000 0.014509
#
#
# Mechanical properties :
#
#
# Convention : Reuss Voigt Hill
#
# Bulk Modulus (GPa) = 65.85023 70.76307 68.30665
# Shear Modulus (GPa) = 99.08474 22.75535 60.92004
#
# Velocity S-wave (km/s) = 7.14297 3.42308 5.60087
# Velocity P-wave (km/s) = 10.09643 7.21537 8.77495
#
# Compressibility (1/GPa) = 0.01518598
#
# Stress axis : x y z
#
# Youngs Moduli (GPa) = 67.75555 63.89258 111.14727
#
# Poissons Ratio (x) = 0.34813 0.30192
# Poissons Ratio (y) = 0.36918 0.43853
# Poissons Ratio (z) = 0.18405 0.25209
#
# Static dielectric constant tensor:
#      x y z
#    x 1.760720 0.000000 0.021170 
#    y 0.000000 1.718310 0.000000 
#    z 0.021170 0.000000 1.807910 
# 
# From -- ./inp_files/60692.got.cif
#   From: 2010.05.17/outbox.cif.g08.bks.cpg/sg5_31_cif.got.tgz:60692.got - 2010.06.03 18:56:24.
