data_PCOD9123387
_publ_section_title
;
Structure prediction by ZEFSAII (Michael W. Deem and Ramdas Pophale) SiO2 
 PCOD9123387
Probable space group: C 2
;
_chemical_formula_sum "Si O2"
_cell_formula_units_Z 30
_cell_length_a 15.572639
_cell_length_b 10.539013
_cell_length_c 19.484648
_cell_angle_alpha 90.000000
_cell_angle_beta 157.848974
_cell_angle_gamma 90.000000
_cell_volume 1205.737606
_symmetry_space_group_name_H-M "C 2"
_symmetry_group_IT_number 5
_symmetry_cell_setting 'monoclinic'
loop_
_space_group_symop_operation_xyz
x,y,z
-x,y,-z
1/2+x,1/2+y,z
1/2-x,1/2+y,-z
loop_
_atom_site_type_symbol
_atom_site_label
_atom_site_fract_x
_atom_site_fract_y
_atom_site_fract_z
Si Si1 0.976116 0.142960 0.706664
Si Si2 0.237135 0.754586 0.802502
Si Si3 0.668489 0.967200 0.784340
Si Si4 0.421139 0.375565 0.175690
Si Si5 0.442611 0.727539 0.378681
Si Si6 0.000000 0.885682 0.500000
Si Si7 0.571939 0.907084 0.260736
Si Si8 0.030949 0.753344 0.925979
O O1 0.939169 0.157732 0.597771
O O2 0.875944 0.261944 0.674695
O O3 0.941021 0.005748 0.712277
O O4 0.248407 0.166176 0.914752
O O5 0.230776 0.602941 0.802454
O O6 0.105340 0.809612 0.770707
O O7 0.124817 0.804106 0.650296
O O8 0.500000 0.796482 0.000000
O O9 0.563002 0.874533 0.649473
O O10 0.495185 0.980217 0.719853
O O11 0.875800 0.885833 0.971998
O O12 0.533478 0.289554 0.199836
O O13 0.160700 0.399540 0.955910
O O14 0.500000 0.713284 0.500000
O O15 0.172642 0.694502 0.181949
O O16 0.790372 0.956427 0.381877
#
# Coordination Sequence:
#
# PCOD9123387 Si02
#       8
#     4   4   4   4   4   2   4   4
#     4   9  20  41  65  95 127 170 224 271 323 399
#     4  12  25  43  69 101 136 179 227 275 344 396
#     4   9  21  41  69  94 130 168 225 282 323 400
#     4  10  22  40  68  92 132 179 216 274 336 401
#     4  10  20  38  63  96 129 164 217 275 329 390
#     4  12  26  46  64 102 144 170 226 284 328 420
#     4   9  22  43  69  97 134 170 225 283 339 397
#     4   9  20  37  68  92 122 168 220 268 323 401
#
# _framework density 24.881035000000001
#
# number of rings (size 3 to 8) (size 9 to 14) (size 15 to 20)
#    0.000    2.667    1.333    2.400    8.400    4.267 
#    3.600    0.000    0.000    0.000    0.000    0.000 
#    0.000    0.000    0.000    0.000    0.000    0.000 
#
# Total GULP energy -83937.680232 kJ/mol
# GULP energy per Si atom -5595.845349 kJ/mol
# Density = 2.482440 g / cm^3
# Si number density = 24.881035 Si / 1000 Ang^3
#
#
#
# Elastic Constant Matrix: (Units=GPa)
#
#
# Indices 1 2 3 4 5 6 
#
# 1 135.1579 21.0345 41.2337 -0.0013 -16.2306 -0.0012
# 2 21.0345 61.8383 18.8915 -0.0051 -27.0101 -0.0059
# 3 41.2337 18.8915 110.7817 -0.0055 -23.8852 -0.0065
# 4 -0.0013 -0.0051 -0.0055 16.6584 -0.0020 -7.2137
# 5 -16.2306 -27.0101 -23.8852 -0.0020 64.0923 -0.0023
# 6 -0.0012 -0.0059 -0.0065 -7.2137 -0.0023 26.5924
#
#
#
# Elastic Compliance Matrix: (Units=1/GPa)
#
#
# Indices 1 2 3 4 5 6 
#
# 1 0.008591 -0.001927 -0.002800 -0.000001 0.000320 -0.000001
# 2 -0.001927 0.020557 -0.001115 0.000010 0.007759 0.000008
# 3 -0.002800 -0.001115 0.010879 0.000005 0.002875 0.000004
# 4 -0.000001 0.000010 0.000005 0.068020 0.000009 0.018452
# 5 0.000320 0.007759 0.002875 0.000009 0.020025 0.000007
# 6 -0.000001 0.000008 0.000004 0.018452 0.000007 0.042610
#
#
# Mechanical properties :
#
#
# Convention : Reuss Voigt Hill
#
# Bulk Modulus (GPa) = 35.28329 52.23302 43.75815
# Shear Modulus (GPa) = 26.06682 36.57649 31.32165
#
# Velocity S-wave (km/s) = 3.24027 3.83829 3.55189
# Velocity P-wave (km/s) = 5.31137 6.37824 5.86910
#
# Compressibility (1/GPa) = 0.02834203
#
# Stress axis : x y z
#
# Youngs Moduli (GPa) = 116.39594 48.64609 91.91949
#
# Poissons Ratio (x) = 0.09375 0.25739
# Poissons Ratio (y) = 0.22432 0.10251
# Poissons Ratio (z) = 0.32592 0.05425
#
# Static dielectric constant tensor:
#      x y z
#    x 1.950950 0.000000 0.016600 
#    y 0.000000 1.953150 0.000000 
#    z 0.016600 0.000000 2.058120 
# 
# From -- ./inp_files/61656.got.cif
#   From: 2010.05.17/outbox.cif.g08.bks.cpg/sg5_31_cif.got.tgz:61656.got - 2010.06.03 18:56:24.
