data_PCOD9123572
_publ_section_title
;
Structure prediction by ZEFSAII (Michael W. Deem and Ramdas Pophale) SiO2 
 PCOD9123572
Probable space group: C 2
;
_chemical_formula_sum "Si O2"
_cell_formula_units_Z 32
_cell_length_a 22.515946
_cell_length_b 8.235203
_cell_length_c 8.741214
_cell_angle_alpha 90.000000
_cell_angle_beta 62.104692
_cell_angle_gamma 90.000000
_cell_volume 1432.491971
_symmetry_space_group_name_H-M "C 2"
_symmetry_group_IT_number 5
_symmetry_cell_setting 'monoclinic'
loop_
_space_group_symop_operation_xyz
x,y,z
-x,y,-z
1/2+x,1/2+y,z
1/2-x,1/2+y,-z
loop_
_atom_site_type_symbol
_atom_site_label
_atom_site_fract_x
_atom_site_fract_y
_atom_site_fract_z
Si Si1 0.743931 0.951100 0.364170
Si Si2 0.033328 0.355860 0.309995
Si Si3 0.637663 0.946427 0.956201
Si Si4 0.146533 0.792701 0.970081
Si Si5 0.674539 0.601668 0.476605
Si Si6 0.558861 0.709664 0.826955
Si Si7 0.619877 0.544701 0.219682
Si Si8 0.746213 0.712373 0.896384
O O1 0.695815 0.792234 0.421559
O O2 0.763666 0.018700 0.507196
O O3 0.724846 0.101731 0.275637
O O4 0.813490 0.892409 0.204161
O O5 0.061632 0.175940 0.311346
O O6 0.000000 0.427993 0.500000
O O7 0.978928 0.331799 0.242873
O O8 0.098146 0.445040 0.165134
O O9 0.603372 0.814046 0.889791
O O10 0.713262 0.883301 0.885426
O O11 0.625441 0.127340 0.914693
O O12 0.201210 0.739592 0.032651
O O13 0.097303 0.899221 0.134877
O O14 0.609823 0.605428 0.665729
O O15 0.650478 0.515131 0.350366
O O16 0.500000 0.628430 0.000000
O O17 0.681446 0.624150 0.049950
#
# Coordination Sequence:
#
# PCOD9123572 Si02
#       8
#     4   4   4   4   4   4   4   4
#     4  11  26  37  62  96 137 170 206 266 330 395
#     4  10  20  39  67  89 115 161 231 271 311 376
#     4  10  21  39  64  89 128 167 210 270 321 389
#     4  11  23  39  63  91 133 170 211 258 332 393
#     4  12  24  42  62 100 134 168 214 272 322 389
#     4  10  22  40  68  88 124 171 221 261 316 383
#     4  10  22  38  62  93 122 167 217 265 316 378
#     4  10  20  39  61  92 124 172 210 248 321 391
#
# _framework density 22.338692000000002
#
# number of rings (size 3 to 8) (size 9 to 14) (size 15 to 20)
#    0.000    1.500    3.750    1.500    7.000    0.000 
#    0.000    1.875    8.250    0.000    0.000    0.000 
#    0.000    0.000    0.000    0.000    0.000    0.000 
#
# Total GULP energy -89328.742815 kJ/mol
# GULP energy per Si atom -5583.046426 kJ/mol
# Density = 2.228785 g / cm^3
# Si number density = 22.338692 Si / 1000 Ang^3
#
#
#
# Elastic Constant Matrix: (Units=GPa)
#
#
# Indices 1 2 3 4 5 6 
#
# 1 51.3715 -2.4224 10.5570 0.0000 6.0823 0.0000
# 2 -2.4224 53.2871 11.9006 0.0000 1.0128 0.0000
# 3 10.5570 11.9006 114.4048 0.0000 2.1635 0.0000
# 4 0.0000 0.0000 0.0000 28.8085 0.0000 7.1258
# 5 6.0823 1.0128 2.1635 0.0000 31.4641 0.0000
# 6 0.0000 0.0000 0.0000 7.1258 0.0000 12.2564
#
#
#
# Elastic Compliance Matrix: (Units=1/GPa)
#
#
# Indices 1 2 3 4 5 6 
#
# 1 0.020393 0.001438 -0.001958 0.000000 -0.003854 0.000000
# 2 0.001438 0.019321 -0.002128 0.000000 -0.000754 0.000000
# 3 -0.001958 -0.002128 0.009146 0.000000 -0.000182 0.000000
# 4 0.000000 0.000000 0.000000 0.040542 0.000000 -0.023571
# 5 -0.003854 -0.000754 -0.000182 0.000000 0.032564 0.000000
# 6 0.000000 0.000000 0.000000 -0.023571 0.000000 0.095294
#
#
# Mechanical properties :
#
#
# Convention : Reuss Voigt Hill
#
# Bulk Modulus (GPa) = 22.95570 28.79264 25.87417
# Shear Modulus (GPa) = 21.08998 27.77434 24.43216
#
# Velocity S-wave (km/s) = 3.07596 3.52991 3.31072
# Velocity P-wave (km/s) = 4.78684 5.43423 5.12078
#
# Compressibility (1/GPa) = 0.04356216
#
# Stress axis : x y z
#
# Youngs Moduli (GPa) = 49.03746 51.75653 109.33222
#
# Poissons Ratio (x) = -0.07441 0.21412
# Poissons Ratio (y) = -0.07050 0.23269
# Poissons Ratio (z) = 0.09604 0.11015
#
# Static dielectric constant tensor:
#      x y z
#    x 1.824580 0.000000 0.001220 
#    y 0.000000 1.921250 0.000000 
#    z 0.001220 0.000000 1.841250 
# 
# From -- ./inp_files/30667.got.cif
#   From: 2010.05.17/outbox.cif.g08.bks.cpg/sg5_16_cif.got.tgz:30667.got - 2010.06.03 18:56:24.
