data_PCOD9123170
_publ_section_title
;
Structure prediction by ZEFSAII (Michael W. Deem and Ramdas Pophale) SiO2 
 PCOD9123170
Probable space group: C 2
;
_chemical_formula_sum "Si O2"
_cell_formula_units_Z 28
_cell_length_a 14.388567
_cell_length_b 8.994060
_cell_length_c 22.219460
_cell_angle_alpha 90.000000
_cell_angle_beta 26.627076
_cell_angle_gamma 90.000000
_cell_volume 1288.726714
_symmetry_space_group_name_H-M "C 2"
_symmetry_group_IT_number 5
_symmetry_cell_setting 'monoclinic'
loop_
_space_group_symop_operation_xyz
x,y,z
-x,y,-z
1/2+x,1/2+y,z
1/2-x,1/2+y,-z
loop_
_atom_site_type_symbol
_atom_site_label
_atom_site_fract_x
_atom_site_fract_y
_atom_site_fract_z
Si Si1 0.500000 0.860260 0.500000
Si Si2 0.061606 0.104475 0.383994
Si Si3 0.515005 0.079930 0.175993
Si Si4 0.000000 0.855446 0.500000
Si Si5 0.842752 0.251873 0.923659
Si Si6 0.757663 0.109933 0.288897
Si Si7 0.731927 0.205486 0.853307
Si Si8 0.765078 0.054300 0.154084
O O1 0.448436 0.751903 0.473820
O O2 0.679249 0.966595 0.370201
O O3 0.273433 0.094578 0.301209
O O4 0.137244 0.118212 0.272197
O O5 0.944942 0.957713 0.474250
O O6 0.606933 0.079166 0.190391
O O7 0.587745 0.920790 0.106746
O O8 0.621236 0.216030 0.079535
O O9 0.182076 0.748503 0.372468
O O10 0.841002 0.216835 0.854179
O O11 0.998743 0.131143 0.860842
O O12 0.676719 0.119610 0.267450
O O13 0.710553 0.377868 0.845720
O O14 0.500000 0.145030 0.000000
O O15 0.000000 0.105787 0.000000
#
# Coordination Sequence:
#
# PCOD9123170 Si02
#       8
#     2   4   4   2   4   4   4   4
#     4  10  24  38  70  82 124 180 212 236 310 382
#     4  11  21  44  61  92 124 168 208 256 307 373
#     4  11  23  39  64  96 128 160 204 263 319 369
#     4  10  24  42  62  82 132 172 200 260 306 354
#     4  11  23  39  64  96 128 160 204 263 319 369
#     4  11  21  44  61  92 124 168 208 256 307 373
#     4  10  20  37  64  95 125 159 204 258 317 375
#     4  10  20  37  64  95 125 159 204 258 317 375
#
# _framework density 21.726872
#
# number of rings (size 3 to 8) (size 9 to 14) (size 15 to 20)
#    0.000    1.429    5.714    0.000    2.000    0.000 
#    2.571   10.714    0.000    0.000    0.000    0.000 
#    0.000    0.000    0.000    0.000    0.000    0.000 
#
# Total GULP energy -78107.492062 kJ/mol
# GULP energy per Si atom -5579.106576 kJ/mol
# Density = 2.167742 g / cm^3
# Si number density = 21.726872 Si / 1000 Ang^3
#
#
#
# Elastic Constant Matrix: (Units=GPa)
#
#
# Indices 1 2 3 4 5 6 
#
# 1 59.3774 8.0236 13.9650 0.0017 12.3581 -0.0008
# 2 8.0236 78.4787 21.5469 0.0004 16.2497 -0.0002
# 3 13.9650 21.5469 74.0837 -0.0018 30.4566 -0.0005
# 4 0.0017 0.0004 -0.0018 40.4838 -0.0003 3.8604
# 5 12.3581 16.2497 30.4566 -0.0003 33.7643 0.0007
# 6 -0.0008 -0.0002 -0.0005 3.8604 0.0007 15.0069
#
#
#
# Elastic Compliance Matrix: (Units=1/GPa)
#
#
# Indices 1 2 3 4 5 6 
#
# 1 0.018300 -0.000436 -0.001042 -0.000001 -0.005548 0.000001
# 2 -0.000436 0.014370 -0.002098 0.000000 -0.004864 0.000000
# 3 -0.001042 -0.002098 0.021827 0.000001 -0.018298 0.000001
# 4 -0.000001 0.000000 0.000001 0.025322 0.000000 -0.006514
# 5 -0.005548 -0.004864 -0.018298 0.000000 0.050494 -0.000003
# 6 0.000001 0.000000 0.000001 -0.006514 -0.000003 0.068312
#
#
# Mechanical properties :
#
#
# Convention : Reuss Voigt Hill
#
# Bulk Modulus (GPa) = 21.12087 33.22341 27.17214
# Shear Modulus (GPa) = 22.56736 29.07795 25.82265
#
# Velocity S-wave (km/s) = 3.22636 3.66230 3.45122
# Velocity P-wave (km/s) = 4.86018 5.76263 5.33054
#
# Compressibility (1/GPa) = 0.04734653
#
# Stress axis : x y z
#
# Youngs Moduli (GPa) = 54.64434 69.58964 45.81422
#
# Poissons Ratio (x) = 0.03035 0.04773
# Poissons Ratio (y) = 0.02383 0.09610
# Poissons Ratio (z) = 0.05693 0.14597
#
# Static dielectric constant tensor:
#      x y z
#    x 1.797210 0.000000 -0.014090 
#    y 0.000000 1.831620 0.000000 
#    z -0.014090 0.000000 1.809840 
# 
# From -- ./inp_files/41669.got.cif
#   From: 2010.05.17/outbox.cif.g08.bks.cpg/sg5_21_cif.got.tgz:41669.got - 2010.06.03 18:56:24.
