data_PCOD9123019
_publ_section_title
;
Structure prediction by ZEFSAII (Michael W. Deem and Ramdas Pophale) SiO2 
 PCOD9123019
Probable space group: C 2
;
_chemical_formula_sum "Si O2"
_cell_formula_units_Z 28
_cell_length_a 14.898756
_cell_length_b 19.909505
_cell_length_c 4.927908
_cell_angle_alpha 90.000000
_cell_angle_beta 100.982230
_cell_angle_gamma 90.000000
_cell_volume 1434.979835
_symmetry_space_group_name_H-M "C 2"
_symmetry_group_IT_number 5
_symmetry_cell_setting 'monoclinic'
loop_
_space_group_symop_operation_xyz
x,y,z
-x,y,-z
1/2+x,1/2+y,z
1/2-x,1/2+y,-z
loop_
_atom_site_type_symbol
_atom_site_label
_atom_site_fract_x
_atom_site_fract_y
_atom_site_fract_z
Si Si1 0.202756 0.836140 0.554448
Si Si2 0.000000 0.263109 0.500000
Si Si3 0.714911 0.157842 0.137707
Si Si4 0.890361 0.978601 0.411511
Si Si5 0.184321 0.296092 0.865329
Si Si6 0.500000 0.667061 0.000000
Si Si7 0.106429 0.697170 0.578026
Si Si8 0.160764 0.060720 0.103079
O O1 0.152131 0.905768 0.567581
O O2 0.248640 0.837088 0.288396
O O3 0.131984 0.774162 0.524904
O O4 0.284320 0.816840 0.815045
O O5 0.082028 0.304092 0.690365
O O6 0.971931 0.213941 0.731054
O O7 0.634945 0.186139 0.903123
O O8 0.790880 0.217323 0.172018
O O9 0.672495 0.154134 0.414101
O O10 0.751670 0.093178 0.996841
O O11 0.000000 0.980314 0.500000
O O12 0.867413 0.997681 0.091915
O O13 0.845945 0.034462 0.591294
O O14 0.584396 0.617426 0.008658
O O15 0.000000 0.682483 0.500000
#
# Coordination Sequence:
#
# PCOD9123019 Si02
#       8
#     4   2   4   4   4   2   4   4
#     4  10  22  38  56  83 120 152 197 240 283 344
#     4  12  22  34  62  88 122 154 186 240 306 354
#     4  10  21  35  56  85 121 148 185 240 296 346
#     4  12  23  38  58  85 119 164 197 229 285 355
#     4  10  21  36  56  86 116 153 190 240 298 345
#     4  12  22  34  56  88 132 152 186 232 278 378
#     4  10  20  37  59  85 113 150 193 243 292 340
#     4  12  23  37  55  90 124 157 191 232 287 361
#
# _framework density 19.51247
#
# number of rings (size 3 to 8) (size 9 to 14) (size 15 to 20)
#    0.000    1.143    2.857    4.286    4.000    0.000 
#    0.000    4.286    0.000    0.000   27.857    0.000 
#    0.000    0.000    0.000    0.000    0.000    0.000 
#
# Total GULP energy -78081.598056 kJ/mol
# GULP energy per Si atom -5577.257004 kJ/mol
# Density = 1.946806 g / cm^3
# Si number density = 19.512470 Si / 1000 Ang^3
#
#
#
# Elastic Constant Matrix: (Units=GPa)
#
#
# Indices 1 2 3 4 5 6 
#
# 1 51.7117 26.6553 0.7250 0.0000 6.4932 0.0000
# 2 26.6553 51.0546 -5.5955 0.0000 -8.2001 0.0000
# 3 0.7250 -5.5955 74.5693 0.0000 -6.4964 0.0000
# 4 0.0000 0.0000 0.0000 36.0727 0.0000 -25.3479
# 5 6.4932 -8.2001 -6.4964 0.0000 27.7944 0.0000
# 6 0.0000 0.0000 0.0000 -25.3479 0.0000 44.3585
#
#
#
# Elastic Compliance Matrix: (Units=1/GPa)
#
#
# Indices 1 2 3 4 5 6 
#
# 1 0.030493 -0.018349 -0.002823 0.000000 -0.013197 0.000000
# 2 -0.018349 0.031935 0.003847 0.000000 0.014607 0.000000
# 3 -0.002823 0.003847 0.014171 0.000000 0.005107 0.000000
# 4 0.000000 0.000000 0.000000 0.046322 0.000000 0.026470
# 5 -0.013197 0.014607 0.005107 0.000000 0.044565 0.000000
# 6 0.000000 0.000000 0.000000 0.026470 0.000000 0.037669
#
#
# Mechanical properties :
#
#
# Convention : Reuss Voigt Hill
#
# Bulk Modulus (GPa) = 23.83842 24.54503 24.19173
# Shear Modulus (GPa) = 19.70152 32.01517 25.85835
#
# Velocity S-wave (km/s) = 3.18101 4.05502 3.64431
# Velocity P-wave (km/s) = 5.07300 5.87628 5.48935
#
# Compressibility (1/GPa) = 0.04194908
#
# Stress axis : x y z
#
# Youngs Moduli (GPa) = 32.79448 31.31391 70.56479
#
# Poissons Ratio (x) = 0.57459 0.19921
# Poissons Ratio (y) = 0.60175 -0.27148
# Poissons Ratio (z) = 0.09258 -0.12047
#
# Static dielectric constant tensor:
#      x y z
#    x 1.716820 0.000000 -0.010400 
#    y 0.000000 1.670350 0.000000 
#    z -0.010400 0.000000 1.663990 
# 
# From -- ./inp_files/7233.got.cif
#   From: 2010.05.17/outbox.cif.g08.bks.cpg/sg5_4_cif.got.tgz:7233.got - 2010.06.03 18:56:24.
