data_PCOD9123587
_publ_section_title
;
Structure prediction by ZEFSAII (Michael W. Deem and Ramdas Pophale) SiO2 
 PCOD9123587
Probable space group: C 2
;
_chemical_formula_sum "Si O2"
_cell_formula_units_Z 32
_cell_length_a 18.252567
_cell_length_b 20.115654
_cell_length_c 8.323453
_cell_angle_alpha 90.000000
_cell_angle_beta 149.029649
_cell_angle_gamma 90.000000
_cell_volume 1572.630643
_symmetry_space_group_name_H-M "C 2"
_symmetry_group_IT_number 5
_symmetry_cell_setting 'monoclinic'
loop_
_space_group_symop_operation_xyz
x,y,z
-x,y,-z
1/2+x,1/2+y,z
1/2-x,1/2+y,-z
loop_
_atom_site_type_symbol
_atom_site_label
_atom_site_fract_x
_atom_site_fract_y
_atom_site_fract_z
Si Si1 0.885768 0.216510 0.179172
Si Si2 0.151544 0.391401 0.259295
Si Si3 0.841380 0.636101 0.774849
Si Si4 0.611734 0.746681 0.331248
Si Si5 0.164345 0.613442 0.850876
Si Si6 0.649718 0.864289 0.870760
Si Si7 0.343475 0.509726 0.629700
Si Si8 0.663316 0.486322 0.768008
O O1 0.821194 0.287129 0.115562
O O2 0.000000 0.175168 0.500000
O O3 0.007206 0.244117 0.286611
O O4 0.752704 0.167885 0.913706
O O5 0.145810 0.321757 0.343286
O O6 0.270881 0.440828 0.549569
O O7 0.152565 0.373425 0.071034
O O8 0.000000 0.426918 0.000000
O O9 0.753497 0.704126 0.589489
O O10 0.753691 0.575183 0.529095
O O11 0.834314 0.627406 0.954892
O O12 0.000000 0.638551 0.000000
O O13 0.500000 0.713594 0.000000
O O14 0.000000 0.611258 0.500000
O O15 0.242232 0.543531 0.974734
O O16 0.500000 0.880890 0.500000
O O17 0.770363 0.916601 0.050107
O O18 0.336008 0.497748 0.423181
O O19 0.500000 0.518046 0.000000
O O20 0.500000 0.491332 0.500000
#
# Coordination Sequence:
#
# PCOD9123587 Si02
#       8
#     4   4   4   4   4   4   4   4
#     4  11  21  41  66  92 129 168 211 257 310 381
#     4  10  20  39  62  92 124 163 210 257 310 372
#     4  11  25  42  62  95 129 165 212 265 315 380
#     4  11  22  40  66  95 127 170 210 254 318 376
#     4  11  25  41  65  94 126 169 211 262 323 372
#     4  10  21  38  63  92 124 164 210 256 312 371
#     4  10  23  42  63  91 127 169 211 260 317 375
#     4  10  23  42  63  91 128 165 213 263 313 378
#
# _framework density 20.348068999999999
#
# number of rings (size 3 to 8) (size 9 to 14) (size 15 to 20)
#    0.000    1.500    3.750    1.500    3.500    3.000 
#    0.000    2.500    0.000    0.000    0.000    0.000 
#    0.000    0.000    0.000    0.000    0.000    0.000 
#
# Total GULP energy -89067.743964 kJ/mol
# GULP energy per Si atom -5566.733998 kJ/mol
# Density = 2.030176 g / cm^3
# Si number density = 20.348069 Si / 1000 Ang^3
#
#
#
# Elastic Constant Matrix: (Units=GPa)
#
#
# Indices 1 2 3 4 5 6 
#
# 1 43.6403 41.3228 16.3080 0.0000 24.3049 0.0000
# 2 41.3228 133.7479 82.8608 0.0000 30.2485 0.0000
# 3 16.3080 82.8608 147.4696 0.0000 35.0404 0.0000
# 4 0.0000 0.0000 0.0000 44.6612 0.0000 7.5067
# 5 24.3049 30.2485 35.0404 0.0000 35.5059 0.0000
# 6 0.0000 0.0000 0.0000 7.5067 0.0000 21.9496
#
#
#
# Elastic Compliance Matrix: (Units=1/GPa)
#
#
# Indices 1 2 3 4 5 6 
#
# 1 0.051496 -0.015012 0.010552 0.000000 -0.032874 0.000000
# 2 -0.015012 0.016412 -0.008728 0.000000 0.004908 0.000000
# 3 0.010552 -0.008728 0.013674 0.000000 -0.013283 0.000000
# 4 0.000000 0.000000 0.000000 0.023756 0.000000 -0.008125
# 5 -0.032874 0.004908 -0.013283 0.000000 0.059595 0.000000
# 6 0.000000 0.000000 0.000000 -0.008125 0.000000 0.048338
#
#
# Mechanical properties :
#
#
# Convention : Reuss Voigt Hill
#
# Bulk Modulus (GPa) = 18.11411 67.31567 42.71489
# Shear Modulus (GPa) = 19.37612 32.71442 26.04527
#
# Velocity S-wave (km/s) = 3.08918 4.01401 3.58157
# Velocity P-wave (km/s) = 4.65247 7.39168 6.17586
#
# Compressibility (1/GPa) = 0.05520558
#
# Stress axis : x y z
#
# Youngs Moduli (GPa) = 19.41911 60.93059 73.13019
#
# Poissons Ratio (x) = 0.91472 -0.77166
# Poissons Ratio (y) = 0.29153 0.63826
# Poissons Ratio (z) = -0.20491 0.53178
#
# Static dielectric constant tensor:
#      x y z
#    x 1.833920 0.000000 -0.057890 
#    y 0.000000 1.727390 0.000000 
#    z -0.057890 0.000000 1.715230 
# 
# From -- ./inp_files/28030.got.cif
#   From: 2010.05.17/outbox.cif.g08.bks.cpg/sg5_15_cif.got.tgz:28030.got - 2010.06.03 18:56:24.
