data_PCOD9124261
_publ_section_title
;
Structure prediction by ZEFSAII (Michael W. Deem and Ramdas Pophale) SiO2 
 PCOD9124261
Probable space group: C 2
;
_chemical_formula_sum "Si O2"
_cell_formula_units_Z 26
_cell_length_a 25.009770
_cell_length_b 9.525958
_cell_length_c 5.342317
_cell_angle_alpha 90.000000
_cell_angle_beta 101.584184
_cell_angle_gamma 90.000000
_cell_volume 1246.839090
_symmetry_space_group_name_H-M "C 2"
_symmetry_group_IT_number 5
_symmetry_cell_setting 'monoclinic'
loop_
_space_group_symop_operation_xyz
x,y,z
-x,y,-z
1/2+x,1/2+y,z
1/2-x,1/2+y,-z
loop_
_atom_site_type_symbol
_atom_site_label
_atom_site_fract_x
_atom_site_fract_y
_atom_site_fract_z
Si Si1 0.599893 0.714980 0.867194
Si Si2 0.175413 0.414501 0.690914
Si Si3 0.500000 0.849878 0.500000
Si Si4 0.419928 0.960493 0.769384
Si Si5 0.832170 0.646607 0.911294
Si Si6 0.761723 0.019066 0.469494
Si Si7 0.170664 0.974051 0.977005
O O1 0.657430 0.774606 0.813967
O O2 0.549433 0.752431 0.640157
O O3 0.589404 0.813010 0.096944
O O4 0.612405 0.552691 0.913114
O O5 0.120236 0.462095 0.505327
O O6 0.222248 0.392952 0.531868
O O7 0.189183 0.537812 0.897477
O O8 0.479715 0.949344 0.707307
O O9 0.392597 0.084592 0.904221
O O10 0.787246 0.626352 0.649363
O O11 0.834271 0.807705 0.985648
O O12 0.799521 0.040826 0.748954
O O13 0.797326 0.991051 0.256690
#
# Coordination Sequence:
#
# PCOD9124261 Si02
#       7
#     4   4   2   4   4   4   4
#     4  10  23  41  66 100 128 174 227 281 334 399
#     4   9  20  39  63  92 131 174 226 268 312 392
#     4  10  20  42  74  94 124 172 226 288 340 396
#     4   9  20  39  69  94 126 163 225 273 336 392
#     4  10  23  42  63  97 140 176 226 268 325 396
#     4  11  25  39  59  95 138 192 216 259 322 392
#     4  12  28  38  67  96 144 175 225 272 332 386
#
# _framework density 20.852732
#
# number of rings (size 3 to 8) (size 9 to 14) (size 15 to 20)
#    0.000    1.846    1.538    0.462   10.769    2.462 
#    0.000    0.000    0.000   22.154    0.000    0.000 
#    0.000    0.000    0.000    0.000    0.000    0.000 
#
# Total GULP energy -72411.198679 kJ/mol
# GULP energy per Si atom -5570.092206 kJ/mol
# Density = 2.080527 g / cm^3
# Si number density = 20.852732 Si / 1000 Ang^3
#
#
#
# Elastic Constant Matrix: (Units=GPa)
#
#
# Indices 1 2 3 4 5 6 
#
# 1 111.7774 54.9100 44.0549 0.0000 -18.2759 0.0000
# 2 54.9100 100.7693 31.1238 0.0000 -8.2989 0.0000
# 3 44.0549 31.1238 110.9437 0.0000 -6.6089 0.0000
# 4 0.0000 0.0000 0.0000 12.2431 0.0000 17.7448
# 5 -18.2759 -8.2989 -6.6089 0.0000 41.9695 0.0000
# 6 0.0000 0.0000 0.0000 17.7448 0.0000 13.0023
#
#
#
# Elastic Compliance Matrix: (Units=1/GPa)
#
#
# Indices 1 2 3 4 5 6 
#
# 1 0.014143 -0.006233 -0.003608 0.000000 0.004358 0.000000
# 2 -0.006233 0.013732 -0.001390 0.000000 -0.000218 0.000000
# 3 -0.003608 -0.001390 0.010828 0.000000 -0.000141 0.000000
# 4 0.000000 0.000000 0.000000 -0.083514 0.000000 0.113975
# 5 0.004358 -0.000218 -0.000141 0.000000 0.025659 0.000000
# 6 0.000000 0.000000 0.000000 0.113975 0.000000 -0.078638
#
#
# Mechanical properties :
#
#
# Convention : Reuss Voigt Hill
#
# Bulk Modulus (GPa) = 61.57617 64.85199 63.21408
# Shear Modulus (GPa) = -71.51621 26.33642 -22.58990
#
# Velocity S-wave (km/s) = -5.86262 3.55769 -3.29493
# Velocity P-wave (km/s) = 4.02913 6.93136 3.98809
#
# Compressibility (1/GPa) = 0.01624005
#
# Stress axis : x y z
#
# Youngs Moduli (GPa) = 70.70663 72.82443 92.35534
#
# Poissons Ratio (x) = 0.45394 0.33320
# Poissons Ratio (y) = 0.44074 0.12837
# Poissons Ratio (z) = 0.25509 0.10122
#
# Static dielectric constant tensor:
#      x y z
#    x 1.820400 0.000000 -0.020580 
#    y 0.000000 1.761830 0.000000 
#    z -0.020580 0.000000 1.813440 
# 
# From -- ./inp_files/10771.got.cif
#   From: 2010.05.17/outbox.cif.g08.bks.cpg/sg5_6_cif.got.tgz:10771.got - 2010.06.03 18:56:24.
