data_PCOD9124970
_publ_section_title
;
Structure prediction by ZEFSAII (Michael W. Deem and Ramdas Pophale) SiO2 
 PCOD9124970
Probable space group: C 2
;
_chemical_formula_sum "Si O2"
_cell_formula_units_Z 26
_cell_length_a 19.983209
_cell_length_b 8.608969
_cell_length_c 8.169977
_cell_angle_alpha 90.000000
_cell_angle_beta 56.328368
_cell_angle_gamma 90.000000
_cell_volume 1169.714608
_symmetry_space_group_name_H-M "C 2"
_symmetry_group_IT_number 5
_symmetry_cell_setting 'monoclinic'
loop_
_space_group_symop_operation_xyz
x,y,z
-x,y,-z
1/2+x,1/2+y,z
1/2-x,1/2+y,-z
loop_
_atom_site_type_symbol
_atom_site_label
_atom_site_fract_x
_atom_site_fract_y
_atom_site_fract_z
Si Si1 0.090799 0.920780 0.439131
Si Si2 0.551780 0.870922 0.272390
Si Si3 0.261969 0.821109 0.631111
Si Si4 0.300297 0.640587 0.898215
Si Si5 0.150867 0.591111 0.331540
Si Si6 0.144444 0.081745 0.688723
Si Si7 0.000000 0.272782 0.000000
O O1 0.118236 0.748605 0.451087
O O2 0.000000 0.922049 0.500000
O O3 0.153591 0.984186 0.218074
O O4 0.101658 0.036119 0.576494
O O5 0.500000 0.815387 0.500000
O O6 0.630119 0.762249 0.152449
O O7 0.586754 0.036333 0.281731
O O8 0.506502 0.867142 0.160994
O O9 0.256221 0.713133 0.798929
O O10 0.287577 0.708713 0.448872
O O11 0.333395 0.945903 0.569793
O O12 0.185030 0.926705 0.701856
O O13 0.236043 0.616183 0.126522
O O14 0.077738 0.162604 0.887913
#
# Coordination Sequence:
#
# PCOD9124970 Si02
#       7
#     4   4   4   4   4   4   2
#     4  11  22  38  61  91 129 170 208 259 324 378
#     4  11  23  43  65  92 130 172 214 260 320 382
#     4  10  22  40  63  90 124 165 209 263 317 370
#     4  10  21  39  63  89 121 166 215 258 312 378
#     4  11  22  39  64  92 124 167 214 260 316 376
#     4  11  24  41  64  92 125 164 215 265 314 379
#     4  12  24  40  68  98 128 170 216 260 316 386
#
# _framework density 22.227644999999999
#
# number of rings (size 3 to 8) (size 9 to 14) (size 15 to 20)
#    0.000    1.231    0.000    8.308    0.000    3.692 
#    0.000    3.077    0.000    4.615    0.000    0.000 
#    0.000    0.000    0.000    0.000    0.000    0.000 
#
# Total GULP energy -72731.132171 kJ/mol
# GULP energy per Si atom -5594.702475 kJ/mol
# Density = 2.217705 g / cm^3
# Si number density = 22.227645 Si / 1000 Ang^3
#
#
#
# Elastic Constant Matrix: (Units=GPa)
#
#
# Indices 1 2 3 4 5 6 
#
# 1 99.3111 4.8334 34.2233 0.0000 -1.1394 0.0000
# 2 4.8334 67.2910 5.6701 0.0000 -1.7595 0.0000
# 3 34.2233 5.6701 93.5465 0.0000 -3.9093 0.0000
# 4 0.0000 0.0000 0.0000 249.5967 0.0000 0.1398
# 5 -1.1394 -1.7595 -3.9093 0.0000 28.5553 0.0000
# 6 0.0000 0.0000 0.0000 0.1398 0.0000 44.4159
#
#
#
# Elastic Compliance Matrix: (Units=1/GPa)
#
#
# Indices 1 2 3 4 5 6 
#
# 1 0.011538 -0.000479 -0.004198 0.000000 -0.000144 0.000000
# 2 -0.000479 0.014975 -0.000699 0.000000 0.000808 0.000000
# 3 -0.004198 -0.000699 0.012330 0.000000 0.001477 0.000000
# 4 0.000000 0.000000 0.000000 0.004006 0.000000 -0.000013
# 5 -0.000144 0.000808 0.001477 0.000000 0.035266 0.000000
# 6 0.000000 0.000000 0.000000 -0.000013 0.000000 0.022514
#
#
# Mechanical properties :
#
#
# Convention : Reuss Voigt Hill
#
# Bulk Modulus (GPa) = 35.59775 38.84469 37.22122
# Shear Modulus (GPa) = 41.40973 78.87505 60.14239
#
# Velocity S-wave (km/s) = 4.32091 5.96340 5.20732
# Velocity P-wave (km/s) = 6.39871 8.05791 7.27577
#
# Compressibility (1/GPa) = 0.02809166
#
# Stress axis : x y z
#
# Youngs Moduli (GPa) = 86.67267 66.77697 81.10461
#
# Poissons Ratio (x) = 0.03197 0.34047
# Poissons Ratio (y) = 0.04150 0.05667
# Poissons Ratio (z) = 0.36385 0.04666
#
# Static dielectric constant tensor:
#      x y z
#    x 1.852400 0.000000 -0.012180 
#    y 0.000000 1.795600 0.000000 
#    z -0.012180 0.000000 1.726360 
# 
# From -- ./inp_files/29080.got.cif
#   From: 2010.05.17/outbox.cif.g08.bks.cpg/sg5_15_cif.got.tgz:29080.got - 2010.06.03 18:56:24.
