data_PCOD9124891
_publ_section_title
;
Structure prediction by ZEFSAII (Michael W. Deem and Ramdas Pophale) SiO2 
 PCOD9124891
Probable space group: C 2
;
_chemical_formula_sum "Si O2"
_cell_formula_units_Z 24
_cell_length_a 23.848848
_cell_length_b 9.116418
_cell_length_c 16.312020
_cell_angle_alpha 90.000000
_cell_angle_beta 161.984826
_cell_angle_gamma 90.000000
_cell_volume 1096.820531
_symmetry_space_group_name_H-M "C 2"
_symmetry_group_IT_number 5
_symmetry_cell_setting 'monoclinic'
loop_
_space_group_symop_operation_xyz
x,y,z
-x,y,-z
1/2+x,1/2+y,z
1/2-x,1/2+y,-z
loop_
_atom_site_type_symbol
_atom_site_label
_atom_site_fract_x
_atom_site_fract_y
_atom_site_fract_z
Si Si1 0.956532 0.606140 0.606251
Si Si2 0.701439 0.323939 0.748301
Si Si3 0.911842 0.866367 0.666437
Si Si4 0.816951 0.867430 0.720163
Si Si5 0.276432 0.561683 0.342481
Si Si6 0.843580 0.097514 0.064096
O O1 0.841850 0.696661 0.378549
O O2 0.968532 0.719647 0.698225
O O3 0.852018 0.463999 0.489911
O O4 0.151015 0.568818 0.837744
O O5 0.500000 0.362197 0.500000
O O6 0.780844 0.466407 0.814560
O O7 0.820517 0.250658 0.984460
O O8 0.832172 0.839706 0.644673
O O9 0.766161 0.954806 0.407653
O O10 0.086500 0.974939 0.903565
O O11 0.813726 0.715861 0.765924
O O12 0.000000 0.951054 0.000000
O O13 0.493904 0.594102 0.644252
#
# Coordination Sequence:
#
# PCOD9124891 Si02
#       6
#     4   4   4   4   4   4
#     4  10  21  38  70  91 131 170 222 280 335 397
#     4   9  18  40  62  95 129 166 214 277 336 395
#     4   9  21  42  62  94 124 170 228 262 337 401
#     4  12  24  41  57  94 137 175 217 271 337 411
#     4   9  22  40  63  94 129 168 232 265 332 411
#     4   9  20  39  71  96 123 170 227 282 338 389
#
# _framework density 21.881429000000001
#
# number of rings (size 3 to 8) (size 9 to 14) (size 15 to 20)
#    1.000    1.333    0.000    2.000    2.333    0.000 
#    9.000    4.167    0.000    0.000    0.000    0.000 
#    0.000    0.000    0.000    0.000    0.000    0.000 
#
# Total GULP energy -66972.738954 kJ/mol
# GULP energy per Si atom -5581.061580 kJ/mol
# Density = 2.183163 g / cm^3
# Si number density = 21.881429 Si / 1000 Ang^3
#
#
#
# Elastic Constant Matrix: (Units=GPa)
#
#
# Indices 1 2 3 4 5 6 
#
# 1 102.9595 54.1403 20.5181 0.0000 19.5554 0.0000
# 2 54.1403 112.0726 38.3825 0.0000 21.0015 0.0000
# 3 20.5181 38.3825 65.5961 0.0000 14.2203 0.0000
# 4 0.0000 0.0000 0.0000 9.2376 0.0000 -0.5016
# 5 19.5554 21.0015 14.2203 0.0000 27.7800 0.0000
# 6 0.0000 0.0000 0.0000 -0.5016 0.0000 12.4673
#
#
#
# Elastic Compliance Matrix: (Units=1/GPa)
#
#
# Indices 1 2 3 4 5 6 
#
# 1 0.013684 -0.005661 0.000217 0.000000 -0.005464 0.000000
# 2 -0.005661 0.014375 -0.005791 0.000000 -0.003918 0.000000
# 3 0.000217 -0.005791 0.019853 0.000000 -0.005937 0.000000
# 4 0.000000 0.000000 0.000000 0.108490 0.000000 0.004365
# 5 -0.005464 -0.003918 -0.005937 0.000000 0.045844 0.000000
# 6 0.000000 0.000000 0.000000 0.004365 0.000000 0.080385
#
#
# Mechanical properties :
#
#
# Convention : Reuss Voigt Hill
#
# Bulk Modulus (GPa) = 39.30708 56.30111 47.80410
# Shear Modulus (GPa) = 15.94478 21.06948 18.50713
#
# Velocity S-wave (km/s) = 2.70235 3.10642 2.91140
# Velocity P-wave (km/s) = 5.26684 6.21710 5.76160
#
# Compressibility (1/GPa) = 0.02544071
#
# Stress axis : x y z
#
# Youngs Moduli (GPa) = 73.07910 69.56550 50.37100
#
# Poissons Ratio (x) = 0.39379 -0.01091
# Poissons Ratio (y) = 0.41368 0.29171
# Poissons Ratio (z) = -0.01582 0.40287
#
# Static dielectric constant tensor:
#      x y z
#    x 1.808220 0.000000 -0.041850 
#    y 0.000000 1.782630 0.000000 
#    z -0.041850 0.000000 1.828650 
# 
# From -- ./inp_files/63310.got.cif
#   From: 2010.05.17/outbox.cif.g08.bks.cpg/sg5_32_cif.got.tgz:63310.got - 2010.06.03 18:56:24.
