data_PCOD9124721
_publ_section_title
;
Structure prediction by ZEFSAII (Michael W. Deem and Ramdas Pophale) SiO2 
 PCOD9124721
Probable space group: C 2
;
_chemical_formula_sum "Si O2"
_cell_formula_units_Z 32
_cell_length_a 8.787595
_cell_length_b 28.966921
_cell_length_c 15.046203
_cell_angle_alpha 90.000000
_cell_angle_beta 151.170775
_cell_angle_gamma 90.000000
_cell_volume 1846.830438
_symmetry_space_group_name_H-M "C 2"
_symmetry_group_IT_number 5
_symmetry_cell_setting 'monoclinic'
loop_
_space_group_symop_operation_xyz
x,y,z
-x,y,-z
1/2+x,1/2+y,z
1/2-x,1/2+y,-z
loop_
_atom_site_type_symbol
_atom_site_label
_atom_site_fract_x
_atom_site_fract_y
_atom_site_fract_z
Si Si1 0.182223 0.218460 0.500000
Si Si2 0.762938 0.042226 0.797339
Si Si3 0.183523 0.465689 0.500002
Si Si4 0.739574 0.295247 0.204260
Si Si5 0.870921 0.042226 0.202661
Si Si6 0.681768 0.364073 0.500000
Si Si7 0.316443 0.116850 0.500002
Si Si8 0.626793 0.295247 0.795740
O O1 0.255311 0.168375 0.500000
O O2 0.491127 0.249341 0.678283
O O3 0.000000 0.213595 0.500000
O O4 0.956279 0.249341 0.321717
O O5 0.535283 0.086876 0.678108
O O6 0.961063 0.043322 0.807376
O O7 0.542153 0.997072 0.677189
O O8 0.000000 0.041615 0.000000
O O9 0.489421 0.497071 0.677195
O O10 0.265110 0.416859 0.499999
O O11 0.000000 0.459230 0.500000
O O12 0.549596 0.298869 0.199731
O O13 0.984084 0.337561 0.322496
O O14 0.500000 0.293939 0.000000
O O15 0.000968 0.086875 0.321898
O O16 0.500000 0.041617 0.000000
O O17 0.500000 0.360489 0.500000
O O18 0.483406 0.337561 0.322497
O O19 0.500000 0.117876 0.500000
O O20 0.000000 0.293939 0.000000
#
# Coordination Sequence:
#
# PCOD9124721 Si02
#       8
#     4   4   4   4   4   4   4   4
#     4   9  20  36  54  78 107 138 174 218 263 310
#     4   9  19  35  54  76 103 137 175 215 260 310
#     4   9  19  37  55  73 105 142 174 214 263 313
#     4  10  21  38  57  79 108 141 179 221 266 316
#     4   9  19  35  54  76 103 137 175 215 260 310
#     4  11  22  36  56  82 109 140 178 218 267 320
#     4   9  19  35  53  75 105 140 174 210 259 315
#     4  10  21  38  57  79 108 141 179 221 266 316
#
# _framework density 17.326982000000001
#
# number of rings (size 3 to 8) (size 9 to 14) (size 15 to 20)
#    0.000    2.500    0.000    4.125    0.000    7.000 
#    0.000   10.000    0.000    0.000    0.000    0.000 
#    0.000    0.000    0.000    0.000    0.000    0.000 
#
# Total GULP energy -89276.605657 kJ/mol
# GULP energy per Si atom -5579.787854 kJ/mol
# Density = 1.728755 g / cm^3
# Si number density = 17.326982 Si / 1000 Ang^3
#
#
#
# Elastic Constant Matrix: (Units=GPa)
#
#
# Indices 1 2 3 4 5 6 
#
# 1 58.5583 63.7788 61.3711 0.0000 2.4678 0.0000
# 2 63.7788 183.7086 104.8815 0.0000 1.4054 0.0000
# 3 61.3711 104.8815 199.9329 0.0000 2.3638 0.0000
# 4 0.0000 0.0000 0.0000 5.2771 0.0000 -1.0079
# 5 2.4678 1.4054 2.3638 0.0000 34.6987 0.0000
# 6 0.0000 0.0000 0.0000 -1.0079 0.0000 34.7743
#
#
#
# Elastic Compliance Matrix: (Units=1/GPa)
#
#
# Indices 1 2 3 4 5 6 
#
# 1 0.031363 -0.007696 -0.005572 0.000000 -0.001539 0.000000
# 2 -0.007696 0.009659 -0.002709 0.000000 0.000341 0.000000
# 3 -0.005572 -0.002709 0.008134 0.000000 -0.000048 0.000000
# 4 0.000000 0.000000 0.000000 0.190553 0.000000 0.005523
# 5 -0.001539 0.000341 -0.000048 0.000000 0.028919 0.000000
# 6 0.000000 0.000000 0.000000 0.005523 0.000000 0.028917
#
#
# Mechanical properties :
#
#
# Convention : Reuss Voigt Hill
#
# Bulk Modulus (GPa) = 58.12921 100.25140 79.19030
# Shear Modulus (GPa) = 14.91508 29.09458 22.00483
#
# Velocity S-wave (km/s) = 2.93712 4.10219 3.56754
# Velocity P-wave (km/s) = 6.71740 8.96780 7.92291
#
# Compressibility (1/GPa) = 0.01720306
#
# Stress axis : x y z
#
# Youngs Moduli (GPa) = 31.88457 103.53106 122.94699
#
# Poissons Ratio (x) = 0.79673 0.68506
# Poissons Ratio (y) = 0.24537 0.33303
# Poissons Ratio (z) = 0.17766 0.28044
#
# Static dielectric constant tensor:
#      x y z
#    x 1.582490 0.000000 -0.000480 
#    y 0.000000 1.567470 0.000000 
#    z -0.000480 0.000000 1.568530 
# 
# From -- ./inp_files/25713.got.cif
#   From: 2010.05.17/outbox.cif.g08.bks.cpg/sg5_13_cif.got.tgz:25713.got - 2010.06.03 18:56:24.
