data_PCOD9124665
_publ_section_title
;
Structure prediction by ZEFSAII (Michael W. Deem and Ramdas Pophale) SiO2 
 PCOD9124665
Probable space group: C 2
;
_chemical_formula_sum "Si O2"
_cell_formula_units_Z 28
_cell_length_a 25.402088
_cell_length_b 7.730596
_cell_length_c 22.123191
_cell_angle_alpha 90.000000
_cell_angle_beta 163.753508
_cell_angle_gamma 90.000000
_cell_volume 1215.434803
_symmetry_space_group_name_H-M "C 2"
_symmetry_group_IT_number 5
_symmetry_cell_setting 'monoclinic'
loop_
_space_group_symop_operation_xyz
x,y,z
-x,y,-z
1/2+x,1/2+y,z
1/2-x,1/2+y,-z
loop_
_atom_site_type_symbol
_atom_site_label
_atom_site_fract_x
_atom_site_fract_y
_atom_site_fract_z
Si Si1 0.732122 0.149020 0.127256
Si Si2 0.465029 0.104870 0.655296
Si Si3 0.803583 0.568267 0.647510
Si Si4 0.991509 0.461543 0.557612
Si Si5 0.277350 0.140224 0.749648
Si Si6 0.750132 0.372677 0.955258
Si Si7 0.395828 0.710419 0.682373
O O1 0.779951 0.074881 0.246969
O O2 0.831428 0.334585 0.234499
O O3 0.506768 0.162751 0.873022
O O4 0.795007 0.016628 0.144682
O O5 0.252895 0.088889 0.446226
O O6 0.464307 0.088856 0.582716
O O7 0.605540 0.964890 0.839722
O O8 0.566794 0.287887 0.782663
O O9 0.740601 0.538592 0.647035
O O10 0.662338 0.678131 0.451156
O O11 0.845097 0.391281 0.658509
O O12 0.820466 0.324625 0.367362
O O13 0.000000 0.540140 0.500000
O O14 0.500000 0.159795 0.000000
O O15 0.877517 0.217053 0.066652
#
# Coordination Sequence:
#
# PCOD9124665 Si02
#       7
#     4   4   4   4   4   4   4
#     4   9  19  41  62  90 123 158 212 253 305 378
#     4  12  25  41  66  92 129 167 208 261 322 368
#     4  10  21  37  61  93 120 165 206 255 310 366
#     4  10  22  42  61  93 123 164 209 257 314 376
#     4   9  19  37  67  88 118 166 209 250 310 379
#     4  11  25  41  64  99 123 168 210 261 314 371
#     4  11  23  41  59  93 130 160 210 257 310 367
#
# _framework density 23.037022
#
# number of rings (size 3 to 8) (size 9 to 14) (size 15 to 20)
#    0.000    1.714    2.857    1.714    4.000    0.000 
#    7.714    0.000    0.000    0.000    0.000    0.000 
#    0.000    0.000    0.000    0.000    0.000    0.000 
#
# Total GULP energy -78156.502177 kJ/mol
# GULP energy per Si atom -5582.607298 kJ/mol
# Density = 2.298459 g / cm^3
# Si number density = 23.037022 Si / 1000 Ang^3
#
#
#
# Elastic Constant Matrix: (Units=GPa)
#
#
# Indices 1 2 3 4 5 6 
#
# 1 98.2708 5.9904 9.0403 0.0004 -21.3918 0.0004
# 2 5.9904 23.6198 1.2580 0.0004 -9.7163 0.0005
# 3 9.0403 1.2580 80.9599 0.0014 4.1154 0.0014
# 4 0.0004 0.0004 0.0014 24.8254 0.0010 -3.6594
# 5 -21.3918 -9.7163 4.1154 0.0010 37.6740 0.0009
# 6 0.0004 0.0005 0.0014 -3.6594 0.0009 27.0814
#
#
#
# Elastic Compliance Matrix: (Units=1/GPa)
#
#
# Indices 1 2 3 4 5 6 
#
# 1 0.011832 -0.000082 -0.001670 0.000000 0.006880 0.000000
# 2 -0.000082 0.047513 -0.001357 -0.000001 0.012356 -0.000001
# 3 -0.001670 -0.001357 0.012696 -0.000001 -0.002685 -0.000001
# 4 0.000000 -0.000001 -0.000001 0.041100 -0.000002 0.005554
# 5 0.006880 0.012356 -0.002685 -0.000002 0.033930 -0.000002
# 6 0.000000 -0.000001 -0.000001 0.005554 -0.000002 0.037676
#
#
# Mechanical properties :
#
#
# Convention : Reuss Voigt Hill
#
# Bulk Modulus (GPa) = 15.19210 26.15863 20.67537
# Shear Modulus (GPa) = 23.48459 30.35362 26.91910
#
# Velocity S-wave (km/s) = 3.19631 3.63382 3.42206
# Velocity P-wave (km/s) = 4.49787 5.38385 4.96068
#
# Compressibility (1/GPa) = 0.06582367
#
# Stress axis : x y z
#
# Youngs Moduli (GPa) = 84.51547 21.04683 78.76613
#
# Poissons Ratio (x) = 0.00172 0.13151
# Poissons Ratio (y) = 0.00692 0.10690
# Poissons Ratio (z) = 0.14111 0.02856
#
# Static dielectric constant tensor:
#      x y z
#    x 1.925780 0.000000 0.033540 
#    y 0.000000 1.885810 0.000000 
#    z 0.033540 0.000000 1.875290 
# 
# From -- ./inp_files/67386.got.cif
#   From: 2010.05.17/outbox.cif.g08.bks.cpg/sg5_34_cif.got.tgz:67386.got - 2010.06.03 18:56:24.
