data_PCOD9124550
_publ_section_title
;
Structure prediction by ZEFSAII (Michael W. Deem and Ramdas Pophale) SiO2 
 PCOD9124550
Probable space group: C 2
;
_chemical_formula_sum "Si O2"
_cell_formula_units_Z 32
_cell_length_a 14.092782
_cell_length_b 19.408577
_cell_length_c 7.909794
_cell_angle_alpha 90.000000
_cell_angle_beta 134.495977
_cell_angle_gamma 90.000000
_cell_volume 1543.219206
_symmetry_space_group_name_H-M "C 2"
_symmetry_group_IT_number 5
_symmetry_cell_setting 'monoclinic'
loop_
_space_group_symop_operation_xyz
x,y,z
-x,y,-z
1/2+x,1/2+y,z
1/2-x,1/2+y,-z
loop_
_atom_site_type_symbol
_atom_site_label
_atom_site_fract_x
_atom_site_fract_y
_atom_site_fract_z
Si Si1 0.482491 0.729100 0.284799
Si Si2 0.350406 0.066980 0.841698
Si Si3 0.702332 0.260130 0.936373
Si Si4 0.281796 0.217076 0.644282
Si Si5 0.965730 0.835331 0.760811
Si Si6 0.092149 0.976993 0.449777
Si Si7 0.924142 0.090447 0.062382
Si Si8 0.637964 0.110611 0.753688
O O1 0.500000 0.750871 0.500000
O O2 0.630766 0.730208 0.396074
O O3 0.436145 0.648722 0.222347
O O4 0.353264 0.770504 0.059491
O O5 0.324339 0.137141 0.700989
O O6 0.230848 0.015294 0.654634
O O7 0.500000 0.041059 0.000000
O O8 0.347887 0.086985 0.035501
O O9 0.597356 0.321761 0.812527
O O10 0.647913 0.193634 0.769931
O O11 0.710346 0.239365 0.147113
O O12 0.382507 0.264529 0.666173
O O13 0.888156 0.900210 0.592483
O O14 0.000000 0.850250 0.000000
O O15 0.000000 0.975946 0.500000
O O16 0.004022 0.022669 0.210853
O O17 0.769762 0.081040 0.829212
O O18 0.000000 0.123141 0.000000
O O19 0.500000 0.088733 0.500000
#
# Coordination Sequence:
#
# PCOD9124550 Si02
#       8
#     4   4   4   4   4   4   4   4
#     4   9  16  32  60  90 119 157 204 256 310 371
#     4  11  22  39  66  95 123 170 217 269 325 382
#     4   8  17  32  56  88 123 158 199 249 314 375
#     4   9  16  33  63  92 120 158 208 258 308 378
#     4  10  21  39  60  91 125 168 213 257 318 387
#     4  12  24  43  63  86 127 177 216 258 319 397
#     4  11  22  35  57  91 125 163 206 258 313 368
#     4  10  21  36  59  95 131 153 205 276 324 367
#
# _framework density 20.735875
#
# number of rings (size 3 to 8) (size 9 to 14) (size 15 to 20)
#    0.000    2.000    2.500    3.375    1.750    1.500 
#    0.000    2.500    0.000    0.750    0.000    0.000 
#    0.000    0.000    0.000    0.000    0.000    0.000 
#
# Total GULP energy -89310.414217 kJ/mol
# GULP energy per Si atom -5581.900889 kJ/mol
# Density = 2.068868 g / cm^3
# Si number density = 20.735875 Si / 1000 Ang^3
#
#
#
# Elastic Constant Matrix: (Units=GPa)
#
#
# Indices 1 2 3 4 5 6 
#
# 1 80.6413 27.6488 58.0442 0.0000 34.1753 0.0000
# 2 27.6488 90.7432 54.9869 0.0000 12.7034 0.0000
# 3 58.0442 54.9869 128.0566 0.0000 42.6559 0.0000
# 4 0.0000 0.0000 0.0000 23.9222 0.0000 4.4027
# 5 34.1753 12.7034 42.6559 0.0000 40.9717 0.0000
# 6 0.0000 0.0000 0.0000 4.4027 0.0000 20.3531
#
#
#
# Elastic Compliance Matrix: (Units=1/GPa)
#
#
# Indices 1 2 3 4 5 6 
#
# 1 0.021937 -0.001942 -0.004922 0.000000 -0.012572 0.000000
# 2 -0.001942 0.015334 -0.007134 0.000000 0.004292 0.000000
# 3 -0.004922 -0.007134 0.016838 0.000000 -0.011213 0.000000
# 4 0.000000 0.000000 0.000000 0.043535 0.000000 -0.009417
# 5 -0.012572 0.004292 -0.011213 0.000000 0.045237 0.000000
# 6 0.000000 0.000000 0.000000 -0.009417 0.000000 0.051170
#
#
# Mechanical properties :
#
#
# Convention : Reuss Voigt Hill
#
# Bulk Modulus (GPa) = 38.29369 64.53342 51.41355
# Shear Modulus (GPa) = 21.66845 27.63349 24.65097
#
# Velocity S-wave (km/s) = 3.23611 3.65450 3.45165
# Velocity P-wave (km/s) = 5.69831 6.99974 6.38228
#
# Compressibility (1/GPa) = 0.02611396
#
# Stress axis : x y z
#
# Youngs Moduli (GPa) = 45.58553 65.21585 59.38779
#
# Poissons Ratio (x) = 0.12662 0.29230
# Poissons Ratio (y) = 0.08851 0.42367
# Poissons Ratio (z) = 0.22437 0.46525
#
# Static dielectric constant tensor:
#      x y z
#    x 1.872680 0.000000 0.011180 
#    y 0.000000 1.702490 0.000000 
#    z 0.011180 0.000000 1.805630 
# 
# From -- ./inp_files/25442.got.cif
#   From: 2010.05.17/outbox.cif.g08.bks.cpg/sg5_13_cif.got.tgz:25442.got - 2010.06.03 18:56:24.
