data_PCOD9124082
_publ_section_title
;
Structure prediction by ZEFSAII (Michael W. Deem and Ramdas Pophale) SiO2 
 PCOD9124082
Probable space group: C 2
;
_chemical_formula_sum "Si O2"
_cell_formula_units_Z 30
_cell_length_a 17.076330
_cell_length_b 5.815946
_cell_length_c 27.557812
_cell_angle_alpha 90.000000
_cell_angle_beta 148.614564
_cell_angle_gamma 90.000000
_cell_volume 1425.359730
_symmetry_space_group_name_H-M "C 2"
_symmetry_group_IT_number 5
_symmetry_cell_setting 'monoclinic'
loop_
_space_group_symop_operation_xyz
x,y,z
-x,y,-z
1/2+x,1/2+y,z
1/2-x,1/2+y,-z
loop_
_atom_site_type_symbol
_atom_site_label
_atom_site_fract_x
_atom_site_fract_y
_atom_site_fract_z
Si Si1 0.410661 0.986200 0.545723
Si Si2 0.355635 0.332714 0.292891
Si Si3 0.965434 0.356178 0.195956
Si Si4 0.200964 0.834857 0.997645
Si Si5 0.500000 0.693086 0.500000
Si Si6 0.430085 0.647446 0.647996
Si Si7 0.392475 0.540074 0.811350
Si Si8 0.282564 0.144556 0.698022
O O1 0.470166 0.841698 0.531933
O O2 0.431462 0.838885 0.606019
O O3 0.510612 0.213077 0.605830
O O4 0.236325 0.040548 0.443552
O O5 0.442019 0.460214 0.296141
O O6 0.224563 0.148989 0.212718
O O7 0.268382 0.513057 0.280572
O O8 0.029264 0.248617 0.278434
O O9 0.023133 0.223089 0.178176
O O10 0.052461 0.595448 0.235595
O O11 0.787071 0.351450 0.094699
O O12 0.232506 0.572806 0.993672
O O13 0.022292 0.880417 0.902278
O O14 0.656869 0.568289 0.593050
O O15 0.289426 0.406279 0.718065
#
# Coordination Sequence:
#
# PCOD9124082 Si02
#       8
#     4   4   4   4   2   4   4   4
#     4  12  26  41  60  91 132 182 229 279 338 417
#     4  11  23  42  61  91 134 184 217 279 345 420
#     4  10  24  38  68 102 132 172 229 294 347 420
#     4  10  20  41  72 110 138 175 237 301 361 418
#     4  12  24  38  62  92 124 174 228 276 332 418
#     4  12  25  43  62  95 140 183 229 282 354 418
#     4  10  20  42  68 101 131 173 229 286 351 418
#     4  11  22  38  62  94 128 172 221 280 341 407
#
# _framework density 21.047317
#
# number of rings (size 3 to 8) (size 9 to 14) (size 15 to 20)
#    0.000    1.067    5.333    0.800    5.600    1.067 
#    0.000    0.000    0.000    4.800    0.000    0.000 
#    0.000    0.000    0.000    0.000    0.000    0.000 
#
# Total GULP energy -83595.241823 kJ/mol
# GULP energy per Si atom -5573.016122 kJ/mol
# Density = 2.099941 g / cm^3
# Si number density = 21.047317 Si / 1000 Ang^3
#
#
#
# Elastic Constant Matrix: (Units=GPa)
#
#
# Indices 1 2 3 4 5 6 
#
# 1 58.1821 9.1468 28.9533 -0.0002 2.9238 0.0012
# 2 9.1468 49.4598 8.6613 -0.0002 2.2952 0.0027
# 3 28.9533 8.6613 119.6790 -0.0003 8.1205 0.0005
# 4 -0.0002 -0.0002 -0.0003 31.6988 0.0001 15.8243
# 5 2.9238 2.2952 8.1205 0.0001 23.0633 -0.0001
# 6 0.0012 0.0027 0.0005 15.8243 -0.0001 15.5943
#
#
#
# Elastic Compliance Matrix: (Units=1/GPa)
#
#
# Indices 1 2 3 4 5 6 
#
# 1 0.019945 -0.002858 -0.004576 0.000001 -0.000633 -0.000002
# 2 -0.002858 0.020942 -0.000725 0.000004 -0.001467 -0.000007
# 3 -0.004576 -0.000725 0.009703 0.000000 -0.002764 0.000000
# 4 0.000001 0.000004 0.000000 0.063935 -0.000001 -0.064878
# 5 -0.000633 -0.001467 -0.002764 -0.000001 0.044558 0.000002
# 6 -0.000002 -0.000007 0.000000 -0.064878 0.000002 0.129961
#
#
# Mechanical properties :
#
#
# Convention : Reuss Voigt Hill
#
# Bulk Modulus (GPa) = 29.17686 35.64929 32.41308
# Shear Modulus (GPa) = 15.78359 26.10856 20.94607
#
# Velocity S-wave (km/s) = 2.74142 3.52585 3.15808
# Velocity P-wave (km/s) = 4.89010 5.79223 5.36018
#
# Compressibility (1/GPa) = 0.03427373
#
# Stress axis : x y z
#
# Youngs Moduli (GPa) = 50.13675 47.75102 103.06510
#
# Poissons Ratio (x) = 0.13647 0.47157
# Poissons Ratio (y) = 0.14329 0.07469
# Poissons Ratio (z) = 0.22940 0.03460
#
# Static dielectric constant tensor:
#      x y z
#    x 1.787610 0.000000 0.076850 
#    y 0.000000 1.841590 0.000000 
#    z 0.076850 0.000000 1.845470 
# 
# From -- ./inp_files/55518.got.cif
#   From: 2010.05.17/outbox.cif.g08.bks.cpg/sg5_28_cif.got.tgz:55518.got - 2010.06.03 18:56:24.
