data_PCOD9124385
_publ_section_title
;
Structure prediction by ZEFSAII (Michael W. Deem and Ramdas Pophale) SiO2 
 PCOD9124385
Probable space group: C 2
;
_chemical_formula_sum "Si O2"
_cell_formula_units_Z 20
_cell_length_a 7.874229
_cell_length_b 22.333270
_cell_length_c 5.660513
_cell_angle_alpha 90.000000
_cell_angle_beta 60.125264
_cell_angle_gamma 90.000000
_cell_volume 863.164526
_symmetry_space_group_name_H-M "C 2"
_symmetry_group_IT_number 5
_symmetry_cell_setting 'monoclinic'
loop_
_space_group_symop_operation_xyz
x,y,z
-x,y,-z
1/2+x,1/2+y,z
1/2-x,1/2+y,-z
loop_
_atom_site_type_symbol
_atom_site_label
_atom_site_fract_x
_atom_site_fract_y
_atom_site_fract_z
Si Si1 0.760286 0.534430 0.449404
Si Si2 0.000000 0.688505 0.000000
Si Si3 0.300442 0.077767 0.913437
Si Si4 0.189081 0.896941 0.527982
Si Si5 0.500000 0.835602 0.000000
Si Si6 0.785497 0.288429 0.757334
O O1 0.706902 0.573776 0.718015
O O2 0.697459 0.467588 0.560778
O O3 0.997273 0.539710 0.255790
O O4 0.696002 0.554107 0.227164
O O5 0.849525 0.733994 0.224786
O O6 0.122757 0.644338 0.081891
O O7 0.195016 0.851813 0.742589
O O8 0.000000 0.884293 0.500000
O O9 0.388553 0.878510 0.256929
O O10 0.333037 0.794409 0.000487
O O11 0.000000 0.280643 0.500000
#
# Coordination Sequence:
#
# PCOD9124385 Si02
#       6
#     4   2   4   4   2   4
#     4   9  19  37  61  94 127 168 226 264 335 392
#     4  10  20  45  68  92 133 172 242 264 332 420
#     4   9  20  39  66  92 125 190 212 274 335 389
#     4  11  23  38  66 100 135 174 221 279 344 416
#     4  10  22  41  60  96 139 174 212 276 354 398
#     4  10  23  41  63 101 131 176 220 281 346 398
#
# _framework density 23.170556000000001
#
# number of rings (size 3 to 8) (size 9 to 14) (size 15 to 20)
#    0.000    2.400    0.000    2.400   11.200    0.000 
#   36.000    4.000    0.000    2.400    0.000    0.000 
#    0.000    0.000    0.000    0.000    0.000    0.000 
#
# Total GULP energy -55783.978515 kJ/mol
# GULP energy per Si atom -5578.397851 kJ/mol
# Density = 2.311782 g / cm^3
# Si number density = 23.170556 Si / 1000 Ang^3
#
#
#
# Elastic Constant Matrix: (Units=GPa)
#
#
# Indices 1 2 3 4 5 6 
#
# 1 85.8801 46.9122 30.1093 0.0000 11.1738 0.0000
# 2 46.9122 156.4550 44.3736 0.0000 10.4622 0.0000
# 3 30.1093 44.3736 122.2751 0.0000 19.4447 0.0000
# 4 0.0000 0.0000 0.0000 15.1435 0.0000 -10.7507
# 5 11.1738 10.4622 19.4447 0.0000 44.4881 0.0000
# 6 0.0000 0.0000 0.0000 -10.7507 0.0000 38.3292
#
#
#
# Elastic Compliance Matrix: (Units=1/GPa)
#
#
# Indices 1 2 3 4 5 6 
#
# 1 0.014598 -0.003696 -0.001944 0.000000 -0.001948 0.000000
# 2 -0.003696 0.008075 -0.002005 0.000000 -0.000094 0.000000
# 3 -0.001944 -0.002005 0.009922 0.000000 -0.003377 0.000000
# 4 0.000000 0.000000 0.000000 0.082453 0.000000 0.023126
# 5 -0.001948 -0.000094 -0.003377 0.000000 0.024465 0.000000
# 6 0.000000 0.000000 0.000000 0.023126 0.000000 0.032576
#
#
# Mechanical properties :
#
#
# Convention : Reuss Voigt Hill
#
# Bulk Modulus (GPa) = 57.78705 67.48895 62.63800
# Shear Modulus (GPa) = 25.88719 35.80651 30.84685
#
# Velocity S-wave (km/s) = 3.34615 3.93535 3.65265
# Velocity P-wave (km/s) = 6.31846 7.05972 6.69935
#
# Compressibility (1/GPa) = 0.01730492
#
# Stress axis : x y z
#
# Youngs Moduli (GPa) = 68.50386 123.84279 100.78995
#
# Poissons Ratio (x) = 0.45766 0.19591
# Poissons Ratio (y) = 0.25316 0.20212
# Poissons Ratio (z) = 0.13315 0.24835
#
# Static dielectric constant tensor:
#      x y z
#    x 1.970670 0.000000 0.062330 
#    y 0.000000 1.819630 0.000000 
#    z 0.062330 0.000000 1.957020 
# 
# From -- ./inp_files/2840.got.cif
#   From: 2010.05.17/outbox.cif.g08.bks.cpg/sg5_2_cif.got.tgz:2840.got - 2010.06.03 18:56:24.
