data_PCOD9124716
_publ_section_title
;
Structure prediction by ZEFSAII (Michael W. Deem and Ramdas Pophale) SiO2 
 PCOD9124716
Probable space group: C 2
;
_chemical_formula_sum "Si O2"
_cell_formula_units_Z 20
_cell_length_a 7.453619
_cell_length_b 17.783249
_cell_length_c 7.964326
_cell_angle_alpha 90.000000
_cell_angle_beta 56.457841
_cell_angle_gamma 90.000000
_cell_volume 879.877549
_symmetry_space_group_name_H-M "C 2"
_symmetry_group_IT_number 5
_symmetry_cell_setting 'monoclinic'
loop_
_space_group_symop_operation_xyz
x,y,z
-x,y,-z
1/2+x,1/2+y,z
1/2-x,1/2+y,-z
loop_
_atom_site_type_symbol
_atom_site_label
_atom_site_fract_x
_atom_site_fract_y
_atom_site_fract_z
Si Si1 0.272386 0.112150 0.099143
Si Si2 0.000000 0.209247 0.000000
Si Si3 0.305805 0.432477 0.422957
Si Si4 0.500000 0.559495 0.500000
Si Si5 0.620432 0.322183 0.119656
Si Si6 0.106889 0.457832 0.161145
O O1 0.200908 0.104199 0.329984
O O2 0.500000 0.153819 0.000000
O O3 0.073431 0.154629 0.113816
O O4 0.338426 0.037174 0.956579
O O5 0.218291 0.260310 0.882913
O O6 0.457519 0.503743 0.369800
O O7 0.434441 0.354945 0.337621
O O8 0.202715 0.450430 0.297633
O O9 0.141355 0.439130 0.664251
O O10 0.500000 0.308733 0.000000
O O11 0.779967 0.392016 0.999743
#
# Coordination Sequence:
#
# PCOD9124716 Si02
#       6
#     4   2   4   2   4   4
#     4  12  25  45  69 105 149 188 239 297 356 429
#     4  12  28  46  72 100 152 206 226 290 374 428
#     4  10  21  37  71 108 133 172 237 300 351 411
#     4  12  22  38  72 108 136 182 244 300 354 414
#     4  10  23  45  70 102 143 185 237 295 352 428
#     4  10  21  42  72 104 136 180 242 300 348 420
#
# _framework density 22.730437999999999
#
# number of rings (size 3 to 8) (size 9 to 14) (size 15 to 20)
#    0.000    1.200    4.000    1.800    5.600    0.000 
#    0.000    8.000    0.000    0.000    0.000    0.000 
#    0.000    0.000    0.000    0.000    0.000    0.000 
#
# Total GULP energy -55674.511437 kJ/mol
# GULP energy per Si atom -5567.451144 kJ/mol
# Density = 2.267870 g / cm^3
# Si number density = 22.730438 Si / 1000 Ang^3
#
#
#
# Elastic Constant Matrix: (Units=GPa)
#
#
# Indices 1 2 3 4 5 6 
#
# 1 144.2079 31.8283 41.2341 0.0000 -0.4229 0.0000
# 2 31.8283 105.6174 44.6434 0.0000 -7.6114 0.0000
# 3 41.2341 44.6434 138.4213 0.0000 -18.8518 0.0000
# 4 0.0000 0.0000 0.0000 57.9165 0.0000 -28.6409
# 5 -0.4229 -7.6114 -18.8518 0.0000 38.9462 0.0000
# 6 0.0000 0.0000 0.0000 -28.6409 0.0000 48.4837
#
#
#
# Elastic Compliance Matrix: (Units=1/GPa)
#
#
# Indices 1 2 3 4 5 6 
#
# 1 0.007854 -0.001615 -0.001981 0.000000 -0.001189 0.000000
# 2 -0.001615 0.011303 -0.003068 0.000000 0.000706 0.000000
# 3 -0.001981 -0.003068 0.009335 0.000000 0.003897 0.000000
# 4 0.000000 0.000000 0.000000 0.024392 0.000000 0.014409
# 5 -0.001189 0.000706 0.003897 0.000000 0.027688 0.000000
# 6 0.000000 0.000000 0.000000 0.014409 0.000000 0.029137
#
#
# Mechanical properties :
#
#
# Convention : Reuss Voigt Hill
#
# Bulk Modulus (GPa) = 65.94826 69.29535 67.62180
# Shear Modulus (GPa) = 39.03502 47.10533 43.07018
#
# Velocity S-wave (km/s) = 4.14853 4.55724 4.35768
# Velocity P-wave (km/s) = 7.21271 7.63172 7.42517
#
# Compressibility (1/GPa) = 0.01516340
#
# Stress axis : x y z
#
# Youngs Moduli (GPa) = 127.32748 88.47520 107.12908
#
# Poissons Ratio (x) = 0.14292 0.21217
# Poissons Ratio (y) = 0.20567 0.32866
# Poissons Ratio (z) = 0.25217 0.27143
#
# Static dielectric constant tensor:
#      x y z
#    x 1.992980 0.000000 -0.158240 
#    y 0.000000 1.914120 0.000000 
#    z -0.158240 0.000000 2.031190 
# 
# From -- ./inp_files/16028.got.cif
#   From: 2010.05.17/outbox.cif.g08.bks.cpg/sg5_9_cif.got.tgz:16028.got - 2010.06.03 18:56:24.
