data_PCOD9124307
_publ_section_title
;
Structure prediction by ZEFSAII (Michael W. Deem and Ramdas Pophale) SiO2 
 PCOD9124307
Probable space group: C 2
;
_chemical_formula_sum "Si O2"
_cell_formula_units_Z 26
_cell_length_a 17.348747
_cell_length_b 7.144351
_cell_length_c 27.399720
_cell_angle_alpha 90.000000
_cell_angle_beta 160.285194
_cell_angle_gamma 90.000000
_cell_volume 1145.626305
_symmetry_space_group_name_H-M "C 2"
_symmetry_group_IT_number 5
_symmetry_cell_setting 'monoclinic'
loop_
_space_group_symop_operation_xyz
x,y,z
-x,y,-z
1/2+x,1/2+y,z
1/2-x,1/2+y,-z
loop_
_atom_site_type_symbol
_atom_site_label
_atom_site_fract_x
_atom_site_fract_y
_atom_site_fract_z
Si Si1 0.679265 0.853840 0.553682
Si Si2 0.872335 0.029901 0.206752
Si Si3 0.565621 0.922173 0.112496
Si Si4 0.500000 0.206643 0.500000
Si Si5 0.992631 0.326842 0.202622
Si Si6 0.220748 0.711273 0.277365
Si Si7 0.070902 0.062820 0.928497
O O1 0.483274 0.722882 0.415809
O O2 0.758337 0.764634 0.652811
O O3 0.550405 0.053527 0.487351
O O4 0.904316 0.900766 0.658255
O O5 0.735499 0.016874 0.175356
O O6 0.945191 0.227741 0.226837
O O7 0.690080 0.954585 0.058670
O O8 0.612662 0.023270 0.191625
O O9 0.574183 0.699542 0.123143
O O10 0.269894 0.328390 0.362844
O O11 0.916348 0.180911 0.114274
O O12 0.819686 0.502262 0.096359
O O13 0.068012 0.875159 0.163711
#
# Coordination Sequence:
#
# PCOD9124307 Si02
#       7
#     4   4   4   2   4   4   4
#     4   9  18  41  73  97 136 176 229 290 344 404
#     4  10  21  44  64  93 144 180 216 294 339 397
#     4  11  25  41  64  99 142 177 233 281 338 410
#     4   8  16  36  64 108 128 166 216 292 326 408
#     4  11  21  40  73  99 138 178 230 283 351 394
#     4  10  20  43  70  98 133 180 225 285 340 407
#     4  12  23  39  70 102 131 181 236 280 333 411
#
# _framework density 22.695008999999999
#
# number of rings (size 3 to 8) (size 9 to 14) (size 15 to 20)
#    0.000    1.846    6.154    0.923    0.000    0.000 
#    8.308    6.154    0.000    0.000    0.000    0.000 
#    0.000    0.000    0.000    0.000    0.000    0.000 
#
# Total GULP energy -72543.076924 kJ/mol
# GULP energy per Si atom -5580.236686 kJ/mol
# Density = 2.264335 g / cm^3
# Si number density = 22.695009 Si / 1000 Ang^3
#
#
#
# Elastic Constant Matrix: (Units=GPa)
#
#
# Indices 1 2 3 4 5 6 
#
# 1 49.0649 24.6403 26.1640 -0.0083 13.7653 0.0034
# 2 24.6403 105.9390 53.6547 -0.0081 -1.3940 0.0039
# 3 26.1640 53.6547 148.5885 0.0022 17.6664 0.0044
# 4 -0.0083 -0.0081 0.0022 44.5455 0.0074 -2.4867
# 5 13.7653 -1.3940 17.6664 0.0074 33.3728 -0.0042
# 6 0.0034 0.0039 0.0044 -2.4867 -0.0042 17.5579
#
#
#
# Elastic Compliance Matrix: (Units=1/GPa)
#
#
# Indices 1 2 3 4 5 6 
#
# 1 0.026978 -0.005687 -0.001436 0.000006 -0.010605 -0.000005
# 2 -0.005687 0.013015 -0.004313 0.000001 0.005173 0.000001
# 3 -0.001436 -0.004313 0.009062 -0.000001 -0.004385 -0.000002
# 4 0.000006 0.000001 -0.000001 0.022628 -0.000006 0.003205
# 5 -0.010605 0.005173 -0.004385 -0.000006 0.036876 0.000010
# 6 -0.000005 0.000001 -0.000002 0.003205 0.000010 0.057408
#
#
# Mechanical properties :
#
#
# Convention : Reuss Voigt Hill
#
# Bulk Modulus (GPa) = 38.19393 56.94560 47.56977
# Shear Modulus (GPa) = 25.30792 32.37081 28.83936
#
# Velocity S-wave (km/s) = 3.34298 3.78079 3.56861
# Velocity P-wave (km/s) = 5.63617 6.64871 6.16327
#
# Compressibility (1/GPa) = 0.02618217
#
# Stress axis : x y z
#
# Youngs Moduli (GPa) = 37.06679 76.83612 110.35550
#
# Poissons Ratio (x) = 0.43698 0.15846
# Poissons Ratio (y) = 0.21081 0.47598
# Poissons Ratio (z) = 0.05322 0.33141
#
# Static dielectric constant tensor:
#      x y z
#    x 1.868480 0.000000 0.019570 
#    y 0.000000 1.893740 0.000010 
#    z 0.019570 0.000010 1.862720 
# 
# From -- ./inp_files/72093.got.cif
#   From: 2010.05.17/outbox.cif.g08.bks.cpg/sg5_37_cif.got.tgz:72093.got - 2010.06.03 18:56:24.
