data_PCOD9124530
_publ_section_title
;
Structure prediction by ZEFSAII (Michael W. Deem and Ramdas Pophale) SiO2 
 PCOD9124530
Probable space group: C 2
;
_chemical_formula_sum "Si O2"
_cell_formula_units_Z 32
_cell_length_a 13.484966
_cell_length_b 26.972740
_cell_length_c 8.175888
_cell_angle_alpha 90.000000
_cell_angle_beta 31.209727
_cell_angle_gamma 90.000000
_cell_volume 1540.933787
_symmetry_space_group_name_H-M "C 2"
_symmetry_group_IT_number 5
_symmetry_cell_setting 'monoclinic'
loop_
_space_group_symop_operation_xyz
x,y,z
-x,y,-z
1/2+x,1/2+y,z
1/2-x,1/2+y,-z
loop_
_atom_site_type_symbol
_atom_site_label
_atom_site_fract_x
_atom_site_fract_y
_atom_site_fract_z
Si Si1 0.950383 0.436240 0.258669
Si Si2 0.812585 0.863196 0.176400
Si Si3 0.083597 0.706035 0.723060
Si Si4 0.359371 0.448082 0.852252
Si Si5 0.199419 0.255436 0.297809
Si Si6 0.840721 0.059935 0.866706
Si Si7 0.798810 0.130239 0.224898
Si Si8 0.427962 0.046398 0.285354
O O1 0.821085 0.393585 0.512799
O O2 0.854566 0.490295 0.408230
O O3 0.000000 0.427894 0.000000
O O4 0.144547 0.441357 0.087983
O O5 0.702583 0.814607 0.273680
O O6 0.883497 0.903991 0.946130
O O7 0.000000 0.842851 0.000000
O O8 0.249543 0.737675 0.585581
O O9 0.151157 0.673225 0.477866
O O10 0.000000 0.675220 0.000000
O O11 0.896088 0.736699 0.935896
O O12 0.500000 0.442836 0.500000
O O13 0.384648 0.504892 0.878140
O O14 0.000000 0.236402 0.500000
O O15 0.000000 0.067529 0.500000
O O16 0.830260 0.105751 0.004866
O O17 0.622723 0.054665 0.111932
O O18 0.730532 0.084716 0.435262
O O19 0.000000 0.150244 0.000000
O O20 0.500000 0.051794 0.000000
#
# Coordination Sequence:
#
# PCOD9124530 Si02
#       8
#     4   4   4   4   4   4   4   4
#     4  10  21  36  57  96 133 175 212 256 315 379
#     4  12  21  36  66  98 129 170 212 265 317 390
#     4   8  21  43  63  94 127 156 217 274 331 389
#     4  10  21  37  59  92 137 174 217 256 308 385
#     4   9  19  43  72  91 128 169 208 270 349 384
#     4  10  22  40  59  91 134 177 213 259 313 380
#     4  12  23  39  63  92 122 165 217 264 326 385
#     4  10  21  39  60  89 136 171 213 262 310 383
#
# _framework density 20.766628000000001
#
# number of rings (size 3 to 8) (size 9 to 14) (size 15 to 20)
#    0.750    1.000    1.250    4.125    0.000    6.000 
#    4.500    0.625    2.750    0.000    0.000    0.000 
#    0.000    0.000    0.000    0.000    0.000    0.000 
#
# Total GULP energy -89193.060648 kJ/mol
# GULP energy per Si atom -5574.566290 kJ/mol
# Density = 2.071936 g / cm^3
# Si number density = 20.766628 Si / 1000 Ang^3
#
#
#
# Elastic Constant Matrix: (Units=GPa)
#
#
# Indices 1 2 3 4 5 6 
#
# 1 65.8001 27.3584 24.0121 0.0000 -12.2473 0.0000
# 2 27.3584 105.1735 54.1028 0.0000 8.2118 0.0000
# 3 24.0121 54.1028 94.8952 0.0000 -0.8301 0.0000
# 4 0.0000 0.0000 0.0000 39.0406 0.0000 -2.1073
# 5 -12.2473 8.2118 -0.8301 0.0000 35.0633 0.0000
# 6 0.0000 0.0000 0.0000 -2.1073 0.0000 19.1118
#
#
#
# Elastic Compliance Matrix: (Units=1/GPa)
#
#
# Indices 1 2 3 4 5 6 
#
# 1 0.019324 -0.004458 -0.002280 0.000000 0.007740 0.000000
# 2 -0.004458 0.014883 -0.007403 0.000000 -0.005218 0.000000
# 3 -0.002280 -0.007403 0.015347 0.000000 0.001301 0.000000
# 4 0.000000 0.000000 0.000000 0.025768 0.000000 0.002841
# 5 0.007740 -0.005218 0.001301 0.000000 0.032476 0.000000
# 6 0.000000 0.000000 0.000000 0.002841 0.000000 0.052637
#
#
# Mechanical properties :
#
#
# Convention : Reuss Voigt Hill
#
# Bulk Modulus (GPa) = 47.01122 52.97950 49.99536
# Shear Modulus (GPa) = 25.53516 29.33616 27.43566
#
# Velocity S-wave (km/s) = 3.51040 3.76261 3.63869
# Velocity P-wave (km/s) = 6.25441 6.66660 6.46379
#
# Compressibility (1/GPa) = 0.02127152
#
# Stress axis : x y z
#
# Youngs Moduli (GPa) = 51.74970 67.18888 65.15889
#
# Poissons Ratio (x) = 0.29952 0.14859
# Poissons Ratio (y) = 0.23069 0.48238
# Poissons Ratio (z) = 0.11801 0.49741
#
# Static dielectric constant tensor:
#      x y z
#    x 1.786930 0.000000 -0.005640 
#    y 0.000000 1.746610 0.000000 
#    z -0.005640 0.000000 1.713830 
# 
# From -- ./inp_files/25702.got.cif
#   From: 2010.05.17/outbox.cif.g08.bks.cpg/sg5_13_cif.got.tgz:25702.got - 2010.06.03 18:56:24.
