data_PCOD9124890
_publ_section_title
;
Structure prediction by ZEFSAII (Michael W. Deem and Ramdas Pophale) SiO2 
 PCOD9124890
Probable space group: C 2
;
_chemical_formula_sum "Si O2"
_cell_formula_units_Z 32
_cell_length_a 14.984887
_cell_length_b 11.044216
_cell_length_c 12.292124
_cell_angle_alpha 90.000000
_cell_angle_beta 142.321201
_cell_angle_gamma 90.000000
_cell_volume 1243.434634
_symmetry_space_group_name_H-M "C 2"
_symmetry_group_IT_number 5
_symmetry_cell_setting 'monoclinic'
loop_
_space_group_symop_operation_xyz
x,y,z
-x,y,-z
1/2+x,1/2+y,z
1/2-x,1/2+y,-z
loop_
_atom_site_type_symbol
_atom_site_label
_atom_site_fract_x
_atom_site_fract_y
_atom_site_fract_z
Si Si1 0.113882 0.826830 0.707818
Si Si2 0.226411 0.577423 0.610320
Si Si3 0.263709 0.579754 0.889280
Si Si4 0.004037 0.510117 0.772696
Si Si5 0.871572 0.101502 0.286785
Si Si6 0.657303 0.185848 0.237268
Si Si7 0.584889 0.732911 0.337709
Si Si8 0.524802 0.410776 0.201720
O O1 0.234790 0.724310 0.849022
O O2 0.026569 0.856638 0.733812
O O3 0.000000 0.793970 0.500000
O O4 0.173821 0.961285 0.742055
O O5 0.206089 0.538825 0.714369
O O6 0.075340 0.583885 0.402178
O O7 0.331883 0.692790 0.692895
O O8 0.320691 0.477602 0.636527
O O9 0.171432 0.535664 0.904678
O O10 0.415544 0.508040 0.043817
O O11 0.931349 0.567306 0.809274
O O12 0.970043 0.369163 0.725833
O O13 0.735201 0.177894 0.196699
O O14 0.000000 0.116293 0.500000
O O15 0.948396 0.152205 0.251530
O O16 0.788556 0.209900 0.450856
O O17 0.553068 0.297652 0.153971
#
# Coordination Sequence:
#
# PCOD9124890 Si02
#       8
#     4   4   4   4   4   4   4   4
#     4  11  24  48  80 110 150 202 266 317 380 466
#     4  11  24  43  71 108 146 202 255 317 372 456
#     4  12  28  43  71 110 156 203 245 312 397 457
#     4  11  23  41  71 109 144 199 261 315 367 458
#     4   9  20  38  70 112 144 189 253 328 380 429
#     4  10  22  40  70 107 149 193 249 314 384 448
#     4  10  21  38  70 111 145 182 260 328 369 440
#     4  12  25  49  70 106 158 198 247 322 393 456
#
# _framework density 25.735168000000002
#
# number of rings (size 3 to 8) (size 9 to 14) (size 15 to 20)
#    0.000    1.250    3.750    1.500    7.000    2.000 
#    0.000    0.000    0.000    0.000    0.000    0.000 
#    0.000    0.000    0.000    0.000    0.000    0.000 
#
# Total GULP energy -89509.256253 kJ/mol
# GULP energy per Si atom -5594.328516 kJ/mol
# Density = 2.567659 g / cm^3
# Si number density = 25.735168 Si / 1000 Ang^3
#
#
#
# Elastic Constant Matrix: (Units=GPa)
#
#
# Indices 1 2 3 4 5 6 
#
# 1 115.9846 19.7685 18.9330 0.0000 4.9101 0.0000
# 2 19.7685 147.5892 32.1166 0.0000 21.7946 0.0000
# 3 18.9330 32.1166 94.3322 0.0000 7.6939 0.0000
# 4 0.0000 0.0000 0.0000 41.7943 0.0000 15.2859
# 5 4.9101 21.7946 7.6939 0.0000 39.3420 0.0000
# 6 0.0000 0.0000 0.0000 15.2859 0.0000 24.7879
#
#
#
# Elastic Compliance Matrix: (Units=1/GPa)
#
#
# Indices 1 2 3 4 5 6 
#
# 1 0.009023 -0.000827 -0.001499 0.000000 -0.000375 0.000000
# 2 -0.000827 0.007940 -0.002222 0.000000 -0.003861 0.000000
# 3 -0.001499 -0.002222 0.011730 0.000000 -0.000876 0.000000
# 4 0.000000 0.000000 0.000000 0.030895 0.000000 -0.019052
# 5 -0.000375 -0.003861 -0.000876 0.000000 0.027775 0.000000
# 6 0.000000 0.000000 0.000000 -0.019052 0.000000 0.052091
#
#
# Mechanical properties :
#
#
# Convention : Reuss Voigt Hill
#
# Bulk Modulus (GPa) = 51.02970 55.50468 53.26719
# Shear Modulus (GPa) = 32.24086 40.32405 36.28245
#
# Velocity S-wave (km/s) = 3.54332 3.96268 3.75886
# Velocity P-wave (km/s) = 6.05079 6.52316 6.29141
#
# Compressibility (1/GPa) = 0.01959643
#
# Stress axis : x y z
#
# Youngs Moduli (GPa) = 110.82368 125.94327 85.25343
#
# Poissons Ratio (x) = 0.10417 0.12778
# Poissons Ratio (y) = 0.09166 0.18947
# Poissons Ratio (z) = 0.16611 0.27990
#
# Static dielectric constant tensor:
#      x y z
#    x 1.995880 0.000000 -0.006150 
#    y 0.000000 2.041100 0.000000 
#    z -0.006150 0.000000 2.094700 
# 
# From -- ./inp_files/54604.got.cif
#   From: 2010.05.17/outbox.cif.g08.bks.cpg/sg5_28_cif.got.tgz:54604.got - 2010.06.03 18:56:24.
