data_PCOD9124999
_publ_section_title
;
Structure prediction by ZEFSAII (Michael W. Deem and Ramdas Pophale) SiO2 
 PCOD9124999
Probable space group: C 2
;
_chemical_formula_sum "Si O2"
_cell_formula_units_Z 26
_cell_length_a 14.129190
_cell_length_b 7.825064
_cell_length_c 11.325309
_cell_angle_alpha 90.000000
_cell_angle_beta 112.405600
_cell_angle_gamma 90.000000
_cell_volume 1157.620651
_symmetry_space_group_name_H-M "C 2"
_symmetry_group_IT_number 5
_symmetry_cell_setting 'monoclinic'
loop_
_space_group_symop_operation_xyz
x,y,z
-x,y,-z
1/2+x,1/2+y,z
1/2-x,1/2+y,-z
loop_
_atom_site_type_symbol
_atom_site_label
_atom_site_fract_x
_atom_site_fract_y
_atom_site_fract_z
Si Si1 0.811903 0.495520 0.224656
Si Si2 0.830435 0.306279 0.474153
Si Si3 0.331430 0.065014 0.686857
Si Si4 0.890405 0.891784 0.996239
Si Si5 0.457274 0.020498 0.093927
Si Si6 0.000000 0.033792 0.500000
Si Si7 0.156803 0.901818 0.760250
O O1 0.848213 0.420289 0.366134
O O2 0.884713 0.429894 0.152970
O O3 0.817658 0.700649 0.228852
O O4 0.698155 0.438883 0.136748
O O5 0.836193 0.413820 0.594526
O O6 0.718324 0.225369 0.402839
O O7 0.912964 0.155067 0.514507
O O8 0.250826 0.007822 0.749241
O O9 0.444399 0.091055 0.789263
O O10 0.898534 0.686320 0.016149
O O11 0.864983 0.957092 0.115749
O O12 0.000000 0.950164 0.000000
O O13 0.500000 0.921185 0.000000
O O14 0.058823 0.930323 0.629416
#
# Coordination Sequence:
#
# PCOD9124999 Si02
#       7
#     4   4   4   4   4   2   4
#     4  11  23  41  67  95 127 169 217 267 322 383
#     4  11  23  40  66  96 131 170 216 265 320 384
#     4  11  23  41  66  95 130 169 211 265 323 386
#     4  10  22  40  64  90 122 164 213 266 317 375
#     4  10  21  39  64  90 124 165 211 262 317 376
#     4  10  24  42  62  92 134 174 216 266 314 380
#     4  10  24  42  64  94 132 169 214 266 319 384
#
# _framework density 22.459861
#
# number of rings (size 3 to 8) (size 9 to 14) (size 15 to 20)
#    0.000    1.538    0.000    4.615    0.000   15.385 
#    0.000    5.385    0.000    0.000    0.000    0.000 
#    0.000    0.000    0.000    0.000    0.000    0.000 
#
# Total GULP energy -72771.671604 kJ/mol
# GULP energy per Si atom -5597.820893 kJ/mol
# Density = 2.240874 g / cm^3
# Si number density = 22.459861 Si / 1000 Ang^3
#
#
#
# Elastic Constant Matrix: (Units=GPa)
#
#
# Indices 1 2 3 4 5 6 
#
# 1 100.3861 4.6961 43.1613 0.0000 2.2147 0.0000
# 2 4.6961 57.5447 30.1291 0.0000 6.6125 0.0000
# 3 43.1613 30.1291 110.3068 0.0000 7.5894 0.0000
# 4 0.0000 0.0000 0.0000 28.5651 0.0000 -9.5902
# 5 2.2147 6.6125 7.5894 0.0000 47.1552 0.0000
# 6 0.0000 0.0000 0.0000 -9.5902 0.0000 13.3850
#
#
#
# Elastic Compliance Matrix: (Units=1/GPa)
#
#
# Indices 1 2 3 4 5 6 
#
# 1 0.012125 0.001741 -0.005222 0.000000 0.000027 0.000000
# 2 0.001741 0.020711 -0.006202 0.000000 -0.001988 0.000000
# 3 -0.005222 -0.006202 0.012868 0.000000 -0.000956 0.000000
# 4 0.000000 0.000000 0.000000 0.046096 0.000000 0.033028
# 5 0.000027 -0.001988 -0.000956 0.000000 0.021638 0.000000
# 6 0.000000 0.000000 0.000000 0.033028 0.000000 0.098375
#
#
# Mechanical properties :
#
#
# Convention : Reuss Voigt Hill
#
# Bulk Modulus (GPa) = 37.96446 47.13454 42.54950
# Shear Modulus (GPa) = 20.83707 30.50445 25.67076
#
# Velocity S-wave (km/s) = 3.04920 3.68934 3.38444
# Velocity P-wave (km/s) = 5.41634 6.25939 5.85307
#
# Compressibility (1/GPa) = 0.02634043
#
# Stress axis : x y z
#
# Youngs Moduli (GPa) = 82.47731 48.28312 77.70933
#
# Poissons Ratio (x) = -0.08408 0.40577
# Poissons Ratio (y) = -0.14363 0.48193
# Poissons Ratio (z) = 0.43067 0.29943
#
# Static dielectric constant tensor:
#      x y z
#    x 1.853810 0.000000 -0.030230 
#    y 0.000000 1.828390 0.000000 
#    z -0.030230 0.000000 1.810770 
# 
# From -- ./inp_files/41814.got.cif
#   From: 2010.05.17/outbox.cif.g08.bks.cpg/sg5_21_cif.got.tgz:41814.got - 2010.06.03 18:56:24.
