data_PCOD9124883
_publ_section_title
;
Structure prediction by ZEFSAII (Michael W. Deem and Ramdas Pophale) SiO2 
 PCOD9124883
Probable space group: C 2
;
_chemical_formula_sum "Si O2"
_cell_formula_units_Z 30
_cell_length_a 7.727113
_cell_length_b 16.485714
_cell_length_c 11.623039
_cell_angle_alpha 90.000000
_cell_angle_beta 110.000375
_cell_angle_gamma 90.000000
_cell_volume 1391.327924
_symmetry_space_group_name_H-M "C 2"
_symmetry_group_IT_number 5
_symmetry_cell_setting 'monoclinic'
loop_
_space_group_symop_operation_xyz
x,y,z
-x,y,-z
1/2+x,1/2+y,z
1/2-x,1/2+y,-z
loop_
_atom_site_type_symbol
_atom_site_label
_atom_site_fract_x
_atom_site_fract_y
_atom_site_fract_z
Si Si1 0.817074 0.715350 0.220645
Si Si2 0.170454 0.445734 0.980726
Si Si3 0.144048 0.048320 0.143613
Si Si4 0.000000 0.307332 0.500000
Si Si5 0.340348 0.514418 0.239036
Si Si6 0.292837 0.273375 0.968851
Si Si7 0.800017 0.861917 0.394486
Si Si8 0.242523 0.197389 0.721768
O O1 0.716704 0.630447 0.216141
O O2 0.782950 0.783661 0.307771
O O3 0.038649 0.704705 0.255911
O O4 0.734746 0.742770 0.079471
O O5 0.182453 0.501092 0.871193
O O6 0.299007 0.370585 0.977235
O O7 0.212701 0.504904 0.097353
O O8 0.000000 0.400496 0.000000
O O9 0.038058 0.002406 0.221647
O O10 0.000000 0.057003 0.000000
O O11 0.866119 0.358696 0.552293
O O12 0.868012 0.249101 0.396008
O O13 0.297054 0.442747 0.316552
O O14 0.315531 0.603342 0.285453
O O15 0.194712 0.238024 0.834827
O O16 0.500000 0.242159 0.000000
O O17 0.000000 0.858145 0.500000
#
# Coordination Sequence:
#
# PCOD9124883 Si02
#       8
#     4   4   4   2   4   4   4   4
#     4  11  22  46  71 104 143 183 231 293 357 414
#     4  11  22  35  62 107 145 174 226 286 355 425
#     4  10  22  39  69 101 147 181 225 289 365 422
#     4  12  28  50  74 102 138 200 240 288 360 424
#     4  11  24  45  67 102 137 184 237 290 350 415
#     4  10  21  38  69 101 140 181 223 285 354 415
#     4  12  27  50  71 100 141 186 242 299 348 426
#     4  11  25  44  74 104 143 184 237 289 348 429
#
# _framework density 21.562137
#
# number of rings (size 3 to 8) (size 9 to 14) (size 15 to 20)
#    0.000    1.067    2.667    4.400    4.667    2.667 
#    2.400    0.000    0.000    0.000    0.000    0.000 
#    0.000    0.000    0.000    0.000    0.000    0.000 
#
# Total GULP energy -83719.574224 kJ/mol
# GULP energy per Si atom -5581.304948 kJ/mol
# Density = 2.151306 g / cm^3
# Si number density = 21.562137 Si / 1000 Ang^3
#
#
#
# Elastic Constant Matrix: (Units=GPa)
#
#
# Indices 1 2 3 4 5 6 
#
# 1 135.8826 52.4876 48.1174 0.0000 -32.5943 0.0000
# 2 52.4876 96.1869 42.8115 0.0000 -29.6663 0.0000
# 3 48.1174 42.8115 92.9975 0.0000 -23.8116 0.0000
# 4 0.0000 0.0000 0.0000 -24.0140 0.0000 1.1556
# 5 -32.5943 -29.6663 -23.8116 0.0000 36.1187 0.0000
# 6 0.0000 0.0000 0.0000 1.1556 0.0000 33.0994
#
#
#
# Elastic Compliance Matrix: (Units=1/GPa)
#
#
# Indices 1 2 3 4 5 6 
#
# 1 0.010816 -0.002954 -0.002837 0.000000 0.005463 0.000000
# 2 -0.002954 0.016233 -0.003866 0.000000 0.008119 0.000000
# 3 -0.002837 -0.003866 0.015077 0.000000 0.004204 0.000000
# 4 0.000000 0.000000 0.000000 -0.041573 0.000000 0.001451
# 5 0.005463 0.008119 0.004204 0.000000 0.042057 0.000000
# 6 0.000000 0.000000 0.000000 0.001451 0.000000 0.030161
#
#
# Mechanical properties :
#
#
# Convention : Reuss Voigt Hill
#
# Bulk Modulus (GPa) = 43.83724 67.98890 55.91307
# Shear Modulus (GPa) = 50.15606 21.15086 35.65346
#
# Velocity S-wave (km/s) = 4.82822 3.13537 4.07076
# Velocity P-wave (km/s) = 7.17335 6.68636 6.93414
#
# Compressibility (1/GPa) = 0.02281165
#
# Stress axis : x y z
#
# Youngs Moduli (GPa) = 92.45942 61.60312 66.32612
#
# Poissons Ratio (x) = 0.18197 0.18819
# Poissons Ratio (y) = 0.27312 0.25639
# Poissons Ratio (z) = 0.26233 0.23814
#
# Static dielectric constant tensor:
#      x y z
#    x 1.919220 0.000000 0.071530 
#    y 0.000000 1.782740 0.000000 
#    z 0.071530 0.000000 1.799320 
# 
# From -- ./inp_files/36459.got.cif
#   From: 2010.05.17/outbox.cif.g08.bks.cpg/sg5_19_cif.got.tgz:36459.got - 2010.06.03 18:56:24.
