data_PCOD9124136
_publ_section_title
;
Structure prediction by ZEFSAII (Michael W. Deem and Ramdas Pophale) SiO2 
 PCOD9124136
Probable space group: C 2
;
_chemical_formula_sum "Si O2"
_cell_formula_units_Z 30
_cell_length_a 12.046519
_cell_length_b 8.152349
_cell_length_c 14.449069
_cell_angle_alpha 90.000000
_cell_angle_beta 68.013004
_cell_angle_gamma 90.000000
_cell_volume 1315.799964
_symmetry_space_group_name_H-M "C 2"
_symmetry_group_IT_number 5
_symmetry_cell_setting 'monoclinic'
loop_
_space_group_symop_operation_xyz
x,y,z
-x,y,-z
1/2+x,1/2+y,z
1/2-x,1/2+y,-z
loop_
_atom_site_type_symbol
_atom_site_label
_atom_site_fract_x
_atom_site_fract_y
_atom_site_fract_z
Si Si1 0.202256 0.919520 0.565816
Si Si2 0.064434 0.487857 0.821995
Si Si3 0.521074 0.236194 0.305011
Si Si4 0.000000 0.701307 0.000000
Si Si5 0.858593 0.289132 0.356829
Si Si6 0.350881 0.403028 0.894484
Si Si7 0.417328 0.924774 0.615714
Si Si8 0.110160 0.252930 0.034975
O O1 0.079255 0.820227 0.600989
O O2 0.273719 0.902947 0.447458
O O3 0.293614 0.852468 0.616466
O O4 0.175014 0.104922 0.605333
O O5 0.048138 0.624766 0.748902
O O6 0.145967 0.349589 0.747919
O O7 0.086203 0.585748 0.910478
O O8 0.938925 0.396968 0.883672
O O9 0.592508 0.367830 0.222911
O O10 0.600588 0.103726 0.334001
O O11 0.929412 0.811386 0.949036
O O12 0.997238 0.318564 0.344742
O O13 0.355032 0.592868 0.918926
O O14 0.223282 0.316607 0.943415
O O15 0.500000 0.950651 0.500000
O O16 0.000000 0.215986 0.000000
#
# Coordination Sequence:
#
# PCOD9124136 Si02
#       8
#     4   4   4   2   4   4   4   4
#     4  11  21  42  68  91 132 170 211 269 329 386
#     4  10  21  41  63  94 132 165 221 268 322 388
#     4  10  22  41  65  97 128 168 220 264 326 395
#     4  10  20  42  64  94 134 174 216 276 326 388
#     4  10  21  39  65  94 128 169 215 267 323 390
#     4  11  24  43  66  96 134 173 222 275 328 396
#     4   9  20  40  61  90 129 168 211 267 321 378
#     4  12  25  45  69  94 131 177 221 275 335 388
#
# _framework density 22.799818999999999
#
# number of rings (size 3 to 8) (size 9 to 14) (size 15 to 20)
#    0.000    1.600    1.333    4.800    0.000    2.133 
#    9.600   10.000    0.000    0.000    0.000    0.000 
#    0.000    0.000    0.000    0.000    0.000    0.000 
#
# Total GULP energy -83808.644784 kJ/mol
# GULP energy per Si atom -5587.242986 kJ/mol
# Density = 2.274793 g / cm^3
# Si number density = 22.799819 Si / 1000 Ang^3
#
#
#
# Elastic Constant Matrix: (Units=GPa)
#
#
# Indices 1 2 3 4 5 6 
#
# 1 83.5094 2.0548 10.6090 0.0000 -9.3775 0.0000
# 2 2.0548 67.2072 -8.0457 0.0000 -9.8541 0.0000
# 3 10.6090 -8.0457 75.7403 0.0000 -7.7761 0.0000
# 4 0.0000 0.0000 0.0000 36.8397 0.0000 -1.1187
# 5 -9.3775 -9.8541 -7.7761 0.0000 31.9562 0.0000
# 6 0.0000 0.0000 0.0000 -1.1187 0.0000 18.7374
#
#
#
# Elastic Compliance Matrix: (Units=1/GPa)
#
#
# Indices 1 2 3 4 5 6 
#
# 1 0.012529 -0.000068 -0.001422 0.000000 0.003309 0.000000
# 2 -0.000068 0.015951 0.002264 0.000000 0.005450 0.000000
# 3 -0.001422 0.002264 0.014022 0.000000 0.003693 0.000000
# 4 0.000000 0.000000 0.000000 0.027194 0.000000 0.001624
# 5 0.003309 0.005450 0.003693 0.000000 0.034843 0.000000
# 6 0.000000 0.000000 0.000000 0.001624 0.000000 0.053466
#
#
# Mechanical properties :
#
#
# Convention : Reuss Voigt Hill
#
# Bulk Modulus (GPa) = 22.70249 26.18814 24.44531
# Shear Modulus (GPa) = 29.21559 32.29592 30.75576
#
# Velocity S-wave (km/s) = 3.58354 3.76772 3.67679
# Velocity P-wave (km/s) = 5.20589 5.51713 5.36377
#
# Compressibility (1/GPa) = 0.04404804
#
# Stress axis : x y z
#
# Youngs Moduli (GPa) = 79.81680 62.69023 71.31750
#
# Poissons Ratio (x) = 0.00427 0.10144
# Poissons Ratio (y) = 0.00544 -0.16143
# Poissons Ratio (z) = 0.11353 -0.14190
#
# Static dielectric constant tensor:
#      x y z
#    x 1.906860 0.000000 0.033900 
#    y 0.000000 1.844490 0.000000 
#    z 0.033900 0.000000 1.824420 
# 
# From -- ./inp_files/52394.got.cif
#   From: 2010.05.17/outbox.cif.g08.bks.cpg/sg5_27_cif.got.tgz:52394.got - 2010.06.03 18:56:24.
