data_PCOD9124606
_publ_section_title
;
Structure prediction by ZEFSAII (Michael W. Deem and Ramdas Pophale) SiO2 
 PCOD9124606
Probable space group: C 2
;
_chemical_formula_sum "Si O2"
_cell_formula_units_Z 30
_cell_length_a 33.748829
_cell_length_b 8.800914
_cell_length_c 6.394172
_cell_angle_alpha 90.000000
_cell_angle_beta 53.911615
_cell_angle_gamma 90.000000
_cell_volume 1534.761548
_symmetry_space_group_name_H-M "C 2"
_symmetry_group_IT_number 5
_symmetry_cell_setting 'monoclinic'
loop_
_space_group_symop_operation_xyz
x,y,z
-x,y,-z
1/2+x,1/2+y,z
1/2-x,1/2+y,-z
loop_
_atom_site_type_symbol
_atom_site_label
_atom_site_fract_x
_atom_site_fract_y
_atom_site_fract_z
Si Si1 0.796117 0.549670 0.538416
Si Si2 0.769696 0.888101 0.558239
Si Si3 0.453873 0.106709 0.007707
Si Si4 0.053374 0.904836 0.724211
Si Si5 0.617694 0.873866 0.953548
Si Si6 0.323578 0.880044 0.841378
Si Si7 0.500000 0.304513 0.500000
Si Si8 0.644247 0.612906 0.571863
O O1 0.790236 0.719954 0.482741
O O2 0.749259 0.453866 0.604170
O O3 0.840256 0.478176 0.274932
O O4 0.809995 0.521872 0.735418
O O5 0.811535 0.999172 0.513127
O O6 0.722950 0.868713 0.859085
O O7 0.470320 0.200863 0.753756
O O8 0.500000 0.057478 0.000000
O O9 0.430203 0.239011 0.231218
O O10 0.428724 0.955647 0.001038
O O11 0.038423 0.894177 0.526843
O O12 0.096698 0.022976 0.634568
O O13 0.000000 0.938048 0.000000
O O14 0.627189 0.706928 0.830833
O O15 0.627522 0.887980 0.169220
O O16 0.333341 0.736948 0.658994
#
# Coordination Sequence:
#
# PCOD9124606 Si02
#       8
#     4   4   4   4   4   4   2   4
#     4  10  21  37  57  79 110 145 185 234 283 338
#     4  11  21  38  59  82 112 149 189 236 287 342
#     4   9  19  37  60  83 111 148 191 238 288 339
#     4   9  20  39  61  86 116 152 194 237 283 340
#     4  10  22  38  54  82 114 148 191 234 283 343
#     4  10  22  37  55  83 115 147 190 236 284 344
#     4   8  18  36  60  86 110 144 192 238 286 338
#     4  11  23  38  58  84 118 155 191 235 289 340
#
# _framework density 19.547008999999999
#
# number of rings (size 3 to 8) (size 9 to 14) (size 15 to 20)
#    0.000    2.400    0.000    4.000    0.000    9.067 
#    0.000    1.333    0.000    0.000    0.000    0.000 
#    0.000    0.000    0.000    0.000    0.000    0.000 
#
# Total GULP energy -83545.609841 kJ/mol
# GULP energy per Si atom -5569.707323 kJ/mol
# Density = 1.950252 g / cm^3
# Si number density = 19.547009 Si / 1000 Ang^3
#
#
#
# Elastic Constant Matrix: (Units=GPa)
#
#
# Indices 1 2 3 4 5 6 
#
# 1 127.5567 60.4816 40.0664 0.0000 27.6912 0.0000
# 2 60.4816 98.8602 9.2380 0.0000 13.5895 0.0000
# 3 40.0664 9.2380 34.8812 0.0000 20.1665 0.0000
# 4 0.0000 0.0000 0.0000 4.6768 0.0000 -2.8362
# 5 27.6912 13.5895 20.1665 0.0000 33.9987 0.0000
# 6 0.0000 0.0000 0.0000 -2.8362 0.0000 45.6956
#
#
#
# Elastic Compliance Matrix: (Units=1/GPa)
#
#
# Indices 1 2 3 4 5 6 
#
# 1 0.017942 -0.009262 -0.018031 0.000000 -0.000216 0.000000
# 2 -0.009262 0.015492 0.008758 0.000000 -0.003843 0.000000
# 3 -0.018031 0.008758 0.061780 0.000000 -0.025460 0.000000
# 4 0.000000 0.000000 0.000000 0.222184 0.000000 0.013790
# 5 -0.000216 -0.003843 -0.025460 0.000000 0.046226 0.000000
# 6 0.000000 0.000000 0.000000 0.013790 0.000000 0.022740
#
#
# Mechanical properties :
#
#
# Convention : Reuss Voigt Hill
#
# Bulk Modulus (GPa) = 17.19888 53.43003 35.31445
# Shear Modulus (GPa) = 11.29137 26.97503 19.13320
#
# Velocity S-wave (km/s) = 2.40605 3.71888 3.13202
# Velocity P-wave (km/s) = 4.06652 6.77005 5.58436
#
# Compressibility (1/GPa) = 0.05814332
#
# Stress axis : x y z
#
# Youngs Moduli (GPa) = 55.73551 64.55111 16.18636
#
# Poissons Ratio (x) = 0.59787 0.29186
# Poissons Ratio (y) = 0.51622 -0.14176
# Poissons Ratio (z) = 1.00498 -0.56534
#
# Static dielectric constant tensor:
#      x y z
#    x 1.788040 0.000000 0.023750 
#    y 0.000000 1.718190 0.000000 
#    z 0.023750 0.000000 1.725580 
# 
# From -- ./inp_files/11153.got.cif
#   From: 2010.05.17/outbox.cif.g08.bks.cpg/sg5_6_cif.got.tgz:11153.got - 2010.06.03 18:56:24.
