data_PCOD9124854
_publ_section_title
;
Structure prediction by ZEFSAII (Michael W. Deem and Ramdas Pophale) SiO2 
 PCOD9124854
Probable space group: C 2
;
_chemical_formula_sum "Si O2"
_cell_formula_units_Z 26
_cell_length_a 26.479913
_cell_length_b 7.469598
_cell_length_c 11.813974
_cell_angle_alpha 90.000000
_cell_angle_beta 29.661238
_cell_angle_gamma 90.000000
_cell_volume 1156.383043
_symmetry_space_group_name_H-M "C 2"
_symmetry_group_IT_number 5
_symmetry_cell_setting 'monoclinic'
loop_
_space_group_symop_operation_xyz
x,y,z
-x,y,-z
1/2+x,1/2+y,z
1/2-x,1/2+y,-z
loop_
_atom_site_type_symbol
_atom_site_label
_atom_site_fract_x
_atom_site_fract_y
_atom_site_fract_z
Si Si1 0.997033 0.482480 0.638513
Si Si2 0.296858 0.318653 0.288318
Si Si3 0.711701 0.721891 0.696421
Si Si4 0.264495 0.011781 0.173089
Si Si5 0.444098 0.392923 0.490905
Si Si6 0.010498 0.173629 0.780627
Si Si7 0.000000 0.943118 0.000000
O O1 0.047148 0.680125 0.553026
O O2 0.044432 0.340387 0.636093
O O3 0.000000 0.428439 0.500000
O O4 0.875535 0.489774 0.902322
O O5 0.241057 0.262752 0.511824
O O6 0.272689 0.190419 0.231655
O O7 0.498417 0.512597 0.714657
O O8 0.416385 0.330227 0.093499
O O9 0.762103 0.859556 0.683021
O O10 0.559033 0.569058 0.793666
O O11 0.737106 0.518418 0.673825
O O12 0.168414 0.982274 0.278849
O O13 0.500000 0.413302 0.500000
O O14 0.907463 0.240803 0.041493
#
# Coordination Sequence:
#
# PCOD9124854 Si02
#       7
#     4   4   4   4   4   4   2
#     4  10  23  48  71 105 142 189 254 305 370 436
#     4  11  21  41  66 103 146 193 234 295 367 441
#     4  10  21  38  66 100 141 183 237 284 360 443
#     4  11  24  45  72 104 146 191 245 304 372 434
#     4  11  25  49  72 102 144 192 253 310 371 436
#     4  10  22  42  67 105 143 185 236 302 357 440
#     4  10  22  40  72 102 152 190 242 296 370 452
#
# _framework density 22.483899000000001
#
# number of rings (size 3 to 8) (size 9 to 14) (size 15 to 20)
#    0.000    1.538    1.538    3.231    2.154    1.231 
#   16.615   10.769    0.000    0.000    0.000    0.000 
#    0.000    0.000    0.000    0.000    0.000    0.000 
#
# Total GULP energy -72536.704219 kJ/mol
# GULP energy per Si atom -5579.746478 kJ/mol
# Density = 2.243272 g / cm^3
# Si number density = 22.483899 Si / 1000 Ang^3
#
#
#
# Elastic Constant Matrix: (Units=GPa)
#
#
# Indices 1 2 3 4 5 6 
#
# 1 58.1446 51.3389 35.5767 0.0000 -1.2193 0.0000
# 2 51.3389 135.0912 27.9490 0.0000 -3.3975 0.0000
# 3 35.5767 27.9490 101.5185 0.0000 11.0653 0.0000
# 4 0.0000 0.0000 0.0000 28.6555 0.0000 9.6528
# 5 -1.2193 -3.3975 11.0653 0.0000 44.4049 0.0000
# 6 0.0000 0.0000 0.0000 9.6528 0.0000 12.7647
#
#
#
# Elastic Compliance Matrix: (Units=1/GPa)
#
#
# Indices 1 2 3 4 5 6 
#
# 1 0.031328 -0.010106 -0.008435 0.000000 0.002189 0.000000
# 2 -0.010106 0.011169 0.000415 0.000000 0.000474 0.000000
# 3 -0.008435 0.000415 0.013069 0.000000 -0.003457 0.000000
# 4 0.000000 0.000000 0.000000 0.046825 0.000000 -0.035410
# 5 0.002189 0.000474 -0.003457 0.000000 0.023478 0.000000
# 6 0.000000 0.000000 0.000000 -0.035410 0.000000 0.105118
#
#
# Mechanical properties :
#
#
# Convention : Reuss Voigt Hill
#
# Bulk Modulus (GPa) = 51.77476 58.27594 55.02535
# Shear Modulus (GPa) = 18.26966 29.15765 23.71366
#
# Velocity S-wave (km/s) = 2.85365 3.60505 3.25113
# Velocity P-wave (km/s) = 5.82539 6.58056 6.21446
#
# Compressibility (1/GPa) = 0.01931443
#
# Stress axis : x y z
#
# Youngs Moduli (GPa) = 31.91988 89.53424 76.51650
#
# Poissons Ratio (x) = 0.90479 0.64544
# Poissons Ratio (y) = 0.32257 -0.03175
# Poissons Ratio (z) = 0.26926 -0.03715
#
# Static dielectric constant tensor:
#      x y z
#    x 1.881510 0.000000 -0.048790 
#    y 0.000000 1.858320 0.000000 
#    z -0.048790 0.000000 1.881950 
# 
# From -- ./inp_files/47274.got.cif
#   From: 2010.05.17/outbox.cif.g08.bks.cpg/sg5_24_cif.got.tgz:47274.got - 2010.06.03 18:56:24.
