data_PCOD9124978
_publ_section_title
;
Structure prediction by ZEFSAII (Michael W. Deem and Ramdas Pophale) SiO2 
 PCOD9124978
Probable space group: C 2
;
_chemical_formula_sum "Si O2"
_cell_formula_units_Z 26
_cell_length_a 15.671120
_cell_length_b 8.847467
_cell_length_c 11.271631
_cell_angle_alpha 90.000000
_cell_angle_beta 127.488113
_cell_angle_gamma 90.000000
_cell_volume 1240.056656
_symmetry_space_group_name_H-M "C 2"
_symmetry_group_IT_number 5
_symmetry_cell_setting 'monoclinic'
loop_
_space_group_symop_operation_xyz
x,y,z
-x,y,-z
1/2+x,1/2+y,z
1/2-x,1/2+y,-z
loop_
_atom_site_type_symbol
_atom_site_label
_atom_site_fract_x
_atom_site_fract_y
_atom_site_fract_z
Si Si1 0.500000 0.175611 0.000000
Si Si2 0.890025 0.005948 0.466932
Si Si3 0.823237 0.322483 0.143137
Si Si4 0.204225 0.324602 0.617160
Si Si5 0.775561 0.505918 0.870785
Si Si6 0.472666 0.997323 0.615478
Si Si7 0.928966 0.796101 0.707802
O O1 0.606372 0.070357 0.068592
O O2 0.503355 0.287376 0.115354
O O3 0.879619 0.186515 0.450678
O O4 0.790131 0.949976 0.300991
O O5 0.000000 0.956178 0.500000
O O6 0.905245 0.944740 0.612278
O O7 0.777907 0.383286 0.233014
O O8 0.793497 0.146747 0.133456
O O9 0.946629 0.380933 0.252928
O O10 0.781367 0.386998 0.983213
O O11 0.151100 0.446495 0.486639
O O12 0.310820 0.254063 0.654688
O O13 0.500000 0.996629 0.500000
O O14 0.480078 0.164366 0.672306
#
# Coordination Sequence:
#
# PCOD9124978 Si02
#       7
#     2   4   4   4   4   4   4
#     4  12  24  44  64  96 132 174 210 270 332 376
#     4  11  24  40  62  96 130 169 216 266 316 380
#     4  10  21  40  65  92 129 170 215 266 324 386
#     4  10  21  40  62  92 127 169 211 266 324 370
#     4  11  24  42  67  95 131 172 215 268 326 382
#     4  10  21  39  63  91 127 172 216 265 317 383
#     4  12  23  39  65  91 128 169 216 263 317 387
#
# _framework density 20.966785000000002
#
# number of rings (size 3 to 8) (size 9 to 14) (size 15 to 20)
#    0.000    1.231    4.615    3.692    2.154    2.462 
#    0.000    0.000    0.000    1.846    0.000    0.000 
#    0.000    0.000    0.000    0.000    0.000    0.000 
#
# Total GULP energy -72404.562602 kJ/mol
# GULP energy per Si atom -5569.581739 kJ/mol
# Density = 2.091906 g / cm^3
# Si number density = 20.966785 Si / 1000 Ang^3
#
#
#
# Elastic Constant Matrix: (Units=GPa)
#
#
# Indices 1 2 3 4 5 6 
#
# 1 58.3174 0.8632 11.3028 0.0000 8.1450 0.0000
# 2 0.8632 27.4720 23.5784 0.0000 -14.1105 0.0000
# 3 11.3028 23.5784 115.4959 0.0000 -17.4182 0.0000
# 4 0.0000 0.0000 0.0000 30.2801 0.0000 -10.9387
# 5 8.1450 -14.1105 -17.4182 0.0000 30.1280 0.0000
# 6 0.0000 0.0000 0.0000 -10.9387 0.0000 22.4365
#
#
#
# Elastic Compliance Matrix: (Units=1/GPa)
#
#
# Indices 1 2 3 4 5 6 
#
# 1 0.018730 -0.002351 -0.002501 0.000000 -0.007611 0.000000
# 2 -0.002351 0.054036 -0.007547 0.000000 0.021580 0.000000
# 3 -0.002501 -0.007547 0.010969 0.000000 0.003483 0.000000
# 4 0.000000 0.000000 0.000000 0.040085 0.000000 0.019543
# 5 -0.007611 0.021580 0.003483 0.000000 0.047370 0.000000
# 6 0.000000 0.000000 0.000000 0.019543 0.000000 0.054098
#
#
# Mechanical properties :
#
#
# Convention : Reuss Voigt Hill
#
# Bulk Modulus (GPa) = 16.96706 30.30824 23.63765
# Shear Modulus (GPa) = 18.53692 27.60498 23.07095
#
# Velocity S-wave (km/s) = 2.97662 3.63244 3.32076
# Velocity P-wave (km/s) = 4.46359 5.66388 5.09918
#
# Compressibility (1/GPa) = 0.05893774
#
# Stress axis : x y z
#
# Youngs Moduli (GPa) = 53.39039 18.50613 91.16592
#
# Poissons Ratio (x) = 0.04351 0.22798
# Poissons Ratio (y) = 0.12553 0.68801
# Poissons Ratio (z) = 0.13352 0.13966
#
# Static dielectric constant tensor:
#      x y z
#    x 1.795110 0.000000 0.012510 
#    y 0.000000 1.720070 0.000000 
#    z 0.012510 0.000000 1.835030 
# 
# From -- ./inp_files/44228.got.cif
#   From: 2010.05.17/outbox.cif.g08.bks.cpg/sg5_23_cif.got.tgz:44228.got - 2010.06.03 18:56:24.
