data_PCOD9124288
_publ_section_title
;
Structure prediction by ZEFSAII (Michael W. Deem and Ramdas Pophale) SiO2 
 PCOD9124288
Probable space group: C 2
;
_chemical_formula_sum "Si O2"
_cell_formula_units_Z 26
_cell_length_a 17.082530
_cell_length_b 15.329632
_cell_length_c 8.419664
_cell_angle_alpha 90.000000
_cell_angle_beta 147.780159
_cell_angle_gamma 90.000000
_cell_volume 1175.557279
_symmetry_space_group_name_H-M "C 2"
_symmetry_group_IT_number 5
_symmetry_cell_setting 'monoclinic'
loop_
_space_group_symop_operation_xyz
x,y,z
-x,y,-z
1/2+x,1/2+y,z
1/2-x,1/2+y,-z
loop_
_atom_site_type_symbol
_atom_site_label
_atom_site_fract_x
_atom_site_fract_y
_atom_site_fract_z
Si Si1 0.185580 0.932740 0.965309
Si Si2 0.965796 0.189612 0.191328
Si Si3 0.340153 0.971155 0.568092
Si Si4 0.000000 0.316837 0.000000
Si Si5 0.939505 0.997068 0.730729
Si Si6 0.263405 0.730838 0.129286
Si Si7 0.906920 0.561589 0.176046
O O1 0.257154 0.962193 0.257189
O O2 0.217624 0.829340 0.006763
O O3 0.271746 0.993810 0.984953
O O4 0.011972 0.948216 0.704448
O O5 0.000850 0.094695 0.187139
O O6 0.113901 0.228988 0.522598
O O7 0.846117 0.187719 0.121843
O O8 0.910731 0.253232 0.960644
O O9 0.395467 0.877860 0.720048
O O10 0.232229 0.003353 0.522581
O O11 0.484847 0.024998 0.772569
O O12 0.000000 0.956529 0.000000
O O13 0.141479 0.658747 0.955365
O O14 0.000000 0.566458 0.500000
#
# Coordination Sequence:
#
# PCOD9124288 Si02
#       7
#     4   4   4   2   4   4   4
#     4  10  20  43  66  89 127 170 214 263 315 381
#     4  11  23  40  66  93 129 171 215 263 314 393
#     4  10  23  39  62  94 130 165 208 261 327 377
#     4  12  22  40  64  96 126 174 210 260 322 390
#     4  10  21  42  62  89 129 168 207 263 322 375
#     4  11  23  42  65  98 125 168 223 265 316 377
#     4  10  22  42  67  92 129 170 213 267 320 381
#
# _framework density 22.117170000000002
#
# number of rings (size 3 to 8) (size 9 to 14) (size 15 to 20)
#    0.000    1.538    3.846    0.923    6.462    0.000 
#    5.538    0.000    0.000    0.000    0.000    0.000 
#    0.000    0.000    0.000    0.000    0.000    0.000 
#
# Total GULP energy -72559.039210 kJ/mol
# GULP energy per Si atom -5581.464555 kJ/mol
# Density = 2.206683 g / cm^3
# Si number density = 22.117170 Si / 1000 Ang^3
#
#
#
# Elastic Constant Matrix: (Units=GPa)
#
#
# Indices 1 2 3 4 5 6 
#
# 1 120.1779 38.2290 25.2072 0.0000 32.9701 0.0000
# 2 38.2290 119.9342 -3.6204 0.0000 29.4709 0.0000
# 3 25.2072 -3.6204 32.8392 0.0000 19.0151 0.0000
# 4 0.0000 0.0000 0.0000 24.1985 0.0000 -5.6814
# 5 32.9701 29.4709 19.0151 0.0000 35.8585 0.0000
# 6 0.0000 0.0000 0.0000 -5.6814 0.0000 2.9549
#
#
#
# Elastic Compliance Matrix: (Units=1/GPa)
#
#
# Indices 1 2 3 4 5 6 
#
# 1 0.012003 -0.002669 -0.006332 0.000000 -0.005484 0.000000
# 2 -0.002669 0.013183 0.012057 0.000000 -0.014774 0.000000
# 3 -0.006332 0.012057 0.056293 0.000000 -0.033938 0.000000
# 4 0.000000 0.000000 0.000000 0.075331 0.000000 0.144840
# 5 -0.005484 -0.014774 -0.033938 0.000000 0.063069 0.000000
# 6 0.000000 0.000000 0.000000 0.144840 0.000000 0.616912
#
#
# Mechanical properties :
#
#
# Convention : Reuss Voigt Hill
#
# Bulk Modulus (GPa) = 11.41680 43.62032 27.51856
# Shear Modulus (GPa) = 5.81479 26.81141 16.31310
#
# Velocity S-wave (km/s) = 1.62320 3.48551 2.71878
# Velocity P-wave (km/s) = 2.94724 5.99696 4.72492
#
# Compressibility (1/GPa) = 0.08759021
#
# Stress axis : x y z
#
# Youngs Moduli (GPa) = 83.31333 75.85465 17.76431
#
# Poissons Ratio (x) = 0.20249 0.11248
# Poissons Ratio (y) = 0.22240 -0.21419
# Poissons Ratio (z) = 0.52754 -0.91459
#
# Static dielectric constant tensor:
#      x y z
#    x 2.270160 0.000000 -0.095620 
#    y 0.000000 1.769830 0.000000 
#    z -0.095620 0.000000 1.918510 
# 
# From -- ./inp_files/24827.got.cif
#   From: 2010.05.17/outbox.cif.g08.bks.cpg/sg5_13_cif.got.tgz:24827.got - 2010.06.03 18:56:24.
