data_PCOD9124975
_publ_section_title
;
Structure prediction by ZEFSAII (Michael W. Deem and Ramdas Pophale) SiO2 
 PCOD9124975
Probable space group: C 2
;
_chemical_formula_sum "Si O2"
_cell_formula_units_Z 26
_cell_length_a 23.673135
_cell_length_b 9.138019
_cell_length_c 11.011434
_cell_angle_alpha 90.000000
_cell_angle_beta 28.913603
_cell_angle_gamma 90.000000
_cell_volume 1151.700101
_symmetry_space_group_name_H-M "C 2"
_symmetry_group_IT_number 5
_symmetry_cell_setting 'monoclinic'
loop_
_space_group_symop_operation_xyz
x,y,z
-x,y,-z
1/2+x,1/2+y,z
1/2-x,1/2+y,-z
loop_
_atom_site_type_symbol
_atom_site_label
_atom_site_fract_x
_atom_site_fract_y
_atom_site_fract_z
Si Si1 0.269679 0.625000 0.373123
Si Si2 0.092331 0.431051 0.586758
Si Si3 0.177226 0.168997 0.119626
Si Si4 0.035461 0.108647 0.615733
Si Si5 0.706823 0.443744 0.430182
Si Si6 0.860780 0.491793 0.894793
Si Si7 0.500000 0.792631 0.000000
O O1 0.212718 0.516170 0.381144
O O2 0.255097 0.547784 0.531237
O O3 0.203261 0.778143 0.481405
O O4 0.402163 0.686277 0.126887
O O5 0.095007 0.264079 0.536870
O O6 0.043546 0.400253 0.813222
O O7 0.995354 0.506708 0.683162
O O8 0.102343 0.085279 0.363262
O O9 0.159233 0.343510 0.146055
O O10 0.102823 0.122505 0.141043
O O11 0.306515 0.120387 0.913999
O O12 0.078604 0.991057 0.628857
O O13 0.790919 0.466230 0.154252
#
# Coordination Sequence:
#
# PCOD9124975 Si02
#       7
#     4   4   4   4   4   4   2
#     4  12  23  39  64  95 127 173 214 266 320 397
#     4  11  21  40  65  89 130 168 216 265 329 380
#     4   9  20  36  60  88 123 166 216 263 326 378
#     4   9  19  39  59  84 127 170 210 273 320 377
#     4  11  21  38  63  92 129 172 216 264 327 386
#     4  10  21  39  63  90 127 171 210 275 325 377
#     4  12  22  42  66  90 136 174 206 266 330 382
#
# _framework density 22.575320000000001
#
# number of rings (size 3 to 8) (size 9 to 14) (size 15 to 20)
#    0.000    1.538    4.615    0.000    0.000    2.462 
#    0.000    5.385    0.000    0.000    0.000    0.000 
#    0.000    0.000    0.000    0.000    0.000    0.000 
#
# Total GULP energy -72454.136747 kJ/mol
# GULP energy per Si atom -5573.395134 kJ/mol
# Density = 2.252394 g / cm^3
# Si number density = 22.575320 Si / 1000 Ang^3
#
#
#
# Elastic Constant Matrix: (Units=GPa)
#
#
# Indices 1 2 3 4 5 6 
#
# 1 123.0882 48.5922 15.9498 0.0000 -32.5629 0.0000
# 2 48.5922 66.6938 9.8594 0.0000 -12.0665 0.0000
# 3 15.9498 9.8594 37.8716 0.0000 -9.9718 0.0000
# 4 0.0000 0.0000 0.0000 30.5745 0.0000 -11.1438
# 5 -32.5629 -12.0665 -9.9718 0.0000 41.2760 0.0000
# 6 0.0000 0.0000 0.0000 -11.1438 0.0000 36.5870
#
#
#
# Elastic Compliance Matrix: (Units=1/GPa)
#
#
# Indices 1 2 3 4 5 6 
#
# 1 0.013733 -0.008330 -0.001499 0.000000 0.008037 0.000000
# 2 -0.008330 0.021232 -0.002259 0.000000 -0.000910 0.000000
# 3 -0.001499 -0.002259 0.028983 0.000000 0.005159 0.000000
# 4 0.000000 0.000000 0.000000 0.036791 0.000000 0.011206
# 5 0.008037 -0.000910 0.005159 0.000000 0.031548 0.000000
# 6 0.000000 0.000000 0.000000 0.011206 0.000000 0.030745
#
#
# Mechanical properties :
#
#
# Convention : Reuss Voigt Hill
#
# Bulk Modulus (GPa) = 25.14335 41.82849 33.48592
# Shear Modulus (GPa) = 24.94184 31.90433 28.42309
#
# Velocity S-wave (km/s) = 3.32750 3.76339 3.55214
# Velocity P-wave (km/s) = 5.09163 6.11986 5.62927
#
# Compressibility (1/GPa) = 0.03977194
#
# Stress axis : x y z
#
# Youngs Moduli (GPa) = 72.81639 47.09784 34.50323
#
# Poissons Ratio (x) = 0.39233 0.05172
# Poissons Ratio (y) = 0.60657 0.07794
# Poissons Ratio (z) = 0.10915 0.10640
#
# Static dielectric constant tensor:
#      x y z
#    x 1.978480 0.000000 0.057480 
#    y 0.000000 1.793770 0.000000 
#    z 0.057480 0.000000 2.006420 
# 
# From -- ./inp_files/41635.got.cif
#   From: 2010.05.17/outbox.cif.g08.bks.cpg/sg5_21_cif.got.tgz:41635.got - 2010.06.03 18:56:24.
