data_PCOD9124956
_publ_section_title
;
Structure prediction by ZEFSAII (Michael W. Deem and Ramdas Pophale) SiO2 
 PCOD9124956
Probable space group: C 2
;
_chemical_formula_sum "Si O2"
_cell_formula_units_Z 28
_cell_length_a 8.123344
_cell_length_b 6.822627
_cell_length_c 27.768631
_cell_angle_alpha 90.000000
_cell_angle_beta 45.050559
_cell_angle_gamma 90.000000
_cell_volume 1089.203022
_symmetry_space_group_name_H-M "C 2"
_symmetry_group_IT_number 5
_symmetry_cell_setting 'monoclinic'
loop_
_space_group_symop_operation_xyz
x,y,z
-x,y,-z
1/2+x,1/2+y,z
1/2-x,1/2+y,-z
loop_
_atom_site_type_symbol
_atom_site_label
_atom_site_fract_x
_atom_site_fract_y
_atom_site_fract_z
Si Si1 0.689584 0.700810 0.103233
Si Si2 0.471905 0.548775 0.062081
Si Si3 0.971774 0.543637 0.560369
Si Si4 0.943901 0.818769 0.810401
Si Si5 0.809321 0.458865 0.220231
Si Si6 0.201985 0.689493 0.598647
Si Si7 0.235219 0.355445 0.667054
O O1 0.690070 0.610341 0.049772
O O2 0.590786 0.522779 0.155158
O O3 0.504070 0.879244 0.143077
O O4 0.910965 0.817142 0.077665
O O5 0.259805 0.672905 0.129037
O O6 0.500000 0.593780 0.000000
O O7 0.920563 0.314726 0.568589
O O8 0.761143 0.659067 0.630479
O O9 0.000000 0.615030 0.500000
O O10 0.190694 0.577470 0.550135
O O11 0.916587 0.872528 0.759698
O O12 0.173662 0.692339 0.775258
O O13 0.881012 0.366912 0.256793
O O14 0.153887 0.529959 0.649682
O O15 0.005947 0.856442 0.628828
#
# Coordination Sequence:
#
# PCOD9124956 Si02
#       7
#     4   4   4   4   4   4   4
#     4  10  22  40  61  91 125 166 208 258 324 370
#     4  10  23  38  60  92 125 161 219 257 316 379
#     4  10  26  42  69  94 134 168 216 264 327 386
#     4  10  21  39  62  89 126 167 201 266 317 378
#     4  10  21  40  62  92 123 160 212 257 319 378
#     4  10  25  40  65  95 130 167 217 259 325 376
#     4  10  24  41  65  97 130 169 219 267 321 385
#
# _framework density 25.706869000000001
#
# number of rings (size 3 to 8) (size 9 to 14) (size 15 to 20)
#    0.857    1.143    0.000    1.714    6.000    3.429 
#    0.000    0.000    0.000    0.000    0.000    0.000 
#    0.000    0.000    0.000    0.000    0.000    0.000 
#
# Total GULP energy -78072.099165 kJ/mol
# GULP energy per Si atom -5576.578512 kJ/mol
# Density = 2.564836 g / cm^3
# Si number density = 25.706869 Si / 1000 Ang^3
#
#
#
# Elastic Constant Matrix: (Units=GPa)
#
#
# Indices 1 2 3 4 5 6 
#
# 1 92.0171 75.1524 33.9328 0.0000 43.4171 0.0000
# 2 75.1524 148.8088 34.6165 0.0000 26.4438 0.0000
# 3 33.9328 34.6165 92.5091 -0.0001 48.9776 0.0000
# 4 0.0000 0.0000 -0.0001 38.1263 0.0000 5.3123
# 5 43.4171 26.4438 48.9776 0.0000 52.7505 0.0000
# 6 0.0000 0.0000 0.0000 5.3123 0.0000 48.7067
#
#
#
# Elastic Compliance Matrix: (Units=1/GPa)
#
#
# Indices 1 2 3 4 5 6 
#
# 1 0.030354 -0.012459 0.006783 0.000000 -0.025035 0.000000
# 2 -0.012459 0.012610 -0.004388 0.000000 0.008007 0.000000
# 3 0.006783 -0.004388 0.023120 0.000000 -0.024849 0.000000
# 4 0.000000 0.000000 0.000000 0.026633 0.000000 -0.002905
# 5 -0.025035 0.008007 -0.024849 0.000000 0.058621 0.000000
# 6 0.000000 0.000000 0.000000 -0.002905 0.000000 0.020848
#
#
# Mechanical properties :
#
#
# Convention : Reuss Voigt Hill
#
# Bulk Modulus (GPa) = 21.75999 68.97092 45.36545
# Shear Modulus (GPa) = 24.08107 40.55895 32.32001
#
# Velocity S-wave (km/s) = 3.06397 3.97640 3.54962
# Velocity P-wave (km/s) = 4.58260 6.92606 5.87242
#
# Compressibility (1/GPa) = 0.04595591
#
# Stress axis : x y z
#
# Youngs Moduli (GPa) = 32.94435 79.30333 43.25317
#
# Poissons Ratio (x) = 0.98801 -0.29336
# Poissons Ratio (y) = 0.41044 0.18979
# Poissons Ratio (z) = -0.22345 0.34797
#
# Static dielectric constant tensor:
#      x y z
#    x 2.136210 0.000000 -0.039260 
#    y 0.000000 1.993120 0.000000 
#    z -0.039260 0.000000 2.095130 
# 
# From -- ./inp_files/71508.got.cif
#   From: 2010.05.17/outbox.cif.g08.bks.cpg/sg5_36_cif.got.tgz:71508.got - 2010.06.03 18:56:24.
