data_PCOD9124595
_publ_section_title
;
Structure prediction by ZEFSAII (Michael W. Deem and Ramdas Pophale) SiO2 
 PCOD9124595
Probable space group: C 2
;
_chemical_formula_sum "Si O2"
_cell_formula_units_Z 22
_cell_length_a 24.981002
_cell_length_b 8.931980
_cell_length_c 15.430127
_cell_angle_alpha 90.000000
_cell_angle_beta 161.394348
_cell_angle_gamma 90.000000
_cell_volume 1098.473689
_symmetry_space_group_name_H-M "C 2"
_symmetry_group_IT_number 5
_symmetry_cell_setting 'monoclinic'
loop_
_space_group_symop_operation_xyz
x,y,z
-x,y,-z
1/2+x,1/2+y,z
1/2-x,1/2+y,-z
loop_
_atom_site_type_symbol
_atom_site_label
_atom_site_fract_x
_atom_site_fract_y
_atom_site_fract_z
Si Si1 0.812093 0.207550 0.186282
Si Si2 0.617608 0.220077 0.062649
Si Si3 0.295820 0.068684 0.626974
Si Si4 0.313783 0.066872 0.185210
Si Si5 0.000000 0.297110 0.000000
Si Si6 0.092527 0.065182 0.012511
O O1 0.816789 0.386891 0.181013
O O2 0.000000 0.157621 0.500000
O O3 0.692968 0.177538 0.085718
O O4 0.744794 0.135204 0.995237
O O5 0.421494 0.178173 0.768412
O O6 0.645562 0.397211 0.119864
O O7 0.701612 0.129160 0.270120
O O8 0.107867 0.061471 0.306779
O O9 0.387771 0.908020 0.769620
O O10 0.500000 0.115859 0.500000
O O11 0.185288 0.103707 0.065596
O O12 0.881469 0.191132 0.875487
#
# Coordination Sequence:
#
# PCOD9124595 Si02
#       6
#     4   4   4   4   2   4
#     4  10  21  40  61  83 113 153 190 230 281 336
#     4   9  20  37  57  81 113 145 183 229 279 331
#     4  10  21  37  55  84 113 141 183 232 277 330
#     4  10  24  39  57  86 116 147 192 236 278 333
#     4  10  22  34  56  86 108 140 188 226 274 336
#     4  11  21  37  58  80 111 149 182 226 282 332
#
# _framework density 20.027788000000001
#
# number of rings (size 3 to 8) (size 9 to 14) (size 15 to 20)
#    0.000    2.182    0.000    3.273    0.000    8.000 
#    0.000    3.636    0.000    0.000    0.000    0.000 
#    0.000    0.000    0.000    0.000    0.000    0.000 
#
# Total GULP energy -61451.928798 kJ/mol
# GULP energy per Si atom -5586.538982 kJ/mol
# Density = 1.998220 g / cm^3
# Si number density = 20.027788 Si / 1000 Ang^3
#
#
#
# Elastic Constant Matrix: (Units=GPa)
#
#
# Indices 1 2 3 4 5 6 
#
# 1 149.9279 57.9454 33.6234 0.0000 4.8404 0.0000
# 2 57.9454 64.4654 4.5975 0.0000 -0.9173 0.0000
# 3 33.6234 4.5975 79.5931 0.0000 -3.2650 0.0000
# 4 0.0000 0.0000 0.0000 20.1501 0.0000 -5.7142
# 5 4.8404 -0.9173 -3.2650 0.0000 24.9931 0.0000
# 6 0.0000 0.0000 0.0000 -5.7142 0.0000 38.9028
#
#
#
# Elastic Compliance Matrix: (Units=1/GPa)
#
#
# Indices 1 2 3 4 5 6 
#
# 1 0.011768 -0.010302 -0.004509 0.000000 -0.003246 0.000000
# 2 -0.010302 0.024601 0.003066 0.000000 0.003299 0.000000
# 3 -0.004509 0.003066 0.014409 0.000000 0.002868 0.000000
# 4 0.000000 0.000000 0.000000 0.051785 0.000000 0.007606
# 5 -0.003246 0.003299 0.002868 0.000000 0.041135 0.000000
# 6 0.000000 0.000000 0.000000 0.007606 0.000000 0.026822
#
#
# Mechanical properties :
#
#
# Convention : Reuss Voigt Hill
#
# Bulk Modulus (GPa) = 36.64662 54.03543 45.34102
# Shear Modulus (GPa) = 24.61777 29.99719 27.30748
#
# Velocity S-wave (km/s) = 3.50977 3.87431 3.69654
# Velocity P-wave (km/s) = 5.89595 6.85948 6.39589
#
# Compressibility (1/GPa) = 0.02728765
#
# Stress axis : x y z
#
# Youngs Moduli (GPa) = 84.97967 40.64957 69.39955
#
# Poissons Ratio (x) = 0.41877 0.31294
# Poissons Ratio (y) = 0.87546 -0.21280
# Poissons Ratio (z) = 0.38319 -0.12464
#
# Static dielectric constant tensor:
#      x y z
#    x 1.680710 0.000000 0.000680 
#    y 0.000000 1.714410 0.000000 
#    z 0.000680 0.000000 1.707330 
# 
# From -- ./inp_files/52062.got.cif
#   From: 2010.05.17/outbox.cif.g08.bks.cpg/sg5_27_cif.got.tgz:52062.got - 2010.06.03 18:56:24.
