data_PCOD9124885
_publ_section_title
;
Structure prediction by ZEFSAII (Michael W. Deem and Ramdas Pophale) SiO2 
 PCOD9124885
Probable space group: C 2
;
_chemical_formula_sum "Si O2"
_cell_formula_units_Z 28
_cell_length_a 5.286878
_cell_length_b 17.906730
_cell_length_c 15.211839
_cell_angle_alpha 90.000000
_cell_angle_beta 74.616148
_cell_angle_gamma 90.000000
_cell_volume 1388.516366
_symmetry_space_group_name_H-M "C 2"
_symmetry_group_IT_number 5
_symmetry_cell_setting 'monoclinic'
loop_
_space_group_symop_operation_xyz
x,y,z
-x,y,-z
1/2+x,1/2+y,z
1/2-x,1/2+y,-z
loop_
_atom_site_type_symbol
_atom_site_label
_atom_site_fract_x
_atom_site_fract_y
_atom_site_fract_z
Si Si1 0.131147 0.307210 0.891513
Si Si2 0.401442 0.794108 0.604561
Si Si3 0.555436 0.688938 0.237338
Si Si4 0.279785 0.966499 0.207944
Si Si5 0.687690 0.559372 0.818448
Si Si6 0.401403 0.393178 0.605175
Si Si7 0.939728 0.670280 0.904872
O O1 0.172663 0.386433 0.842446
O O2 0.383899 0.256861 0.889854
O O3 0.996171 0.253398 0.831058
O O4 0.000000 0.314556 0.000000
O O5 0.500000 0.768670 0.500000
O O6 0.402381 0.728099 0.674284
O O7 0.620613 0.853357 0.616938
O O8 0.119641 0.833788 0.618932
O O9 0.335790 0.623941 0.254890
O O10 0.819963 0.650068 0.179909
O O11 0.138641 0.953290 0.314896
O O12 0.558132 0.006550 0.200059
O O13 0.071177 0.009678 0.166323
O O14 0.705729 0.614782 0.900280
O O15 0.500000 0.419611 0.500000
O O16 0.000000 0.660969 0.000000
#
# Coordination Sequence:
#
# PCOD9124885 Si02
#       7
#     4   4   4   4   4   4   4
#     4  11  24  39  67 102 125 169 223 278 317 373
#     4  10  21  38  69 103 125 162 219 276 324 374
#     4  11  22  45  68  93 133 172 216 269 323 383
#     4  12  24  45  65  97 137 168 214 272 327 376
#     4  11  27  43  64  92 135 180 211 258 331 395
#     4  10  21  39  68 100 128 166 213 267 332 387
#     4  11  23  44  69  92 131 177 223 261 324 393
#
# _framework density 20.165410999999999
#
# number of rings (size 3 to 8) (size 9 to 14) (size 15 to 20)
#    0.000    1.143    4.286    1.714    4.000    0.571 
#    2.571    0.714    3.143    0.000    0.000    0.000 
#    0.000    0.000    0.000    0.000    0.000    0.000 
#
# Total GULP energy -78093.111761 kJ/mol
# GULP energy per Si atom -5578.079411 kJ/mol
# Density = 2.011951 g / cm^3
# Si number density = 20.165411 Si / 1000 Ang^3
#
#
#
# Elastic Constant Matrix: (Units=GPa)
#
#
# Indices 1 2 3 4 5 6 
#
# 1 109.9217 55.4262 31.7828 0.0000 12.7612 0.0000
# 2 55.4262 122.7885 30.5467 0.0000 0.0482 0.0000
# 3 31.7828 30.5467 64.2544 0.0000 6.8017 0.0000
# 4 0.0000 0.0000 0.0000 -9.1471 0.0000 -5.3695
# 5 12.7612 0.0482 6.8017 0.0000 23.1484 0.0000
# 6 0.0000 0.0000 0.0000 -5.3695 0.0000 34.6293
#
#
#
# Elastic Compliance Matrix: (Units=1/GPa)
#
#
# Indices 1 2 3 4 5 6 
#
# 1 0.013482 -0.005208 -0.003516 0.000000 -0.006388 0.000000
# 2 -0.005208 0.011287 -0.003190 0.000000 0.003785 0.000000
# 3 -0.003516 -0.003190 0.019211 0.000000 -0.003700 0.000000
# 4 0.000000 0.000000 0.000000 -0.100204 0.000000 -0.015537
# 5 -0.006388 0.003785 -0.003700 0.000000 0.047800 0.000000
# 6 0.000000 0.000000 0.000000 -0.015537 0.000000 0.026468
#
#
# Mechanical properties :
#
#
# Convention : Reuss Voigt Hill
#
# Bulk Modulus (GPa) = 49.62854 59.16400 54.39627
# Shear Modulus (GPa) = 102.89814 21.67339 62.28576
#
# Velocity S-wave (km/s) = 7.15107 3.28194 5.56368
# Velocity P-wave (km/s) = 9.63576 6.61548 8.26476
#
# Compressibility (1/GPa) = 0.02014970
#
# Stress axis : x y z
#
# Youngs Moduli (GPa) = 74.17290 88.59467 52.05391
#
# Poissons Ratio (x) = 0.46144 0.18304
# Poissons Ratio (y) = 0.38632 0.16607
# Poissons Ratio (z) = 0.26082 0.28266
#
# Static dielectric constant tensor:
#      x y z
#    x 1.780100 0.000000 0.001730 
#    y 0.000000 1.724710 0.000000 
#    z 0.001730 0.000000 1.702440 
# 
# From -- ./inp_files/49173.got.cif
#   From: 2010.05.17/outbox.cif.g08.bks.cpg/sg5_25_cif.got.tgz:49173.got - 2010.06.03 18:56:24.
