data_PCOD9124826
_publ_section_title
;
Structure prediction by ZEFSAII (Michael W. Deem and Ramdas Pophale) SiO2 
 PCOD9124826
Probable space group: C 2
;
_chemical_formula_sum "Si O2"
_cell_formula_units_Z 32
_cell_length_a 26.019188
_cell_length_b 7.164377
_cell_length_c 15.594385
_cell_angle_alpha 90.000000
_cell_angle_beta 25.234229
_cell_angle_gamma 90.000000
_cell_volume 1239.298409
_symmetry_space_group_name_H-M "C 2"
_symmetry_group_IT_number 5
_symmetry_cell_setting 'monoclinic'
loop_
_space_group_symop_operation_xyz
x,y,z
-x,y,-z
1/2+x,1/2+y,z
1/2-x,1/2+y,-z
loop_
_atom_site_type_symbol
_atom_site_label
_atom_site_fract_x
_atom_site_fract_y
_atom_site_fract_z
Si Si1 0.574527 0.240370 0.135812
Si Si2 0.167491 0.326779 0.276465
Si Si3 0.937956 0.777470 0.176922
Si Si4 0.608635 0.750231 0.549111
Si Si5 0.692387 0.341870 0.401361
Si Si6 0.368632 0.859689 0.854938
Si Si7 0.193052 0.389162 0.608058
Si Si8 0.358826 0.375432 0.705851
O O1 0.542645 0.232479 0.084523
O O2 0.446285 0.290741 0.369808
O O3 0.607205 0.041928 0.125608
O O4 0.693265 0.364173 0.955951
O O5 0.143030 0.374989 0.413063
O O6 0.104147 0.400238 0.285784
O O7 0.143105 0.101782 0.302346
O O8 0.871999 0.578711 0.266958
O O9 0.833796 0.912114 0.369199
O O10 0.000000 0.853959 0.000000
O O11 0.687779 0.566133 0.417689
O O12 0.467206 0.714311 0.742526
O O13 0.630728 0.824794 0.612287
O O14 0.784883 0.274176 0.335638
O O15 0.707134 0.296927 0.279603
O O16 0.228352 0.814897 0.084948
O O17 0.500000 0.323527 0.500000
#
# Coordination Sequence:
#
# PCOD9124826 Si02
#       8
#     4   4   4   4   4   4   4   4
#     4  10  22  40  63  95 128 162 219 276 333 395
#     4  10  21  38  64  88 120 169 215 261 326 399
#     4  11  23  42  71  98 138 185 227 282 353 409
#     4  11  21  40  64  92 126 171 219 265 327 403
#     4  10  22  40  67  90 129 172 213 270 329 397
#     4  11  22  37  64  93 123 160 220 271 326 396
#     4  11  22  39  70 100 133 179 229 283 337 410
#     4  10  21  40  64  89 120 167 215 259 327 395
#
# _framework density 25.821061
#
# number of rings (size 3 to 8) (size 9 to 14) (size 15 to 20)
#    0.000    1.500    2.500    3.375    3.500    1.000 
#    0.000    8.125   11.000    0.000    0.000    0.000 
#    0.000    0.000    0.000    0.000    0.000    0.000 
#
# Total GULP energy -89330.119056 kJ/mol
# GULP energy per Si atom -5583.132441 kJ/mol
# Density = 2.576229 g / cm^3
# Si number density = 25.821061 Si / 1000 Ang^3
#
#
#
# Elastic Constant Matrix: (Units=GPa)
#
#
# Indices 1 2 3 4 5 6 
#
# 1 197.9198 2.6125 59.0348 0.0000 -3.8134 0.0001
# 2 2.6125 38.3906 -6.5281 0.0001 -9.1106 0.0008
# 3 59.0348 -6.5281 99.6718 0.0000 6.7085 0.0005
# 4 0.0000 0.0001 0.0000 20.4397 0.0000 -16.8893
# 5 -3.8134 -9.1106 6.7085 0.0000 44.7381 -0.0001
# 6 0.0001 0.0008 0.0005 -16.8893 -0.0001 5.5024
#
#
#
# Elastic Compliance Matrix: (Units=1/GPa)
#
#
# Indices 1 2 3 4 5 6 
#
# 1 0.006215 -0.000849 -0.003799 0.000000 0.000926 0.000000
# 2 -0.000849 0.027691 0.001962 0.000002 0.005272 0.000003
# 3 -0.003799 0.001962 0.012533 0.000001 -0.001804 0.000001
# 4 0.000000 0.000002 0.000001 -0.031846 0.000000 -0.097750
# 5 0.000926 0.005272 -0.001804 0.000000 0.023775 0.000000
# 6 0.000000 0.000003 0.000001 -0.097750 0.000000 -0.118298
#
#
# Mechanical properties :
#
#
# Convention : Reuss Voigt Hill
#
# Bulk Modulus (GPa) = 24.35127 49.58006 36.96566
# Shear Modulus (GPa) = -82.14321 32.86024 -24.64148
#
# Velocity S-wave (km/s) = -5.64637 3.57124 -3.09255
# Velocity P-wave (km/s) = 5.74956 6.02064 1.26306
#
# Compressibility (1/GPa) = 0.04106562
#
# Stress axis : x y z
#
# Youngs Moduli (GPa) = 160.90795 36.11332 79.79023
#
# Poissons Ratio (x) = 0.03066 0.30312
# Poissons Ratio (y) = 0.13662 -0.15652
# Poissons Ratio (z) = 0.61127 -0.07084
#
# Static dielectric constant tensor:
#      x y z
#    x 2.138470 0.000000 -0.031260 
#    y 0.000000 2.100790 0.000000 
#    z -0.031260 0.000000 2.081410 
# 
# From -- ./inp_files/57681.got.cif
#   From: 2010.05.17/outbox.cif.g08.bks.cpg/sg5_29_cif.got.tgz:57681.got - 2010.06.03 18:56:24.
