data_PCOD9124412
_publ_section_title
;
Structure prediction by ZEFSAII (Michael W. Deem and Ramdas Pophale) SiO2 
 PCOD9124412
Probable space group: C 2
;
_chemical_formula_sum "Si O2"
_cell_formula_units_Z 26
_cell_length_a 10.285875
_cell_length_b 10.190943
_cell_length_c 21.749166
_cell_angle_alpha 90.000000
_cell_angle_beta 150.343737
_cell_angle_gamma 90.000000
_cell_volume 1128.038494
_symmetry_space_group_name_H-M "C 2"
_symmetry_group_IT_number 5
_symmetry_cell_setting 'monoclinic'
loop_
_space_group_symop_operation_xyz
x,y,z
-x,y,-z
1/2+x,1/2+y,z
1/2-x,1/2+y,-z
loop_
_atom_site_type_symbol
_atom_site_label
_atom_site_fract_x
_atom_site_fract_y
_atom_site_fract_z
Si Si1 0.994535 0.257990 0.169232
Si Si2 0.142729 0.987968 0.225212
Si Si3 0.755974 0.755105 0.065840
Si Si4 0.071044 0.518445 0.782207
Si Si5 0.351049 0.063605 0.497590
Si Si6 0.500000 0.495426 0.500000
Si Si7 0.906044 0.821054 0.581525
O O1 0.304143 0.274685 0.280537
O O2 0.939515 0.370956 0.195588
O O3 0.979181 0.109126 0.186227
O O4 0.820965 0.264534 0.037143
O O5 0.210697 0.018542 0.181701
O O6 0.424820 0.989168 0.372243
O O7 0.991407 0.855261 0.172165
O O8 0.846686 0.614662 0.129117
O O9 0.500000 0.793111 0.000000
O O10 0.779814 0.558619 0.636612
O O11 0.500000 0.122916 0.500000
O O12 0.175873 0.938802 0.406327
O O13 0.252443 0.186852 0.498561
O O14 0.426342 0.404634 0.527310
#
# Coordination Sequence:
#
# PCOD9124412 Si02
#       7
#     4   4   4   4   4   2   4
#     4  10  24  45  70  97 138 184 229 286 343 407
#     4  11  25  47  68 102 137 188 230 289 352 408
#     4  12  26  46  68 101 142 181 240 289 337 412
#     4  11  24  49  74 100 144 182 231 293 348 419
#     4  11  24  40  67  99 139 176 226 284 348 419
#     4  10  20  46  72 104 138 184 224 288 354 422
#     4  10  22  43  67  99 142 175 222 287 349 411
#
# _framework density 23.048860000000001
#
# number of rings (size 3 to 8) (size 9 to 14) (size 15 to 20)
#    0.000    1.231    3.846    0.923    2.154    2.462 
#    8.308    0.000    0.000    0.000    0.000    0.000 
#    0.000    0.000    0.000    0.000    0.000    0.000 
#
# Total GULP energy -72569.578284 kJ/mol
# GULP energy per Si atom -5582.275253 kJ/mol
# Density = 2.299640 g / cm^3
# Si number density = 23.048860 Si / 1000 Ang^3
#
#
#
# Elastic Constant Matrix: (Units=GPa)
#
#
# Indices 1 2 3 4 5 6 
#
# 1 45.4808 21.3471 -0.8704 0.0004 -2.1317 0.0001
# 2 21.3471 116.9702 0.9913 0.0003 13.6850 0.0001
# 3 -0.8704 0.9913 73.7692 0.0041 -7.4165 0.0006
# 4 0.0004 0.0003 0.0041 36.8800 0.0006 -1.6995
# 5 -2.1317 13.6850 -7.4165 0.0006 23.4231 0.0002
# 6 0.0001 0.0001 0.0006 -1.6995 0.0002 31.3581
#
#
#
# Elastic Compliance Matrix: (Units=1/GPa)
#
#
# Indices 1 2 3 4 5 6 
#
# 1 0.024689 -0.005163 0.000919 0.000000 0.005555 0.000000
# 2 -0.005163 0.010290 -0.000879 0.000000 -0.006760 0.000000
# 3 0.000919 -0.000879 0.014087 -0.000002 0.005057 0.000000
# 4 0.000000 0.000000 -0.000002 0.027183 -0.000001 0.001473
# 5 0.005555 -0.006760 0.005057 -0.000001 0.048749 0.000000
# 6 0.000000 0.000000 0.000000 0.001473 0.000000 0.031969
#
#
# Mechanical properties :
#
#
# Convention : Reuss Voigt Hill
#
# Bulk Modulus (GPa) = 25.76031 31.01734 28.38882
# Shear Modulus (GPa) = 27.75416 32.64905 30.20161
#
# Velocity S-wave (km/s) = 3.47384 3.76774 3.62377
# Velocity P-wave (km/s) = 5.22406 5.69336 5.46375
#
# Compressibility (1/GPa) = 0.03881941
#
# Stress axis : x y z
#
# Youngs Moduli (GPa) = 40.50423 97.18318 70.98789
#
# Poissons Ratio (x) = 0.50179 -0.06525
# Poissons Ratio (y) = 0.20914 0.06239
# Poissons Ratio (z) = -0.03723 0.08541
#
# Static dielectric constant tensor:
#      x y z
#    x 1.971340 0.000000 0.035270 
#    y 0.000000 1.879150 0.000000 
#    z 0.035270 0.000000 1.904800 
# 
# From -- ./inp_files/68327.got.cif
#   From: 2010.05.17/outbox.cif.g08.bks.cpg/sg5_35_cif.got.tgz:68327.got - 2010.06.03 18:56:24.
