data_PCOD9124558
_publ_section_title
;
Structure prediction by ZEFSAII (Michael W. Deem and Ramdas Pophale) SiO2 
 PCOD9124558
Probable space group: C 2
;
_chemical_formula_sum "Si O2"
_cell_formula_units_Z 28
_cell_length_a 11.114330
_cell_length_b 8.704854
_cell_length_c 15.537806
_cell_angle_alpha 90.000000
_cell_angle_beta 50.612878
_cell_angle_gamma 90.000000
_cell_volume 1161.834899
_symmetry_space_group_name_H-M "C 2"
_symmetry_group_IT_number 5
_symmetry_cell_setting 'monoclinic'
loop_
_space_group_symop_operation_xyz
x,y,z
-x,y,-z
1/2+x,1/2+y,z
1/2-x,1/2+y,-z
loop_
_atom_site_type_symbol
_atom_site_label
_atom_site_fract_x
_atom_site_fract_y
_atom_site_fract_z
Si Si1 0.376075 0.716710 0.489800
Si Si2 0.520563 0.605211 0.263419
Si Si3 0.500000 0.242513 0.000000
Si Si4 0.710428 0.911590 0.167494
Si Si5 0.776942 0.149576 0.252818
Si Si6 0.814045 0.897214 0.575756
Si Si7 0.000000 0.230798 0.000000
Si Si8 0.782171 0.488296 0.028160
O O1 0.500000 0.795287 0.500000
O O2 0.491311 0.613877 0.376884
O O3 0.270881 0.815229 0.469683
O O4 0.282523 0.580008 0.580670
O O5 0.354823 0.564240 0.297737
O O6 0.645856 0.501811 0.159382
O O7 0.581927 0.779033 0.215251
O O8 0.625427 0.329860 0.883745
O O9 0.606394 0.133716 0.009751
O O10 0.655210 0.039930 0.260162
O O11 0.756580 0.980306 0.053958
O O12 0.743166 0.314667 0.309586
O O13 0.909846 0.154552 0.119448
O O14 0.000000 0.866938 0.500000
O O15 0.124810 0.337825 0.989749
#
# Coordination Sequence:
#
# PCOD9124558 Si02
#       8
#     4   4   2   4   4   4   2   4
#     4  10  24  46  72  96 134 176 232 298 346 409
#     4  10  22  41  63  94 126 174 224 274 337 400
#     4   9  21  36  52  88 125 163 214 244 306 395
#     4  11  21  39  60  90 132 170 212 263 325 399
#     4  11  23  40  66  95 132 173 218 273 335 406
#     4  10  25  47  69 102 131 179 237 288 348 409
#     4  11  21  36  62  98 135 171 210 268 324 403
#     4  10  21  36  60  92 131 170 211 257 323 401
#
# _framework density 24.099810000000002
#
# number of rings (size 3 to 8) (size 9 to 14) (size 15 to 20)
#    0.000    1.714    1.429    2.143    6.000    5.143 
#    0.000    0.000    0.000    0.000    0.000    0.000 
#    0.000    0.000    0.000    0.000    0.000    0.000 
#
# Total GULP energy -78047.845615 kJ/mol
# GULP energy per Si atom -5574.846115 kJ/mol
# Density = 2.404496 g / cm^3
# Si number density = 24.099810 Si / 1000 Ang^3
#
#
#
# Elastic Constant Matrix: (Units=GPa)
#
#
# Indices 1 2 3 4 5 6 
#
# 1 89.1448 0.3769 2.2256 0.0000 13.6177 0.0000
# 2 0.3769 56.0148 -16.1010 0.0000 3.2575 0.0000
# 3 2.2256 -16.1010 56.1666 0.0000 13.6521 0.0000
# 4 0.0000 0.0000 0.0000 52.4614 0.0000 33.5806
# 5 13.6177 3.2575 13.6521 0.0000 37.5724 0.0000
# 6 0.0000 0.0000 0.0000 33.5806 0.0000 59.9830
#
#
#
# Elastic Compliance Matrix: (Units=1/GPa)
#
#
# Indices 1 2 3 4 5 6 
#
# 1 0.011904 0.000411 0.000772 0.000000 -0.004630 0.000000
# 2 0.000411 0.020055 0.006791 0.000000 -0.004355 0.000000
# 3 0.000772 0.006791 0.021862 0.000000 -0.008812 0.000000
# 4 0.000000 0.000000 0.000000 0.029707 0.000000 -0.016631
# 5 -0.004630 -0.004355 -0.008812 0.000000 0.031873 0.000000
# 6 0.000000 0.000000 0.000000 -0.016631 0.000000 0.025982
#
#
# Mechanical properties :
#
#
# Convention : Reuss Voigt Hill
#
# Bulk Modulus (GPa) = 14.33288 19.36993 16.85140
# Shear Modulus (GPa) = 33.62646 44.32503 38.97574
#
# Velocity S-wave (km/s) = 3.73942 4.29327 4.02588
# Velocity P-wave (km/s) = 4.96030 5.71236 5.34956
#
# Compressibility (1/GPa) = 0.06976965
#
# Stress axis : x y z
#
# Youngs Moduli (GPa) = 84.00501 49.86267 45.74058
#
# Poissons Ratio (x) = -0.02049 -0.03529
# Poissons Ratio (y) = -0.03452 -0.31065
# Poissons Ratio (z) = -0.06482 -0.33864
#
# Static dielectric constant tensor:
#      x y z
#    x 1.574850 0.000000 -0.358690 
#    y 0.000000 1.995630 0.000000 
#    z -0.358690 0.000000 1.636350 
# 
# From -- ./inp_files/52259.got.cif
#   From: 2010.05.17/outbox.cif.g08.bks.cpg/sg5_27_cif.got.tgz:52259.got - 2010.06.03 18:56:24.
