data_PCOD9124713
_publ_section_title
;
Structure prediction by ZEFSAII (Michael W. Deem and Ramdas Pophale) SiO2 
 PCOD9124713
Probable space group: C 2
;
_chemical_formula_sum "Si O2"
_cell_formula_units_Z 28
_cell_length_a 13.931521
_cell_length_b 17.102903
_cell_length_c 5.399984
_cell_angle_alpha 90.000000
_cell_angle_beta 55.623135
_cell_angle_gamma 90.000000
_cell_volume 1061.926726
_symmetry_space_group_name_H-M "C 2"
_symmetry_group_IT_number 5
_symmetry_cell_setting 'monoclinic'
loop_
_space_group_symop_operation_xyz
x,y,z
-x,y,-z
1/2+x,1/2+y,z
1/2-x,1/2+y,-z
loop_
_atom_site_type_symbol
_atom_site_label
_atom_site_fract_x
_atom_site_fract_y
_atom_site_fract_z
Si Si1 0.336229 0.870830 0.900910
Si Si2 0.895785 0.595934 0.467397
Si Si3 0.238837 0.224809 0.729357
Si Si4 0.500000 0.967313 0.000000
Si Si5 0.000000 0.735267 0.000000
Si Si6 0.675293 0.348884 0.737160
Si Si7 0.573364 0.640620 0.636190
Si Si8 0.376472 0.467975 0.548485
O O1 0.337525 0.779784 0.981974
O O2 0.227866 0.926396 0.150414
O O3 0.444237 0.914216 0.866673
O O4 0.301231 0.864859 0.665003
O O5 0.785600 0.639933 0.757253
O O6 0.000000 0.575961 0.500000
O O7 0.935406 0.672781 0.263625
O O8 0.901134 0.524287 0.266525
O O9 0.321339 0.295399 0.513596
O O10 0.168920 0.201902 0.584300
O O11 0.911404 0.793002 0.982092
O O12 0.624083 0.429669 0.722303
O O13 0.500000 0.661636 0.500000
O O14 0.635560 0.560014 0.470805
O O15 0.500000 0.628594 0.000000
O O16 0.500000 0.454418 0.500000
#
# Coordination Sequence:
#
# PCOD9124713 Si02
#       8
#     4   4   4   2   2   4   4   4
#     4  11  24  41  66  98 136 177 225 283 345 413
#     4  10  21  42  63  92 126 174 217 273 337 400
#     4  10  24  42  64  97 131 175 231 276 337 408
#     4  11  26  40  62  95 134 172 224 273 328 416
#     4   9  18  34  62  97 124 154 222 275 334 402
#     4  10  21  37  67  96 130 177 215 285 346 408
#     4  11  27  45  69 100 135 183 229 286 345 411
#     4  10  23  42  65 101 132 168 227 288 350 412
#
# _framework density 26.367167999999999
#
# number of rings (size 3 to 8) (size 9 to 14) (size 15 to 20)
#    0.000    1.714    0.000    2.571    8.000    7.429 
#    0.000    0.000    0.000    0.000    0.000    0.000 
#    0.000    0.000    0.000    0.000    0.000    0.000 
#
# Total GULP energy -78072.912110 kJ/mol
# GULP energy per Si atom -5576.636579 kJ/mol
# Density = 2.630716 g / cm^3
# Si number density = 26.367168 Si / 1000 Ang^3
#
#
#
# Elastic Constant Matrix: (Units=GPa)
#
#
# Indices 1 2 3 4 5 6 
#
# 1 135.4422 52.3485 15.8099 0.0000 20.6883 0.0000
# 2 52.3485 129.2731 32.7549 0.0000 3.1238 0.0000
# 3 15.8099 32.7549 42.1725 0.0000 2.3590 0.0000
# 4 0.0000 0.0000 0.0000 4.5407 0.0000 -29.8077
# 5 20.6883 3.1238 2.3590 0.0000 40.8267 0.0000
# 6 0.0000 0.0000 0.0000 -29.8077 0.0000 -13.9197
#
#
#
# Elastic Compliance Matrix: (Units=1/GPa)
#
#
# Indices 1 2 3 4 5 6 
#
# 1 0.009534 -0.003623 -0.000507 0.000000 -0.004525 0.000000
# 2 -0.003623 0.011011 -0.007273 0.000000 0.001414 0.000000
# 3 -0.000507 -0.007273 0.029602 0.000000 -0.000897 0.000000
# 4 0.000000 0.000000 0.000000 0.014626 0.000000 -0.031320
# 5 -0.004525 0.001414 -0.000897 0.000000 0.026730 0.000000
# 6 0.000000 0.000000 0.000000 -0.031320 0.000000 -0.004771
#
#
# Mechanical properties :
#
#
# Convention : Reuss Voigt Hill
#
# Bulk Modulus (GPa) = 36.57640 56.52383 46.55011
# Shear Modulus (GPa) = 42.14012 20.02118 31.08065
#
# Velocity S-wave (km/s) = 4.00209 2.75857 3.43704
# Velocity P-wave (km/s) = 5.93782 5.62406 5.78307
#
# Compressibility (1/GPa) = 0.02734004
#
# Stress axis : x y z
#
# Youngs Moduli (GPa) = 104.89035 90.81543 33.78197
#
# Poissons Ratio (x) = 0.32901 0.01713
# Poissons Ratio (y) = 0.38000 0.24571
# Poissons Ratio (z) = 0.05320 0.66053
#
# Static dielectric constant tensor:
#      x y z
#    x 4.461190 0.000000 -1.575160 
#    y 0.000000 2.033400 0.000000 
#    z -1.575160 0.000000 3.416670 
# 
# From -- ./inp_files/7198.got.cif
#   From: 2010.05.17/outbox.cif.g08.bks.cpg/sg5_4_cif.got.tgz:7198.got - 2010.06.03 18:56:24.
