data_PCOD9124453
_publ_section_title
;
Structure prediction by ZEFSAII (Michael W. Deem and Ramdas Pophale) SiO2 
 PCOD9124453
Probable space group: C 2
;
_chemical_formula_sum "Si O2"
_cell_formula_units_Z 28
_cell_length_a 10.184635
_cell_length_b 9.786708
_cell_length_c 16.150327
_cell_angle_alpha 90.000000
_cell_angle_beta 122.607412
_cell_angle_gamma 90.000000
_cell_volume 1356.041108
_symmetry_space_group_name_H-M "C 2"
_symmetry_group_IT_number 5
_symmetry_cell_setting 'monoclinic'
loop_
_space_group_symop_operation_xyz
x,y,z
-x,y,-z
1/2+x,1/2+y,z
1/2-x,1/2+y,-z
loop_
_atom_site_type_symbol
_atom_site_label
_atom_site_fract_x
_atom_site_fract_y
_atom_site_fract_z
Si Si1 0.036799 0.666720 0.604850
Si Si2 0.243436 0.264383 0.182273
Si Si3 0.337296 0.466688 0.897646
Si Si4 0.008209 0.357107 0.621618
Si Si5 0.051121 0.285558 0.822458
Si Si6 0.264591 0.303942 0.595487
Si Si7 0.491515 0.465588 0.777476
O O1 0.065233 0.506143 0.612701
O O2 0.885403 0.687946 0.610519
O O3 0.000000 0.717198 0.500000
O O4 0.179122 0.735763 0.701046
O O5 0.356570 0.370701 0.176689
O O6 0.069709 0.313664 0.144479
O O7 0.236431 0.118630 0.133293
O O8 0.217685 0.356366 0.893418
O O9 0.385399 0.428743 0.820372
O O10 0.500000 0.474497 0.000000
O O11 0.846108 0.332735 0.520175
O O12 0.998493 0.346584 0.716084
O O13 0.144855 0.264007 0.628167
O O14 0.044140 0.121963 0.806253
O O15 0.380120 0.428027 0.661826
#
# Coordination Sequence:
#
# PCOD9124453 Si02
#       7
#     4   4   4   4   4   4   4
#     4  11  20  36  60  86 125 167 202 242 300 358
#     4  10  23  42  65  94 126 161 204 255 304 368
#     4  11  24  44  67  91 120 159 204 258 322 373
#     4  11  20  35  59  87 123 161 208 245 293 356
#     4  11  22  40  66  92 122 167 201 253 310 367
#     4  10  21  34  57  87 120 164 200 247 291 352
#     4  10  23  42  62  92 130 159 206 258 300 367
#
# _framework density 20.648340999999999
#
# number of rings (size 3 to 8) (size 9 to 14) (size 15 to 20)
#    0.000    1.429    4.286    1.714    2.000    4.571 
#    0.000    0.714    0.000    0.000    0.000    0.000 
#    0.000    0.000    0.000    0.000    0.000    0.000 
#
# Total GULP energy -78137.966095 kJ/mol
# GULP energy per Si atom -5581.283293 kJ/mol
# Density = 2.060134 g / cm^3
# Si number density = 20.648341 Si / 1000 Ang^3
#
#
#
# Elastic Constant Matrix: (Units=GPa)
#
#
# Indices 1 2 3 4 5 6 
#
# 1 119.2732 54.6856 0.3378 0.0000 29.4951 0.0000
# 2 54.6856 54.2021 6.4461 0.0000 21.4493 0.0000
# 3 0.3378 6.4461 54.5132 0.0000 28.3492 0.0000
# 4 0.0000 0.0000 0.0000 10.3633 0.0000 9.6240
# 5 29.4951 21.4493 28.3492 0.0000 28.2652 0.0000
# 6 0.0000 0.0000 0.0000 9.6240 0.0000 30.2676
#
#
#
# Elastic Compliance Matrix: (Units=1/GPa)
#
#
# Indices 1 2 3 4 5 6 
#
# 1 0.021019 -0.011083 0.017167 0.000000 -0.030741 0.000000
# 2 -0.011083 0.040066 0.010719 0.000000 -0.029591 0.000000
# 3 0.017167 0.010719 0.063788 0.000000 -0.090026 0.000000
# 4 0.000000 0.000000 0.000000 0.136926 0.000000 -0.043538
# 5 -0.030741 -0.029591 -0.090026 0.000000 0.180208 0.000000
# 6 0.000000 0.000000 0.000000 -0.043538 0.000000 0.046882
#
#
# Mechanical properties :
#
#
# Convention : Reuss Voigt Hill
#
# Bulk Modulus (GPa) = 6.30993 38.99195 22.65094
# Shear Modulus (GPa) = 9.84043 24.88048 17.36046
#
# Velocity S-wave (km/s) = 2.18542 3.47502 2.90274
# Velocity P-wave (km/s) = 3.07093 5.91827 4.71468
#
# Compressibility (1/GPa) = 0.15848048
#
# Stress axis : x y z
#
# Youngs Moduli (GPa) = 47.57619 24.95866 15.67699
#
# Poissons Ratio (x) = 0.27661 -0.26913
# Poissons Ratio (y) = 0.52728 -0.16805
# Poissons Ratio (z) = -0.81675 -0.26754
#
# Static dielectric constant tensor:
#      x y z
#    x 1.751780 0.000000 0.005240 
#    y 0.000000 1.718920 0.000000 
#    z 0.005240 0.000000 1.794640 
# 
# From -- ./inp_files/50564.got.cif
#   From: 2010.05.17/outbox.cif.g08.bks.cpg/sg5_26_cif.got.tgz:50564.got - 2010.06.03 18:56:24.
