data_PCOD9124969
_publ_section_title
;
Structure prediction by ZEFSAII (Michael W. Deem and Ramdas Pophale) SiO2 
 PCOD9124969
Probable space group: C 2
;
_chemical_formula_sum "Si O2"
_cell_formula_units_Z 26
_cell_length_a 14.279947
_cell_length_b 9.766834
_cell_length_c 11.893413
_cell_angle_alpha 90.000000
_cell_angle_beta 137.231296
_cell_angle_gamma 90.000000
_cell_volume 1126.373781
_symmetry_space_group_name_H-M "C 2"
_symmetry_group_IT_number 5
_symmetry_cell_setting 'monoclinic'
loop_
_space_group_symop_operation_xyz
x,y,z
-x,y,-z
1/2+x,1/2+y,z
1/2-x,1/2+y,-z
loop_
_atom_site_type_symbol
_atom_site_label
_atom_site_fract_x
_atom_site_fract_y
_atom_site_fract_z
Si Si1 0.668491 0.372670 0.263679
Si Si2 0.344653 0.693426 0.736230
Si Si3 0.437316 0.294611 0.596309
Si Si4 0.500000 0.545100 0.500000
Si Si5 0.971840 0.295127 0.627242
Si Si6 0.746158 0.914145 0.895665
Si Si7 0.753447 0.727067 0.119051
O O1 0.631158 0.532780 0.232789
O O2 0.574017 0.310767 0.278529
O O3 0.824605 0.335355 0.443270
O O4 0.668297 0.343162 0.130124
O O5 0.190215 0.702471 0.550561
O O6 0.441198 0.763850 0.730316
O O7 0.338849 0.760322 0.853846
O O8 0.418389 0.437675 0.509199
O O9 0.587347 0.237639 0.701050
O O10 0.538350 0.658527 0.628971
O O11 0.086181 0.410721 0.715586
O O12 0.783700 0.071881 0.946185
O O13 0.747664 0.829845 0.010943
#
# Coordination Sequence:
#
# PCOD9124969 Si02
#       7
#     4   4   4   2   4   4   4
#     4  10  21  39  63  89 119 155 201 250 304 360
#     4  10  21  39  63  89 119 155 201 250 304 360
#     4  11  22  38  63  94 120 156 199 253 301 359
#     4  12  20  36  66  94 124 156 196 258 294 368
#     4  11  22  38  63  94 120 156 199 253 301 359
#     4  11  25  42  61  86 124 167 203 250 301 360
#     4  11  25  42  61  86 124 167 203 250 301 360
#
# _framework density 23.082923000000001
#
# number of rings (size 3 to 8) (size 9 to 14) (size 15 to 20)
#    0.000    1.231    4.615    0.923    2.154    3.692 
#    0.000    4.615    0.000    0.000    0.000    0.000 
#    0.000    0.000    0.000    0.000    0.000    0.000 
#
# Total GULP energy -72536.300513 kJ/mol
# GULP energy per Si atom -5579.715424 kJ/mol
# Density = 2.303039 g / cm^3
# Si number density = 23.082923 Si / 1000 Ang^3
#
#
#
# Elastic Constant Matrix: (Units=GPa)
#
#
# Indices 1 2 3 4 5 6 
#
# 1 150.2711 19.6652 51.1445 0.0000 -43.2036 0.0000
# 2 19.6652 59.3346 20.6208 0.0000 -18.8954 0.0000
# 3 51.1445 20.6208 75.9339 0.0000 -34.4574 0.0000
# 4 0.0000 0.0000 0.0000 31.3748 0.0000 -9.6431
# 5 -43.2036 -18.8954 -34.4574 0.0000 70.9405 0.0000
# 6 0.0000 0.0000 0.0000 -9.6431 0.0000 26.1434
#
#
#
# Elastic Compliance Matrix: (Units=1/GPa)
#
#
# Indices 1 2 3 4 5 6 
#
# 1 0.009217 -0.000412 -0.004616 0.000000 0.003262 0.000000
# 2 -0.000412 0.019216 -0.003505 0.000000 0.003165 0.000000
# 3 -0.004616 -0.003505 0.019922 0.000000 0.005932 0.000000
# 4 0.000000 0.000000 0.000000 0.035948 0.000000 0.013260
# 5 0.003262 0.003165 0.005932 0.000000 0.019807 0.000000
# 6 0.000000 0.000000 0.000000 0.013260 0.000000 0.043141
#
#
# Mechanical properties :
#
#
# Convention : Reuss Voigt Hill
#
# Bulk Modulus (GPa) = 31.95946 52.04450 42.00198
# Shear Modulus (GPa) = 28.61268 38.63234 33.62251
#
# Velocity S-wave (km/s) = 3.52456 4.09544 3.82068
# Velocity P-wave (km/s) = 5.51715 6.70517 6.13996
#
# Compressibility (1/GPa) = 0.03128964
#
# Stress axis : x y z
#
# Youngs Moduli (GPa) = 108.49007 52.03993 50.19554
#
# Poissons Ratio (x) = 0.02144 0.23172
# Poissons Ratio (y) = 0.04469 0.17592
# Poissons Ratio (z) = 0.50084 0.18238
#
# Static dielectric constant tensor:
#      x y z
#    x 1.876850 0.000000 0.000990 
#    y 0.000000 1.807810 0.000000 
#    z 0.000990 0.000000 1.957530 
# 
# From -- ./inp_files/41825.got.cif
#   From: 2010.05.17/outbox.cif.g08.bks.cpg/sg5_21_cif.got.tgz:41825.got - 2010.06.03 18:56:24.
