data_PCOD9124353
_publ_section_title
;
Structure prediction by ZEFSAII (Michael W. Deem and Ramdas Pophale) SiO2 
 PCOD9124353
Probable space group: C 2
;
_chemical_formula_sum "Si O2"
_cell_formula_units_Z 18
_cell_length_a 7.845349
_cell_length_b 17.412565
_cell_length_c 7.158735
_cell_angle_alpha 90.000000
_cell_angle_beta 50.768567
_cell_angle_gamma 90.000000
_cell_volume 757.508432
_symmetry_space_group_name_H-M "C 2"
_symmetry_group_IT_number 5
_symmetry_cell_setting 'monoclinic'
loop_
_space_group_symop_operation_xyz
x,y,z
-x,y,-z
1/2+x,1/2+y,z
1/2-x,1/2+y,-z
loop_
_atom_site_type_symbol
_atom_site_label
_atom_site_fract_x
_atom_site_fract_y
_atom_site_fract_z
Si Si1 0.492503 0.300720 0.728504
Si Si2 0.553001 0.590902 0.178965
Si Si3 0.000000 0.502227 0.000000
Si Si4 0.827702 0.254258 0.755430
Si Si5 0.695797 0.450948 0.510677
O O1 0.500000 0.286976 0.500000
O O2 0.628371 0.237453 0.749271
O O3 0.624801 0.379608 0.688416
O O4 0.260327 0.297269 0.997556
O O5 0.786261 0.550243 0.075298
O O6 0.500000 0.599566 0.000000
O O7 0.563659 0.675133 0.256213
O O8 0.353945 0.535340 0.380123
O O9 0.084492 0.452408 0.764116
O O10 0.000000 0.295676 0.500000
O O11 0.500000 0.440411 0.500000
#
# Coordination Sequence:
#
# PCOD9124353 Si02
#       5
#     4   4   2   4   4
#     4  10  24  45  71 102 145 187 240 298 355 428
#     4  11  25  43  72 107 147 187 244 298 355 432
#     4  10  20  44  70 104 142 188 232 306 362 414
#     4  11  25  43  67 104 148 186 235 290 360 429
#     4   9  21  43  71 104 143 179 247 300 348 434
#
# _framework density 23.762111999999998
#
# number of rings (size 3 to 8) (size 9 to 14) (size 15 to 20)
#    0.000    1.778    0.000    3.333    6.222    6.222 
#    0.000    0.000    0.000    0.000    0.000    0.000 
#    0.000    0.000    0.000    0.000    0.000    0.000 
#
# Total GULP energy -50107.246360 kJ/mol
# GULP energy per Si atom -5567.471818 kJ/mol
# Density = 2.370803 g / cm^3
# Si number density = 23.762112 Si / 1000 Ang^3
#
#
#
# Elastic Constant Matrix: (Units=GPa)
#
#
# Indices 1 2 3 4 5 6 
#
# 1 58.9326 13.6649 43.3104 0.0000 15.7610 0.0000
# 2 13.6649 106.2687 76.5869 0.0000 -8.9078 0.0000
# 3 43.3104 76.5869 237.7831 0.0000 -11.3134 0.0000
# 4 0.0000 0.0000 0.0000 24.2454 0.0000 8.2052
# 5 15.7610 -8.9078 -11.3134 0.0000 44.2453 0.0000
# 6 0.0000 0.0000 0.0000 8.2052 0.0000 -27.4318
#
#
#
# Elastic Compliance Matrix: (Units=1/GPa)
#
#
# Indices 1 2 3 4 5 6 
#
# 1 0.022865 -0.000526 -0.004442 0.000000 -0.009387 0.000000
# 2 -0.000526 0.012363 -0.003805 0.000000 0.001703 0.000000
# 3 -0.004442 -0.003805 0.006356 0.000000 0.002442 0.000000
# 4 0.000000 0.000000 0.000000 0.037454 0.000000 0.011203
# 5 -0.009387 0.001703 0.002442 0.000000 0.026912 0.000000
# 6 0.000000 0.000000 0.000000 0.011203 0.000000 -0.033103
#
#
# Mechanical properties :
#
#
# Convention : Reuss Voigt Hill
#
# Bulk Modulus (GPa) = 41.59947 74.45654 58.02801
# Shear Modulus (GPa) = 50.80998 26.17324 38.49161
#
# Velocity S-wave (km/s) = 4.62917 3.32244 4.02913
# Velocity P-wave (km/s) = 6.79094 6.79119 6.79107
#
# Compressibility (1/GPa) = 0.02403877
#
# Stress axis : x y z
#
# Youngs Moduli (GPa) = 43.73437 80.88792 157.32320
#
# Poissons Ratio (x) = 0.04252 0.69883
# Poissons Ratio (y) = 0.02299 0.59863
# Poissons Ratio (z) = 0.19427 0.30779
#
# Static dielectric constant tensor:
#      x y z
#    x 2.136570 0.000000 0.233550 
#    y 0.000000 2.132870 0.000000 
#    z 0.233550 0.000000 2.542280 
# 
# From -- ./inp_files/2779.got.cif
#   From: 2010.05.17/outbox.cif.g08.bks.cpg/sg5_2_cif.got.tgz:2779.got - 2010.06.03 18:56:24.
