data_PCOD9125677
_publ_section_title
;
Structure prediction by ZEFSAII (Michael W. Deem and Ramdas Pophale) SiO2 
 PCOD9125677
Probable space group: C 2
;
_chemical_formula_sum "Si O2"
_cell_formula_units_Z 30
_cell_length_a 18.820209
_cell_length_b 5.765805
_cell_length_c 15.810440
_cell_angle_alpha 90.000000
_cell_angle_beta 119.664885
_cell_angle_gamma 90.000000
_cell_volume 1490.787153
_symmetry_space_group_name_H-M "C 2"
_symmetry_group_IT_number 5
_symmetry_cell_setting 'monoclinic'
loop_
_space_group_symop_operation_xyz
x,y,z
-x,y,-z
1/2+x,1/2+y,z
1/2-x,1/2+y,-z
loop_
_atom_site_type_symbol
_atom_site_label
_atom_site_fract_x
_atom_site_fract_y
_atom_site_fract_z
Si Si1 0.756302 0.720380 0.612978
Si Si2 0.226351 0.239339 0.093231
Si Si3 0.649965 0.843081 0.392545
Si Si4 0.469006 0.705524 0.335335
Si Si5 0.627254 0.363432 0.608446
Si Si6 0.000000 0.551493 0.500000
Si Si7 0.715425 0.613917 0.258918
Si Si8 0.319291 0.740008 0.123578
O O1 0.715063 0.844920 0.508286
O O2 0.841324 0.607182 0.633709
O O3 0.682945 0.545465 0.592932
O O4 0.774225 0.846919 0.711995
O O5 0.174947 0.203884 0.149553
O O6 0.273133 0.493341 0.121311
O O7 0.276536 0.990534 0.119713
O O8 0.177147 0.237680 0.976235
O O9 0.563473 0.733555 0.365417
O O10 0.680656 0.708063 0.327081
O O11 0.437399 0.478480 0.366232
O O12 0.406228 0.739532 0.221930
O O13 0.462523 0.899861 0.403993
O O14 0.575750 0.205739 0.514712
O O15 0.692897 0.211415 0.696132
#
# Coordination Sequence:
#
# PCOD9125677 Si02
#       8
#     4   4   4   4   4   2   4   4
#     4  11  22  40  58  88 126 182 222 262 319 410
#     4  10  21  42  71 101 126 168 221 285 336 407
#     4  11  24  37  58  87 133 174 220 262 326 402
#     4  12  24  40  59  98 129 173 213 285 338 393
#     4  11  22  37  62  84 125 168 220 270 327 396
#     4  12  24  34  58  92 130 164 210 270 330 394
#     4  11  22  39  62  89 122 175 222 265 322 410
#     4  10  22  42  70 101 131 162 222 284 348 392
#
# _framework density 20.123595999999999
#
# number of rings (size 3 to 8) (size 9 to 14) (size 15 to 20)
#    0.000    1.067    2.667    5.200    3.733    1.067 
#    0.000    0.667    0.000    0.000    0.000    0.000 
#    0.000    0.000    0.000    0.000    0.000    0.000 
#
# Total GULP energy -83501.599618 kJ/mol
# GULP energy per Si atom -5566.773308 kJ/mol
# Density = 2.007779 g / cm^3
# Si number density = 20.123596 Si / 1000 Ang^3
#
#
#
# Elastic Constant Matrix: (Units=GPa)
#
#
# Indices 1 2 3 4 5 6 
#
# 1 89.7696 27.4813 22.6717 0.0000 -8.9282 0.0000
# 2 27.4813 77.1113 19.6028 0.0000 -1.9509 0.0001
# 3 22.6717 19.6028 103.7354 0.0000 -7.7058 0.0000
# 4 0.0000 0.0000 0.0000 -1.4231 0.0000 18.5071
# 5 -8.9282 -1.9509 -7.7058 0.0000 25.0853 0.0000
# 6 0.0000 0.0001 0.0000 18.5071 0.0000 18.3034
#
#
#
# Elastic Compliance Matrix: (Units=1/GPa)
#
#
# Indices 1 2 3 4 5 6 
#
# 1 0.013257 -0.004163 -0.001826 0.000000 0.003834 0.000000
# 2 -0.004163 0.014932 -0.001981 0.000000 -0.000929 0.000000
# 3 -0.001826 -0.001981 0.010595 0.000000 0.002451 0.000000
# 4 0.000000 0.000000 0.000000 -0.049662 0.000000 0.050215
# 5 0.003834 -0.000929 0.002451 0.000000 0.041909 0.000000
# 6 0.000000 0.000000 0.000000 0.050215 0.000000 0.003861
#
#
# Mechanical properties :
#
#
# Convention : Reuss Voigt Hill
#
# Bulk Modulus (GPa) = 43.77487 45.56977 44.67232
# Shear Modulus (GPa) = 85.54826 21.78383 53.66605
#
# Velocity S-wave (km/s) = 6.52715 3.29371 5.16973
# Velocity P-wave (km/s) = 8.86596 6.09580 7.60802
#
# Compressibility (1/GPa) = 0.02284416
#
# Stress axis : x y z
#
# Youngs Moduli (GPa) = 75.43455 66.97005 94.38148
#
# Poissons Ratio (x) = 0.27882 0.17232
# Poissons Ratio (y) = 0.31406 0.18695
# Poissons Ratio (z) = 0.13772 0.13265
#
# Static dielectric constant tensor:
#      x y z
#    x 1.723220 0.000000 -0.040610 
#    y 0.000000 1.907990 0.000000 
#    z -0.040610 0.000000 1.752170 
# 
# From -- ./inp_files/55333.got.cif
#   From: 2010.05.17/outbox.cif.g08.bks.cpg/sg5_28_cif.got.tgz:55333.got - 2010.06.03 18:56:24.
