data_PCOD9125519
_publ_section_title
;
Structure prediction by ZEFSAII (Michael W. Deem and Ramdas Pophale) SiO2 
 PCOD9125519
Probable space group: C 2
;
_chemical_formula_sum "Si O2"
_cell_formula_units_Z 12
_cell_length_a 10.641580
_cell_length_b 8.963215
_cell_length_c 9.265460
_cell_angle_alpha 90.000000
_cell_angle_beta 32.752001
_cell_angle_gamma 90.000000
_cell_volume 478.120389
_symmetry_space_group_name_H-M "C 2"
_symmetry_group_IT_number 5
_symmetry_cell_setting 'monoclinic'
loop_
_space_group_symop_operation_xyz
x,y,z
-x,y,-z
1/2+x,1/2+y,z
1/2-x,1/2+y,-z
loop_
_atom_site_type_symbol
_atom_site_label
_atom_site_fract_x
_atom_site_fract_y
_atom_site_fract_z
Si Si1 0.983751 0.751260 0.845750
Si Si2 0.328415 0.488343 0.551292
Si Si3 0.254451 0.686316 0.195436
O O1 0.150065 0.608323 0.667432
O O2 0.065144 0.898452 0.684217
O O3 0.761535 0.704899 0.962798
O O4 0.000000 0.774821 0.000000
O O5 0.500000 0.566963 0.500000
O O6 0.237731 0.350444 0.737484
O O7 0.000000 0.627069 0.500000
O O8 0.500000 0.615044 0.000000
#
# Coordination Sequence:
#
# PCOD9125519 Si02
#       3
#     4   4   4
#     4  10  21  41  71  99 133 185 233 282 348 415
#     4   9  21  42  65  99 142 176 225 292 346 408
#     4   9  20  41  65  96 139 179 222 286 347 405
#
# _framework density 25.098281
#
# number of rings (size 3 to 8) (size 9 to 14) (size 15 to 20)
#    0.000    3.333    0.000    1.000    0.000    5.333 
#    0.000   55.000    0.000    0.000    0.000    0.000 
#    0.000    0.000    0.000    0.000    0.000    0.000 
#
# Total GULP energy -33456.123491 kJ/mol
# GULP energy per Si atom -5576.020582 kJ/mol
# Density = 2.504116 g / cm^3
# Si number density = 25.098281 Si / 1000 Ang^3
#
#
#
# Elastic Constant Matrix: (Units=GPa)
#
#
# Indices 1 2 3 4 5 6 
#
# 1 287.1937 53.6274 99.3508 -0.0011 25.6153 0.0005
# 2 53.6274 89.2139 16.9101 -0.0008 -6.4725 0.0005
# 3 99.3508 16.9101 95.8021 -0.0027 0.6828 0.0022
# 4 -0.0011 -0.0008 -0.0027 26.1893 0.0018 5.1836
# 5 25.6153 -6.4725 0.6828 0.0018 54.0095 -0.0011
# 6 0.0005 0.0005 0.0022 5.1836 -0.0011 37.9971
#
#
#
# Elastic Compliance Matrix: (Units=1/GPa)
#
#
# Indices 1 2 3 4 5 6 
#
# 1 0.006462 -0.002960 -0.006155 0.000000 -0.003342 0.000000
# 2 -0.002960 0.013062 0.000743 0.000000 0.002960 0.000000
# 3 -0.006155 0.000743 0.016670 0.000002 0.002798 -0.000001
# 4 0.000000 0.000000 0.000002 0.039243 -0.000001 -0.005354
# 5 -0.003342 0.002960 0.002798 -0.000001 0.020420 0.000001
# 6 0.000000 0.000000 -0.000001 -0.005354 0.000001 0.027048
#
#
# Mechanical properties :
#
#
# Convention : Reuss Voigt Hill
#
# Bulk Modulus (GPa) = 51.41346 90.22072 70.81709
# Shear Modulus (GPa) = 34.21540 43.79394 39.00467
#
# Velocity S-wave (km/s) = 3.69624 4.18173 3.94646
# Velocity P-wave (km/s) = 6.22459 7.70330 7.00308
#
# Compressibility (1/GPa) = 0.01945016
#
# Stress axis : x y z
#
# Youngs Moduli (GPa) = 154.74972 76.55625 59.98734
#
# Poissons Ratio (x) = 0.22662 0.36923
# Poissons Ratio (y) = 0.45809 -0.04458
# Poissons Ratio (z) = 0.95250 -0.05689
#
# Static dielectric constant tensor:
#      x y z
#    x 1.987440 0.000000 -0.015220 
#    y 0.000000 1.914330 0.000000 
#    z -0.015220 0.000000 2.164270 
# 
# From -- ./inp_files/1536.got.cif
#   From: 2010.05.17/outbox.cif.g08.bks.cpg/sg5_1_cif.got.tgz:1536.got - 2010.06.03 18:56:24.
