data_PCOD9125549
_publ_section_title
;
Structure prediction by ZEFSAII (Michael W. Deem and Ramdas Pophale) SiO2 
 PCOD9125549
Probable space group: C 2
;
_chemical_formula_sum "Si O2"
_cell_formula_units_Z 24
_cell_length_a 13.299433
_cell_length_b 9.128549
_cell_length_c 8.305434
_cell_angle_alpha 90.000000
_cell_angle_beta 109.319865
_cell_angle_gamma 90.000000
_cell_volume 951.535202
_symmetry_space_group_name_H-M "C 2"
_symmetry_group_IT_number 5
_symmetry_cell_setting 'monoclinic'
loop_
_space_group_symop_operation_xyz
x,y,z
-x,y,-z
1/2+x,1/2+y,z
1/2-x,1/2+y,-z
loop_
_atom_site_type_symbol
_atom_site_label
_atom_site_fract_x
_atom_site_fract_y
_atom_site_fract_z
Si Si1 0.198887 0.307150 0.268908
Si Si2 0.500000 0.339667 0.000000
Si Si3 0.406024 0.012213 0.216394
Si Si4 0.500000 0.794700 0.000000
Si Si5 0.800972 0.617104 0.866103
Si Si6 0.123863 0.264743 0.578275
Si Si7 0.554840 0.327039 0.692463
O O1 0.109763 0.222856 0.116243
O O2 0.172328 0.479961 0.233537
O O3 0.184699 0.253112 0.442357
O O4 0.319542 0.309104 0.272157
O O5 0.606177 0.239464 0.083225
O O6 0.476562 0.412502 0.161193
O O7 0.465115 0.893729 0.134982
O O8 0.374765 0.933116 0.362901
O O9 0.474267 0.156722 0.287377
O O10 0.306456 0.054539 0.050077
O O11 0.689461 0.678752 0.747838
O O12 0.000000 0.222635 0.500000
O O13 0.500000 0.379018 0.500000
#
# Coordination Sequence:
#
# PCOD9125549 Si02
#       7
#     4   2   4   2   4   4   4
#     4  11  24  39  68  94 137 171 224 279 332 392
#     4  10  23  42  70  89 132 177 232 268 331 398
#     4  10  22  39  70  89 132 174 227 269 327 399
#     4  10  21  42  62  99 126 173 222 278 323 406
#     4  10  24  43  64  99 133 172 225 280 328 402
#     4  12  25  41  70 101 134 176 224 277 339 396
#     4  11  23  39  66  98 126 174 224 282 332 395
#
# _framework density 25.2224
#
# number of rings (size 3 to 8) (size 9 to 14) (size 15 to 20)
#    0.000    1.333    1.667    6.000   14.000    0.667 
#    0.000    0.000    0.000    2.000    0.000    0.000 
#    0.000    0.000    0.000    0.000    0.000    0.000 
#
# Total GULP energy -67064.890688 kJ/mol
# GULP energy per Si atom -5588.740891 kJ/mol
# Density = 2.516499 g / cm^3
# Si number density = 25.222400 Si / 1000 Ang^3
#
#
#
# Elastic Constant Matrix: (Units=GPa)
#
#
# Indices 1 2 3 4 5 6 
#
# 1 165.5121 2.3508 87.2059 0.0000 10.3925 0.0000
# 2 2.3508 29.2199 15.2718 0.0000 3.7782 0.0000
# 3 87.2059 15.2718 163.4089 0.0000 9.2923 0.0000
# 4 0.0000 0.0000 0.0000 27.8849 0.0000 -0.7235
# 5 10.3925 3.7782 9.2923 0.0000 60.6444 0.0000
# 6 0.0000 0.0000 0.0000 -0.7235 0.0000 28.2628
#
#
#
# Elastic Compliance Matrix: (Units=1/GPa)
#
#
# Indices 1 2 3 4 5 6 
#
# 1 0.008536 0.001871 -0.004681 0.000000 -0.000862 0.000000
# 2 0.001871 0.036574 -0.004307 0.000000 -0.001939 0.000000
# 3 -0.004681 -0.004307 0.009038 0.000000 -0.000314 0.000000
# 4 0.000000 0.000000 0.000000 0.035886 0.000000 0.000919
# 5 -0.000862 -0.001939 -0.000314 0.000000 0.016806 0.000000
# 6 0.000000 0.000000 0.000000 0.000919 0.000000 0.035406
#
#
# Mechanical properties :
#
#
# Convention : Reuss Voigt Hill
#
# Bulk Modulus (GPa) = 25.05289 63.08865 44.07077
# Shear Modulus (GPa) = 29.44924 40.24592 34.84758
#
# Velocity S-wave (km/s) = 3.42070 3.99888 3.72104
# Velocity P-wave (km/s) = 5.05529 6.81092 5.99769
#
# Compressibility (1/GPa) = 0.03991555
#
# Stress axis : x y z
#
# Youngs Moduli (GPa) = 117.15298 27.34165 110.64196
#
# Poissons Ratio (x) = -0.05117 0.51793
# Poissons Ratio (y) = -0.21924 0.47648
# Poissons Ratio (z) = 0.54841 0.11775
#
# Static dielectric constant tensor:
#      x y z
#    x 2.051700 0.000000 0.000630 
#    y 0.000000 2.075380 0.000000 
#    z 0.000630 0.000000 2.007530 
# 
# From -- ./inp_files/19309.got.cif
#   From: 2010.05.17/outbox.cif.g08.bks.cpg/sg5_10_cif.got.tgz:19309.got - 2010.06.03 18:56:24.
