data_PCOD9125940
_publ_section_title
;
Structure prediction by ZEFSAII (Michael W. Deem and Ramdas Pophale) SiO2 
 PCOD9125940
Probable space group: C 2
;
_chemical_formula_sum "Si O2"
_cell_formula_units_Z 26
_cell_length_a 22.447315
_cell_length_b 5.358842
_cell_length_c 18.524276
_cell_angle_alpha 90.000000
_cell_angle_beta 30.210604
_cell_angle_gamma 90.000000
_cell_volume 1121.243337
_symmetry_space_group_name_H-M "C 2"
_symmetry_group_IT_number 5
_symmetry_cell_setting 'monoclinic'
loop_
_space_group_symop_operation_xyz
x,y,z
-x,y,-z
1/2+x,1/2+y,z
1/2-x,1/2+y,-z
loop_
_atom_site_type_symbol
_atom_site_label
_atom_site_fract_x
_atom_site_fract_y
_atom_site_fract_z
Si Si1 0.611731 0.140300 0.099797
Si Si2 0.745056 0.636718 0.907609
Si Si3 0.616805 0.882682 0.777598
Si Si4 0.687059 0.772916 0.468631
Si Si5 0.258413 0.528690 0.250624
Si Si6 0.500000 0.218651 0.000000
Si Si7 0.901422 0.985507 0.318502
O O1 0.649886 0.136342 0.143980
O O2 0.473930 0.228043 0.244628
O O3 0.672133 0.385923 0.002166
O O4 0.668658 0.889120 0.005086
O O5 0.787371 0.598750 0.780606
O O6 0.684503 0.774267 0.775670
O O7 0.564737 0.661353 0.784311
O O8 0.721025 0.046581 0.636314
O O9 0.513237 0.053346 0.915333
O O10 0.677720 0.903945 0.399406
O O11 0.763037 0.952155 0.441561
O O12 0.583349 0.647372 0.624250
O O13 0.377327 0.362594 0.120940
#
# Coordination Sequence:
#
# PCOD9125940 Si02
#       7
#     4   4   4   4   4   2   4
#     4  10  25  41  70  97 132 179 228 280 347 393
#     4  10  24  45  62 104 130 174 232 286 335 410
#     4  10  22  35  55  93 134 167 213 266 346 400
#     4  10  22  38  57 101 129 178 220 270 343 406
#     4  10  23  35  62  90 140 171 217 287 339 408
#     4  10  22  34  54 102 130 176 210 262 364 414
#     4  11  22  38  64  94 135 178 224 278 332 420
#
# _framework density 23.188545999999999
#
# number of rings (size 3 to 8) (size 9 to 14) (size 15 to 20)
#    0.000    1.846    1.538    0.462   15.077    0.000 
#    0.000    0.000    0.000    0.923    4.000    0.000 
#    0.000    0.000    0.000    0.000    0.000    0.000 
#
# Total GULP energy -72503.326115 kJ/mol
# GULP energy per Si atom -5577.178932 kJ/mol
# Density = 2.313577 g / cm^3
# Si number density = 23.188546 Si / 1000 Ang^3
#
#
#
# Elastic Constant Matrix: (Units=GPa)
#
#
# Indices 1 2 3 4 5 6 
#
# 1 125.1398 29.6522 33.3362 0.0016 43.9594 0.0007
# 2 29.6522 106.6438 14.5409 -0.0019 18.4654 0.0110
# 3 33.3362 14.5409 41.0968 0.0002 32.4984 0.0046
# 4 0.0016 -0.0019 0.0002 35.9699 0.0056 9.3456
# 5 43.9594 18.4654 32.4984 0.0056 43.7836 -0.0006
# 6 0.0007 0.0110 0.0046 9.3456 -0.0006 30.9457
#
#
#
# Elastic Compliance Matrix: (Units=1/GPa)
#
#
# Indices 1 2 3 4 5 6 
#
# 1 0.012542 -0.001406 -0.000453 0.000001 -0.011663 0.000000
# 2 -0.001406 0.010278 -0.000447 0.000002 -0.002591 -0.000004
# 3 -0.000453 -0.000447 0.058952 0.000010 -0.043113 -0.000012
# 4 0.000001 0.000002 0.000010 0.030168 -0.000013 -0.009111
# 5 -0.011663 -0.002591 -0.043113 -0.000013 0.067643 0.000013
# 6 0.000000 -0.000004 -0.000012 -0.009111 0.000013 0.035066
#
#
# Mechanical properties :
#
#
# Convention : Reuss Voigt Hill
#
# Bulk Modulus (GPa) = 12.96038 47.54878 30.25458
# Shear Modulus (GPa) = 20.40981 35.16324 27.78653
#
# Velocity S-wave (km/s) = 2.96998 3.89833 3.46538
# Velocity P-wave (km/s) = 4.16681 6.38846 5.39327
#
# Compressibility (1/GPa) = 0.07715822
#
# Stress axis : x y z
#
# Youngs Moduli (GPa) = 79.73249 97.29956 16.96306
#
# Poissons Ratio (x) = 0.13681 0.00769
# Poissons Ratio (y) = 0.11211 0.00758
# Poissons Ratio (z) = 0.03616 0.04349
#
# Static dielectric constant tensor:
#      x y z
#    x 1.938650 0.000000 0.030460 
#    y 0.000000 1.945970 0.000010 
#    z 0.030460 0.000010 1.997580 
# 
# From -- ./inp_files/62617.got.cif
#   From: 2010.05.17/outbox.cif.g08.bks.cpg/sg5_32_cif.got.tgz:62617.got - 2010.06.03 18:56:24.
