data_PCOD9125687
_publ_section_title
;
Structure prediction by ZEFSAII (Michael W. Deem and Ramdas Pophale) SiO2 
 PCOD9125687
Probable space group: C 2
;
_chemical_formula_sum "Si O2"
_cell_formula_units_Z 24
_cell_length_a 23.465738
_cell_length_b 11.367915
_cell_length_c 8.788362
_cell_angle_alpha 90.000000
_cell_angle_beta 27.808236
_cell_angle_gamma 90.000000
_cell_volume 1093.672919
_symmetry_space_group_name_H-M "C 2"
_symmetry_group_IT_number 5
_symmetry_cell_setting 'monoclinic'
loop_
_space_group_symop_operation_xyz
x,y,z
-x,y,-z
1/2+x,1/2+y,z
1/2-x,1/2+y,-z
loop_
_atom_site_type_symbol
_atom_site_label
_atom_site_fract_x
_atom_site_fract_y
_atom_site_fract_z
Si Si1 0.293790 0.004900 0.132678
Si Si2 0.429111 0.682121 0.887952
Si Si3 0.167032 0.783043 0.963509
Si Si4 0.485680 0.431716 0.215984
Si Si5 0.132181 0.374479 0.739504
Si Si6 0.336180 0.800230 0.828812
O O1 0.320238 0.142358 0.072220
O O2 0.322543 0.955689 0.231575
O O3 0.153485 0.971239 0.433986
O O4 0.363154 0.926495 0.841980
O O5 0.442748 0.546877 0.893625
O O6 0.334325 0.711260 0.976827
O O7 0.555539 0.745286 0.532067
O O8 0.389641 0.747409 0.132937
O O9 0.268657 0.851847 0.623069
O O10 0.212162 0.810162 0.027244
O O11 0.040188 0.827172 0.190703
O O12 0.500000 0.409378 0.000000
O O13 0.000000 0.418381 0.000000
#
# Coordination Sequence:
#
# PCOD9125687 Si02
#       6
#     4   4   4   4   4   4
#     4  11  25  45  64 104 153 178 239 301 356 437
#     4  10  21  42  72  95 133 190 237 288 356 433
#     4  12  25  42  73 105 140 187 241 295 360 430
#     4  12  24  44  75 108 140 185 245 300 361 427
#     4  11  21  42  70  98 135 188 235 297 359 420
#     4  10  23  40  66 100 137 189 236 284 364 423
#
# _framework density 21.944403999999999
#
# number of rings (size 3 to 8) (size 9 to 14) (size 15 to 20)
#    0.000    1.000    5.000    1.500    2.333    1.333 
#    0.000    6.667    0.000    0.000    0.000    0.000 
#    0.000    0.000    0.000    0.000    0.000    0.000 
#
# Total GULP energy -67022.713189 kJ/mol
# GULP energy per Si atom -5585.226099 kJ/mol
# Density = 2.189446 g / cm^3
# Si number density = 21.944404 Si / 1000 Ang^3
#
#
#
# Elastic Constant Matrix: (Units=GPa)
#
#
# Indices 1 2 3 4 5 6 
#
# 1 177.5248 90.0158 34.1279 0.0000 -17.7949 0.0000
# 2 90.0158 137.3920 29.4310 0.0000 -18.0467 0.0000
# 3 34.1279 29.4310 62.8673 0.0000 -13.7662 0.0000
# 4 0.0000 0.0000 0.0000 7.8912 0.0000 -2.9495
# 5 -17.7949 -18.0467 -13.7662 0.0000 22.8155 0.0000
# 6 0.0000 0.0000 0.0000 -2.9495 0.0000 6.6743
#
#
#
# Elastic Compliance Matrix: (Units=1/GPa)
#
#
# Indices 1 2 3 4 5 6 
#
# 1 0.008769 -0.005104 -0.002025 0.000000 0.001580 0.000000
# 2 -0.005104 0.011531 -0.001731 0.000000 0.004096 0.000000
# 3 -0.002025 -0.001731 0.019784 0.000000 0.008989 0.000000
# 4 0.000000 0.000000 0.000000 0.151796 0.000000 0.067080
# 5 0.001580 0.004096 0.008989 0.000000 0.053726 0.000000
# 6 0.000000 0.000000 0.000000 0.067080 0.000000 0.179471
#
#
# Mechanical properties :
#
#
# Convention : Reuss Voigt Hill
#
# Bulk Modulus (GPa) = 44.71151 76.10370 60.40760
# Shear Modulus (GPa) = 11.10492 22.42349 16.76421
#
# Velocity S-wave (km/s) = 2.25199 3.20008 2.76694
# Velocity P-wave (km/s) = 5.21355 6.95770 6.14779
#
# Compressibility (1/GPa) = 0.02236561
#
# Stress axis : x y z
#
# Youngs Moduli (GPa) = 114.04454 86.72321 50.54520
#
# Poissons Ratio (x) = 0.44260 0.10234
# Poissons Ratio (y) = 0.58204 0.08748
# Poissons Ratio (z) = 0.23091 0.15009
#
# Static dielectric constant tensor:
#      x y z
#    x 1.839700 0.000000 -0.042080 
#    y 0.000000 1.786290 0.000000 
#    z -0.042080 0.000000 1.922660 
# 
# From -- ./inp_files/30909.got.cif
#   From: 2010.05.17/outbox.cif.g08.bks.cpg/sg5_16_cif.got.tgz:30909.got - 2010.06.03 18:56:24.
