data_PCOD9125636
_publ_section_title
;
Structure prediction by ZEFSAII (Michael W. Deem and Ramdas Pophale) SiO2 
 PCOD9125636
Probable space group: C 2
;
_chemical_formula_sum "Si O2"
_cell_formula_units_Z 24
_cell_length_a 9.462120
_cell_length_b 12.100988
_cell_length_c 17.606355
_cell_angle_alpha 90.000000
_cell_angle_beta 33.615487
_cell_angle_gamma 90.000000
_cell_volume 1116.060898
_symmetry_space_group_name_H-M "C 2"
_symmetry_group_IT_number 5
_symmetry_cell_setting 'monoclinic'
loop_
_space_group_symop_operation_xyz
x,y,z
-x,y,-z
1/2+x,1/2+y,z
1/2-x,1/2+y,-z
loop_
_atom_site_type_symbol
_atom_site_label
_atom_site_fract_x
_atom_site_fract_y
_atom_site_fract_z
Si Si1 0.225694 0.456150 0.955418
Si Si2 0.425160 0.204394 0.412559
Si Si3 0.299256 0.981599 0.702056
Si Si4 0.500000 0.792903 0.500000
Si Si5 0.500000 0.381845 0.500000
Si Si6 0.221191 0.717438 0.138309
Si Si7 0.999229 0.492691 0.219913
O O1 0.501537 0.514920 0.825946
O O2 0.282653 0.331147 0.903943
O O3 0.000000 0.497926 0.000000
O O4 0.122803 0.450773 0.087079
O O5 0.505164 0.082610 0.404102
O O6 0.184346 0.215087 0.465747
O O7 0.375151 0.296611 0.497172
O O8 0.663896 0.239413 0.252245
O O9 0.351558 0.961368 0.768647
O O10 0.359157 0.877063 0.621661
O O11 0.712647 0.452549 0.362187
O O12 0.022463 0.625017 0.202251
O O13 0.500000 0.667313 0.000000
#
# Coordination Sequence:
#
# PCOD9125636 Si02
#       7
#     4   4   4   2   2   4   4
#     4  11  23  44  73 101 139 188 242 299 360 427
#     4  11  24  44  71  99 147 186 239 295 362 426
#     4  11  24  45  70 105 142 189 244 292 358 437
#     4  12  23  47  70 108 144 198 234 290 368 432
#     4  12  23  43  66 110 138 190 236 306 352 434
#     4  10  21  42  68  94 134 189 229 288 365 420
#     4  11  24  41  69 100 144 185 240 297 360 425
#
# _framework density 21.504203
#
# number of rings (size 3 to 8) (size 9 to 14) (size 15 to 20)
#    0.000    1.000    3.333    5.000    0.000    2.667 
#    0.000    6.667    0.000    1.000    0.000    0.000 
#    0.000    0.000    0.000    0.000    0.000    0.000 
#
# Total GULP energy -66992.299554 kJ/mol
# GULP energy per Si atom -5582.691630 kJ/mol
# Density = 2.145526 g / cm^3
# Si number density = 21.504203 Si / 1000 Ang^3
#
#
#
# Elastic Constant Matrix: (Units=GPa)
#
#
# Indices 1 2 3 4 5 6 
#
# 1 96.2895 5.7058 18.3193 -0.0007 -21.1061 0.0003
# 2 5.7058 72.5482 8.9638 -0.0011 -14.8233 0.0003
# 3 18.3193 8.9638 87.1761 -0.0037 -19.1371 0.0014
# 4 -0.0007 -0.0011 -0.0037 17.0802 0.0004 10.6337
# 5 -21.1061 -14.8233 -19.1371 0.0004 50.1530 -0.0003
# 6 0.0003 0.0003 0.0014 10.6337 -0.0003 26.0484
#
#
#
# Elastic Compliance Matrix: (Units=1/GPa)
#
#
# Indices 1 2 3 4 5 6 
#
# 1 0.011618 0.000164 -0.001500 0.000000 0.004365 0.000000
# 2 0.000164 0.014702 -0.000630 0.000001 0.004174 -0.000001
# 3 -0.001500 -0.000630 0.012739 0.000004 0.004043 -0.000002
# 4 0.000000 0.000001 0.000004 0.078498 0.000001 -0.032045
# 5 0.004365 0.004174 0.004043 0.000001 0.024552 -0.000001
# 6 0.000000 -0.000001 -0.000002 -0.032045 -0.000001 0.051472
#
#
# Mechanical properties :
#
#
# Convention : Reuss Voigt Hill
#
# Bulk Modulus (GPa) = 28.46921 35.77684 32.12303
# Shear Modulus (GPa) = 23.89814 33.52465 28.71140
#
# Velocity S-wave (km/s) = 3.33727 3.95268 3.65794
# Velocity P-wave (km/s) = 5.30259 6.12412 5.72810
#
# Compressibility (1/GPa) = 0.03512566
#
# Stress axis : x y z
#
# Youngs Moduli (GPa) = 86.07446 68.01934 78.50151
#
# Poissons Ratio (x) = -0.01112 0.11775
# Poissons Ratio (y) = -0.01407 0.04944
# Poissons Ratio (z) = 0.12911 0.04284
#
# Static dielectric constant tensor:
#      x y z
#    x 2.073050 0.000000 0.024750 
#    y 0.000000 1.781970 0.000000 
#    z 0.024750 0.000000 1.838060 
# 
# From -- ./inp_files/59693.got.cif
#   From: 2010.05.17/outbox.cif.g08.bks.cpg/sg5_30_cif.got.tgz:59693.got - 2010.06.03 18:56:24.
