data_PCOD9125768
_publ_section_title
;
Structure prediction by ZEFSAII (Michael W. Deem and Ramdas Pophale) SiO2 
 PCOD9125768
Probable space group: C 2
;
_chemical_formula_sum "Si O2"
_cell_formula_units_Z 26
_cell_length_a 15.491321
_cell_length_b 8.029182
_cell_length_c 11.557334
_cell_angle_alpha 90.000000
_cell_angle_beta 127.622989
_cell_angle_gamma 90.000000
_cell_volume 1138.589435
_symmetry_space_group_name_H-M "C 2"
_symmetry_group_IT_number 5
_symmetry_cell_setting 'monoclinic'
loop_
_space_group_symop_operation_xyz
x,y,z
-x,y,-z
1/2+x,1/2+y,z
1/2-x,1/2+y,-z
loop_
_atom_site_type_symbol
_atom_site_label
_atom_site_fract_x
_atom_site_fract_y
_atom_site_fract_z
Si Si1 0.389536 0.382470 0.796531
Si Si2 0.119053 0.615629 0.386320
Si Si3 0.000000 0.147720 0.500000
Si Si4 0.281821 0.247692 0.152582
Si Si5 0.303387 0.423765 0.404121
Si Si6 0.138586 0.448358 0.625914
Si Si7 0.603977 0.489321 0.937119
O O1 0.433681 0.221221 0.762493
O O2 0.260684 0.412354 0.675109
O O3 0.474180 0.522685 0.819416
O O4 0.392189 0.390051 0.937599
O O5 0.209329 0.517039 0.391738
O O6 0.172440 0.758020 0.507159
O O7 0.073173 0.504115 0.455126
O O8 0.912363 0.274970 0.371151
O O9 0.916592 0.025722 0.496376
O O10 0.262331 0.371251 0.243953
O O11 0.345950 0.364900 0.116110
O O12 0.347034 0.093056 0.266381
O O13 0.177004 0.155119 0.011902
#
# Coordination Sequence:
#
# PCOD9125768 Si02
#       7
#     4   4   2   4   4   4   4
#     4  10  21  43  69  91 135 183 225 283 346 412
#     4  11  21  42  67 102 138 179 230 291 352 432
#     4  12  24  40  66 112 140 188 220 288 370 412
#     4  10  25  43  71 101 135 186 240 295 345 416
#     4  11  24  40  71 102 144 183 228 288 365 411
#     4  10  23  42  67 103 146 175 232 288 358 420
#     4  10  24  45  70  93 140 186 240 285 344 405
#
# _framework density 22.835273000000001
#
# number of rings (size 3 to 8) (size 9 to 14) (size 15 to 20)
#    0.000    1.538    3.077    0.000    6.462    1.231 
#    0.000    0.000   13.538    0.000    0.000    0.000 
#    0.000    0.000    0.000    0.000    0.000    0.000 
#
# Total GULP energy -72385.600979 kJ/mol
# GULP energy per Si atom -5568.123152 kJ/mol
# Density = 2.278330 g / cm^3
# Si number density = 22.835273 Si / 1000 Ang^3
#
#
#
# Elastic Constant Matrix: (Units=GPa)
#
#
# Indices 1 2 3 4 5 6 
#
# 1 63.1350 52.8822 30.1851 0.0000 -2.4168 0.0000
# 2 52.8822 90.2786 24.1454 0.0000 -10.5466 0.0000
# 3 30.1851 24.1454 41.5647 0.0000 -10.5351 0.0000
# 4 0.0000 0.0000 0.0000 38.4504 0.0000 -6.6995
# 5 -2.4168 -10.5466 -10.5351 0.0000 52.7249 0.0000
# 6 0.0000 0.0000 0.0000 -6.6995 0.0000 40.9003
#
#
#
# Elastic Compliance Matrix: (Units=1/GPa)
#
#
# Indices 1 2 3 4 5 6 
#
# 1 0.042083 -0.019866 -0.020582 0.000000 -0.006157 0.000000
# 2 -0.019866 0.022560 0.002354 0.000000 0.004072 0.000000
# 3 -0.020582 0.002354 0.039521 0.000000 0.007424 0.000000
# 4 0.000000 0.000000 0.000000 0.026772 0.000000 0.004385
# 5 -0.006157 0.004072 0.007424 0.000000 0.020982 0.000000
# 6 0.000000 0.000000 0.000000 0.004385 0.000000 0.025168
#
#
# Mechanical properties :
#
#
# Convention : Reuss Voigt Hill
#
# Bulk Modulus (GPa) = 35.74562 45.48929 40.61746
# Shear Modulus (GPa) = 19.04049 32.26617 25.65333
#
# Velocity S-wave (km/s) = 2.89073 3.76306 3.35536
# Velocity P-wave (km/s) = 5.17971 6.23255 5.73036
#
# Compressibility (1/GPa) = 0.02797545
#
# Stress axis : x y z
#
# Youngs Moduli (GPa) = 23.76239 44.32704 25.30329
#
# Poissons Ratio (x) = 0.88058 0.52080
# Poissons Ratio (y) = 0.47205 -0.05956
# Poissons Ratio (z) = 0.48908 -0.10434
#
# Static dielectric constant tensor:
#      x y z
#    x 1.889640 0.000000 0.054500 
#    y 0.000000 1.876850 0.000000 
#    z 0.054500 0.000000 1.948070 
# 
# From -- ./inp_files/41829.got.cif
#   From: 2010.05.17/outbox.cif.g08.bks.cpg/sg5_21_cif.got.tgz:41829.got - 2010.06.03 18:56:24.
