data_PCOD9125102
_publ_section_title
;
Structure prediction by ZEFSAII (Michael W. Deem and Ramdas Pophale) SiO2 
 PCOD9125102
Probable space group: C 2
;
_chemical_formula_sum "Si O2"
_cell_formula_units_Z 28
_cell_length_a 7.711458
_cell_length_b 29.722659
_cell_length_c 7.050448
_cell_angle_alpha 90.000000
_cell_angle_beta 135.532213
_cell_angle_gamma 90.000000
_cell_volume 1132.019900
_symmetry_space_group_name_H-M "C 2"
_symmetry_group_IT_number 5
_symmetry_cell_setting 'monoclinic'
loop_
_space_group_symop_operation_xyz
x,y,z
-x,y,-z
1/2+x,1/2+y,z
1/2-x,1/2+y,-z
loop_
_atom_site_type_symbol
_atom_site_label
_atom_site_fract_x
_atom_site_fract_y
_atom_site_fract_z
Si Si1 0.738402 0.270330 0.060318
Si Si2 0.440210 0.688523 0.730502
Si Si3 0.000000 0.549693 0.000000
Si Si4 0.944210 0.362233 0.181450
Si Si5 0.468788 0.508397 0.247178
Si Si6 0.940317 0.907643 0.680668
Si Si7 0.728011 0.094206 0.534702
Si Si8 0.000000 0.745052 0.500000
O O1 0.658315 0.272234 0.775752
O O2 0.500000 0.278394 0.000000
O O3 0.930859 0.310441 0.233614
O O4 0.854778 0.221506 0.195229
O O5 0.406615 0.636946 0.653256
O O6 0.177842 0.713688 0.513310
O O7 0.500000 0.688229 0.000000
O O8 0.177127 0.518540 0.008818
O O9 0.132849 0.581783 0.252624
O O10 0.168273 0.385794 0.469170
O O11 0.667323 0.383540 0.967561
O O12 0.000000 0.364658 0.000000
O O13 0.500000 0.509866 0.500000
O O14 0.558336 0.459717 0.256257
O O15 0.624739 0.549650 0.286232
O O16 0.000000 0.907281 0.500000
O O17 0.500000 0.104070 0.500000
#
# Coordination Sequence:
#
# PCOD9125102 Si02
#       8
#     4   4   2   4   4   4   4   2
#     4  11  26  46  69 103 138 185 231 298 363 431
#     4  10  23  45  68  96 137 183 236 288 355 425
#     4  10  24  42  70 102 140 182 238 288 354 428
#     4  10  21  39  70 103 137 187 238 288 356 428
#     4   9  21  40  64 101 139 180 231 286 347 424
#     4   9  20  36  69 103 138 186 236 288 353 423
#     4  11  24  44  68  99 137 187 230 294 355 422
#     4  10  22  46  70  94 136 180 234 286 350 424
#
# _framework density 24.734545000000001
#
# number of rings (size 3 to 8) (size 9 to 14) (size 15 to 20)
#    0.000    2.000    0.714    1.286   14.000    0.571 
#   10.286    1.429    0.000    0.000    0.000    0.000 
#    0.000    0.000    0.000    0.000    0.000    0.000 
#
# Total GULP energy -78368.280681 kJ/mol
# GULP energy per Si atom -5597.734334 kJ/mol
# Density = 2.467825 g / cm^3
# Si number density = 24.734545 Si / 1000 Ang^3
#
#
#
# Elastic Constant Matrix: (Units=GPa)
#
#
# Indices 1 2 3 4 5 6 
#
# 1 114.6911 50.1242 33.5889 0.0000 17.1584 0.0000
# 2 50.1242 187.0908 67.4090 0.0000 25.5148 0.0000
# 3 33.5889 67.4090 133.8355 0.0000 4.9863 0.0000
# 4 0.0000 0.0000 0.0000 26.2908 0.0000 13.5313
# 5 17.1584 25.5148 4.9863 0.0000 41.5767 0.0000
# 6 0.0000 0.0000 0.0000 13.5313 0.0000 15.2111
#
#
#
# Elastic Compliance Matrix: (Units=1/GPa)
#
#
# Indices 1 2 3 4 5 6 
#
# 1 0.010426 -0.001810 -0.001593 0.000000 -0.003001 0.000000
# 2 -0.001810 0.007439 -0.003164 0.000000 -0.003439 0.000000
# 3 -0.001593 -0.003164 0.009411 0.000000 0.001471 0.000000
# 4 0.000000 0.000000 0.000000 0.070157 0.000000 -0.062410
# 5 -0.003001 -0.003439 0.001471 0.000000 0.027224 0.000000
# 6 0.000000 0.000000 0.000000 -0.062410 0.000000 0.121259
#
#
# Mechanical properties :
#
#
# Convention : Reuss Voigt Hill
#
# Bulk Modulus (GPa) = 70.71972 81.98464 76.35218
# Shear Modulus (GPa) = 18.95632 35.58207 27.26920
#
# Velocity S-wave (km/s) = 2.77138 3.79695 3.32395
# Velocity P-wave (km/s) = 6.23653 7.24156 6.75775
#
# Compressibility (1/GPa) = 0.01414033
#
# Stress axis : x y z
#
# Youngs Moduli (GPa) = 95.91803 134.42628 106.26159
#
# Poissons Ratio (x) = 0.24330 0.16929
# Poissons Ratio (y) = 0.17360 0.33626
# Poissons Ratio (z) = 0.15281 0.42539
#
# Static dielectric constant tensor:
#      x y z
#    x 2.028160 0.000000 0.021010 
#    y 0.000000 1.927840 0.000000 
#    z 0.021010 0.000000 2.052050 
# 
# From -- ./inp_files/17577.got.cif
#   From: 2010.05.17/outbox.cif.g08.bks.cpg/sg5_9_cif.got.tgz:17577.got - 2010.06.03 18:56:24.
