data_PCOD9125177
_publ_section_title
;
Structure prediction by ZEFSAII (Michael W. Deem and Ramdas Pophale) SiO2 
 PCOD9125177
Probable space group: C 2
;
_chemical_formula_sum "Si O2"
_cell_formula_units_Z 20
_cell_length_a 19.132682
_cell_length_b 7.786421
_cell_length_c 6.260943
_cell_angle_alpha 90.000000
_cell_angle_beta 100.489375
_cell_angle_gamma 90.000000
_cell_volume 917.137659
_symmetry_space_group_name_H-M "C 2"
_symmetry_group_IT_number 5
_symmetry_cell_setting 'monoclinic'
loop_
_space_group_symop_operation_xyz
x,y,z
-x,y,-z
1/2+x,1/2+y,z
1/2-x,1/2+y,-z
loop_
_atom_site_type_symbol
_atom_site_label
_atom_site_fract_x
_atom_site_fract_y
_atom_site_fract_z
Si Si1 0.935159 0.052840 0.299971
Si Si2 0.827813 0.592801 0.595339
Si Si3 0.929053 0.441983 0.323241
Si Si4 0.289771 0.384998 0.267182
Si Si5 0.391846 0.258505 0.001532
O O1 0.000000 0.031548 0.500000
O O2 0.859864 0.997409 0.365030
O O3 0.937497 0.920200 0.104900
O O4 0.931501 0.251127 0.229888
O O5 0.865351 0.460573 0.457655
O O6 0.779759 0.496885 0.741813
O O7 0.784812 0.724651 0.424138
O O8 0.885761 0.705545 0.754702
O O9 0.813158 0.812583 0.048933
O O10 0.918403 0.593030 0.147510
O O11 0.000000 0.469162 0.500000
#
# Coordination Sequence:
#
# PCOD9125177 Si02
#       5
#     4   4   4   4   4
#     4   9  19  42  63  86 127 162 200 260 305 363
#     4  11  21  40  62  89 128 168 206 256 317 370
#     4  10  21  40  63  90 128 162 207 258 311 370
#     4   9  22  36  58  90 120 163 208 254 307 367
#     4   9  22  38  61  91 118 167 206 259 297 376
#
# _framework density 21.806975999999999
#
# number of rings (size 3 to 8) (size 9 to 14) (size 15 to 20)
#    1.200    1.200    0.000    1.800    0.000    5.600 
#    7.200    0.000    0.000    0.000    0.000    0.000 
#    0.000    0.000    0.000    0.000    0.000    0.000 
#
# Total GULP energy -55761.747529 kJ/mol
# GULP energy per Si atom -5576.174753 kJ/mol
# Density = 2.175734 g / cm^3
# Si number density = 21.806976 Si / 1000 Ang^3
#
#
#
# Elastic Constant Matrix: (Units=GPa)
#
#
# Indices 1 2 3 4 5 6 
#
# 1 51.3805 27.6075 -0.6428 0.0000 8.2292 0.0000
# 2 27.6075 115.8758 24.4958 0.0000 0.0194 0.0000
# 3 -0.6428 24.4958 29.8057 0.0000 -4.1694 0.0000
# 4 0.0000 0.0000 0.0000 0.3702 0.0000 25.9123
# 5 8.2292 0.0194 -4.1694 0.0000 19.3144 0.0000
# 6 0.0000 0.0000 0.0000 25.9123 0.0000 16.0222
#
#
#
# Elastic Compliance Matrix: (Units=1/GPa)
#
#
# Indices 1 2 3 4 5 6 
#
# 1 0.024772 -0.006938 0.004909 0.000000 -0.009488 0.000000
# 2 -0.006938 0.012457 -0.010287 0.000000 0.000723 0.000000
# 3 0.004909 -0.010287 0.043122 0.000000 0.007227 0.000000
# 4 0.000000 0.000000 0.000000 -0.024075 0.000000 0.038936
# 5 -0.009488 0.000723 0.007227 0.000000 0.057377 0.000000
# 6 0.000000 0.000000 0.000000 0.038936 0.000000 -0.000556
#
#
# Mechanical properties :
#
#
# Convention : Reuss Voigt Hill
#
# Bulk Modulus (GPa) = 17.94708 33.33145 25.63926
# Shear Modulus (GPa) = 31.98976 16.84813 24.41895
#
# Velocity S-wave (km/s) = 3.83423 2.78259 3.34994
# Velocity P-wave (km/s) = 5.27728 5.06376 5.17162
#
# Compressibility (1/GPa) = 0.05571936
#
# Stress axis : x y z
#
# Youngs Moduli (GPa) = 40.36892 80.27391 23.19027
#
# Poissons Ratio (x) = 0.55694 -0.11384
# Poissons Ratio (y) = 0.28008 0.23855
# Poissons Ratio (z) = -0.19817 0.82574
#
# Static dielectric constant tensor:
#      x y z
#    x 1.836040 0.000000 0.014290 
#    y 0.000000 1.774690 0.000000 
#    z 0.014290 0.000000 1.754270 
# 
# From -- ./inp_files/26590.got.cif
#   From: 2010.05.17/outbox.cif.g08.bks.cpg/sg5_14_cif.got.tgz:26590.got - 2010.06.03 18:56:24.
