data_PCOD9125262
_publ_section_title
;
Structure prediction by ZEFSAII (Michael W. Deem and Ramdas Pophale) SiO2 
 PCOD9125262
Probable space group: C 2
;
_chemical_formula_sum "Si O2"
_cell_formula_units_Z 20
_cell_length_a 13.218948
_cell_length_b 4.891130
_cell_length_c 13.475049
_cell_angle_alpha 90.000000
_cell_angle_beta 107.918363
_cell_angle_gamma 90.000000
_cell_volume 828.978661
_symmetry_space_group_name_H-M "C 2"
_symmetry_group_IT_number 5
_symmetry_cell_setting 'monoclinic'
loop_
_space_group_symop_operation_xyz
x,y,z
-x,y,-z
1/2+x,1/2+y,z
1/2-x,1/2+y,-z
loop_
_atom_site_type_symbol
_atom_site_label
_atom_site_fract_x
_atom_site_fract_y
_atom_site_fract_z
Si Si1 0.282815 0.266810 0.452393
Si Si2 0.485254 0.059941 0.258567
Si Si3 0.086147 0.061872 0.653959
Si Si4 0.305641 0.830302 0.770784
Si Si5 0.732360 0.016836 0.928494
O O1 0.208882 0.508340 0.474265
O O2 0.385504 0.434736 0.444880
O O3 0.228955 0.152514 0.335974
O O4 0.460048 0.859709 0.344114
O O5 0.587681 0.979602 0.227352
O O6 0.383420 0.027635 0.156302
O O7 0.487332 0.360828 0.304361
O O8 0.203556 0.034407 0.741543
O O9 0.309750 0.647116 0.869127
O O10 0.763992 0.720802 0.976735
#
# Coordination Sequence:
#
# PCOD9125262 Si02
#       5
#     4   4   4   4   4
#     4  10  21  40  66  94 128 170 207 259 318 374
#     4  11  21  43  65  92 125 174 205 260 324 371
#     4   9  22  38  64  89 131 163 207 258 312 365
#     4   9  24  42  68  89 134 168 207 268 315 373
#     4  11  24  43  66  94 128 169 214 266 319 377
#
# _framework density 24.126075
#
# number of rings (size 3 to 8) (size 9 to 14) (size 15 to 20)
#    1.200    0.800    0.000    3.600    0.000    7.200 
#    0.000   12.000    0.000    0.000    0.000    0.000 
#    0.000    0.000    0.000    0.000    0.000    0.000 
#
# Total GULP energy -55896.530634 kJ/mol
# GULP energy per Si atom -5589.653063 kJ/mol
# Density = 2.407116 g / cm^3
# Si number density = 24.126075 Si / 1000 Ang^3
#
#
#
# Elastic Constant Matrix: (Units=GPa)
#
#
# Indices 1 2 3 4 5 6 
#
# 1 110.8570 12.0689 18.5352 0.0000 -25.4313 0.0000
# 2 12.0689 81.6527 13.0970 0.0000 -0.8744 0.0000
# 3 18.5352 13.0970 96.0517 0.0000 -10.0756 0.0000
# 4 0.0000 0.0000 0.0000 32.0874 0.0000 -4.8623
# 5 -25.4313 -0.8744 -10.0756 0.0000 26.7909 0.0000
# 6 0.0000 0.0000 0.0000 -4.8623 0.0000 28.5126
#
#
#
# Elastic Compliance Matrix: (Units=1/GPa)
#
#
# Indices 1 2 3 4 5 6 
#
# 1 0.011821 -0.001480 -0.000945 0.000000 0.010818 0.000000
# 2 -0.001480 0.012708 -0.001615 0.000000 -0.001597 0.000000
# 3 -0.000945 -0.001615 0.011154 0.000000 0.003245 0.000000
# 4 0.000000 0.000000 0.000000 0.031992 0.000000 0.005456
# 5 0.010818 -0.001597 0.003245 0.000000 0.048763 0.000000
# 6 0.000000 0.000000 0.000000 0.005456 0.000000 0.036003
#
#
# Mechanical properties :
#
#
# Convention : Reuss Voigt Hill
#
# Bulk Modulus (GPa) = 36.22601 41.77372 38.99987
# Shear Modulus (GPa) = 29.46018 33.80218 31.63118
#
# Velocity S-wave (km/s) = 3.49820 3.74714 3.62481
# Velocity P-wave (km/s) = 5.60040 6.00614 5.80682
#
# Compressibility (1/GPa) = 0.02760447
#
# Stress axis : x y z
#
# Youngs Moduli (GPa) = 84.59253 78.69284 89.65427
#
# Poissons Ratio (x) = 0.11646 0.08469
# Poissons Ratio (y) = 0.12519 0.14477
# Poissons Ratio (z) = 0.07991 0.12707
#
# Static dielectric constant tensor:
#      x y z
#    x 1.932260 0.000000 0.010480 
#    y 0.000000 1.867930 0.000000 
#    z 0.010480 0.000000 1.974280 
# 
# From -- ./inp_files/51796.got.cif
#   From: 2010.05.17/outbox.cif.g08.bks.cpg/sg5_26_cif.got.tgz:51796.got - 2010.06.03 18:56:24.
