data_PCOD9125542
_publ_section_title
;
Structure prediction by ZEFSAII (Michael W. Deem and Ramdas Pophale) SiO2 
 PCOD9125542
Probable space group: C 2
;
_chemical_formula_sum "Si O2"
_cell_formula_units_Z 22
_cell_length_a 5.350813
_cell_length_b 25.417608
_cell_length_c 7.477645
_cell_angle_alpha 90.000000
_cell_angle_beta 80.350358
_cell_angle_gamma 90.000000
_cell_volume 1002.606817
_symmetry_space_group_name_H-M "C 2"
_symmetry_group_IT_number 5
_symmetry_cell_setting 'monoclinic'
loop_
_space_group_symop_operation_xyz
x,y,z
-x,y,-z
1/2+x,1/2+y,z
1/2-x,1/2+y,-z
loop_
_atom_site_type_symbol
_atom_site_label
_atom_site_fract_x
_atom_site_fract_y
_atom_site_fract_z
Si Si1 0.000000 0.213930 0.500000
Si Si2 0.000000 0.375732 0.500000
Si Si3 0.321866 0.129973 0.665565
Si Si4 0.950329 0.729875 0.208387
Si Si5 0.500000 0.308433 0.500000
Si Si6 0.455641 0.966186 0.221485
Si Si7 0.454512 0.527579 0.215291
O O1 0.198435 0.175488 0.565875
O O2 0.164016 0.237715 0.317774
O O3 0.260286 0.342243 0.462099
O O4 0.044445 0.411990 0.669903
O O5 0.500000 0.101275 0.500000
O O6 0.471318 0.167338 0.788019
O O7 0.108537 0.088839 0.747594
O O8 0.090899 0.769598 0.329128
O O9 0.000000 0.745896 0.000000
O O10 0.694363 0.996706 0.276654
O O11 0.500000 0.959794 0.000000
O O12 0.198767 0.000731 0.276039
O O13 0.500000 0.522096 0.000000
#
# Coordination Sequence:
#
# PCOD9125542 Si02
#       7
#     2   2   4   4   2   4   4
#     4  10  21  42  61  96 146 183 244 283 318 428
#     4  12  27  46  79  94 137 180 230 311 370 408
#     4  10  23  39  63 101 142 191 231 279 333 427
#     4  11  25  44  70  99 148 193 230 294 358 412
#     4  12  26  50  68 110 135 173 256 300 346 440
#     4  10  24  46  67 101 137 176 230 294 348 424
#     4  10  23  40  67 102 143 180 234 276 337 428
#
# _framework density 21.942799999999998
#
# number of rings (size 3 to 8) (size 9 to 14) (size 15 to 20)
#    0.000    1.455    2.727    1.636    8.909    2.182 
#    0.000    0.000    0.000    0.000    0.000    0.000 
#    0.000    0.000    0.000    0.000    0.000    0.000 
#
# Total GULP energy -61278.825055 kJ/mol
# GULP energy per Si atom -5570.802278 kJ/mol
# Density = 2.189286 g / cm^3
# Si number density = 21.942800 Si / 1000 Ang^3
#
#
#
# Elastic Constant Matrix: (Units=GPa)
#
#
# Indices 1 2 3 4 5 6 
#
# 1 146.6579 61.3625 50.0368 0.0000 -18.4883 0.0000
# 2 61.3625 131.9554 49.5805 0.0000 -4.5346 0.0000
# 3 50.0368 49.5805 121.2418 0.0000 3.8298 0.0000
# 4 0.0000 0.0000 0.0000 28.6107 0.0000 -5.6123
# 5 -18.4883 -4.5346 3.8298 0.0000 24.3662 0.0000
# 6 0.0000 0.0000 0.0000 -5.6123 0.0000 56.4851
#
#
#
# Elastic Compliance Matrix: (Units=1/GPa)
#
#
# Indices 1 2 3 4 5 6 
#
# 1 0.010233 -0.003331 -0.003102 0.000000 0.007632 0.000000
# 2 -0.003331 0.010163 -0.002775 0.000000 -0.000200 0.000000
# 3 -0.003102 -0.002775 0.010807 0.000000 -0.004569 0.000000
# 4 0.000000 0.000000 0.000000 0.035647 0.000000 0.003542
# 5 0.007632 -0.000200 -0.004569 0.000000 0.047512 0.000000
# 6 0.000000 0.000000 0.000000 0.003542 0.000000 0.018056
#
#
# Mechanical properties :
#
#
# Convention : Reuss Voigt Hill
#
# Bulk Modulus (GPa) = 78.20268 80.20165 79.20216
# Shear Modulus (GPa) = 32.23811 37.81742 35.02776
#
# Velocity S-wave (km/s) = 3.83716 4.15595 3.99973
# Velocity P-wave (km/s) = 7.43965 7.72392 7.58312
#
# Compressibility (1/GPa) = 0.01278729
#
# Stress axis : x y z
#
# Youngs Moduli (GPa) = 97.72683 98.39607 92.52888
#
# Poissons Ratio (x) = 0.32772 0.28703
# Poissons Ratio (y) = 0.32549 0.25679
# Poissons Ratio (z) = 0.30316 0.27307
#
# Static dielectric constant tensor:
#      x y z
#    x 1.875640 0.000000 -0.048510 
#    y 0.000000 1.848610 0.000000 
#    z -0.048510 0.000000 1.791730 
# 
# From -- ./inp_files/12792.got.cif
#   From: 2010.05.17/outbox.cif.g08.bks.cpg/sg5_7_cif.got.tgz:12792.got - 2010.06.03 18:56:24.
