data_PCOD9125032
_publ_section_title
;
Structure prediction by ZEFSAII (Michael W. Deem and Ramdas Pophale) SiO2 
 PCOD9125032
Probable space group: C 2
;
_chemical_formula_sum "Si O2"
_cell_formula_units_Z 32
_cell_length_a 5.555307
_cell_length_b 16.925439
_cell_length_c 17.254940
_cell_angle_alpha 90.000000
_cell_angle_beta 91.082414
_cell_angle_gamma 90.000000
_cell_volume 1622.123649
_symmetry_space_group_name_H-M "C 2"
_symmetry_group_IT_number 5
_symmetry_cell_setting 'monoclinic'
loop_
_space_group_symop_operation_xyz
x,y,z
-x,y,-z
1/2+x,1/2+y,z
1/2-x,1/2+y,-z
loop_
_atom_site_type_symbol
_atom_site_label
_atom_site_fract_x
_atom_site_fract_y
_atom_site_fract_z
Si Si1 0.020709 0.425660 0.592174
Si Si2 0.364993 0.652898 0.074281
Si Si3 0.741378 0.378690 0.805434
Si Si4 0.524415 0.477593 0.670875
Si Si5 0.973622 0.724190 0.810492
Si Si6 0.073387 0.290976 0.705501
Si Si7 0.248874 0.475605 0.040752
Si Si8 0.139748 0.130721 0.237335
O O1 0.779630 0.469037 0.625731
O O2 0.000000 0.427956 0.500000
O O3 0.280525 0.460191 0.621037
O O4 0.033978 0.335234 0.624591
O O5 0.177432 0.710630 0.113209
O O6 0.251556 0.570670 0.045416
O O7 0.527789 0.632097 0.150363
O O8 0.500000 0.686324 0.000000
O O9 0.564841 0.413321 0.738930
O O10 0.659978 0.292577 0.833008
O O11 0.751431 0.439777 0.874045
O O12 0.992679 0.359654 0.765132
O O13 0.468529 0.559947 0.713971
O O14 0.825271 0.758272 0.737069
O O15 0.079096 0.640351 0.781736
O O16 0.911999 0.212731 0.717098
O O17 0.500000 0.453075 0.000000
O O18 0.000000 0.449485 0.000000
#
# Coordination Sequence:
#
# PCOD9125032 Si02
#       8
#     4   4   4   4   4   4   4   4
#     4  11  24  44  70 103 136 170 212 274 344 401
#     4  10  23  40  59  91 128 174 223 277 332 385
#     4  10  21  42  61  93 124 172 224 278 323 396
#     4  11  23  41  73  98 132 174 223 270 326 404
#     4  10  21  39  65  89 127 170 230 270 332 391
#     4   9  21  40  64  94 127 169 220 260 327 405
#     4  11  26  41  61  88 126 170 223 276 337 385
#     4  10  22  40  66  96 125 180 226 272 318 399
#
# _framework density 19.727225000000001
#
# number of rings (size 3 to 8) (size 9 to 14) (size 15 to 20)
#    0.000    1.750    2.500    0.375    8.750    0.000 
#    6.750    1.250    0.000    0.000    0.000    0.000 
#    0.000    0.000    0.000    0.000    0.000    0.000 
#
# Total GULP energy -89112.341778 kJ/mol
# GULP energy per Si atom -5569.521361 kJ/mol
# Density = 1.968232 g / cm^3
# Si number density = 19.727225 Si / 1000 Ang^3
#
#
#
# Elastic Constant Matrix: (Units=GPa)
#
#
# Indices 1 2 3 4 5 6 
#
# 1 131.8801 49.1658 83.2099 0.0000 22.8215 0.0000
# 2 49.1658 109.3308 82.7251 0.0000 34.6982 0.0000
# 3 83.2099 82.7251 185.3161 0.0000 44.5736 0.0000
# 4 0.0000 0.0000 0.0000 36.2890 0.0000 -15.4283
# 5 22.8215 34.6982 44.5736 0.0000 76.6539 0.0000
# 6 0.0000 0.0000 0.0000 -15.4283 0.0000 37.9850
#
#
#
# Elastic Compliance Matrix: (Units=1/GPa)
#
#
# Indices 1 2 3 4 5 6 
#
# 1 0.010808 -0.001782 -0.004043 0.000000 -0.000060 0.000000
# 2 -0.001782 0.014770 -0.005014 0.000000 -0.003240 0.000000
# 3 -0.004043 -0.005014 0.010015 0.000000 -0.002350 0.000000
# 4 0.000000 0.000000 0.000000 0.033308 0.000000 0.013529
# 5 -0.000060 -0.003240 -0.002350 0.000000 0.015897 0.000000
# 6 0.000000 0.000000 0.000000 0.013529 0.000000 0.031821
#
#
# Mechanical properties :
#
#
# Convention : Reuss Voigt Hill
#
# Bulk Modulus (GPa) = 71.86410 95.19205 83.52807
# Shear Modulus (GPa) = 34.98056 44.28066 39.63061
#
# Velocity S-wave (km/s) = 4.21552 4.74291 4.48697
# Velocity P-wave (km/s) = 7.75900 8.85170 8.32330
#
# Compressibility (1/GPa) = 0.01391515
#
# Stress axis : x y z
#
# Youngs Moduli (GPa) = 92.51981 67.70548 99.84905
#
# Poissons Ratio (x) = 0.12067 0.40370
# Poissons Ratio (y) = 0.16489 0.50062
# Poissons Ratio (z) = 0.37407 0.33946
#
# Static dielectric constant tensor:
#      x y z
#    x 1.786800 0.000000 -0.032270 
#    y 0.000000 1.683910 0.000000 
#    z -0.032270 0.000000 1.665310 
# 
# From -- ./inp_files/49347.got.cif
#   From: 2010.05.17/outbox.cif.g08.bks.cpg/sg5_25_cif.got.tgz:49347.got - 2010.06.03 18:56:24.
