data_PCOD9125814
_publ_section_title
;
Structure prediction by ZEFSAII (Michael W. Deem and Ramdas Pophale) SiO2 
 PCOD9125814
Probable space group: C 2
;
_chemical_formula_sum "Si O2"
_cell_formula_units_Z 18
_cell_length_a 7.616049
_cell_length_b 9.267664
_cell_length_c 17.936205
_cell_angle_alpha 90.000000
_cell_angle_beta 37.045670
_cell_angle_gamma 90.000000
_cell_volume 762.697986
_symmetry_space_group_name_H-M "C 2"
_symmetry_group_IT_number 5
_symmetry_cell_setting 'monoclinic'
loop_
_space_group_symop_operation_xyz
x,y,z
-x,y,-z
1/2+x,1/2+y,z
1/2-x,1/2+y,-z
loop_
_atom_site_type_symbol
_atom_site_label
_atom_site_fract_x
_atom_site_fract_y
_atom_site_fract_z
Si Si1 0.606281 0.832110 0.046892
Si Si2 0.423287 0.487187 0.609681
Si Si3 0.500000 0.003301 0.500000
Si Si4 0.333041 0.690979 0.271045
Si Si5 0.601459 0.127458 0.841365
O O1 0.378535 0.729666 0.169004
O O2 0.602426 0.987340 0.086741
O O3 0.500000 0.851567 0.000000
O O4 0.920399 0.762249 0.930534
O O5 0.500000 0.527969 0.500000
O O6 0.210529 0.349091 0.677689
O O7 0.266045 0.618237 0.706396
O O8 0.700070 0.436262 0.567867
O O9 0.594924 0.096345 0.394848
O O10 0.634222 0.614626 0.190507
#
# Coordination Sequence:
#
# PCOD9125814 Si02
#       5
#     4   4   2   4   4
#     4  11  23  40  66 100 129 178 224 273 341 401
#     4  10  22  43  68 100 134 182 222 275 344 396
#     4  10  22  42  64  96 138 174 224 282 324 404
#     4  10  21  44  64  91 139 175 218 286 328 395
#     4  10  24  44  66  96 139 173 224 282 333 399
#
# _framework density 23.600428000000001
#
# number of rings (size 3 to 8) (size 9 to 14) (size 15 to 20)
#    0.000    1.778    1.111    2.000    3.111    3.556 
#   14.000    0.000    0.000    0.000    0.000    0.000 
#    0.000    0.000    0.000    0.000    0.000    0.000 
#
# Total GULP energy -50171.645419 kJ/mol
# GULP energy per Si atom -5574.627269 kJ/mol
# Density = 2.354671 g / cm^3
# Si number density = 23.600428 Si / 1000 Ang^3
#
#
#
# Elastic Constant Matrix: (Units=GPa)
#
#
# Indices 1 2 3 4 5 6 
#
# 1 54.6180 10.3520 41.0105 -0.0013 25.4454 0.0002
# 2 10.3520 43.6607 31.9625 -0.0015 -5.0029 0.0006
# 3 41.0105 31.9625 131.7354 -0.0032 24.9052 0.0018
# 4 -0.0013 -0.0015 -0.0032 26.1836 0.0017 -10.0400
# 5 25.4454 -5.0029 24.9052 0.0017 49.8081 -0.0002
# 6 0.0002 0.0006 0.0018 -10.0400 -0.0002 19.1814
#
#
#
# Elastic Compliance Matrix: (Units=1/GPa)
#
#
# Indices 1 2 3 4 5 6 
#
# 1 0.029210 -0.004166 -0.005723 0.000002 -0.012479 0.000001
# 2 -0.004166 0.030714 -0.007886 0.000000 0.009156 0.000000
# 3 -0.005723 -0.007886 0.012019 0.000001 -0.003878 0.000000
# 4 0.000002 0.000000 0.000001 0.047782 -0.000003 0.025010
# 5 -0.012479 0.009156 -0.003878 -0.000003 0.029311 -0.000001
# 6 0.000001 0.000000 0.000000 0.025010 -0.000001 0.065225
#
#
# Mechanical properties :
#
#
# Convention : Reuss Voigt Hill
#
# Bulk Modulus (GPa) = 27.47828 44.07379 35.77604
# Shear Modulus (GPa) = 19.08819 28.81389 23.95104
#
# Velocity S-wave (km/s) = 2.84704 3.49794 3.18914
# Velocity P-wave (km/s) = 4.74088 5.91858 5.36216
#
# Compressibility (1/GPa) = 0.03639237
#
# Stress axis : x y z
#
# Youngs Moduli (GPa) = 34.23525 32.55838 83.19937
#
# Poissons Ratio (x) = 0.13563 0.47618
# Poissons Ratio (y) = 0.14261 0.65614
# Poissons Ratio (z) = 0.19594 0.25677
#
# Static dielectric constant tensor:
#      x y z
#    x 1.897990 0.000000 -0.022140 
#    y 0.000000 1.879050 0.000000 
#    z -0.022140 0.000000 1.962950 
# 
# From -- ./inp_files/14067.got.cif
#   From: 2010.05.17/outbox.cif.g08.bks.cpg/sg5_8_cif.got.tgz:14067.got - 2010.06.03 18:56:24.
