data_PCOD9125728
_publ_section_title
;
Structure prediction by ZEFSAII (Michael W. Deem and Ramdas Pophale) SiO2 
 PCOD9125728
Probable space group: C 2
;
_chemical_formula_sum "Si O2"
_cell_formula_units_Z 22
_cell_length_a 30.225660
_cell_length_b 4.969871
_cell_length_c 5.589092
_cell_angle_alpha 90.000000
_cell_angle_beta 93.436980
_cell_angle_gamma 90.000000
_cell_volume 838.070043
_symmetry_space_group_name_H-M "C 2"
_symmetry_group_IT_number 5
_symmetry_cell_setting 'monoclinic'
loop_
_space_group_symop_operation_xyz
x,y,z
-x,y,-z
1/2+x,1/2+y,z
1/2-x,1/2+y,-z
loop_
_atom_site_type_symbol
_atom_site_label
_atom_site_fract_x
_atom_site_fract_y
_atom_site_fract_z
Si Si1 0.743359 0.870510 0.128396
Si Si2 0.000000 0.766669 0.000000
Si Si3 0.575209 0.535888 0.736456
Si Si4 0.164036 0.900122 0.622687
Si Si5 0.560447 0.035882 0.389668
Si Si6 0.650738 0.898364 0.317519
O O1 0.784576 0.949944 0.307351
O O2 0.693907 0.956108 0.177860
O O3 0.745748 0.550536 0.099918
O O4 0.016915 0.578636 0.220113
O O5 0.958894 0.952709 0.068805
O O6 0.627884 0.499835 0.807098
O O7 0.563861 0.810500 0.595845
O O8 0.567776 0.314670 0.526765
O O9 0.157219 0.589353 0.553843
O O10 0.152393 0.089790 0.395600
O O11 0.601339 0.972204 0.221379
#
# Coordination Sequence:
#
# PCOD9125728 Si02
#       6
#     4   2   4   4   4   4
#     4  12  24  36  64 102 134 164 222 274 326 416
#     4  12  26  46  80 100 144 194 230 310 364 406
#     4  10  25  46  70 104 140 180 241 288 349 427
#     4  10  21  43  66  91 132 180 217 273 337 408
#     4  10  25  46  70 104 140 180 241 288 349 427
#     4  10  21  43  66  91 132 180 217 273 337 408
#
# _framework density 26.250789000000001
#
# number of rings (size 3 to 8) (size 9 to 14) (size 15 to 20)
#    0.000    1.455    0.000    3.818    2.545    5.818 
#    0.000    0.000    0.000    0.000    0.000    0.000 
#    0.000    0.000    0.000    0.000    0.000    0.000 
#
# Total GULP energy -61569.169195 kJ/mol
# GULP energy per Si atom -5597.197200 kJ/mol
# Density = 2.619104 g / cm^3
# Si number density = 26.250789 Si / 1000 Ang^3
#
#
#
# Elastic Constant Matrix: (Units=GPa)
#
#
# Indices 1 2 3 4 5 6 
#
# 1 164.4839 28.6308 22.4319 0.0000 -35.9472 0.0000
# 2 28.6308 121.6859 11.8908 0.0000 5.5955 0.0000
# 3 22.4319 11.8908 37.6290 0.0000 -8.6135 0.0000
# 4 0.0000 0.0000 0.0000 26.7494 0.0000 -9.4089
# 5 -35.9472 5.5955 -8.6135 0.0000 50.8726 0.0000
# 6 0.0000 0.0000 0.0000 -9.4089 0.0000 33.9362
#
#
#
# Elastic Compliance Matrix: (Units=1/GPa)
#
#
# Indices 1 2 3 4 5 6 
#
# 1 0.007966 -0.001831 -0.002950 0.000000 0.005331 0.000000
# 2 -0.001831 0.009004 -0.002368 0.000000 -0.002685 0.000000
# 3 -0.002950 -0.002368 0.029820 0.000000 0.003225 0.000000
# 4 0.000000 0.000000 0.000000 0.041424 0.000000 0.011485
# 5 0.005331 -0.002685 0.003225 0.000000 0.024265 0.000000
# 6 0.000000 0.000000 0.000000 0.011485 0.000000 0.032651
#
#
# Mechanical properties :
#
#
# Convention : Reuss Voigt Hill
#
# Bulk Modulus (GPa) = 30.77735 49.96729 40.37232
# Shear Modulus (GPa) = 29.36720 39.70132 34.53426
#
# Velocity S-wave (km/s) = 3.34835 3.89316 3.63099
# Velocity P-wave (km/s) = 5.16705 6.26776 5.74383
#
# Compressibility (1/GPa) = 0.03249142
#
# Stress axis : x y z
#
# Youngs Moduli (GPa) = 125.54004 111.06686 33.53421
#
# Poissons Ratio (x) = 0.20337 0.09892
# Poissons Ratio (y) = 0.22987 0.07942
# Poissons Ratio (z) = 0.37031 0.26303
#
# Static dielectric constant tensor:
#      x y z
#    x 2.170440 0.000000 -0.033830 
#    y 0.000000 1.954460 0.000000 
#    z -0.033830 0.000000 2.044030 
# 
# From -- ./inp_files/11000.got.cif
#   From: 2010.05.17/outbox.cif.g08.bks.cpg/sg5_6_cif.got.tgz:11000.got - 2010.06.03 18:56:24.
