data_PCOD9125908
_publ_section_title
;
Structure prediction by ZEFSAII (Michael W. Deem and Ramdas Pophale) SiO2 
 PCOD9125908
Probable space group: C 2
;
_chemical_formula_sum "Si O2"
_cell_formula_units_Z 26
_cell_length_a 16.184191
_cell_length_b 9.126991
_cell_length_c 21.770846
_cell_angle_alpha 90.000000
_cell_angle_beta 19.799932
_cell_angle_gamma 90.000000
_cell_volume 1089.322084
_symmetry_space_group_name_H-M "C 2"
_symmetry_group_IT_number 5
_symmetry_cell_setting 'monoclinic'
loop_
_space_group_symop_operation_xyz
x,y,z
-x,y,-z
1/2+x,1/2+y,z
1/2-x,1/2+y,-z
loop_
_atom_site_type_symbol
_atom_site_label
_atom_site_fract_x
_atom_site_fract_y
_atom_site_fract_z
Si Si1 0.261047 0.844430 0.236449
Si Si2 0.500000 0.560800 0.500000
Si Si3 0.911372 0.292527 0.454474
Si Si4 0.707667 0.058302 0.214412
Si Si5 0.068285 0.935610 0.163146
Si Si6 0.199096 0.156114 0.974762
Si Si7 0.253538 0.602957 0.850202
O O1 0.115442 0.700028 0.317007
O O2 0.519968 0.767208 0.064321
O O3 0.228945 0.959818 0.204895
O O4 0.201964 0.944212 0.336331
O O5 0.422039 0.670205 0.500263
O O6 0.665090 0.386348 0.633378
O O7 0.114587 0.418561 0.315559
O O8 0.010241 0.204670 0.325830
O O9 0.629688 0.082556 0.197214
O O10 0.000000 0.043166 0.000000
O O11 0.046304 0.035263 0.118222
O O12 0.237646 0.038235 0.087918
O O13 0.168833 0.775171 0.074909
O O14 0.000000 0.670863 0.000000
#
# Coordination Sequence:
#
# PCOD9125908 Si02
#       7
#     4   2   4   4   4   4   4
#     4  10  21  46  72  96 136 196 241 283 360 452
#     4  10  26  42  72 104 144 186 242 302 366 432
#     4  11  28  42  71 110 145 177 247 310 364 421
#     4  10  22  45  74  99 138 191 240 291 365 442
#     4  12  28  45  72 109 145 190 246 311 362 424
#     4  11  26  45  71 103 145 187 246 297 367 428
#     4  11  22  49  76 100 144 199 242 288 373 454
#
# _framework density 23.868054999999998
#
# number of rings (size 3 to 8) (size 9 to 14) (size 15 to 20)
#    0.000    1.231    3.077    0.923   12.923    0.000 
#    2.769    0.000    0.000    0.000    0.000    0.000 
#    0.000    0.000    0.000    0.000    0.000    0.000 
#
# Total GULP energy -72367.948790 kJ/mol
# GULP energy per Si atom -5566.765292 kJ/mol
# Density = 2.381373 g / cm^3
# Si number density = 23.868055 Si / 1000 Ang^3
#
#
#
# Elastic Constant Matrix: (Units=GPa)
#
#
# Indices 1 2 3 4 5 6 
#
# 1 39.8994 25.0161 11.9942 -0.0168 10.2400 0.0057
# 2 25.0161 143.1266 52.5136 0.0146 17.1102 -0.0001
# 3 11.9942 52.5136 82.7974 -0.0356 4.2177 0.0308
# 4 -0.0168 0.0146 -0.0356 54.9732 0.0156 21.3566
# 5 10.2400 17.1102 4.2177 0.0156 20.8083 -0.0126
# 6 0.0057 -0.0001 0.0308 21.3566 -0.0126 31.7202
#
#
#
# Elastic Compliance Matrix: (Units=1/GPa)
#
#
# Indices 1 2 3 4 5 6 
#
# 1 0.030750 -0.003288 -0.001754 0.000022 -0.012074 -0.000023
# 2 -0.003288 0.010381 -0.005816 -0.000010 -0.005740 0.000011
# 3 -0.001754 -0.005816 0.015897 0.000022 0.002423 -0.000029
# 4 0.000022 -0.000010 0.000022 0.024634 -0.000035 -0.016586
# 5 -0.012074 -0.005740 0.002423 -0.000035 0.058228 0.000047
# 6 -0.000023 0.000011 -0.000029 -0.016586 0.000047 0.042693
#
#
# Mechanical properties :
#
#
# Convention : Reuss Voigt Hill
#
# Bulk Modulus (GPa) = 28.31791 49.43014 38.87402
# Shear Modulus (GPa) = 23.14068 33.25363 28.19716
#
# Velocity S-wave (km/s) = 3.11710 3.73665 3.44084
# Velocity P-wave (km/s) = 4.98449 6.27466 5.66642
#
# Compressibility (1/GPa) = 0.03531335
#
# Stress axis : x y z
#
# Youngs Moduli (GPa) = 32.51995 96.32619 62.90507
#
# Poissons Ratio (x) = 0.31668 0.11036
# Poissons Ratio (y) = 0.10691 0.36584
# Poissons Ratio (z) = 0.05705 0.56020
#
# Static dielectric constant tensor:
#      x y z
#    x 2.060750 -0.000020 -0.071530 
#    y -0.000020 1.897900 0.000040 
#    z -0.071530 0.000040 2.026940 
# 
# From -- ./inp_files/69142.got.cif
#   From: 2010.05.17/outbox.cif.g08.bks.cpg/sg5_35_cif.got.tgz:69142.got - 2010.06.03 18:56:24.
