data_PCOD9125309
_publ_section_title
;
Structure prediction by ZEFSAII (Michael W. Deem and Ramdas Pophale) SiO2 
 PCOD9125309
Probable space group: C 2
;
_chemical_formula_sum "Si O2"
_cell_formula_units_Z 32
_cell_length_a 11.077318
_cell_length_b 16.881954
_cell_length_c 13.519651
_cell_angle_alpha 90.000000
_cell_angle_beta 34.536132
_cell_angle_gamma 90.000000
_cell_volume 1433.339490
_symmetry_space_group_name_H-M "C 2"
_symmetry_group_IT_number 5
_symmetry_cell_setting 'monoclinic'
loop_
_space_group_symop_operation_xyz
x,y,z
-x,y,-z
1/2+x,1/2+y,z
1/2-x,1/2+y,-z
loop_
_atom_site_type_symbol
_atom_site_label
_atom_site_fract_x
_atom_site_fract_y
_atom_site_fract_z
Si Si1 0.884413 0.309240 0.980693
Si Si2 0.994413 0.089065 0.766383
Si Si3 0.542206 0.400500 0.718286
Si Si4 0.612885 0.907463 0.670767
Si Si5 0.712234 0.585263 0.418368
Si Si6 0.623892 0.161430 0.108740
Si Si7 0.176992 0.609817 0.301750
Si Si8 0.225264 0.928876 0.793629
O O1 0.694964 0.369927 0.134064
O O2 0.746687 0.243992 0.014902
O O3 0.000000 0.276943 0.000000
O O4 0.064678 0.356045 0.799043
O O5 0.124728 0.116754 0.582838
O O6 0.100674 0.125428 0.793356
O O7 0.747320 0.105333 0.948612
O O8 0.027739 0.995208 0.738701
O O9 0.686549 0.378760 0.527973
O O10 0.666723 0.378946 0.735668
O O11 0.399448 0.894687 0.750000
O O12 0.659524 0.001380 0.658145
O O13 0.500000 0.569096 0.500000
O O14 0.872922 0.649128 0.263408
O O15 0.651338 0.138944 0.207313
O O16 0.172833 0.514098 0.300898
O O17 0.000000 0.637333 0.500000
O O18 0.000000 0.943368 0.000000
#
# Coordination Sequence:
#
# PCOD9125309 Si02
#       8
#     4   4   4   4   4   4   4   4
#     4  12  28  44  63  99 144 190 224 267 346 427
#     4  10  21  40  69  99 129 177 225 288 341 389
#     4  10  22  41  67 100 134 176 230 281 338 397
#     4  11  23  44  67 100 138 179 228 285 342 402
#     4  11  25  44  71 102 134 180 236 290 340 404
#     4  12  24  45  67  99 138 178 229 283 346 410
#     4  11  18  35  65 103 130 160 217 289 339 392
#     4  11  18  36  70 103 130 162 223 293 340 385
#
# _framework density 22.325486999999999
#
# number of rings (size 3 to 8) (size 9 to 14) (size 15 to 20)
#    0.000    1.000    3.750    5.250    3.500    1.500 
#    2.250    3.750    0.000    0.000    0.000    0.000 
#    0.000    0.000    0.000    0.000    0.000    0.000 
#
# Total GULP energy -89323.287903 kJ/mol
# GULP energy per Si atom -5582.705494 kJ/mol
# Density = 2.227467 g / cm^3
# Si number density = 22.325487 Si / 1000 Ang^3
#
#
#
# Elastic Constant Matrix: (Units=GPa)
#
#
# Indices 1 2 3 4 5 6 
#
# 1 58.0225 13.9591 26.1122 0.0061 -13.7939 -0.0030
# 2 13.9591 27.6636 37.7595 -0.0022 4.7348 0.0062
# 3 26.1122 37.7595 149.5270 -0.0129 1.9987 0.0081
# 4 0.0061 -0.0022 -0.0129 -12.4024 0.0040 -3.2236
# 5 -13.7939 4.7348 1.9987 0.0040 28.5618 0.0027
# 6 -0.0030 0.0062 0.0081 -3.2236 0.0027 17.9176
#
#
#
# Elastic Compliance Matrix: (Units=1/GPa)
#
#
# Indices 1 2 3 4 5 6 
#
# 1 0.024191 -0.013078 -0.001108 0.000017 0.013929 0.000010
# 2 -0.013078 0.064209 -0.013717 -0.000005 -0.016000 -0.000017
# 3 -0.001108 -0.013717 0.010332 -0.000008 0.001016 -0.000002
# 4 0.000017 -0.000005 -0.000008 -0.077027 0.000022 -0.013858
# 5 0.013929 -0.016000 0.001016 0.000022 0.044320 0.000005
# 6 0.000010 -0.000017 -0.000002 -0.013858 0.000005 0.053318
#
#
# Mechanical properties :
#
#
# Convention : Reuss Voigt Hill
#
# Bulk Modulus (GPa) = 23.29620 43.43051 33.36336
# Shear Modulus (GPa) = 26.39124 17.30753 21.84939
#
# Velocity S-wave (km/s) = 3.44192 2.78733 3.13177
# Velocity P-wave (km/s) = 5.12378 5.46393 5.29659
#
# Compressibility (1/GPa) = 0.04292546
#
# Stress axis : x y z
#
# Youngs Moduli (GPa) = 41.33756 15.57413 96.79121
#
# Poissons Ratio (x) = 0.20368 0.10726
# Poissons Ratio (y) = 0.54062 1.32766
# Poissons Ratio (z) = 0.04581 0.21363
#
# Static dielectric constant tensor:
#      x y z
#    x 1.892850 0.000000 -0.001600 
#    y 0.000000 1.864360 0.000020 
#    z -0.001600 0.000020 1.853020 
# 
# From -- ./inp_files/53454.got.cif
#   From: 2010.05.17/outbox.cif.g08.bks.cpg/sg5_27_cif.got.tgz:53454.got - 2010.06.03 18:56:24.
