data_PCOD9125259
_publ_section_title
;
Structure prediction by ZEFSAII (Michael W. Deem and Ramdas Pophale) SiO2 
 PCOD9125259
Probable space group: C 2
;
_chemical_formula_sum "Si O2"
_cell_formula_units_Z 18
_cell_length_a 8.595033
_cell_length_b 21.827075
_cell_length_c 7.564148
_cell_angle_alpha 90.000000
_cell_angle_beta 35.468160
_cell_angle_gamma 90.000000
_cell_volume 823.414658
_symmetry_space_group_name_H-M "C 2"
_symmetry_group_IT_number 5
_symmetry_cell_setting 'monoclinic'
loop_
_space_group_symop_operation_xyz
x,y,z
-x,y,-z
1/2+x,1/2+y,z
1/2-x,1/2+y,-z
loop_
_atom_site_type_symbol
_atom_site_label
_atom_site_fract_x
_atom_site_fract_y
_atom_site_fract_z
Si Si1 0.827109 0.919540 0.487994
Si Si2 0.777253 0.186163 0.355101
Si Si3 0.000000 0.251584 0.500000
Si Si4 0.272732 0.542619 0.353327
Si Si5 0.820356 0.369624 0.825714
O O1 0.000000 0.911287 0.500000
O O2 0.550911 0.882257 0.756320
O O3 0.034832 0.894560 0.147272
O O4 0.776885 0.991489 0.500172
O O5 0.500000 0.196915 0.500000
O O6 0.841982 0.217941 0.485378
O O7 0.799062 0.113594 0.381175
O O8 0.000000 0.200901 0.000000
O O9 0.805938 0.298985 0.783503
O O10 0.000000 0.538200 0.500000
O O11 0.500000 0.528387 0.000000
O O12 0.000000 0.400084 0.500000
#
# Coordination Sequence:
#
# PCOD9125259 Si02
#       5
#     4   4   2   4   4
#     4  12  23  38  64  97 133 169 225 278 334 406
#     4  10  24  44  70 105 132 177 233 283 339 410
#     4  10  26  46  74  92 146 184 228 278 348 406
#     4  10  21  40  66  93 132 170 214 278 341 400
#     4  10  24  41  60  91 127 183 213 265 340 394
#
# _framework density 21.860188000000001
#
# number of rings (size 3 to 8) (size 9 to 14) (size 15 to 20)
#    0.667    0.889    0.000    4.667    1.556    7.111 
#    0.000    0.000    0.000    0.000    0.000    0.000 
#    0.000    0.000    0.000    0.000    0.000    0.000 
#
# Total GULP energy -50145.945197 kJ/mol
# GULP energy per Si atom -5571.771689 kJ/mol
# Density = 2.181043 g / cm^3
# Si number density = 21.860188 Si / 1000 Ang^3
#
#
#
# Elastic Constant Matrix: (Units=GPa)
#
#
# Indices 1 2 3 4 5 6 
#
# 1 129.1497 49.9094 29.4370 0.0000 12.1873 0.0000
# 2 49.9094 114.2631 19.5628 0.0000 8.7656 0.0000
# 3 29.4370 19.5628 124.3469 0.0000 -21.5166 0.0000
# 4 0.0000 0.0000 0.0000 3.6752 0.0000 -19.9725
# 5 12.1873 8.7656 -21.5166 0.0000 32.8467 0.0000
# 6 0.0000 0.0000 0.0000 -19.9725 0.0000 16.1133
#
#
#
# Elastic Compliance Matrix: (Units=1/GPa)
#
#
# Indices 1 2 3 4 5 6 
#
# 1 0.010176 -0.003651 -0.002616 0.000000 -0.004515 0.000000
# 2 -0.003651 0.010733 -0.001224 0.000000 -0.002312 0.000000
# 3 -0.002616 -0.001224 0.010239 0.000000 0.008005 0.000000
# 4 0.000000 0.000000 0.000000 -0.047437 0.000000 -0.058798
# 5 -0.004515 -0.002312 0.008005 0.000000 0.037980 0.000000
# 6 0.000000 0.000000 0.000000 -0.058798 0.000000 -0.010820
#
#
# Mechanical properties :
#
#
# Convention : Reuss Voigt Hill
#
# Bulk Modulus (GPa) = 61.85677 62.84202 62.34939
# Shear Modulus (GPa) = 160.03547 28.45039 94.24293
#
# Velocity S-wave (km/s) = 8.56549 3.61150 6.57307
# Velocity P-wave (km/s) = 11.23305 6.79708 9.28390
#
# Compressibility (1/GPa) = 0.01616638
#
# Stress axis : x y z
#
# Youngs Moduli (GPa) = 98.27014 93.16817 97.66552
#
# Poissons Ratio (x) = 0.34012 0.25549
# Poissons Ratio (y) = 0.35874 0.11958
# Poissons Ratio (z) = 0.25707 0.11408
#
# Static dielectric constant tensor:
#      x y z
#    x 2.011970 0.000000 0.023100 
#    y 0.000000 1.826980 0.000000 
#    z 0.023100 0.000000 1.796740 
# 
# From -- ./inp_files/3289.got.cif
#   From: 2010.05.17/outbox.cif.g08.bks.cpg/sg5_2_cif.got.tgz:3289.got - 2010.06.03 18:56:24.
