data_PCOD9125697
_publ_section_title
;
Structure prediction by ZEFSAII (Michael W. Deem and Ramdas Pophale) SiO2 
 PCOD9125697
Probable space group: C 2
;
_chemical_formula_sum "Si O2"
_cell_formula_units_Z 28
_cell_length_a 16.170774
_cell_length_b 5.561804
_cell_length_c 13.984218
_cell_angle_alpha 90.000000
_cell_angle_beta 57.023297
_cell_angle_gamma 90.000000
_cell_volume 1055.092904
_symmetry_space_group_name_H-M "C 2"
_symmetry_group_IT_number 5
_symmetry_cell_setting 'monoclinic'
loop_
_space_group_symop_operation_xyz
x,y,z
-x,y,-z
1/2+x,1/2+y,z
1/2-x,1/2+y,-z
loop_
_atom_site_type_symbol
_atom_site_label
_atom_site_fract_x
_atom_site_fract_y
_atom_site_fract_z
Si Si1 0.000000 0.428921 0.500000
Si Si2 0.500000 0.493620 0.000000
Si Si3 0.804947 0.867157 0.202957
Si Si4 0.157731 0.161861 0.633416
Si Si5 0.874826 0.663352 0.418513
Si Si6 0.880418 0.309675 0.924346
Si Si7 0.627749 0.594210 0.283416
Si Si8 0.820223 0.693633 0.853490
O O1 0.074723 0.587108 0.514713
O O2 0.057146 0.251741 0.391821
O O3 0.584932 0.330778 0.901170
O O4 0.450261 0.671775 0.953386
O O5 0.811312 0.059718 0.283427
O O6 0.743397 0.985735 0.156439
O O7 0.736495 0.637526 0.262620
O O8 0.109781 0.427329 0.658929
O O9 0.256837 0.184652 0.507994
O O10 0.095797 0.932540 0.632394
O O11 0.883474 0.164834 0.822261
O O12 0.896265 0.584593 0.881462
O O13 0.769727 0.330909 0.038583
O O14 0.622759 0.310791 0.271054
#
# Coordination Sequence:
#
# PCOD9125697 Si02
#       8
#     2   2   4   4   4   4   4   4
#     4  12  26  48  68 110 146 202 262 300 366 464
#     4  10  24  44  76 112 150 174 258 318 392 444
#     4  10  23  44  70 106 141 194 237 310 384 453
#     4  10  22  46  73  99 143 192 240 314 373 440
#     4  10  24  44  72 102 140 191 254 303 366 437
#     4  10  21  44  72 108 143 188 247 312 378 462
#     4  11  24  45  71 104 151 200 246 304 374 462
#     4  10  21  42  77  99 147 197 242 301 391 458
#
# _framework density 26.537946999999999
#
# number of rings (size 3 to 8) (size 9 to 14) (size 15 to 20)
#    0.000    1.714    2.857    0.000    4.000    1.714 
#    5.143    7.857    0.000    0.000    0.000    0.000 
#    0.000    0.000    0.000    0.000    0.000    0.000 
#
# Total GULP energy -78266.377407 kJ/mol
# GULP energy per Si atom -5590.455529 kJ/mol
# Density = 2.647755 g / cm^3
# Si number density = 26.537947 Si / 1000 Ang^3
#
#
#
# Elastic Constant Matrix: (Units=GPa)
#
#
# Indices 1 2 3 4 5 6 
#
# 1 114.4408 25.4546 38.1463 -0.0001 6.1020 0.0002
# 2 25.4546 74.2673 14.0320 -0.0007 -9.2032 0.0018
# 3 38.1463 14.0320 84.2480 -0.0002 -0.7571 0.0002
# 4 -0.0001 -0.0007 -0.0002 34.3114 0.0000 10.1551
# 5 6.1020 -9.2032 -0.7571 0.0000 49.8521 -0.0001
# 6 0.0002 0.0018 0.0002 10.1551 -0.0001 23.2565
#
#
#
# Elastic Compliance Matrix: (Units=1/GPa)
#
#
# Indices 1 2 3 4 5 6 
#
# 1 0.011051 -0.003188 -0.004491 0.000000 -0.002010 0.000000
# 2 -0.003188 0.015149 -0.001051 0.000001 0.003171 -0.000001
# 3 -0.004491 -0.001051 0.014083 0.000000 0.000570 0.000000
# 4 0.000000 0.000001 0.000000 0.033471 0.000000 -0.014615
# 5 -0.002010 0.003171 0.000570 0.000000 0.020899 0.000000
# 6 0.000000 -0.000001 0.000000 -0.014615 0.000000 0.049380
#
#
# Mechanical properties :
#
#
# Convention : Reuss Voigt Hill
#
# Bulk Modulus (GPa) = 43.81490 47.58022 45.69756
# Shear Modulus (GPa) = 29.56784 34.50555 32.03669
#
# Velocity S-wave (km/s) = 3.34154 3.60979 3.47825
# Velocity P-wave (km/s) = 5.60660 5.94493 5.77824
#
# Compressibility (1/GPa) = 0.02282328
#
# Stress axis : x y z
#
# Youngs Moduli (GPa) = 90.48619 66.01019 71.00587
#
# Poissons Ratio (x) = 0.21046 0.31888
# Poissons Ratio (y) = 0.28850 0.07463
# Poissons Ratio (z) = 0.40637 0.06938
#
# Static dielectric constant tensor:
#      x y z
#    x 2.051310 0.000000 -0.045830 
#    y 0.000000 2.439280 0.000000 
#    z -0.045830 0.000000 2.278720 
# 
# From -- ./inp_files/55425.got.cif
#   From: 2010.05.17/outbox.cif.g08.bks.cpg/sg5_28_cif.got.tgz:55425.got - 2010.06.03 18:56:24.
