data_PCOD9125293
_publ_section_title
;
Structure prediction by ZEFSAII (Michael W. Deem and Ramdas Pophale) SiO2 
 PCOD9125293
Probable space group: C 2
;
_chemical_formula_sum "Si O2"
_cell_formula_units_Z 18
_cell_length_a 6.999288
_cell_length_b 17.801415
_cell_length_c 5.522547
_cell_angle_alpha 90.000000
_cell_angle_beta 96.211265
_cell_angle_gamma 90.000000
_cell_volume 684.054750
_symmetry_space_group_name_H-M "C 2"
_symmetry_group_IT_number 5
_symmetry_cell_setting 'monoclinic'
loop_
_space_group_symop_operation_xyz
x,y,z
-x,y,-z
1/2+x,1/2+y,z
1/2-x,1/2+y,-z
loop_
_atom_site_type_symbol
_atom_site_label
_atom_site_fract_x
_atom_site_fract_y
_atom_site_fract_z
Si Si1 0.480763 0.899580 0.747280
Si Si2 0.622605 0.101602 0.266943
Si Si3 0.456443 0.356026 0.253811
Si Si4 0.500000 0.504007 0.500000
Si Si5 0.610545 0.735738 0.763045
O O1 0.500000 0.942185 0.500000
O O2 0.618555 0.826846 0.753739
O O3 0.268531 0.867984 0.743814
O O4 0.500000 0.941162 0.000000
O O5 0.500000 0.103287 0.500000
O O6 0.818419 0.050920 0.364665
O O7 0.705949 0.184024 0.221611
O O8 0.500000 0.085940 0.000000
O O9 0.500000 0.309510 0.500000
O O10 0.551452 0.440078 0.301258
O O11 0.500000 0.325402 0.000000
O O12 0.500000 0.716213 0.500000
O O13 0.500000 0.719027 0.000000
#
# Coordination Sequence:
#
# PCOD9125293 Si02
#       5
#     4   4   4   2   4
#     4  10  21  40  68  97 134 189 223 286 358 412
#     4  12  27  44  75 109 141 194 244 286 369 427
#     4  10  23  42  67  99 136 184 236 285 355 418
#     4  10  28  46  76 102 156 178 244 312 338 426
#     4  10  21  43  69  97 144 185 224 298 351 414
#
# _framework density 26.313682
#
# number of rings (size 3 to 8) (size 9 to 14) (size 15 to 20)
#    0.667    0.889    1.111    2.667    3.111    1.778 
#    0.000   26.667    0.000    0.000    0.000    0.000 
#    0.000    0.000    0.000    0.000    0.000    0.000 
#
# Total GULP energy -50190.650093 kJ/mol
# GULP energy per Si atom -5576.738899 kJ/mol
# Density = 2.625379 g / cm^3
# Si number density = 26.313682 Si / 1000 Ang^3
#
#
#
# Elastic Constant Matrix: (Units=GPa)
#
#
# Indices 1 2 3 4 5 6 
#
# 1 111.9617 68.1790 96.5440 0.0000 4.2792 0.0000
# 2 68.1790 182.4908 56.4267 0.0000 2.4693 0.0000
# 3 96.5440 56.4267 328.8293 0.0000 -20.7085 0.0000
# 4 0.0000 0.0000 0.0000 5.8508 0.0000 3.4685
# 5 4.2792 2.4693 -20.7085 0.0000 71.7372 0.0000
# 6 0.0000 0.0000 0.0000 3.4685 0.0000 68.3916
#
#
#
# Elastic Compliance Matrix: (Units=1/GPa)
#
#
# Indices 1 2 3 4 5 6 
#
# 1 0.014890 -0.004384 -0.003734 0.000000 -0.001815 0.000000
# 2 -0.004384 0.007095 0.000072 0.000000 0.000038 0.000000
# 3 -0.003734 0.000072 0.004215 0.000000 0.001437 0.000000
# 4 0.000000 0.000000 0.000000 0.176214 0.000000 -0.008937
# 5 -0.001815 0.000038 0.001437 0.000000 0.014462 0.000000
# 6 0.000000 0.000000 0.000000 -0.008937 0.000000 0.015075
#
#
# Mechanical properties :
#
#
# Convention : Reuss Voigt Hill
#
# Bulk Modulus (GPa) = 98.92052 118.39790 108.65921
# Shear Modulus (GPa) = 19.88767 56.00473 37.94620
#
# Velocity S-wave (km/s) = 2.75215 4.61841 3.80158
# Velocity P-wave (km/s) = 6.91184 8.57509 7.78799
#
# Compressibility (1/GPa) = 0.01010913
#
# Stress axis : x y z
#
# Youngs Moduli (GPa) = 67.15804 140.94853 237.22163
#
# Poissons Ratio (x) = 0.61791 0.88574
# Poissons Ratio (y) = 0.29442 -0.01710
# Poissons Ratio (z) = 0.25075 -0.01016
#
# Static dielectric constant tensor:
#      x y z
#    x 2.143310 0.000000 0.113220 
#    y 0.000000 2.028890 0.000000 
#    z 0.113220 0.000000 2.054610 
# 
# From -- ./inp_files/1181.got.cif
#   From: 2010.05.17/outbox.cif.g08.bks.cpg/sg5_1_cif.got.tgz:1181.got - 2010.06.03 18:56:24.
