data_PCOD9125802
_publ_section_title
;
Structure prediction by ZEFSAII (Michael W. Deem and Ramdas Pophale) SiO2 
 PCOD9125802
Probable space group: C 2
;
_chemical_formula_sum "Si O2"
_cell_formula_units_Z 20
_cell_length_a 19.550387
_cell_length_b 5.979600
_cell_length_c 11.931018
_cell_angle_alpha 90.000000
_cell_angle_beta 142.978273
_cell_angle_gamma 90.000000
_cell_volume 839.820516
_symmetry_space_group_name_H-M "C 2"
_symmetry_group_IT_number 5
_symmetry_cell_setting 'monoclinic'
loop_
_space_group_symop_operation_xyz
x,y,z
-x,y,-z
1/2+x,1/2+y,z
1/2-x,1/2+y,-z
loop_
_atom_site_type_symbol
_atom_site_label
_atom_site_fract_x
_atom_site_fract_y
_atom_site_fract_z
Si Si1 0.095326 0.267740 0.795655
Si Si2 0.244677 0.501888 0.834539
Si Si3 0.901975 0.009573 0.662222
Si Si4 0.813063 0.324596 0.734392
Si Si5 0.060149 0.636239 0.928194
O O1 0.135359 0.358010 0.727633
O O2 0.208167 0.160384 0.002579
O O3 0.060855 0.490213 0.817124
O O4 0.994309 0.093819 0.690979
O O5 0.242419 0.654202 0.721660
O O6 0.344399 0.325931 0.946520
O O7 0.780830 0.974263 0.448049
O O8 0.885804 0.191503 0.738080
O O9 0.945391 0.780983 0.777574
O O10 0.896075 0.466153 0.920962
#
# Coordination Sequence:
#
# PCOD9125802 Si02
#       5
#     4   4   4   4   4
#     4  10  21  43  78 108 142 191 239 303 375 449
#     4  10  21  43  78 108 142 191 239 303 375 449
#     4  11  28  48  73 108 153 197 249 312 370 447
#     4  11  28  48  73 108 153 197 249 312 370 447
#     4  10  24  47  76 104 141 192 242 304 373 452
#
# _framework density 23.814610999999999
#
# number of rings (size 3 to 8) (size 9 to 14) (size 15 to 20)
#    0.000    1.600    2.000    0.000    5.600    8.800 
#    0.000    6.000    0.000    0.000    0.000    0.000 
#    0.000    0.000    0.000    0.000    0.000    0.000 
#
# Total GULP energy -55953.153079 kJ/mol
# GULP energy per Si atom -5595.315308 kJ/mol
# Density = 2.376041 g / cm^3
# Si number density = 23.814611 Si / 1000 Ang^3
#
#
#
# Elastic Constant Matrix: (Units=GPa)
#
#
# Indices 1 2 3 4 5 6 
#
# 1 108.2770 21.9672 28.9696 0.0000 9.3393 0.0000
# 2 21.9672 63.4550 7.6311 0.0000 2.0692 0.0000
# 3 28.9696 7.6311 60.5084 0.0000 15.0883 0.0000
# 4 0.0000 0.0000 0.0000 44.7369 0.0000 5.5902
# 5 9.3393 2.0692 15.0883 0.0000 22.9771 0.0000
# 6 0.0000 0.0000 0.0000 5.5902 0.0000 58.5641
#
#
#
# Elastic Compliance Matrix: (Units=1/GPa)
#
#
# Indices 1 2 3 4 5 6 
#
# 1 0.011259 -0.003296 -0.004673 0.000000 -0.001211 0.000000
# 2 -0.003296 0.016967 -0.000616 0.000000 0.000216 0.000000
# 3 -0.004673 -0.000616 0.021948 0.000000 -0.012458 0.000000
# 4 0.000000 0.000000 0.000000 0.022623 0.000000 -0.002159
# 5 -0.001211 0.000216 -0.012458 0.000000 0.052175 0.000000
# 6 0.000000 0.000000 0.000000 -0.002159 0.000000 0.017281
#
#
# Mechanical properties :
#
#
# Convention : Reuss Voigt Hill
#
# Bulk Modulus (GPa) = 30.29846 38.81958 34.55902
# Shear Modulus (GPa) = 29.33855 36.83380 33.08618
#
# Velocity S-wave (km/s) = 3.51373 3.93706 3.73141
# Velocity P-wave (km/s) = 5.40481 6.08304 5.75393
#
# Compressibility (1/GPa) = 0.03300497
#
# Stress axis : x y z
#
# Youngs Moduli (GPa) = 88.81808 58.93691 45.56248
#
# Poissons Ratio (x) = 0.19427 0.21290
# Poissons Ratio (y) = 0.29277 0.02805
# Poissons Ratio (z) = 0.41502 0.03628
#
# Static dielectric constant tensor:
#      x y z
#    x 1.948390 0.000000 -0.007010 
#    y 0.000000 1.883990 0.000000 
#    z -0.007010 0.000000 1.874240 
# 
# From -- ./inp_files/45561.got.cif
#   From: 2010.05.17/outbox.cif.g08.bks.cpg/sg5_23_cif.got.tgz:45561.got - 2010.06.03 18:56:24.
