data_PCOD9125794
_publ_section_title
;
Structure prediction by ZEFSAII (Michael W. Deem and Ramdas Pophale) SiO2 
 PCOD9125794
Probable space group: C 2
;
_chemical_formula_sum "Si O2"
_cell_formula_units_Z 22
_cell_length_a 5.265413
_cell_length_b 21.653070
_cell_length_c 8.121689
_cell_angle_alpha 90.000000
_cell_angle_beta 83.859011
_cell_angle_gamma 90.000000
_cell_volume 920.659361
_symmetry_space_group_name_H-M "C 2"
_symmetry_group_IT_number 5
_symmetry_cell_setting 'monoclinic'
loop_
_space_group_symop_operation_xyz
x,y,z
-x,y,-z
1/2+x,1/2+y,z
1/2-x,1/2+y,-z
loop_
_atom_site_type_symbol
_atom_site_label
_atom_site_fract_x
_atom_site_fract_y
_atom_site_fract_z
Si Si1 0.301860 0.767140 0.229629
Si Si2 0.129416 0.017777 0.668671
Si Si3 0.500000 0.932258 0.500000
Si Si4 0.000000 0.366633 0.000000
Si Si5 0.944493 0.144878 0.805857
Si Si6 0.500000 0.447664 0.000000
Si Si7 0.000000 0.844083 0.500000
Si Si8 0.000000 0.688808 0.000000
O O1 0.464268 0.709201 0.282743
O O2 0.074990 0.797441 0.348365
O O3 0.191751 0.735708 0.073309
O O4 0.474122 0.823841 0.161896
O O5 0.090020 0.090157 0.704737
O O6 0.000000 0.006141 0.500000
O O7 0.403058 0.982443 0.643216
O O8 0.994924 0.987351 0.834690
O O9 0.252273 0.887411 0.500781
O O10 0.251093 0.405966 0.006859
O O11 0.000000 0.137394 0.000000
O O12 0.636539 0.149108 0.846941
#
# Coordination Sequence:
#
# PCOD9125794 Si02
#       8
#     4   4   2   2   4   2   2   2
#     4  11  24  44  74 115 145 200 249 321 384 470
#     4  12  28  51  77 112 159 207 268 320 378 468
#     4  12  28  53  70 115 152 210 254 324 372 468
#     4  12  24  46  82 111 153 204 260 310 398 460
#     4  10  23  46  73 110 150 201 254 325 384 458
#     4  12  29  47  80 115 150 217 254 318 390 454
#     4  12  28  47  78 105 166 190 250 324 388 448
#     4  10  21  43  74 110 151 187 262 302 396 458
#
# _framework density 23.895918000000002
#
# number of rings (size 3 to 8) (size 9 to 14) (size 15 to 20)
#    0.000    0.727    4.545    2.727    5.091    5.818 
#    0.000    0.000    0.000    0.000    0.000    0.000 
#    0.000    0.000    0.000    0.000    0.000    0.000 
#
# Total GULP energy -61364.528790 kJ/mol
# GULP energy per Si atom -5578.593526 kJ/mol
# Density = 2.384153 g / cm^3
# Si number density = 23.895918 Si / 1000 Ang^3
#
#
#
# Elastic Constant Matrix: (Units=GPa)
#
#
# Indices 1 2 3 4 5 6 
#
# 1 123.2875 62.5087 30.4323 0.0000 -25.2911 0.0000
# 2 62.5087 166.2701 59.7262 0.0000 -23.7259 0.0000
# 3 30.4323 59.7262 117.6300 0.0000 -16.4226 0.0000
# 4 0.0000 0.0000 0.0000 33.6159 0.0000 -35.5437
# 5 -25.2911 -23.7259 -16.4226 0.0000 34.6848 0.0000
# 6 0.0000 0.0000 0.0000 -35.5437 0.0000 19.3913
#
#
#
# Elastic Compliance Matrix: (Units=1/GPa)
#
#
# Indices 1 2 3 4 5 6 
#
# 1 0.010981 -0.003164 -0.000448 0.000000 0.005631 0.000000
# 2 -0.003164 0.008685 -0.003302 0.000000 0.002071 0.000000
# 3 -0.000448 -0.003302 0.010636 0.000000 0.002450 0.000000
# 4 0.000000 0.000000 0.000000 -0.031711 0.000000 -0.058126
# 5 0.005631 0.002071 0.002450 0.000000 0.035513 0.000000
# 6 0.000000 0.000000 0.000000 -0.058126 0.000000 -0.054973
#
#
# Mechanical properties :
#
#
# Convention : Reuss Voigt Hill
#
# Bulk Modulus (GPa) = 60.70423 79.16911 69.93667
# Shear Modulus (GPa) = -3229.80747 34.50640 -1597.65053
#
# Velocity S-wave (km/s) = -36.80420 3.80416 -25.88510
# Velocity P-wave (km/s) = 42.19723 7.24557 29.39480
#
# Compressibility (1/GPa) = 0.01647332
#
# Stress axis : x y z
#
# Youngs Moduli (GPa) = 91.06711 115.13521 94.01951
#
# Poissons Ratio (x) = 0.36425 0.04216
# Poissons Ratio (y) = 0.28811 0.31049
# Poissons Ratio (z) = 0.04084 0.38022
#
# Static dielectric constant tensor:
#      x y z
#    x 2.172830 0.000000 -0.025350 
#    y 0.000000 1.923530 0.000000 
#    z -0.025350 0.000000 1.995960 
# 
# From -- ./inp_files/12485.got.cif
#   From: 2010.05.17/outbox.cif.g08.bks.cpg/sg5_7_cif.got.tgz:12485.got - 2010.06.03 18:56:24.
