data_PCOD9125510
_publ_section_title
;
Structure prediction by ZEFSAII (Michael W. Deem and Ramdas Pophale) SiO2 
 PCOD9125510
Probable space group: C 2
;
_chemical_formula_sum "Si O2"
_cell_formula_units_Z 30
_cell_length_a 28.986131
_cell_length_b 8.236018
_cell_length_c 12.366004
_cell_angle_alpha 90.000000
_cell_angle_beta 25.874151
_cell_angle_gamma 90.000000
_cell_volume 1288.301731
_symmetry_space_group_name_H-M "C 2"
_symmetry_group_IT_number 5
_symmetry_cell_setting 'monoclinic'
loop_
_space_group_symop_operation_xyz
x,y,z
-x,y,-z
1/2+x,1/2+y,z
1/2-x,1/2+y,-z
loop_
_atom_site_type_symbol
_atom_site_label
_atom_site_fract_x
_atom_site_fract_y
_atom_site_fract_z
Si Si1 0.117967 0.286920 0.242192
Si Si2 0.511978 0.463467 0.236879
Si Si3 0.943894 0.678933 0.003799
Si Si4 0.811170 0.162209 0.266775
Si Si5 0.709312 0.843899 0.498481
Si Si6 0.329566 0.952654 0.090992
Si Si7 0.000000 0.965508 0.500000
Si Si8 0.672499 0.727200 0.352789
O O1 0.098671 0.092377 0.285328
O O2 0.179699 0.316674 0.222971
O O3 0.000000 0.358312 0.500000
O O4 0.154939 0.350153 0.050413
O O5 0.511514 0.383357 0.358836
O O6 0.427138 0.606528 0.430956
O O7 0.491097 0.319444 0.197016
O O8 0.612493 0.563713 0.976352
O O9 0.827143 0.764286 0.258125
O O10 0.924383 0.524299 0.965420
O O11 0.000000 0.646025 0.000000
O O12 0.860429 0.237914 0.272423
O O13 0.770315 0.324471 0.293738
O O14 0.727150 0.031092 0.484492
O O15 0.666656 0.841644 0.467635
O O16 0.269723 0.110413 0.174398
#
# Coordination Sequence:
#
# PCOD9125510 Si02
#       8
#     4   4   4   4   4   4   2   4
#     4   9  19  42  62  84 126 169 220 273 325 408
#     4  10  21  41  70  90 130 185 216 280 339 409
#     4  10  24  42  64  96 138 170 226 277 334 404
#     4  11  22  43  66  89 135 176 217 281 345 399
#     4  10  23  40  62  95 130 169 225 276 333 407
#     4  11  22  43  63  97 132 173 223 287 334 396
#     4   8  16  40  62  88 118 166 228 252 328 404
#     4  10  22  40  66  95 128 170 229 274 342 397
#
# _framework density 23.286470000000001
#
# number of rings (size 3 to 8) (size 9 to 14) (size 15 to 20)
#    0.400    1.600    1.333    1.600    5.600    1.067 
#   18.000    0.000    0.000    0.000    0.000    0.000 
#    0.000    0.000    0.000    0.000    0.000    0.000 
#
# Total GULP energy -83529.612480 kJ/mol
# GULP energy per Si atom -5568.640832 kJ/mol
# Density = 2.323347 g / cm^3
# Si number density = 23.286470 Si / 1000 Ang^3
#
#
#
# Elastic Constant Matrix: (Units=GPa)
#
#
# Indices 1 2 3 4 5 6 
#
# 1 167.1534 59.7573 39.2385 0.0000 36.5908 0.0000
# 2 59.7573 90.0972 20.8472 0.0000 25.1879 0.0000
# 3 39.2385 20.8472 47.7896 0.0000 15.1940 0.0000
# 4 0.0000 0.0000 0.0000 14.4201 0.0000 7.5421
# 5 36.5908 25.1879 15.1940 0.0000 39.9763 0.0000
# 6 0.0000 0.0000 0.0000 7.5421 0.0000 2.1660
#
#
#
# Elastic Compliance Matrix: (Units=1/GPa)
#
#
# Indices 1 2 3 4 5 6 
#
# 1 0.009449 -0.003969 -0.004632 0.000000 -0.004388 0.000000
# 2 -0.003969 0.015711 -0.001823 0.000000 -0.005574 0.000000
# 3 -0.004632 -0.001823 0.027083 0.000000 -0.004905 0.000000
# 4 0.000000 0.000000 0.000000 -0.084443 0.000000 0.294038
# 5 -0.004388 -0.005574 -0.004905 0.000000 0.034407 0.000000
# 6 0.000000 0.000000 0.000000 0.294038 0.000000 -0.562182
#
#
# Mechanical properties :
#
#
# Convention : Reuss Voigt Hill
#
# Bulk Modulus (GPa) = 31.85125 60.52513 46.18819
# Shear Modulus (GPa) = -9.45787 23.65896 7.10054
#
# Velocity S-wave (km/s) = -2.01751 3.19093 1.74809
# Velocity P-wave (km/s) = 2.87760 6.29476 4.89411
#
# Compressibility (1/GPa) = 0.03139594
#
# Stress axis : x y z
#
# Youngs Moduli (GPa) = 105.82847 63.64780 36.92333
#
# Poissons Ratio (x) = 0.25260 0.17103
# Poissons Ratio (y) = 0.42001 0.06731
# Poissons Ratio (z) = 0.49021 0.11604
#
# Static dielectric constant tensor:
#      x y z
#    x 2.014710 0.000000 0.039070 
#    y 0.000000 1.883740 0.000000 
#    z 0.039070 0.000000 1.991560 
# 
# From -- ./inp_files/48335.got.cif
#   From: 2010.05.17/outbox.cif.g08.bks.cpg/sg5_25_cif.got.tgz:48335.got - 2010.06.03 18:56:24.
