data_PCOD9126783
_publ_section_title
;
Structure prediction by ZEFSAII (Michael W. Deem and Ramdas Pophale) SiO2 
 PCOD9126783
Probable space group: C 2
;
_chemical_formula_sum "Si O2"
_cell_formula_units_Z 20
_cell_length_a 16.252436
_cell_length_b 6.892718
_cell_length_c 22.470623
_cell_angle_alpha 90.000000
_cell_angle_beta 163.318644
_cell_angle_gamma 90.000000
_cell_volume 722.569906
_symmetry_space_group_name_H-M "C 2"
_symmetry_group_IT_number 5
_symmetry_cell_setting 'monoclinic'
loop_
_space_group_symop_operation_xyz
x,y,z
-x,y,-z
1/2+x,1/2+y,z
1/2-x,1/2+y,-z
loop_
_atom_site_type_symbol
_atom_site_label
_atom_site_fract_x
_atom_site_fract_y
_atom_site_fract_z
Si Si1 0.315652 0.298730 0.968716
Si Si2 0.209681 0.795735 0.590945
Si Si3 0.623769 0.337403 0.297149
Si Si4 0.151080 0.334642 0.735909
Si Si5 0.333425 0.261073 0.216621
O O1 0.207114 0.195952 0.831660
O O2 0.028929 0.377881 0.801021
O O3 0.497751 0.233641 0.152052
O O4 0.579095 0.402941 0.116854
O O5 0.294438 0.564417 0.658347
O O6 0.000000 0.847876 0.500000
O O7 0.028784 0.835616 0.405964
O O8 0.399878 0.325302 0.195803
O O9 0.915368 0.257893 0.527767
O O10 0.069467 0.533674 0.711935
O O11 0.000000 0.288073 0.000000
#
# Coordination Sequence:
#
# PCOD9126783 Si02
#       5
#     4   4   4   4   4
#     4  11  21  40  69  90 127 170 214 264 318 377
#     4  11  24  42  66  96 130 173 218 260 322 386
#     4  11  23  39  65 100 127 166 220 261 323 383
#     4  10  22  42  65  93 126 170 216 260 323 378
#     4  11  21  40  65  94 131 171 208 269 319 379
#
# _framework density 27.678985999999998
#
# number of rings (size 3 to 8) (size 9 to 14) (size 15 to 20)
#    0.000    1.200    4.000    4.200    2.800    0.000 
#    3.600    0.000    0.000    0.000    0.000    0.000 
#    0.000    0.000    0.000    0.000    0.000    0.000 
#
# Total GULP energy -55782.457332 kJ/mol
# GULP energy per Si atom -5578.245733 kJ/mol
# Density = 2.761599 g / cm^3
# Si number density = 27.678986 Si / 1000 Ang^3
#
#
#
# Elastic Constant Matrix: (Units=GPa)
#
#
# Indices 1 2 3 4 5 6 
#
# 1 254.8775 37.2412 98.2799 0.0066 0.6921 -0.0044
# 2 37.2412 83.2749 7.7390 0.0368 1.4252 -0.0025
# 3 98.2799 7.7390 219.7386 0.1467 -16.1450 -0.0214
# 4 0.0066 0.0368 0.1467 7.1568 -0.0166 6.0765
# 5 0.6921 1.4252 -16.1450 -0.0166 81.2923 -0.0050
# 6 -0.0044 -0.0025 -0.0214 6.0765 -0.0050 32.4503
#
#
#
# Elastic Compliance Matrix: (Units=1/GPa)
#
#
# Indices 1 2 3 4 5 6 
#
# 1 0.005088 -0.002060 -0.002236 0.000061 -0.000451 -0.000012
# 2 -0.002060 0.012889 0.000459 -0.000089 -0.000117 0.000018
# 3 -0.002236 0.000459 0.005618 -0.000138 0.001127 0.000029
# 4 0.000061 -0.000089 -0.000138 0.166145 0.000006 -0.031111
# 5 -0.000451 -0.000117 0.001127 0.000006 0.012531 0.000002
# 6 -0.000012 0.000018 0.000029 -0.031111 0.000002 0.036642
#
#
# Mechanical properties :
#
#
# Convention : Reuss Voigt Hill
#
# Bulk Modulus (GPa) = 62.81390 93.82346 78.31868
# Shear Modulus (GPa) = 19.84962 51.82197 35.83580
#
# Velocity S-wave (km/s) = 2.68085 4.33164 3.60209
# Velocity P-wave (km/s) = 5.68556 7.68037 6.75698
#
# Compressibility (1/GPa) = 0.01592004
#
# Stress axis : x y z
#
# Youngs Moduli (GPa) = 196.54263 77.58547 178.00636
#
# Poissons Ratio (x) = 0.15981 0.39807
# Poissons Ratio (y) = 0.40485 -0.08167
# Poissons Ratio (z) = 0.43953 -0.03560
#
# Static dielectric constant tensor:
#      x y z
#    x 2.071200 -0.000010 -0.045150 
#    y -0.000010 2.375190 -0.000030 
#    z -0.045150 -0.000030 2.224520 
# 
# From -- ./inp_files/23004.got.cif
#   From: 2010.05.17/outbox.cif.g08.bks.cpg/sg5_12_cif.got.tgz:23004.got - 2010.06.03 18:56:24.
