data_PCOD9126884
_publ_section_title
;
Structure prediction by ZEFSAII (Michael W. Deem and Ramdas Pophale) SiO2 
 PCOD9126884
Probable space group: C 2
;
_chemical_formula_sum "Si O2"
_cell_formula_units_Z 28
_cell_length_a 8.374218
_cell_length_b 14.126844
_cell_length_c 11.287458
_cell_angle_alpha 90.000000
_cell_angle_beta 86.077734
_cell_angle_gamma 90.000000
_cell_volume 1332.193006
_symmetry_space_group_name_H-M "C 2"
_symmetry_group_IT_number 5
_symmetry_cell_setting 'monoclinic'
loop_
_space_group_symop_operation_xyz
x,y,z
-x,y,-z
1/2+x,1/2+y,z
1/2-x,1/2+y,-z
loop_
_atom_site_type_symbol
_atom_site_label
_atom_site_fract_x
_atom_site_fract_y
_atom_site_fract_z
Si Si1 0.279062 0.625000 0.219002
Si Si2 0.679390 0.101403 0.967947
Si Si3 0.368123 0.296533 0.672779
Si Si4 0.601881 0.925505 0.805759
Si Si5 0.101153 0.241966 0.193710
Si Si6 0.772931 0.812420 0.418786
Si Si7 0.395047 0.004968 0.604294
O O1 0.257879 0.580310 0.091395
O O2 0.140617 0.703640 0.245698
O O3 0.446196 0.677246 0.216893
O O4 0.254450 0.555714 0.329186
O O5 0.658329 0.003212 0.897374
O O6 0.500000 0.136830 0.000000
O O7 0.780486 0.183385 0.897357
O O8 0.292734 0.268922 0.548407
O O9 0.547551 0.330009 0.638627
O O10 0.254996 0.372832 0.741797
O O11 0.473124 0.842838 0.848034
O O12 0.512132 0.982340 0.706872
O O13 0.182290 0.258747 0.317611
O O14 0.673179 0.908031 0.444907
O O15 0.500000 0.057178 0.500000
#
# Coordination Sequence:
#
# PCOD9126884 Si02
#       7
#     4   4   4   4   4   4   4
#     4  11  25  42  65  99 136 179 236 284 347 422
#     4  12  24  44  70  98 139 181 243 290 345 426
#     4  10  22  43  68 101 133 180 230 284 362 424
#     4  10  23  43  70  96 139 182 226 290 359 413
#     4  10  25  46  69  99 139 187 232 291 360 422
#     4  10  22  42  68  98 137 174 229 289 355 431
#     4  11  22  41  65  99 137 173 224 290 349 425
#
# _framework density 21.017976000000001
#
# number of rings (size 3 to 8) (size 9 to 14) (size 15 to 20)
#    0.000    1.429    2.857    1.286    4.000    2.286 
#    0.000    0.000    0.000    0.000    0.000    0.000 
#    0.000    0.000    0.000    0.000    0.000    0.000 
#
# Total GULP energy -78177.278423 kJ/mol
# GULP energy per Si atom -5584.091316 kJ/mol
# Density = 2.097014 g / cm^3
# Si number density = 21.017976 Si / 1000 Ang^3
#
#
#
# Elastic Constant Matrix: (Units=GPa)
#
#
# Indices 1 2 3 4 5 6 
#
# 1 94.2700 37.9199 50.3772 0.0000 -3.3187 0.0000
# 2 37.9199 84.5575 65.9376 0.0000 -5.0784 0.0000
# 3 50.3772 65.9376 128.2700 0.0000 -4.4682 0.0000
# 4 0.0000 0.0000 0.0000 34.3145 0.0000 1.4592
# 5 -3.3187 -5.0784 -4.4682 0.0000 39.6567 0.0000
# 6 0.0000 0.0000 0.0000 1.4592 0.0000 25.4085
#
#
#
# Elastic Compliance Matrix: (Units=1/GPa)
#
#
# Indices 1 2 3 4 5 6 
#
# 1 0.013964 -0.003297 -0.003779 0.000000 0.000321 0.000000
# 2 -0.003297 0.020593 -0.009245 0.000000 0.001320 0.000000
# 3 -0.003779 -0.009245 0.014036 0.000000 0.000081 0.000000
# 4 0.000000 0.000000 0.000000 0.029214 0.000000 -0.001678
# 5 0.000321 0.001320 0.000081 0.000000 0.025421 0.000000
# 6 0.000000 0.000000 0.000000 -0.001678 0.000000 0.039453
#
#
# Mechanical properties :
#
#
# Convention : Reuss Voigt Hill
#
# Bulk Modulus (GPa) = 62.68750 68.39632 65.54191
# Shear Modulus (GPa) = 27.67932 30.06680 28.87306
#
# Velocity S-wave (km/s) = 3.63290 3.78634 3.71041
# Velocity P-wave (km/s) = 6.89113 7.19219 7.04327
#
# Compressibility (1/GPa) = 0.01595214
#
# Stress axis : x y z
#
# Youngs Moduli (GPa) = 71.61044 48.55922 71.24745
#
# Poissons Ratio (x) = 0.16008 0.26922
# Poissons Ratio (y) = 0.23606 0.65871
# Poissons Ratio (z) = 0.27059 0.44895
#
# Static dielectric constant tensor:
#      x y z
#    x 1.730120 0.000000 -0.000100 
#    y 0.000000 1.785170 0.000000 
#    z -0.000100 0.000000 1.771880 
# 
# From -- ./inp_files/36100.got.cif
#   From: 2010.05.17/outbox.cif.g08.bks.cpg/sg5_19_cif.got.tgz:36100.got - 2010.06.03 18:56:24.
