data_PCOD9126423
_publ_section_title
;
Structure prediction by ZEFSAII (Michael W. Deem and Ramdas Pophale) SiO2 
 PCOD9126423
Probable space group: C 2
;
_chemical_formula_sum "Si O2"
_cell_formula_units_Z 30
_cell_length_a 8.100680
_cell_length_b 11.599770
_cell_length_c 14.337903
_cell_angle_alpha 90.000000
_cell_angle_beta 82.880064
_cell_angle_gamma 90.000000
_cell_volume 1336.886732
_symmetry_space_group_name_H-M "C 2"
_symmetry_group_IT_number 5
_symmetry_cell_setting 'monoclinic'
loop_
_space_group_symop_operation_xyz
x,y,z
-x,y,-z
1/2+x,1/2+y,z
1/2-x,1/2+y,-z
loop_
_atom_site_type_symbol
_atom_site_label
_atom_site_fract_x
_atom_site_fract_y
_atom_site_fract_z
Si Si1 0.176692 0.707310 0.109003
Si Si2 0.119070 0.130688 0.725966
Si Si3 0.986074 0.483350 0.152594
Si Si4 0.939915 0.293828 0.599063
Si Si5 0.432484 0.033088 0.648501
Si Si6 0.500000 0.788637 0.000000
Si Si7 0.050450 0.786838 0.604417
Si Si8 0.105722 0.922882 0.214182
O O1 0.270046 0.690407 0.202469
O O2 0.050901 0.602342 0.102296
O O3 0.330349 0.717922 0.027255
O O4 0.084693 0.828684 0.133282
O O5 0.002067 0.220927 0.682042
O O6 0.016499 0.030389 0.782052
O O7 0.244675 0.074715 0.641262
O O8 0.077987 0.486923 0.244899
O O9 0.024746 0.374409 0.085679
O O10 0.791607 0.472811 0.191048
O O11 0.013610 0.423197 0.594929
O O12 0.743033 0.312428 0.609939
O O13 0.000000 0.234703 0.500000
O O14 0.532677 0.150606 0.629031
O O15 0.937450 0.860241 0.684154
O O16 0.000000 0.805065 0.500000
#
# Coordination Sequence:
#
# PCOD9126423 Si02
#       8
#     4   4   4   4   4   2   4   4
#     4  10  23  45  68  97 139 176 219 281 336 412
#     4  11  23  41  66  95 126 178 226 270 340 408
#     4  10  22  41  73  93 135 178 220 274 343 405
#     4  12  26  40  63  95 129 176 232 286 341 395
#     4  11  23  45  65  91 129 181 223 275 345 405
#     4  10  22  40  66 108 130 170 222 286 338 404
#     4  12  25  43  63  97 139 177 233 291 332 397
#     4  11  22  42  66  95 131 178 227 273 339 399
#
# _framework density 22.440194999999999
#
# number of rings (size 3 to 8) (size 9 to 14) (size 15 to 20)
#    0.000    1.067    4.000    3.600    1.867    2.667 
#    2.400    4.000    0.000    0.000    0.000    0.000 
#    0.000    0.000    0.000    0.000    0.000    0.000 
#
# Total GULP energy -83781.434879 kJ/mol
# GULP energy per Si atom -5585.428992 kJ/mol
# Density = 2.238912 g / cm^3
# Si number density = 22.440195 Si / 1000 Ang^3
#
#
#
# Elastic Constant Matrix: (Units=GPa)
#
#
# Indices 1 2 3 4 5 6 
#
# 1 61.3345 26.1602 11.3925 0.0000 -11.3221 0.0000
# 2 26.1602 94.8934 -3.0637 0.0000 -16.2259 0.0000
# 3 11.3925 -3.0637 69.5164 0.0000 -12.0534 0.0000
# 4 0.0000 0.0000 0.0000 19.6167 0.0000 -11.5114
# 5 -11.3221 -16.2259 -12.0534 0.0000 37.2647 0.0000
# 6 0.0000 0.0000 0.0000 -11.5114 0.0000 33.8103
#
#
#
# Elastic Compliance Matrix: (Units=1/GPa)
#
#
# Indices 1 2 3 4 5 6 
#
# 1 0.019493 -0.004989 -0.002928 0.000000 0.002803 0.000000
# 2 -0.004989 0.012801 0.002209 0.000000 0.004773 0.000000
# 3 -0.002928 0.002209 0.015865 0.000000 0.005204 0.000000
# 4 0.000000 0.000000 0.000000 0.063705 0.000000 0.021690
# 5 0.002803 0.004773 0.005204 0.000000 0.031448 0.000000
# 6 0.000000 0.000000 0.000000 0.021690 0.000000 0.036962
#
#
# Mechanical properties :
#
#
# Convention : Reuss Voigt Hill
#
# Bulk Modulus (GPa) = 27.21658 32.74692 29.98175
# Shear Modulus (GPa) = 24.51732 30.88869 27.70300
#
# Velocity S-wave (km/s) = 3.30898 3.71413 3.51739
# Velocity P-wave (km/s) = 5.17242 5.74610 5.46679
#
# Compressibility (1/GPa) = 0.03674231
#
# Stress axis : x y z
#
# Youngs Moduli (GPa) = 51.29941 78.11907 63.03316
#
# Poissons Ratio (x) = 0.38975 0.18459
# Poissons Ratio (y) = 0.25594 -0.13926
# Poissons Ratio (z) = 0.15023 -0.17259
#
# Static dielectric constant tensor:
#      x y z
#    x 1.812610 0.000000 -0.007380 
#    y 0.000000 1.859610 0.000000 
#    z -0.007380 0.000000 1.886550 
# 
# From -- ./inp_files/50486.got.cif
#   From: 2010.05.17/outbox.cif.g08.bks.cpg/sg5_26_cif.got.tgz:50486.got - 2010.06.03 18:56:24.
