data_PCOD9126392
_publ_section_title
;
Structure prediction by ZEFSAII (Michael W. Deem and Ramdas Pophale) SiO2 
 PCOD9126392
Probable space group: C 2
;
_chemical_formula_sum "Si O2"
_cell_formula_units_Z 20
_cell_length_a 18.283014
_cell_length_b 7.999516
_cell_length_c 8.796754
_cell_angle_alpha 90.000000
_cell_angle_beta 139.635715
_cell_angle_gamma 90.000000
_cell_volume 833.241740
_symmetry_space_group_name_H-M "C 2"
_symmetry_group_IT_number 5
_symmetry_cell_setting 'monoclinic'
loop_
_space_group_symop_operation_xyz
x,y,z
-x,y,-z
1/2+x,1/2+y,z
1/2-x,1/2+y,-z
loop_
_atom_site_type_symbol
_atom_site_label
_atom_site_fract_x
_atom_site_fract_y
_atom_site_fract_z
Si Si1 0.884819 0.479050 0.388172
Si Si2 0.309082 0.965982 0.944991
Si Si3 0.899454 0.784676 0.954801
Si Si4 0.840526 0.170394 0.493966
Si Si5 0.667192 0.626753 0.172958
O O1 0.914206 0.313075 0.531190
O O2 0.801336 0.596000 0.352877
O O3 0.000000 0.547351 0.500000
O O4 0.808630 0.423853 0.121554
O O5 0.356038 0.809743 0.926595
O O6 0.386913 0.130873 0.048983
O O7 0.193061 0.025196 0.678658
O O8 0.780322 0.766915 0.676859
O O9 0.897920 0.973913 0.012155
O O10 0.000000 0.755309 0.000000
O O11 0.868025 0.115319 0.706650
#
# Coordination Sequence:
#
# PCOD9126392 Si02
#       5
#     4   4   4   4   4
#     4  11  24  41  65 100 130 169 220 265 324 380
#     4  10  22  40  64  89 132 170 210 267 325 370
#     4   9  22  37  62  95 125 162 221 254 322 381
#     4   9  22  42  62  93 129 170 211 263 319 385
#     4  11  22  42  67  92 133 172 212 267 323 387
#
# _framework density 24.002638000000001
#
# number of rings (size 3 to 8) (size 9 to 14) (size 15 to 20)
#    1.200    0.800    0.000    3.600    2.800    2.400 
#    0.000    1.000    0.000    0.000    0.000    0.000 
#    0.000    0.000    0.000    0.000    0.000    0.000 
#
# Total GULP energy -55759.621542 kJ/mol
# GULP energy per Si atom -5575.962154 kJ/mol
# Density = 2.394801 g / cm^3
# Si number density = 24.002638 Si / 1000 Ang^3
#
#
#
# Elastic Constant Matrix: (Units=GPa)
#
#
# Indices 1 2 3 4 5 6 
#
# 1 98.3263 16.0368 28.2621 0.0000 0.3380 0.0000
# 2 16.0368 144.4208 26.4851 0.0000 -14.0811 0.0000
# 3 28.2621 26.4851 73.8295 0.0000 -21.6848 0.0000
# 4 0.0000 0.0000 0.0000 -14.1057 0.0000 -9.7617
# 5 0.3380 -14.0811 -21.6848 0.0000 40.6914 0.0000
# 6 0.0000 0.0000 0.0000 -9.7617 0.0000 33.4979
#
#
#
# Elastic Compliance Matrix: (Units=1/GPa)
#
#
# Indices 1 2 3 4 5 6 
#
# 1 0.011777 -0.000659 -0.005178 0.000000 -0.003085 0.000000
# 2 -0.000659 0.007513 -0.001989 0.000000 0.001545 0.000000
# 3 -0.005178 -0.001989 0.019029 0.000000 0.009496 0.000000
# 4 0.000000 0.000000 0.000000 -0.058996 0.000000 -0.017192
# 5 -0.003085 0.001545 0.009496 0.000000 0.030196 0.000000
# 6 0.000000 0.000000 0.000000 -0.017192 0.000000 0.024843
#
#
# Mechanical properties :
#
#
# Convention : Reuss Voigt Hill
#
# Bulk Modulus (GPa) = 44.11672 50.90495 47.51083
# Shear Modulus (GPa) = 86.85234 28.40289 57.62762
#
# Velocity S-wave (km/s) = 6.02188 3.44368 4.90520
# Velocity P-wave (km/s) = 8.17133 6.08819 7.20544
#
# Compressibility (1/GPa) = 0.02266714
#
# Stress axis : x y z
#
# Youngs Moduli (GPa) = 84.91422 133.10609 52.55037
#
# Poissons Ratio (x) = 0.08771 0.27210
# Poissons Ratio (y) = 0.05595 0.10452
# Poissons Ratio (z) = 0.43968 0.26475
#
# Static dielectric constant tensor:
#      x y z
#    x 1.896640 0.000000 0.048420 
#    y 0.000000 1.955520 0.000000 
#    z 0.048420 0.000000 1.962830 
# 
# From -- ./inp_files/26612.got.cif
#   From: 2010.05.17/outbox.cif.g08.bks.cpg/sg5_14_cif.got.tgz:26612.got - 2010.06.03 18:56:24.
