data_PCOD9126253
_publ_section_title
;
Structure prediction by ZEFSAII (Michael W. Deem and Ramdas Pophale) SiO2 
 PCOD9126253
Probable space group: C 2
;
_chemical_formula_sum "Si O2"
_cell_formula_units_Z 16
_cell_length_a 22.908556
_cell_length_b 5.031902
_cell_length_c 5.399822
_cell_angle_alpha 90.000000
_cell_angle_beta 81.596766
_cell_angle_gamma 90.000000
_cell_volume 615.774324
_symmetry_space_group_name_H-M "C 2"
_symmetry_group_IT_number 5
_symmetry_cell_setting 'monoclinic'
loop_
_space_group_symop_operation_xyz
x,y,z
-x,y,-z
1/2+x,1/2+y,z
1/2-x,1/2+y,-z
loop_
_atom_site_type_symbol
_atom_site_label
_atom_site_fract_x
_atom_site_fract_y
_atom_site_fract_z
Si Si1 0.902294 0.631400 0.020423
Si Si2 0.192894 0.777542 0.299788
Si Si3 0.676750 0.774601 0.666891
Si Si4 0.490702 0.419822 0.252014
O O1 0.846568 0.768790 0.921745
O O2 0.957775 0.693453 0.804515
O O3 0.878228 0.346479 0.122203
O O4 0.929154 0.774484 0.246841
O O5 0.263142 0.781999 0.209986
O O6 0.180792 0.514821 0.467704
O O7 0.177760 0.019863 0.491386
O O8 0.500000 0.564520 0.500000
O O9 0.500000 0.592103 0.000000
#
# Coordination Sequence:
#
# PCOD9126253 Si02
#       4
#     4   4   4   4
#     4   9  20  36  68  92 138 175 232 278 348 407
#     4  10  22  39  62  97 138 179 225 279 344 415
#     4  10  22  39  62  97 138 179 225 279 344 415
#     4   8  18  36  68  98 132 178 230 286 342 408
#
# _framework density 25.983546
#
# number of rings (size 3 to 8) (size 9 to 14) (size 15 to 20)
#    1.500    1.000    0.000    1.500    0.000    8.000 
#    0.000    0.000    0.000   61.500    0.000    0.000 
#    0.000    0.000    0.000    0.000    0.000    0.000 
#
# Total GULP energy -44677.889929 kJ/mol
# GULP energy per Si atom -5584.736241 kJ/mol
# Density = 2.592441 g / cm^3
# Si number density = 25.983546 Si / 1000 Ang^3
#
#
#
# Elastic Constant Matrix: (Units=GPa)
#
#
# Indices 1 2 3 4 5 6 
#
# 1 169.8048 32.1023 40.8107 0.0000 11.2087 0.0000
# 2 32.1023 121.3305 19.8416 0.0000 0.0042 0.0000
# 3 40.8107 19.8416 151.4273 0.0000 43.3086 0.0000
# 4 0.0000 0.0000 0.0000 12.2264 0.0000 -1.7469
# 5 11.2087 0.0042 43.3086 0.0000 47.5681 0.0000
# 6 0.0000 0.0000 0.0000 -1.7469 0.0000 26.2205
#
#
#
# Elastic Compliance Matrix: (Units=1/GPa)
#
#
# Indices 1 2 3 4 5 6 
#
# 1 0.006546 -0.001482 -0.001526 0.000000 -0.000153 0.000000
# 2 -0.001482 0.008823 -0.001158 0.000000 0.001403 0.000000
# 3 -0.001526 -0.001158 0.009551 0.000000 -0.008336 0.000000
# 4 0.000000 0.000000 0.000000 0.082576 0.000000 0.005502
# 5 -0.000153 0.001403 -0.008336 0.000000 0.028648 0.000000
# 6 0.000000 0.000000 0.000000 0.005502 0.000000 0.038505
#
#
# Mechanical properties :
#
#
# Convention : Reuss Voigt Hill
#
# Bulk Modulus (GPa) = 60.28582 69.78578 65.03580
# Shear Modulus (GPa) = 26.52350 40.52353 33.52351
#
# Velocity S-wave (km/s) = 3.19843 3.95344 3.59581
# Velocity P-wave (km/s) = 6.07387 6.91054 6.50567
#
# Compressibility (1/GPa) = 0.01658765
#
# Stress axis : x y z
#
# Youngs Moduli (GPa) = 152.75807 113.33407 104.70097
#
# Poissons Ratio (x) = 0.16801 0.15981
# Poissons Ratio (y) = 0.22646 0.12122
# Poissons Ratio (z) = 0.23316 0.13122
#
# Static dielectric constant tensor:
#      x y z
#    x 2.046630 0.000000 -0.049830 
#    y 0.000000 1.982740 0.000000 
#    z -0.049830 0.000000 2.114210 
# 
# From -- ./inp_files/9069.got.cif
#   From: 2010.05.17/outbox.cif.g08.bks.cpg/sg5_5_cif.got.tgz:9069.got - 2010.06.03 18:56:24.
