data_PCOD9126743
_publ_section_title
;
Structure prediction by ZEFSAII (Michael W. Deem and Ramdas Pophale) SiO2 
 PCOD9126743
Probable space group: C 2
;
_chemical_formula_sum "Si O2"
_cell_formula_units_Z 18
_cell_length_a 7.664410
_cell_length_b 23.436905
_cell_length_c 5.343474
_cell_angle_alpha 90.000000
_cell_angle_beta 111.157084
_cell_angle_gamma 90.000000
_cell_volume 895.149338
_symmetry_space_group_name_H-M "C 2"
_symmetry_group_IT_number 5
_symmetry_cell_setting 'monoclinic'
loop_
_space_group_symop_operation_xyz
x,y,z
-x,y,-z
1/2+x,1/2+y,z
1/2-x,1/2+y,-z
loop_
_atom_site_type_symbol
_atom_site_label
_atom_site_fract_x
_atom_site_fract_y
_atom_site_fract_z
Si Si1 0.500000 0.276390 0.000000
Si Si2 0.383923 0.630965 0.690278
Si Si3 0.884183 0.993948 0.689765
Si Si4 0.414422 0.814668 0.205927
Si Si5 0.000000 0.700228 0.500000
Si Si6 0.000000 0.425747 0.500000
O O1 0.691731 0.311838 0.097633
O O2 0.498470 0.238472 0.249578
O O3 0.500000 0.644991 0.500000
O O4 0.355927 0.562362 0.676452
O O5 0.185710 0.662002 0.590595
O O6 0.500000 0.645478 0.000000
O O7 0.000000 0.979014 0.500000
O O8 0.685248 0.963024 0.582409
O O9 0.000000 0.978873 0.000000
O O10 0.500000 0.786197 0.500000
O O11 0.482562 0.880060 0.266144
O O12 0.500000 0.788860 0.000000
#
# Coordination Sequence:
#
# PCOD9126743 Si02
#       6
#     2   4   4   4   2   2
#     4  12  26  42  62  92 120 162 208 254 302 352
#     4  10  22  42  63  93 126 156 197 250 304 363
#     4  10  23  39  64  94 125 158 198 246 301 367
#     4  10  25  42  61  87 123 162 202 256 297 353
#     4  12  25  40  68  90 118 164 205 250 304 364
#     4  10  25  38  68  88 124 164 201 246 304 358
#
# _framework density 20.108376
#
# number of rings (size 3 to 8) (size 9 to 14) (size 15 to 20)
#    0.667    0.889    0.000    3.333    4.667    5.333 
#    0.000    6.667    0.000    0.000    0.000    0.000 
#    0.000    0.000    0.000    0.000    0.000    0.000 
#
# Total GULP energy -50292.460853 kJ/mol
# GULP energy per Si atom -5588.051206 kJ/mol
# Density = 2.006261 g / cm^3
# Si number density = 20.108376 Si / 1000 Ang^3
#
#
#
# Elastic Constant Matrix: (Units=GPa)
#
#
# Indices 1 2 3 4 5 6 
#
# 1 126.6161 43.7311 88.6494 0.0000 22.0166 0.0000
# 2 43.7311 65.4339 48.4356 0.0000 11.2975 0.0000
# 3 88.6494 48.4356 190.8533 0.0000 -8.9240 0.0000
# 4 0.0000 0.0000 0.0000 -18.3498 0.0000 4.8333
# 5 22.0166 11.2975 -8.9240 0.0000 45.6627 0.0000
# 6 0.0000 0.0000 0.0000 4.8333 0.0000 -0.5866
#
#
#
# Elastic Compliance Matrix: (Units=1/GPa)
#
#
# Indices 1 2 3 4 5 6 
#
# 1 0.015002 -0.004094 -0.006278 0.000000 -0.007447 0.000000
# 2 -0.004094 0.021493 -0.003744 0.000000 -0.004076 0.000000
# 3 -0.006278 -0.003744 0.009376 0.000000 0.005785 0.000000
# 4 0.000000 0.000000 0.000000 0.046561 0.000000 0.383672
# 5 -0.007447 -0.004076 0.005785 0.000000 0.027630 0.000000
# 6 0.000000 0.000000 0.000000 0.383672 0.000000 1.456634
#
#
# Mechanical properties :
#
#
# Convention : Reuss Voigt Hill
#
# Bulk Modulus (GPa) = 56.68453 82.72618 69.70535
# Shear Modulus (GPa) = 3.10403 18.81775 10.96089
#
# Velocity S-wave (km/s) = 1.24379 3.06243 2.33725
# Velocity P-wave (km/s) = 5.50576 7.33036 6.48257
#
# Compressibility (1/GPa) = 0.01764150
#
# Stress axis : x y z
#
# Youngs Moduli (GPa) = 66.65826 46.52600 106.65363
#
# Poissons Ratio (x) = 0.19045 0.66953
# Poissons Ratio (y) = 0.27287 0.39930
# Poissons Ratio (z) = 0.41845 0.17419
#
# Static dielectric constant tensor:
#      x y z
#    x 1.656460 0.000000 -0.013570 
#    y 0.000000 1.707560 0.000000 
#    z -0.013570 0.000000 1.716140 
# 
# From -- ./inp_files/930.got.cif
#   From: 2010.05.17/outbox.cif.g08.bks.cpg/sg5_1_cif.got.tgz:930.got - 2010.06.03 18:56:24.
