data_PCOD9126764
_publ_section_title
;
Structure prediction by ZEFSAII (Michael W. Deem and Ramdas Pophale) SiO2 
 PCOD9126764
Probable space group: C 2
;
_chemical_formula_sum "Si O2"
_cell_formula_units_Z 24
_cell_length_a 13.995252
_cell_length_b 8.575693
_cell_length_c 9.512198
_cell_angle_alpha 90.000000
_cell_angle_beta 106.308896
_cell_angle_gamma 90.000000
_cell_volume 1095.706521
_symmetry_space_group_name_H-M "C 2"
_symmetry_group_IT_number 5
_symmetry_cell_setting 'monoclinic'
loop_
_space_group_symop_operation_xyz
x,y,z
-x,y,-z
1/2+x,1/2+y,z
1/2-x,1/2+y,-z
loop_
_atom_site_type_symbol
_atom_site_label
_atom_site_fract_x
_atom_site_fract_y
_atom_site_fract_z
Si Si1 0.189096 0.625000 0.791558
Si Si2 0.658479 0.692989 0.388405
Si Si3 0.018134 0.757100 0.352935
Si Si4 0.759363 0.972375 0.086139
Si Si5 0.296887 0.048203 0.638506
Si Si6 0.481026 0.557440 0.158249
O O1 0.265191 0.615272 0.693399
O O2 0.215517 0.792813 0.872022
O O3 0.074087 0.638045 0.702262
O O4 0.208389 0.495570 0.915856
O O5 0.683820 0.874675 0.409793
O O6 0.688081 0.605625 0.543675
O O7 0.549224 0.671175 0.279281
O O8 0.121888 0.668170 0.385317
O O9 0.012456 0.887188 0.230196
O O10 0.000000 0.829349 0.500000
O O11 0.696043 0.035452 0.190527
O O12 0.863234 0.065474 0.129337
O O13 0.500000 0.574867 0.000000
#
# Coordination Sequence:
#
# PCOD9126764 Si02
#       6
#     4   4   4   4   4   4
#     4  10  22  42  64  90 128 166 209 266 318 375
#     4  11  23  43  66  92 130 167 215 262 318 380
#     4  11  24  44  66  94 130 170 214 264 320 381
#     4  10  24  40  63  94 125 166 212 259 322 373
#     4  11  25  43  65  95 126 173 212 267 316 376
#     4  11  24  42  68  95 127 172 210 264 324 379
#
# _framework density 21.903675
#
# number of rings (size 3 to 8) (size 9 to 14) (size 15 to 20)
#    0.000    1.333    3.333    1.000    9.333    2.667 
#    3.000    0.000    0.000    0.000    0.000    0.000 
#    0.000    0.000    0.000    0.000    0.000    0.000 
#
# Total GULP energy -67096.679113 kJ/mol
# GULP energy per Si atom -5591.389926 kJ/mol
# Density = 2.185382 g / cm^3
# Si number density = 21.903675 Si / 1000 Ang^3
#
#
#
# Elastic Constant Matrix: (Units=GPa)
#
#
# Indices 1 2 3 4 5 6 
#
# 1 44.5965 2.4194 -15.6941 0.0000 14.9409 0.0000
# 2 2.4194 26.1878 3.8478 0.0000 -4.3148 0.0000
# 3 -15.6941 3.8478 46.1411 0.0000 14.6865 0.0000
# 4 0.0000 0.0000 0.0000 30.9577 0.0000 10.2425
# 5 14.9409 -4.3148 14.6865 0.0000 35.3670 0.0000
# 6 0.0000 0.0000 0.0000 10.2425 0.0000 22.2824
#
#
#
# Elastic Compliance Matrix: (Units=1/GPa)
#
#
# Indices 1 2 3 4 5 6 
#
# 1 0.041407 -0.012200 0.024363 0.000000 -0.029098 0.000000
# 2 -0.012200 0.043808 -0.012842 0.000000 0.015831 0.000000
# 3 0.024363 -0.012842 0.040106 0.000000 -0.028513 0.000000
# 4 0.000000 0.000000 0.000000 0.038096 0.000000 -0.017511
# 5 -0.029098 0.015831 -0.028513 0.000000 0.054339 0.000000
# 6 0.000000 0.000000 0.000000 -0.017511 0.000000 0.052928
#
#
# Mechanical properties :
#
#
# Convention : Reuss Voigt Hill
#
# Bulk Modulus (GPa) = 8.06679 10.89685 9.48182
# Shear Modulus (GPa) = 15.95598 26.14490 21.05044
#
# Velocity S-wave (km/s) = 2.70193 3.45864 3.10344
# Velocity P-wave (km/s) = 3.66398 4.57551 4.14488
#
# Compressibility (1/GPa) = 0.12396504
#
# Stress axis : x y z
#
# Youngs Moduli (GPa) = 24.15031 22.82686 24.93400
#
# Poissons Ratio (x) = 0.27848 -0.60747
# Poissons Ratio (y) = 0.29462 0.32019
# Poissons Ratio (z) = -0.58838 0.29313
#
# Static dielectric constant tensor:
#      x y z
#    x 1.781910 0.000000 0.004750 
#    y 0.000000 1.775670 0.000000 
#    z 0.004750 0.000000 1.814380 
# 
# From -- ./inp_files/22792.got.cif
#   From: 2010.05.17/outbox.cif.g08.bks.cpg/sg5_12_cif.got.tgz:22792.got - 2010.06.03 18:56:24.
