data_PCOD9126289
_publ_section_title
;
Structure prediction by ZEFSAII (Michael W. Deem and Ramdas Pophale) SiO2 
 PCOD9126289
Probable space group: C 2
;
_chemical_formula_sum "Si O2"
_cell_formula_units_Z 28
_cell_length_a 13.531212
_cell_length_b 18.101910
_cell_length_c 5.751537
_cell_angle_alpha 90.000000
_cell_angle_beta 54.073583
_cell_angle_gamma 90.000000
_cell_volume 1140.794304
_symmetry_space_group_name_H-M "C 2"
_symmetry_group_IT_number 5
_symmetry_cell_setting 'monoclinic'
loop_
_space_group_symop_operation_xyz
x,y,z
-x,y,-z
1/2+x,1/2+y,z
1/2-x,1/2+y,-z
loop_
_atom_site_type_symbol
_atom_site_label
_atom_site_fract_x
_atom_site_fract_y
_atom_site_fract_z
Si Si1 0.237129 0.596410 0.423700
Si Si2 0.865176 0.956077 0.266820
Si Si3 0.786415 0.841450 0.054021
Si Si4 0.000000 0.580986 0.000000
Si Si5 0.061254 0.193897 0.662452
Si Si6 0.500000 0.428006 0.500000
Si Si7 0.524733 0.862396 0.218367
Si Si8 0.884785 0.693158 0.798230
O O1 0.319228 0.530300 0.213211
O O2 0.122643 0.552977 0.701323
O O3 0.313893 0.647850 0.492045
O O4 0.197069 0.651995 0.277675
O O5 0.901297 0.973042 0.482463
O O6 0.779916 0.888483 0.302899
O O7 0.000000 0.935809 0.000000
O O8 0.816988 0.755927 0.035942
O O9 0.902752 0.876449 0.765489
O O10 0.668489 0.846576 0.052208
O O11 0.941467 0.632036 0.883971
O O12 0.000000 0.172984 0.500000
O O13 0.051475 0.284497 0.672348
O O14 0.000000 0.175774 0.000000
O O15 0.500000 0.902837 0.500000
O O16 0.500000 0.897456 0.000000
O O17 0.000000 0.726536 0.500000
#
# Coordination Sequence:
#
# PCOD9126289 Si02
#       8
#     4   4   4   2   4   2   4   4
#     4  11  24  44  70 103 147 181 247 302 376 441
#     4  10  25  44  69 102 139 192 240 301 367 444
#     4  11  23  42  71  99 145 182 250 297 365 438
#     4  10  26  38  70 106 136 194 232 302 376 430
#     4  10  22  39  66 103 138 183 230 304 368 434
#     4  10  24  44  68 102 132 190 238 304 362 430
#     4  10  23  40  65 101 139 185 238 297 371 430
#     4  10  22  41  69 107 135 183 234 306 367 434
#
# _framework density 24.544302999999999
#
# number of rings (size 3 to 8) (size 9 to 14) (size 15 to 20)
#    0.000    1.714    0.714    2.143   12.000    2.286 
#    0.000    3.571    1.571    0.000    0.000    0.000 
#    0.000    0.000    0.000    0.000    0.000    0.000 
#
# Total GULP energy -78017.502542 kJ/mol
# GULP energy per Si atom -5572.678753 kJ/mol
# Density = 2.448844 g / cm^3
# Si number density = 24.544303 Si / 1000 Ang^3
#
#
#
# Elastic Constant Matrix: (Units=GPa)
#
#
# Indices 1 2 3 4 5 6 
#
# 1 159.5299 50.8659 23.6586 0.0000 24.9608 0.0000
# 2 50.8659 67.3111 -8.1549 0.0000 13.4688 0.0000
# 3 23.6586 -8.1549 61.8221 0.0000 21.4339 0.0000
# 4 0.0000 0.0000 0.0000 20.0697 0.0000 -6.8756
# 5 24.9608 13.4688 21.4339 0.0000 40.2354 0.0000
# 6 0.0000 0.0000 0.0000 -6.8756 0.0000 12.9894
#
#
#
# Elastic Compliance Matrix: (Units=1/GPa)
#
#
# Indices 1 2 3 4 5 6 
#
# 1 0.009429 -0.007405 -0.004191 0.000000 -0.001138 0.000000
# 2 -0.007405 0.023016 0.008522 0.000000 -0.007650 0.000000
# 3 -0.004191 0.008522 0.023293 0.000000 -0.012662 0.000000
# 4 0.000000 0.000000 0.000000 0.060863 0.000000 0.032216
# 5 -0.001138 -0.007650 -0.012662 0.000000 0.034866 0.000000
# 6 0.000000 0.000000 0.000000 0.032216 0.000000 0.094039
#
#
# Mechanical properties :
#
#
# Convention : Reuss Voigt Hill
#
# Bulk Modulus (GPa) = 20.16496 46.82249 33.49372
# Shear Modulus (GPa) = 18.64391 29.47847 24.06119
#
# Velocity S-wave (km/s) = 2.75908 3.46935 3.13440
# Velocity P-wave (km/s) = 4.28761 5.93015 5.17447
#
# Compressibility (1/GPa) = 0.04959097
#
# Stress axis : x y z
#
# Youngs Moduli (GPa) = 106.05338 43.44815 42.93095
#
# Poissons Ratio (x) = 0.32175 0.17991
# Poissons Ratio (y) = 0.78537 -0.36588
# Poissons Ratio (z) = 0.44444 -0.37028
#
# Static dielectric constant tensor:
#      x y z
#    x 2.060580 0.000000 0.087430 
#    y 0.000000 1.913930 0.000000 
#    z 0.087430 0.000000 2.241020 
# 
# From -- ./inp_files/5636.got.cif
#   From: 2010.05.17/outbox.cif.g08.bks.cpg/sg5_3_cif.got.tgz:5636.got - 2010.06.03 18:56:24.
