data_PCOD9126742
_publ_section_title
;
Structure prediction by ZEFSAII (Michael W. Deem and Ramdas Pophale) SiO2 
 PCOD9126742
Probable space group: C 2
;
_chemical_formula_sum "Si O2"
_cell_formula_units_Z 20
_cell_length_a 20.596940
_cell_length_b 5.146314
_cell_length_c 15.680834
_cell_angle_alpha 90.000000
_cell_angle_beta 33.962789
_cell_angle_gamma 90.000000
_cell_volume 928.562921
_symmetry_space_group_name_H-M "C 2"
_symmetry_group_IT_number 5
_symmetry_cell_setting 'monoclinic'
loop_
_space_group_symop_operation_xyz
x,y,z
-x,y,-z
1/2+x,1/2+y,z
1/2-x,1/2+y,-z
loop_
_atom_site_type_symbol
_atom_site_label
_atom_site_fract_x
_atom_site_fract_y
_atom_site_fract_z
Si Si1 0.796776 0.360580 0.402111
Si Si2 0.537591 0.692999 0.051129
Si Si3 0.870337 0.461655 0.669376
Si Si4 0.757278 0.101098 0.042989
Si Si5 0.739187 0.966878 0.748377
O O1 0.773718 0.597888 0.493991
O O2 0.757195 0.490334 0.356648
O O3 0.927280 0.268938 0.230336
O O4 0.500000 0.558483 0.000000
O O5 0.632213 0.567227 0.013400
O O6 0.612612 0.929979 0.928688
O O7 0.857899 0.512549 0.782444
O O8 0.807246 0.702708 0.694034
O O9 0.000000 0.439813 0.500000
O O10 0.802538 0.204432 0.720920
O O11 0.738547 0.400016 0.038950
#
# Coordination Sequence:
#
# PCOD9126742 Si02
#       5
#     4   4   4   4   4
#     4  11  24  40  63  96 125 158 211 274 319 359
#     4   9  22  45  68  89 129 178 214 251 315 397
#     4  11  23  41  63  90 126 170 209 256 316 384
#     4  11  24  42  65  98 129 164 214 268 318 370
#     4  10  22  42  63  89 123 170 216 251 311 390
#
# _framework density 21.53866
#
# number of rings (size 3 to 8) (size 9 to 14) (size 15 to 20)
#    0.000    1.600    0.000    4.200    0.000    9.600 
#    0.000   16.000    0.000    0.000    0.000    0.000 
#    0.000    0.000    0.000    0.000    0.000    0.000 
#
# Total GULP energy -55728.115922 kJ/mol
# GULP energy per Si atom -5572.811592 kJ/mol
# Density = 2.148964 g / cm^3
# Si number density = 21.538660 Si / 1000 Ang^3
#
#
#
# Elastic Constant Matrix: (Units=GPa)
#
#
# Indices 1 2 3 4 5 6 
#
# 1 75.0185 20.6791 26.4108 -0.0091 2.7038 0.0064
# 2 20.6791 99.6724 19.1088 -0.0371 1.6886 0.0378
# 3 26.4108 19.1088 165.6608 -0.0224 6.2606 0.0103
# 4 -0.0091 -0.0371 -0.0224 12.3914 0.0195 28.4902
# 5 2.7038 1.6886 6.2606 0.0195 28.2052 -0.0148
# 6 0.0064 0.0378 0.0103 28.4902 -0.0148 -2.9792
#
#
#
# Elastic Compliance Matrix: (Units=1/GPa)
#
#
# Indices 1 2 3 4 5 6 
#
# 1 0.014807 -0.002671 -0.002022 0.000001 -0.000811 0.000000
# 2 -0.002671 0.010745 -0.000806 -0.000012 -0.000208 0.000018
# 3 -0.002022 -0.000806 0.006497 -0.000001 -0.001200 0.000005
# 4 0.000001 -0.000012 -0.000001 0.003511 0.000016 0.033573
# 5 -0.000811 -0.000208 -0.001200 0.000016 0.035811 -0.000033
# 6 0.000000 0.000018 0.000005 0.033573 -0.000033 -0.014602
#
#
# Mechanical properties :
#
#
# Convention : Reuss Voigt Hill
#
# Bulk Modulus (GPa) = 47.50041 52.52768 50.01404
# Shear Modulus (GPa) = 66.85974 25.80036 46.33005
#
# Velocity S-wave (km/s) = 5.57756 3.46477 4.64294
# Velocity P-wave (km/s) = 7.97372 6.35978 7.21204
#
# Compressibility (1/GPa) = 0.02105245
#
# Stress axis : x y z
#
# Youngs Moduli (GPa) = 67.53426 93.06687 153.91515
#
# Poissons Ratio (x) = 0.24855 0.31121
# Poissons Ratio (y) = 0.18036 0.12402
# Poissons Ratio (z) = 0.13655 0.07499
#
# Static dielectric constant tensor:
#      x y z
#    x 1.879090 -0.000010 0.021360 
#    y -0.000010 1.750540 0.000020 
#    z 0.021360 0.000020 1.813200 
# 
# From -- ./inp_files/56349.got.cif
#   From: 2010.05.17/outbox.cif.g08.bks.cpg/sg5_29_cif.got.tgz:56349.got - 2010.06.03 18:56:24.
