data_PCOD9126174
_publ_section_title
;
Structure prediction by ZEFSAII (Michael W. Deem and Ramdas Pophale) SiO2 
 PCOD9126174
Probable space group: C 2
;
_chemical_formula_sum "Si O2"
_cell_formula_units_Z 22
_cell_length_a 10.444437
_cell_length_b 17.964531
_cell_length_c 7.830207
_cell_angle_alpha 90.000000
_cell_angle_beta 44.388490
_cell_angle_gamma 90.000000
_cell_volume 1027.718494
_symmetry_space_group_name_H-M "C 2"
_symmetry_group_IT_number 5
_symmetry_cell_setting 'monoclinic'
loop_
_space_group_symop_operation_xyz
x,y,z
-x,y,-z
1/2+x,1/2+y,z
1/2-x,1/2+y,-z
loop_
_atom_site_type_symbol
_atom_site_label
_atom_site_fract_x
_atom_site_fract_y
_atom_site_fract_z
Si Si1 0.500000 0.988400 0.000000
Si Si2 0.711265 0.533571 0.851452
Si Si3 0.916949 0.341926 0.909219
Si Si4 0.500000 0.905131 0.500000
Si Si5 0.895340 0.741576 0.937734
Si Si6 0.794123 0.092191 0.759185
Si Si7 0.000000 0.657532 0.500000
O O1 0.606717 0.927426 0.010245
O O2 0.652205 0.043954 0.778871
O O3 0.827775 0.460006 0.693749
O O4 0.822752 0.603613 0.666233
O O5 0.500000 0.528556 0.000000
O O6 0.714186 0.552981 0.048971
O O7 0.039808 0.352470 0.624330
O O8 0.737967 0.301162 0.019244
O O9 0.000000 0.304253 0.000000
O O10 0.999189 0.705483 0.675768
O O11 0.783154 0.674211 0.134101
O O12 0.000000 0.775493 0.000000
O O13 0.000000 0.092865 0.500000
#
# Coordination Sequence:
#
# PCOD9126174 Si02
#       7
#     2   4   4   2   4   4   2
#     4  10  22  52  66  98 144 186 238 300 360 426
#     4  10  22  38  68 106 133 183 236 297 363 418
#     4  10  25  45  71  98 147 193 236 291 374 423
#     4  11  22  44  68 100 143 184 240 304 347 436
#     4  11  25  46  71 107 143 196 241 297 369 430
#     4  11  24  41  75 106 137 185 245 297 364 433
#     4   9  24  44  64  98 151 178 236 304 351 428
#
# _framework density 21.406638999999998
#
# number of rings (size 3 to 8) (size 9 to 14) (size 15 to 20)
#    0.545    1.091    2.727    0.000    6.364    5.091 
#    1.636    0.000    0.000    0.000    0.000    0.000 
#    0.000    0.000    0.000    0.000    0.000    0.000 
#
# Total GULP energy -61310.286257 kJ/mol
# GULP energy per Si atom -5573.662387 kJ/mol
# Density = 2.135792 g / cm^3
# Si number density = 21.406639 Si / 1000 Ang^3
#
#
#
# Elastic Constant Matrix: (Units=GPa)
#
#
# Indices 1 2 3 4 5 6 
#
# 1 153.6822 63.3846 42.1032 0.0000 1.5203 0.0000
# 2 63.3846 55.5313 39.4983 0.0000 4.3999 0.0000
# 3 42.1032 39.4983 111.9490 0.0000 0.6778 0.0000
# 4 0.0000 0.0000 0.0000 13.2905 0.0000 -0.8144
# 5 1.5203 4.3999 0.6778 0.0000 41.7570 0.0000
# 6 0.0000 0.0000 0.0000 -0.8144 0.0000 28.3098
#
#
#
# Elastic Compliance Matrix: (Units=1/GPa)
#
#
# Indices 1 2 3 4 5 6 
#
# 1 0.012358 -0.014526 0.000471 0.000000 0.001073 0.000000
# 2 -0.014526 0.041357 -0.009106 0.000000 -0.003681 0.000000
# 3 0.000471 -0.009106 0.011964 0.000000 0.000748 0.000000
# 4 0.000000 0.000000 0.000000 0.075374 0.000000 0.002168
# 5 0.001073 -0.003681 0.000748 0.000000 0.024285 0.000000
# 6 0.000000 0.000000 0.000000 0.002168 0.000000 0.035386
#
#
# Mechanical properties :
#
#
# Convention : Reuss Voigt Hill
#
# Bulk Modulus (GPa) = 51.66309 67.90387 59.78348
# Shear Modulus (GPa) = 19.72387 28.41656 24.07021
#
# Velocity S-wave (km/s) = 3.03873 3.64739 3.35689
# Velocity P-wave (km/s) = 6.04139 7.03760 6.55844
#
# Compressibility (1/GPa) = 0.01935618
#
# Stress axis : x y z
#
# Youngs Moduli (GPa) = 80.91610 24.17967 83.58395
#
# Poissons Ratio (x) = 0.35124 -0.03934
# Poissons Ratio (y) = 1.17539 0.76114
# Poissons Ratio (z) = -0.03809 0.22019
#
# Static dielectric constant tensor:
#      x y z
#    x 1.987310 0.000000 0.026340 
#    y 0.000000 1.765110 0.000000 
#    z 0.026340 0.000000 1.794010 
# 
# From -- ./inp_files/21166.got.cif
#   From: 2010.05.17/outbox.cif.g08.bks.cpg/sg5_11_cif.got.tgz:21166.got - 2010.06.03 18:56:24.
