data_PCOD9126218
_publ_section_title
;
Structure prediction by ZEFSAII (Michael W. Deem and Ramdas Pophale) SiO2 
 PCOD9126218
Probable space group: C 2
;
_chemical_formula_sum "Si O2"
_cell_formula_units_Z 20
_cell_length_a 8.261402
_cell_length_b 19.400732
_cell_length_c 7.392148
_cell_angle_alpha 90.000000
_cell_angle_beta 136.301808
_cell_angle_gamma 90.000000
_cell_volume 818.525701
_symmetry_space_group_name_H-M "C 2"
_symmetry_group_IT_number 5
_symmetry_cell_setting 'monoclinic'
loop_
_space_group_symop_operation_xyz
x,y,z
-x,y,-z
1/2+x,1/2+y,z
1/2-x,1/2+y,-z
loop_
_atom_site_type_symbol
_atom_site_label
_atom_site_fract_x
_atom_site_fract_y
_atom_site_fract_z
Si Si1 0.000000 0.548501 0.000000
Si Si2 0.695421 0.654180 0.522058
Si Si3 0.033071 0.022858 0.742873
Si Si4 0.000000 0.337086 0.000000
Si Si5 0.214220 0.396631 0.538542
Si Si6 0.962814 0.779593 0.267242
O O1 0.846346 0.599518 0.756005
O O2 0.812712 0.512707 0.982610
O O3 0.500000 0.685778 0.500000
O O4 0.549181 0.601189 0.275655
O O5 0.888791 0.709154 0.619268
O O6 0.000000 0.011558 0.500000
O O7 0.862647 0.966246 0.684912
O O8 0.882157 0.383410 0.745801
O O9 0.818041 0.287560 0.965756
O O10 0.391747 0.334444 0.728332
O O11 0.000000 0.395530 0.500000
O O12 0.000000 0.804822 0.500000
#
# Coordination Sequence:
#
# PCOD9126218 Si02
#       6
#     2   4   4   2   4   4
#     4   8  18  35  62  88 118 163 202 252 316 363
#     4   9  19  35  59  87 118 157 204 253 303 366
#     4   9  19  37  61  86 121 162 204 255 308 366
#     4  10  24  43  62  88 128 167 202 256 318 361
#     4  11  24  41  64  92 123 163 211 258 306 369
#     4  10  22  39  59  86 124 165 208 257 306 365
#
# _framework density 24.434173999999999
#
# number of rings (size 3 to 8) (size 9 to 14) (size 15 to 20)
#    0.000    2.800    0.000    2.400    0.000   16.800 
#    0.000    0.000    0.000    7.200    0.000    0.000 
#    0.000    0.000    0.000    0.000    0.000    0.000 
#
# Total GULP energy -55682.144966 kJ/mol
# GULP energy per Si atom -5568.214497 kJ/mol
# Density = 2.437856 g / cm^3
# Si number density = 24.434174 Si / 1000 Ang^3
#
#
#
# Elastic Constant Matrix: (Units=GPa)
#
#
# Indices 1 2 3 4 5 6 
#
# 1 176.9282 93.9261 51.1751 0.0000 62.0094 0.0000
# 2 93.9261 128.5845 23.9319 0.0000 49.5247 0.0000
# 3 51.1751 23.9319 73.4228 0.0000 23.2067 0.0000
# 4 0.0000 0.0000 0.0000 15.0571 0.0000 17.9489
# 5 62.0094 49.5247 23.2067 0.0000 62.2284 0.0000
# 6 0.0000 0.0000 0.0000 17.9489 0.0000 49.1589
#
#
#
# Elastic Compliance Matrix: (Units=1/GPa)
#
#
# Indices 1 2 3 4 5 6 
#
# 1 0.012062 -0.005739 -0.004740 0.000000 -0.005684 0.000000
# 2 -0.005739 0.014004 0.001305 0.000000 -0.005912 0.000000
# 3 -0.004740 0.001305 0.017382 0.000000 -0.002797 0.000000
# 4 0.000000 0.000000 0.000000 0.117598 0.000000 -0.042937
# 5 -0.005684 -0.005912 -0.002797 0.000000 0.027483 0.000000
# 6 0.000000 0.000000 0.000000 -0.042937 0.000000 0.036020
#
#
# Mechanical properties :
#
#
# Convention : Reuss Voigt Hill
#
# Bulk Modulus (GPa) = 39.84263 79.66686 59.75474
# Shear Modulus (GPa) = 19.89942 39.28234 29.59088
#
# Velocity S-wave (km/s) = 2.85688 4.01394 3.48378
# Velocity P-wave (km/s) = 5.21765 7.35919 6.37893
#
# Compressibility (1/GPa) = 0.02509874
#
# Stress axis : x y z
#
# Youngs Moduli (GPa) = 82.90453 71.40967 57.52971
#
# Poissons Ratio (x) = 0.40985 0.27268
# Poissons Ratio (y) = 0.47582 -0.07505
# Poissons Ratio (z) = 0.39295 -0.09316
#
# Static dielectric constant tensor:
#      x y z
#    x 2.097940 0.000000 0.166690 
#    y 0.000000 2.045880 0.000000 
#    z 0.166690 0.000000 2.268430 
# 
# From -- ./inp_files/2876.got.cif
#   From: 2010.05.17/outbox.cif.g08.bks.cpg/sg5_2_cif.got.tgz:2876.got - 2010.06.03 18:56:24.
