data_PCOD9126323
_publ_section_title
;
Structure prediction by ZEFSAII (Michael W. Deem and Ramdas Pophale) SiO2 
 PCOD9126323
Probable space group: C 2
;
_chemical_formula_sum "Si O2"
_cell_formula_units_Z 28
_cell_length_a 16.280417
_cell_length_b 8.787626
_cell_length_c 16.437612
_cell_angle_alpha 90.000000
_cell_angle_beta 147.293776
_cell_angle_gamma 90.000000
_cell_volume 1270.680268
_symmetry_space_group_name_H-M "C 2"
_symmetry_group_IT_number 5
_symmetry_cell_setting 'monoclinic'
loop_
_space_group_symop_operation_xyz
x,y,z
-x,y,-z
1/2+x,1/2+y,z
1/2-x,1/2+y,-z
loop_
_atom_site_type_symbol
_atom_site_label
_atom_site_fract_x
_atom_site_fract_y
_atom_site_fract_z
Si Si1 0.531445 0.674710 0.699199
Si Si2 0.062027 0.850455 0.640646
Si Si3 0.930126 0.619530 0.651908
Si Si4 0.775719 0.356031 0.431147
Si Si5 0.611813 0.827115 0.034734
Si Si6 0.038918 0.066546 0.186641
Si Si7 0.211091 0.423570 0.937060
O O1 0.562628 0.509136 0.690219
O O2 0.431836 0.765211 0.549585
O O3 0.439951 0.651539 0.708409
O O4 0.670100 0.779190 0.845765
O O5 0.234732 0.792472 0.788813
O O6 0.000000 0.878133 0.500000
O O7 0.957060 0.725189 0.596227
O O8 0.829272 0.471599 0.547640
O O9 0.846334 0.728801 0.645196
O O10 0.096179 0.558952 0.816030
O O11 0.686836 0.464029 0.294529
O O12 0.500000 0.923717 0.000000
O O13 0.507821 0.685689 0.920229
O O14 0.667230 0.890615 0.993880
O O15 0.885974 0.967939 0.073719
#
# Coordination Sequence:
#
# PCOD9126323 Si02
#       7
#     4   4   4   4   4   4   4
#     4  10  22  40  60 100 128 172 235 266 325 404
#     4  12  25  42  65  91 139 179 216 276 347 403
#     4  11  21  40  62 102 124 175 226 271 330 397
#     4  11  21  35  66  94 130 156 227 282 311 387
#     4  11  25  42  65 105 132 170 224 285 338 390
#     4  11  20  40  68  96 133 176 225 273 330 401
#     4  10  22  41  73  94 131 177 227 278 326 406
#
# _framework density 22.035440000000001
#
# number of rings (size 3 to 8) (size 9 to 14) (size 15 to 20)
#    0.000    1.143    5.714    0.000    4.000    1.143 
#    0.000    4.286    0.000    0.857    0.000    0.000 
#    0.000    0.000    0.000    0.000    0.000    0.000 
#
# Total GULP energy -78131.582143 kJ/mol
# GULP energy per Si atom -5580.827296 kJ/mol
# Density = 2.198529 g / cm^3
# Si number density = 22.035440 Si / 1000 Ang^3
#
#
#
# Elastic Constant Matrix: (Units=GPa)
#
#
# Indices 1 2 3 4 5 6 
#
# 1 47.5203 11.0284 20.3581 0.0000 -15.3505 0.0000
# 2 11.0284 108.1960 43.8268 0.0000 -6.2640 0.0000
# 3 20.3581 43.8268 126.6863 0.0000 -6.4992 0.0000
# 4 0.0000 0.0000 0.0000 40.2157 0.0000 5.8636
# 5 -15.3505 -6.2640 -6.4992 0.0000 27.6509 0.0000
# 6 0.0000 0.0000 0.0000 5.8636 0.0000 12.6015
#
#
#
# Elastic Compliance Matrix: (Units=1/GPa)
#
#
# Indices 1 2 3 4 5 6 
#
# 1 0.027234 -0.000555 -0.003457 0.000000 0.014181 0.000000
# 2 -0.000555 0.010829 -0.003590 0.000000 0.001301 0.000000
# 3 -0.003457 -0.003590 0.009667 0.000000 -0.000460 0.000000
# 4 0.000000 0.000000 0.000000 0.026676 0.000000 -0.012412
# 5 0.014181 0.001301 -0.000460 0.000000 0.044224 0.000000
# 6 0.000000 0.000000 0.000000 -0.012412 0.000000 0.085131
#
#
# Mechanical properties :
#
#
# Convention : Reuss Voigt Hill
#
# Bulk Modulus (GPa) = 30.74417 48.09213 39.41815
# Shear Modulus (GPa) = 21.75728 29.90622 25.83175
#
# Velocity S-wave (km/s) = 3.14566 3.68800 3.42757
# Velocity P-wave (km/s) = 5.21306 6.32514 5.79584
#
# Compressibility (1/GPa) = 0.03252649
#
# Stress axis : x y z
#
# Youngs Moduli (GPa) = 36.71840 92.34748 103.43952
#
# Poissons Ratio (x) = 0.05122 0.35760
# Poissons Ratio (y) = 0.02037 0.37138
# Poissons Ratio (z) = 0.12694 0.33155
#
# Static dielectric constant tensor:
#      x y z
#    x 1.804560 0.000000 0.024720 
#    y 0.000000 1.842930 0.000000 
#    z 0.024720 0.000000 1.825350 
# 
# From -- ./inp_files/62252.got.cif
#   From: 2010.05.17/outbox.cif.g08.bks.cpg/sg5_32_cif.got.tgz:62252.got - 2010.06.03 18:56:24.
