data_PCOD9126981
_publ_section_title
;
Structure prediction by ZEFSAII (Michael W. Deem and Ramdas Pophale) SiO2 
 PCOD9126981
Probable space group: C 2
;
_chemical_formula_sum "Si O2"
_cell_formula_units_Z 20
_cell_length_a 10.949597
_cell_length_b 10.462099
_cell_length_c 11.248312
_cell_angle_alpha 90.000000
_cell_angle_beta 138.574689
_cell_angle_gamma 90.000000
_cell_volume 852.566273
_symmetry_space_group_name_H-M "C 2"
_symmetry_group_IT_number 5
_symmetry_cell_setting 'monoclinic'
loop_
_space_group_symop_operation_xyz
x,y,z
-x,y,-z
1/2+x,1/2+y,z
1/2-x,1/2+y,-z
loop_
_atom_site_type_symbol
_atom_site_label
_atom_site_fract_x
_atom_site_fract_y
_atom_site_fract_z
Si Si1 0.267042 0.358740 0.962813
Si Si2 0.701073 0.211500 0.615384
Si Si3 0.455239 0.705876 0.602227
Si Si4 0.500000 0.572204 0.000000
Si Si5 0.500000 0.158699 0.000000
Si Si6 0.693305 0.464526 0.750570
O O1 0.353749 0.483070 0.963211
O O2 0.079464 0.302247 0.771645
O O3 0.410856 0.246770 0.035396
O O4 0.252695 0.389965 0.090099
O O5 0.500000 0.153034 0.500000
O O6 0.754941 0.208413 0.515992
O O7 0.871200 0.149577 0.813526
O O8 0.686760 0.357761 0.646559
O O9 0.500000 0.745495 0.500000
O O10 0.522318 0.557816 0.655458
O O11 0.652257 0.068132 0.167173
#
# Coordination Sequence:
#
# PCOD9126981 Si02
#       6
#     4   4   4   2   2   4
#     4  10  22  42  76 104 142 199 252 305 376 459
#     4  12  27  47  76 110 154 203 253 316 383 460
#     4  11  25  49  71 111 155 198 255 320 385 450
#     4  11  23  48  72 112 151 199 262 306 378 463
#     4   9  21  36  68 106 131 183 242 304 360 435
#     4  11  22  45  72 104 145 195 251 309 378 452
#
# _framework density 23.458587000000001
#
# number of rings (size 3 to 8) (size 9 to 14) (size 15 to 20)
#    0.000    1.200    2.000    3.600    2.800    5.600 
#   10.800    0.000    0.000    0.000    0.000    0.000 
#    0.000    0.000    0.000    0.000    0.000    0.000 
#
# Total GULP energy -55920.685870 kJ/mol
# GULP energy per Si atom -5592.068587 kJ/mol
# Density = 2.340519 g / cm^3
# Si number density = 23.458587 Si / 1000 Ang^3
#
#
#
# Elastic Constant Matrix: (Units=GPa)
#
#
# Indices 1 2 3 4 5 6 
#
# 1 162.2335 24.9744 51.3233 0.0000 -0.4993 0.0000
# 2 24.9744 101.5113 34.1161 0.0000 4.0460 0.0000
# 3 51.3233 34.1161 78.6558 0.0000 0.3474 0.0000
# 4 0.0000 0.0000 0.0000 36.3438 0.0000 3.6862
# 5 -0.4993 4.0460 0.3474 0.0000 32.6119 0.0000
# 6 0.0000 0.0000 0.0000 3.6862 0.0000 21.0821
#
#
#
# Elastic Compliance Matrix: (Units=1/GPa)
#
#
# Indices 1 2 3 4 5 6 
#
# 1 0.007774 -0.000252 -0.004964 0.000000 0.000203 0.000000
# 2 -0.000252 0.011603 -0.004862 0.000000 -0.001392 0.000000
# 3 -0.004964 -0.004862 0.018060 0.000000 0.000335 0.000000
# 4 0.000000 0.000000 0.000000 0.028012 0.000000 -0.004898
# 5 0.000203 -0.001392 0.000335 0.000000 0.030836 0.000000
# 6 0.000000 0.000000 0.000000 -0.004898 0.000000 0.048290
#
#
# Mechanical properties :
#
#
# Convention : Reuss Voigt Hill
#
# Bulk Modulus (GPa) = 57.86930 62.58093 60.22511
# Shear Modulus (GPa) = 29.32728 33.47334 31.40031
#
# Velocity S-wave (km/s) = 3.53961 3.78155 3.66258
# Velocity P-wave (km/s) = 6.43641 6.76771 6.60414
#
# Compressibility (1/GPa) = 0.01728032
#
# Stress axis : x y z
#
# Youngs Moduli (GPa) = 128.63771 86.18755 55.37163
#
# Poissons Ratio (x) = 0.02175 0.27486
# Poissons Ratio (y) = 0.03247 0.26920
# Poissons Ratio (z) = 0.63854 0.41902
#
# Static dielectric constant tensor:
#      x y z
#    x 1.886870 0.000000 0.019980 
#    y 0.000000 1.845740 0.000000 
#    z 0.019980 0.000000 1.977270 
# 
# From -- ./inp_files/39352.got.cif
#   From: 2010.05.17/outbox.cif.g08.bks.cpg/sg5_20_cif.got.tgz:39352.got - 2010.06.03 18:56:24.
