data_PCOD9126430
_publ_section_title
;
Structure prediction by ZEFSAII (Michael W. Deem and Ramdas Pophale) SiO2 
 PCOD9126430
Probable space group: C 2
;
_chemical_formula_sum "Si O2"
_cell_formula_units_Z 32
_cell_length_a 14.641622
_cell_length_b 21.650927
_cell_length_c 8.898727
_cell_angle_alpha 90.000000
_cell_angle_beta 31.271691
_cell_angle_gamma 90.000000
_cell_volume 1464.340191
_symmetry_space_group_name_H-M "C 2"
_symmetry_group_IT_number 5
_symmetry_cell_setting 'monoclinic'
loop_
_space_group_symop_operation_xyz
x,y,z
-x,y,-z
1/2+x,1/2+y,z
1/2-x,1/2+y,-z
loop_
_atom_site_type_symbol
_atom_site_label
_atom_site_fract_x
_atom_site_fract_y
_atom_site_fract_z
Si Si1 0.650478 0.429470 0.400731
Si Si2 0.037110 0.700218 0.121114
Si Si3 0.149493 0.596689 0.169644
Si Si4 0.488263 0.987847 0.842261
Si Si5 0.647087 0.682891 0.663628
Si Si6 0.307328 0.406410 0.334142
Si Si7 0.531548 0.570886 0.631868
Si Si8 0.662224 0.785427 0.385817
O O1 0.500000 0.408681 0.500000
O O2 0.668115 0.389922 0.525157
O O3 0.598095 0.500138 0.526729
O O4 0.839151 0.434683 0.055604
O O5 0.839157 0.698146 0.462876
O O6 0.156867 0.654831 0.049225
O O7 0.000000 0.680922 0.000000
O O8 0.153142 0.761627 0.945503
O O9 0.085570 0.541136 0.155556
O O10 0.000000 0.608457 0.500000
O O11 0.336002 0.577297 0.975045
O O12 0.673415 0.963689 0.523078
O O13 0.500000 0.007382 0.000000
O O14 0.645170 0.618173 0.571737
O O15 0.616395 0.736438 0.582512
O O16 0.500000 0.681652 0.000000
O O17 0.210916 0.351465 0.384657
O O18 0.500000 0.420093 0.000000
O O19 0.500000 0.589079 0.500000
O O20 0.500000 0.787582 0.500000
#
# Coordination Sequence:
#
# PCOD9126430 Si02
#       8
#     4   4   4   4   4   4   4   4
#     4  10  22  42  67  96 139 184 227 277 351 424
#     4  10  22  40  66  93 135 180 225 274 347 419
#     4  12  23  35  61 102 143 173 227 278 340 408
#     4  10  23  41  62  92 135 185 223 272 346 412
#     4  11  23  39  67 102 137 175 231 291 350 399
#     4  11  26  44  70  99 133 176 247 294 345 400
#     4  11  21  39  63  96 141 186 223 267 350 433
#     4  11  25  48  73  94 131 188 239 290 350 425
#
# _framework density 21.852844999999999
#
# number of rings (size 3 to 8) (size 9 to 14) (size 15 to 20)
#    0.000    1.250    2.500    4.875    5.250    3.500 
#    0.000    0.000    0.000    3.750    0.000    0.000 
#    0.000    0.000    0.000    0.000    0.000    0.000 
#
# Total GULP energy -89411.638671 kJ/mol
# GULP energy per Si atom -5588.227417 kJ/mol
# Density = 2.180311 g / cm^3
# Si number density = 21.852845 Si / 1000 Ang^3
#
#
#
# Elastic Constant Matrix: (Units=GPa)
#
#
# Indices 1 2 3 4 5 6 
#
# 1 87.3550 24.4813 19.6591 0.0000 -28.3045 0.0000
# 2 24.4813 49.8337 30.3138 0.0000 -5.7903 0.0000
# 3 19.6591 30.3138 84.3564 0.0001 -10.9647 -0.0003
# 4 0.0000 0.0000 0.0001 26.5139 0.0000 -13.9182
# 5 -28.3045 -5.7903 -10.9647 0.0000 30.1074 0.0001
# 6 0.0000 0.0000 -0.0003 -13.9182 0.0001 54.9063
#
#
#
# Elastic Compliance Matrix: (Units=1/GPa)
#
#
# Indices 1 2 3 4 5 6 
#
# 1 0.018775 -0.007620 0.000490 0.000000 0.016363 0.000000
# 2 -0.007620 0.028852 -0.009240 0.000000 -0.004980 0.000000
# 3 0.000490 -0.009240 0.015629 0.000000 0.004375 0.000000
# 4 0.000000 0.000000 0.000000 0.043505 0.000000 0.011028
# 5 0.016363 -0.004980 0.004375 0.000000 0.049234 0.000000
# 6 0.000000 0.000000 0.000000 0.011028 0.000000 0.021008
#
#
# Mechanical properties :
#
#
# Convention : Reuss Voigt Hill
#
# Bulk Modulus (GPa) = 32.76898 41.16150 36.96524
# Shear Modulus (GPa) = 22.73608 32.11160 27.42384
#
# Velocity S-wave (km/s) = 3.22905 3.83750 3.54635
# Velocity P-wave (km/s) = 5.37868 6.20579 5.80698
#
# Compressibility (1/GPa) = 0.03051667
#
# Stress axis : x y z
#
# Youngs Moduli (GPa) = 53.26273 34.65979 63.98235
#
# Poissons Ratio (x) = 0.26411 -0.03134
# Poissons Ratio (y) = 0.40586 0.59117
# Poissons Ratio (z) = -0.02609 0.32024
#
# Static dielectric constant tensor:
#      x y z
#    x 1.739350 0.000000 0.016620 
#    y 0.000000 1.785730 0.000000 
#    z 0.016620 0.000000 1.848940 
# 
# From -- ./inp_files/25564.got.cif
#   From: 2010.05.17/outbox.cif.g08.bks.cpg/sg5_13_cif.got.tgz:25564.got - 2010.06.03 18:56:24.
