data_PCOD9126234
_publ_section_title
;
Structure prediction by ZEFSAII (Michael W. Deem and Ramdas Pophale) SiO2 
 PCOD9126234
Probable space group: C 2
;
_chemical_formula_sum "Si O2"
_cell_formula_units_Z 18
_cell_length_a 12.994029
_cell_length_b 7.637000
_cell_length_c 6.710261
_cell_angle_alpha 90.000000
_cell_angle_beta 94.197036
_cell_angle_gamma 90.000000
_cell_volume 664.109676
_symmetry_space_group_name_H-M "C 2"
_symmetry_group_IT_number 5
_symmetry_cell_setting 'monoclinic'
loop_
_space_group_symop_operation_xyz
x,y,z
-x,y,-z
1/2+x,1/2+y,z
1/2-x,1/2+y,-z
loop_
_atom_site_type_symbol
_atom_site_label
_atom_site_fract_x
_atom_site_fract_y
_atom_site_fract_z
Si Si1 0.919840 0.353640 0.762511
Si Si2 0.687490 0.560085 0.002171
Si Si3 0.135703 0.442005 0.663367
Si Si4 0.634614 0.237577 0.159258
Si Si5 0.500000 0.260196 0.500000
O O1 0.878224 0.205496 0.897772
O O2 0.846515 0.367015 0.556547
O O3 0.917257 0.547065 0.858010
O O4 0.961224 0.325327 0.277175
O O5 0.771807 0.492745 0.178257
O O6 0.629500 0.374283 0.974254
O O7 0.747316 0.654479 0.829590
O O8 0.081442 0.628541 0.612646
O O9 0.575397 0.334977 0.335561
#
# Coordination Sequence:
#
# PCOD9126234 Si02
#       5
#     4   4   4   4   2
#     4   9  21  42  57  95 128 162 216 264 317 396
#     4  12  21  38  70  90 128 170 210 269 321 383
#     4   8  20  38  64  88 127 165 206 267 324 367
#     4  10  22  39  60  93 128 162 217 259 317 394
#     4   8  20  42  56  86 128 156 208 262 314 386
#
# _framework density 27.103956
#
# number of rings (size 3 to 8) (size 9 to 14) (size 15 to 20)
#    0.000    3.111    2.222    0.000    6.222    5.333 
#    0.000    4.444    9.778    0.000    0.000    0.000 
#    0.000    0.000    0.000    0.000    0.000    0.000 
#
# Total GULP energy -50120.483837 kJ/mol
# GULP energy per Si atom -5568.942649 kJ/mol
# Density = 2.704227 g / cm^3
# Si number density = 27.103956 Si / 1000 Ang^3
#
#
#
# Elastic Constant Matrix: (Units=GPa)
#
#
# Indices 1 2 3 4 5 6 
#
# 1 83.9084 5.5306 45.5878 0.0000 -15.9989 0.0000
# 2 5.5306 109.0115 36.8841 0.0000 -28.6968 0.0000
# 3 45.5878 36.8841 109.2247 0.0000 -7.5660 0.0000
# 4 0.0000 0.0000 0.0000 33.9036 0.0000 -23.3457
# 5 -15.9989 -28.6968 -7.5660 0.0000 79.0833 0.0000
# 6 0.0000 0.0000 0.0000 -23.3457 0.0000 35.3472
#
#
#
# Elastic Compliance Matrix: (Units=1/GPa)
#
#
# Indices 1 2 3 4 5 6 
#
# 1 0.016527 0.002659 -0.007548 0.000000 0.003586 0.000000
# 2 0.002659 0.011810 -0.004796 0.000000 0.004365 0.000000
# 3 -0.007548 -0.004796 0.013790 0.000000 -0.001948 0.000000
# 4 0.000000 0.000000 0.000000 0.054099 0.000000 0.035731
# 5 0.003586 0.004365 -0.001948 0.000000 0.014768 0.000000
# 6 0.000000 0.000000 0.000000 0.035731 0.000000 0.051890
#
#
# Mechanical properties :
#
#
# Convention : Reuss Voigt Hill
#
# Bulk Modulus (GPa) = 43.93826 53.12775 48.53301
# Shear Modulus (GPa) = 26.33825 43.94297 35.14061
#
# Velocity S-wave (km/s) = 3.12067 4.03087 3.60462
# Velocity P-wave (km/s) = 5.40657 6.42713 5.93881
#
# Compressibility (1/GPa) = 0.02275921
#
# Stress axis : x y z
#
# Youngs Moduli (GPa) = 60.50741 84.67366 72.51547
#
# Poissons Ratio (x) = -0.22518 0.54731
# Poissons Ratio (y) = -0.16091 0.34777
# Poissons Ratio (z) = 0.45668 0.40607
#
# Static dielectric constant tensor:
#      x y z
#    x 2.379980 0.000000 -0.054310 
#    y 0.000000 2.174620 0.000000 
#    z -0.054310 0.000000 2.253580 
# 
# From -- ./inp_files/7916.got.cif
#   From: 2010.05.17/outbox.cif.g08.bks.cpg/sg5_4_cif.got.tgz:7916.got - 2010.06.03 18:56:24.
