data_PCOD9126933
_publ_section_title
;
Structure prediction by ZEFSAII (Michael W. Deem and Ramdas Pophale) SiO2 
 PCOD9126933
Probable space group: C 2
;
_chemical_formula_sum "Si O2"
_cell_formula_units_Z 28
_cell_length_a 9.813798
_cell_length_b 14.644430
_cell_length_c 9.520511
_cell_angle_alpha 90.000000
_cell_angle_beta 120.192567
_cell_angle_gamma 90.000000
_cell_volume 1182.645228
_symmetry_space_group_name_H-M "C 2"
_symmetry_group_IT_number 5
_symmetry_cell_setting 'monoclinic'
loop_
_space_group_symop_operation_xyz
x,y,z
-x,y,-z
1/2+x,1/2+y,z
1/2-x,1/2+y,-z
loop_
_atom_site_type_symbol
_atom_site_label
_atom_site_fract_x
_atom_site_fract_y
_atom_site_fract_z
Si Si1 0.177789 0.340430 0.135562
Si Si2 0.175210 0.160149 0.625700
Si Si3 0.926170 0.776571 0.822833
Si Si4 0.236056 0.061438 0.385420
Si Si5 0.336091 0.387569 0.498508
Si Si6 0.633589 0.517785 0.838121
Si Si7 0.185174 0.644939 0.855269
O O1 0.224031 0.342667 0.324244
O O2 0.297138 0.415280 0.129304
O O3 0.212105 0.237007 0.108037
O O4 0.000000 0.365140 0.000000
O O5 0.254641 0.235848 0.763664
O O6 0.245449 0.139071 0.509233
O O7 0.175386 0.066094 0.711948
O O8 0.000000 0.188686 0.500000
O O9 0.899964 0.829503 0.663884
O O10 0.027782 0.685816 0.841877
O O11 0.000000 0.821813 0.000000
O O12 0.334241 0.095235 0.304228
O O13 0.053217 0.039615 0.242468
O O14 0.266001 0.967693 0.482903
O O15 0.500000 0.413304 0.500000
O O16 0.727455 0.573006 0.002984
#
# Coordination Sequence:
#
# PCOD9126933 Si02
#       7
#     4   4   4   4   4   4   4
#     4  12  26  46  73 109 153 193 250 307 371 442
#     4  10  22  42  71 101 143 195 241 296 370 440
#     4  12  26  45  75 108 152 189 253 311 374 444
#     4  11  22  42  71 101 143 192 249 294 365 447
#     4  12  23  48  74 108 143 205 248 304 373 452
#     4  11  22  43  72 102 147 195 245 300 371 443
#     4  12  26  43  73 112 148 192 250 308 377 437
#
# _framework density 23.675739
#
# number of rings (size 3 to 8) (size 9 to 14) (size 15 to 20)
#    0.000    0.571    5.714    2.571    2.000    3.429 
#    0.000    0.000    3.143    0.000    0.000    0.000 
#    0.000    0.000    0.000    0.000    0.000    0.000 
#
# Total GULP energy -78216.370087 kJ/mol
# GULP energy per Si atom -5586.883578 kJ/mol
# Density = 2.362185 g / cm^3
# Si number density = 23.675739 Si / 1000 Ang^3
#
#
#
# Elastic Constant Matrix: (Units=GPa)
#
#
# Indices 1 2 3 4 5 6 
#
# 1 39.1894 9.1383 38.0013 0.0000 -7.4807 0.0000
# 2 9.1383 96.3954 43.1418 0.0000 -1.6605 0.0000
# 3 38.0013 43.1418 180.6449 0.0000 3.5404 0.0000
# 4 0.0000 0.0000 0.0000 40.2992 0.0000 -10.3613
# 5 -7.4807 -1.6605 3.5404 0.0000 38.3030 0.0000
# 6 0.0000 0.0000 0.0000 -10.3613 0.0000 27.3919
#
#
#
# Elastic Compliance Matrix: (Units=1/GPa)
#
#
# Indices 1 2 3 4 5 6 
#
# 1 0.033987 0.000188 -0.007338 0.000000 0.007324 0.000000
# 2 0.000188 0.011639 -0.002835 0.000000 0.000803 0.000000
# 3 -0.007338 -0.002835 0.007801 0.000000 -0.002277 0.000000
# 4 0.000000 0.000000 0.000000 0.027488 0.000000 0.010398
# 5 0.007324 0.000803 -0.002277 0.000000 0.027783 0.000000
# 6 0.000000 0.000000 0.000000 0.010398 0.000000 0.040440
#
#
# Mechanical properties :
#
#
# Convention : Reuss Voigt Hill
#
# Bulk Modulus (GPa) = 29.88883 55.19917 42.54400
# Shear Modulus (GPa) = 27.73774 36.26205 31.99989
#
# Velocity S-wave (km/s) = 3.42653 3.91783 3.68039
# Velocity P-wave (km/s) = 5.32038 6.62051 6.00573
#
# Compressibility (1/GPa) = 0.03345732
#
# Stress axis : x y z
#
# Youngs Moduli (GPa) = 29.42301 85.92025 128.18704
#
# Poissons Ratio (x) = -0.01619 0.94066
# Poissons Ratio (y) = -0.00554 0.36340
# Poissons Ratio (z) = 0.21591 0.24358
#
# Static dielectric constant tensor:
#      x y z
#    x 1.971640 0.000000 0.000980 
#    y 0.000000 1.922540 0.000000 
#    z 0.000980 0.000000 1.908400 
# 
# From -- ./inp_files/20712.got.cif
#   From: 2010.05.17/outbox.cif.g08.bks.cpg/sg5_11_cif.got.tgz:20712.got - 2010.06.03 18:56:24.
