data_PCOD9126549
_publ_section_title
;
Structure prediction by ZEFSAII (Michael W. Deem and Ramdas Pophale) SiO2 
 PCOD9126549
Probable space group: C 2
;
_chemical_formula_sum "Si O2"
_cell_formula_units_Z 24
_cell_length_a 12.950145
_cell_length_b 5.452110
_cell_length_c 15.180423
_cell_angle_alpha 90.000000
_cell_angle_beta 71.878130
_cell_angle_gamma 90.000000
_cell_volume 1018.657543
_symmetry_space_group_name_H-M "C 2"
_symmetry_group_IT_number 5
_symmetry_cell_setting 'monoclinic'
loop_
_space_group_symop_operation_xyz
x,y,z
-x,y,-z
1/2+x,1/2+y,z
1/2-x,1/2+y,-z
loop_
_atom_site_type_symbol
_atom_site_label
_atom_site_fract_x
_atom_site_fract_y
_atom_site_fract_z
Si Si1 0.583985 0.410780 0.537457
Si Si2 0.833487 0.875663 0.202468
Si Si3 0.143131 0.290505 0.125416
Si Si4 0.443649 0.274685 0.921753
Si Si5 0.244005 0.639024 0.604801
Si Si6 0.433756 0.743824 0.289651
O O1 0.500000 0.260035 0.500000
O O2 0.631186 0.594998 0.451666
O O3 0.692099 0.267186 0.534022
O O4 0.550919 0.533703 0.638759
O O5 0.761317 0.828288 0.136470
O O6 0.949132 0.739151 0.167819
O O7 0.764059 0.798463 0.305165
O O8 0.874886 0.146888 0.215534
O O9 0.121143 0.519459 0.065983
O O10 0.053405 0.320506 0.227245
O O11 0.121470 0.017678 0.092391
O O12 0.500000 0.325441 0.000000
O O13 0.154669 0.428346 0.647902
#
# Coordination Sequence:
#
# PCOD9126549 Si02
#       6
#     4   4   4   4   4   4
#     4  11  23  37  58  86 123 169 211 262 319 364
#     4  10  24  41  66  90 127 169 210 263 317 381
#     4  11  24  43  70  95 128 175 208 254 328 379
#     4  11  25  44  67 101 132 160 211 265 313 388
#     4  11  21  40  58  88 125 160 216 266 308 372
#     4  10  22  41  60  90 127 163 217 264 309 376
#
# _framework density 23.560417999999999
#
# number of rings (size 3 to 8) (size 9 to 14) (size 15 to 20)
#    0.000    1.333    3.333    1.500    2.333    3.333 
#    0.000    0.000    0.000    0.000    0.000    0.000 
#    0.000    0.000    0.000    0.000    0.000    0.000 
#
# Total GULP energy -66903.116672 kJ/mol
# GULP energy per Si atom -5575.259723 kJ/mol
# Density = 2.350679 g / cm^3
# Si number density = 23.560418 Si / 1000 Ang^3
#
#
#
# Elastic Constant Matrix: (Units=GPa)
#
#
# Indices 1 2 3 4 5 6 
#
# 1 93.0023 29.3266 26.7537 0.0001 25.2319 0.0000
# 2 29.3266 73.5997 4.2251 0.0002 17.3266 0.0002
# 3 26.7537 4.2251 54.4914 -0.0001 7.4599 0.0001
# 4 0.0001 0.0002 -0.0001 21.3585 0.0000 0.4526
# 5 25.2319 17.3266 7.4599 0.0000 50.5134 0.0001
# 6 0.0000 0.0002 0.0001 0.4526 0.0001 7.2012
#
#
#
# Elastic Compliance Matrix: (Units=1/GPa)
#
#
# Indices 1 2 3 4 5 6 
#
# 1 0.015485 -0.004570 -0.006536 0.000000 -0.005202 0.000000
# 2 -0.004570 0.016141 0.001467 0.000000 -0.003470 0.000000
# 3 -0.006536 0.001467 0.021504 0.000000 -0.000414 0.000000
# 4 0.000000 0.000000 0.000000 0.046882 0.000000 -0.002946
# 5 -0.005202 -0.003470 -0.000414 0.000000 0.023647 0.000000
# 6 0.000000 0.000000 0.000000 -0.002946 0.000000 0.139052
#
#
# Mechanical properties :
#
#
# Convention : Reuss Voigt Hill
#
# Bulk Modulus (GPa) = 29.54098 37.96714 33.75406
# Shear Modulus (GPa) = 17.04901 26.53381 21.79141
#
# Velocity S-wave (km/s) = 2.69295 3.35954 3.04454
# Velocity P-wave (km/s) = 4.71540 5.58555 5.16882
#
# Compressibility (1/GPa) = 0.03385128
#
# Stress axis : x y z
#
# Youngs Moduli (GPa) = 64.57776 61.95464 46.50395
#
# Poissons Ratio (x) = 0.28316 0.30396
# Poissons Ratio (y) = 0.29515 -0.06824
# Poissons Ratio (z) = 0.42210 -0.09092
#
# Static dielectric constant tensor:
#      x y z
#    x 1.865890 0.000000 -0.055090 
#    y 0.000000 2.054440 0.000000 
#    z -0.055090 0.000000 1.939890 
# 
# From -- ./inp_files/53675.got.cif
#   From: 2010.05.17/outbox.cif.g08.bks.cpg/sg5_27_cif.got.tgz:53675.got - 2010.06.03 18:56:24.
