data_PCOD9126437
_publ_section_title
;
Structure prediction by ZEFSAII (Michael W. Deem and Ramdas Pophale) SiO2 
 PCOD9126437
Probable space group: C 2
;
_chemical_formula_sum "Si O2"
_cell_formula_units_Z 16
_cell_length_a 7.788488
_cell_length_b 20.257812
_cell_length_c 5.374849
_cell_angle_alpha 90.000000
_cell_angle_beta 120.877429
_cell_angle_gamma 90.000000
_cell_volume 727.837530
_symmetry_space_group_name_H-M "C 2"
_symmetry_group_IT_number 5
_symmetry_cell_setting 'monoclinic'
loop_
_space_group_symop_operation_xyz
x,y,z
-x,y,-z
1/2+x,1/2+y,z
1/2-x,1/2+y,-z
loop_
_atom_site_type_symbol
_atom_site_label
_atom_site_fract_x
_atom_site_fract_y
_atom_site_fract_z
Si Si1 0.258488 0.836670 0.332456
Si Si2 0.500000 0.134821 0.500000
Si Si3 0.086319 0.508181 0.818361
Si Si4 0.262212 0.756563 0.829165
Si Si5 0.000000 0.957605 0.000000
O O1 0.500000 0.842768 0.500000
O O2 0.206844 0.797830 0.543521
O O3 0.207571 0.794619 0.043800
O O4 0.136191 0.905138 0.251442
O O5 0.489632 0.081578 0.717390
O O6 0.671546 0.184405 0.715099
O O7 0.327205 0.502419 0.997398
O O8 0.000000 0.478378 0.500000
O O9 0.000000 0.475065 0.000000
O O10 0.500000 0.750544 0.000000
#
# Coordination Sequence:
#
# PCOD9126437 Si02
#       5
#     4   2   4   4   2
#     4  10  23  40  66 100 127 166 219 271 326 393
#     4  10  24  42  66  92 136 168 222 264 326 392
#     4  10  27  44  63 100 133 174 225 266 314 396
#     4  10  22  40  66  96 128 167 212 275 330 381
#     4  12  24  46  72  92 138 180 214 270 340 374
#
# _framework density 21.982927
#
# number of rings (size 3 to 8) (size 9 to 14) (size 15 to 20)
#    0.750    1.000    0.000    2.250    5.250    8.000 
#    0.000    0.000    0.000    0.000    0.000    0.000 
#    0.000    0.000    0.000    0.000    0.000    0.000 
#
# Total GULP energy -44537.914244 kJ/mol
# GULP energy per Si atom -5567.239280 kJ/mol
# Density = 2.193289 g / cm^3
# Si number density = 21.982927 Si / 1000 Ang^3
#
#
#
# Elastic Constant Matrix: (Units=GPa)
#
#
# Indices 1 2 3 4 5 6 
#
# 1 130.9263 5.1155 62.5553 0.0000 1.8022 0.0000
# 2 5.1155 87.8867 39.8576 0.0000 -3.6424 0.0000
# 3 62.5553 39.8576 152.0165 0.0000 -14.4589 0.0000
# 4 0.0000 0.0000 0.0000-1271.0161 0.0000 -389.2360
# 5 1.8022 -3.6424 -14.4589 0.0000 41.9315 0.0000
# 6 0.0000 0.0000 0.0000 -389.2360 0.0000 -99.8498
#
#
#
# Elastic Compliance Matrix: (Units=1/GPa)
#
#
# Indices 1 2 3 4 5 6 
#
# 1 0.009799 0.001432 -0.004586 0.000000 -0.001878 0.000000
# 2 0.001432 0.013123 -0.004061 0.000000 -0.000322 0.000000
# 3 -0.004586 -0.004061 0.009838 0.000000 0.003237 0.000000
# 4 0.000000 0.000000 0.000000 0.004060 0.000000 -0.015826
# 5 -0.001878 -0.000322 0.003237 0.000000 0.025017 0.000000
# 6 0.000000 0.000000 0.000000 -0.015826 0.000000 0.051680
#
#
# Mechanical properties :
#
#
# Convention : Reuss Voigt Hill
#
# Bulk Modulus (GPa) = 54.55565 65.09848 59.82706
# Shear Modulus (GPa) = 37.29728 -248.23346 -105.46809
#
# Velocity S-wave (km/s) = 4.12351 -10.63796 -6.93408
# Velocity P-wave (km/s) = 6.89509 11.00957 6.06912
#
# Compressibility (1/GPa) = 0.01832991
#
# Stress axis : x y z
#
# Youngs Moduli (GPa) = 102.04961 76.20137 101.64574
#
# Poissons Ratio (x) = -0.10910 0.46619
# Poissons Ratio (y) = -0.14611 0.41274
# Poissons Ratio (z) = 0.46804 0.30942
#
# Static dielectric constant tensor:
#      x y z
#    x 1.891780 0.000000 -0.115830 
#    y 0.000000 1.845060 0.000000 
#    z -0.115830 0.000000 2.747980 
# 
# From -- ./inp_files/2745.got.cif
#   From: 2010.05.17/outbox.cif.g08.bks.cpg/sg5_2_cif.got.tgz:2745.got - 2010.06.03 18:56:24.
