data_PCOD9126375
_publ_section_title
;
Structure prediction by ZEFSAII (Michael W. Deem and Ramdas Pophale) SiO2 
 PCOD9126375
Probable space group: C 2
;
_chemical_formula_sum "Si O2"
_cell_formula_units_Z 28
_cell_length_a 10.047842
_cell_length_b 7.974978
_cell_length_c 25.367138
_cell_angle_alpha 90.000000
_cell_angle_beta 143.235886
_cell_angle_gamma 90.000000
_cell_volume 1216.616919
_symmetry_space_group_name_H-M "C 2"
_symmetry_group_IT_number 5
_symmetry_cell_setting 'monoclinic'
loop_
_space_group_symop_operation_xyz
x,y,z
-x,y,-z
1/2+x,1/2+y,z
1/2-x,1/2+y,-z
loop_
_atom_site_type_symbol
_atom_site_label
_atom_site_fract_x
_atom_site_fract_y
_atom_site_fract_z
Si Si1 0.467416 0.566330 0.319010
Si Si2 0.035691 0.454277 0.679250
Si Si3 0.297666 0.741928 0.010043
Si Si4 0.121036 0.557154 0.121863
Si Si5 0.104279 0.062425 0.587137
Si Si6 0.558495 0.464467 0.867808
Si Si7 0.406254 0.953960 0.416420
O O1 0.539240 0.760566 0.343879
O O2 0.233476 0.570048 0.214671
O O3 0.461068 0.493691 0.376223
O O4 0.642577 0.468760 0.338945
O O5 0.297370 0.450405 0.774929
O O6 0.011865 0.527587 0.612602
O O7 0.870411 0.549469 0.665429
O O8 0.415214 0.576729 0.070672
O O9 0.465608 0.892233 0.076263
O O10 0.212001 0.796937 0.924425
O O11 0.044484 0.705263 0.949464
O O12 0.317685 0.551084 0.141713
O O13 0.036245 0.257498 0.566816
O O14 0.000000 0.989342 0.500000
O O15 0.500000 0.029858 0.500000
#
# Coordination Sequence:
#
# PCOD9126375 Si02
#       7
#     4   4   4   4   4   4   4
#     4  11  23  40  65  96 130 165 215 263 315 385
#     4  11  23  40  65  95 132 166 211 268 314 381
#     4  10  22  40  63  87 122 163 200 262 316 363
#     4  11  23  44  63  93 129 163 214 263 315 381
#     4  10  24  43  63  97 131 165 217 265 315 382
#     4  11  23  43  62  93 129 164 213 262 316 380
#     4  10  22  42  67  91 125 172 210 259 329 382
#
# _framework density 23.014637
#
# number of rings (size 3 to 8) (size 9 to 14) (size 15 to 20)
#    0.000    1.429    2.857    2.571    2.000    2.857 
#    5.143    5.714    0.000    0.000    0.000    0.000 
#    0.000    0.000    0.000    0.000    0.000    0.000 
#
# Total GULP energy -77946.535611 kJ/mol
# GULP energy per Si atom -5567.609686 kJ/mol
# Density = 2.296226 g / cm^3
# Si number density = 23.014637 Si / 1000 Ang^3
#
#
#
# Elastic Constant Matrix: (Units=GPa)
#
#
# Indices 1 2 3 4 5 6 
#
# 1 60.4289 1.7349 -7.4946 0.0000 0.0913 0.0000
# 2 1.7349 43.3242 7.0106 0.0000 2.7042 0.0000
# 3 -7.4946 7.0106 84.7351 0.0000 0.4371 0.0000
# 4 0.0000 0.0000 0.0000 24.1796 0.0000 10.1147
# 5 0.0913 2.7042 0.4371 0.0000 33.0546 0.0000
# 6 0.0000 0.0000 0.0000 10.1147 0.0000 16.0833
#
#
#
# Elastic Compliance Matrix: (Units=1/GPa)
#
#
# Indices 1 2 3 4 5 6 
#
# 1 0.016768 -0.000924 0.001560 0.000000 0.000009 0.000000
# 2 -0.000924 0.023564 -0.002022 0.000000 -0.001899 0.000000
# 3 0.001560 -0.002022 0.012107 0.000000 0.000001 0.000000
# 4 0.000000 0.000000 0.000000 0.056121 0.000000 -0.035294
# 5 0.000009 -0.001899 0.000001 0.000000 0.030408 0.000000
# 6 0.000000 0.000000 0.000000 -0.035294 0.000000 0.084372
#
#
# Mechanical properties :
#
#
# Convention : Reuss Voigt Hill
#
# Bulk Modulus (GPa) = 20.13423 21.22109 20.67766
# Shear Modulus (GPa) = 20.60414 27.14599 23.87507
#
# Velocity S-wave (km/s) = 2.99534 3.43813 3.22434
# Velocity P-wave (km/s) = 4.55304 5.00017 4.78183
#
# Compressibility (1/GPa) = 0.04966666
#
# Stress axis : x y z
#
# Youngs Moduli (GPa) = 59.63623 42.43680 82.59904
#
# Poissons Ratio (x) = 0.03923 -0.12882
# Poissons Ratio (y) = 0.05513 0.16698
# Poissons Ratio (z) = -0.09301 0.08579
#
# Static dielectric constant tensor:
#      x y z
#    x 1.885510 0.000000 -0.027380 
#    y 0.000000 1.927820 0.000000 
#    z -0.027380 0.000000 1.912410 
# 
# From -- ./inp_files/70168.got.cif
#   From: 2010.05.17/outbox.cif.g08.bks.cpg/sg5_36_cif.got.tgz:70168.got - 2010.06.03 18:56:24.
