data_PCOD9126095
_publ_section_title
;
Structure prediction by ZEFSAII (Michael W. Deem and Ramdas Pophale) SiO2 
 PCOD9126095
Probable space group: C 2
;
_chemical_formula_sum "Si O2"
_cell_formula_units_Z 26
_cell_length_a 24.538442
_cell_length_b 5.305932
_cell_length_c 22.395782
_cell_angle_alpha 90.000000
_cell_angle_beta 158.825179
_cell_angle_gamma 90.000000
_cell_volume 1053.271798
_symmetry_space_group_name_H-M "C 2"
_symmetry_group_IT_number 5
_symmetry_cell_setting 'monoclinic'
loop_
_space_group_symop_operation_xyz
x,y,z
-x,y,-z
1/2+x,1/2+y,z
1/2-x,1/2+y,-z
loop_
_atom_site_type_symbol
_atom_site_label
_atom_site_fract_x
_atom_site_fract_y
_atom_site_fract_z
Si Si1 0.500000 0.569640 0.000000
Si Si2 0.747872 0.053412 0.138206
Si Si3 0.726746 0.435157 0.709841
Si Si4 0.921551 0.714291 0.809926
Si Si5 0.134140 0.247647 0.456023
Si Si6 0.330906 0.811232 0.105488
Si Si7 0.477253 0.243909 0.594893
O O1 0.649694 0.732824 0.144064
O O2 0.521250 0.427556 0.085223
O O3 0.790108 0.113044 0.250027
O O4 0.844847 0.802954 0.223713
O O5 0.806701 0.254958 0.150941
O O6 0.568747 0.049340 0.946673
O O7 0.807975 0.574518 0.738444
O O8 0.584729 0.310517 0.533673
O O9 0.816544 0.772006 0.644988
O O10 0.011907 0.304609 0.278866
O O11 0.086587 0.473654 0.452710
O O12 0.090392 0.961770 0.430372
O O13 0.245503 0.572915 0.989653
#
# Coordination Sequence:
#
# PCOD9126095 Si02
#       7
#     2   4   4   4   4   4   4
#     4  12  18  34  64  90 150 188 218 262 344 436
#     4  11  22  41  65  97 131 182 236 284 354 423
#     4  11  21  38  56  98 144 183 217 279 345 446
#     4  11  22  39  62 102 141 178 222 284 354 449
#     4  10  22  43  66  93 133 180 221 292 365 410
#     4  11  25  48  69  93 129 180 247 316 358 402
#     4  10  22  38  61  98 137 180 224 271 343 441
#
# _framework density 24.684987
#
# number of rings (size 3 to 8) (size 9 to 14) (size 15 to 20)
#    0.000    1.231    4.615    2.308    0.000    3.692 
#    0.000    4.615    0.000    0.000    0.000    0.000 
#    0.000    0.000    0.000    0.000    0.000    0.000 
#
# Total GULP energy -72507.750729 kJ/mol
# GULP energy per Si atom -5577.519287 kJ/mol
# Density = 2.462880 g / cm^3
# Si number density = 24.684987 Si / 1000 Ang^3
#
#
#
# Elastic Constant Matrix: (Units=GPa)
#
#
# Indices 1 2 3 4 5 6 
#
# 1 23.7997 19.3515 13.5049 0.0001 5.5415 -0.0001
# 2 19.3515 82.1975 56.5245 0.0003 -1.1920 0.0004
# 3 13.5049 56.5245 190.1823 0.0001 -25.2020 0.0002
# 4 0.0001 0.0003 0.0001 20.3376 0.0000 -17.0329
# 5 5.5415 -1.1920 -25.2020 0.0000 18.6628 0.0002
# 6 -0.0001 0.0004 0.0002 -17.0329 0.0002 16.6401
#
#
#
# Elastic Compliance Matrix: (Units=1/GPa)
#
#
# Indices 1 2 3 4 5 6 
#
# 1 0.059119 -0.011600 -0.003867 0.000005 -0.023516 0.000006
# 2 -0.011600 0.018197 -0.004841 -0.000004 -0.001930 -0.000004
# 3 -0.003867 -0.004841 0.008626 0.000000 0.012488 -0.000001
# 4 0.000005 -0.000004 0.000000 0.344521 -0.000005 0.352654
# 5 -0.023516 -0.001930 0.012488 -0.000005 0.077305 -0.000006
# 6 0.000006 -0.000004 -0.000001 0.352654 -0.000006 0.421075
#
#
# Mechanical properties :
#
#
# Convention : Reuss Voigt Hill
#
# Bulk Modulus (GPa) = 22.06150 52.77126 37.41638
# Shear Modulus (GPa) = 5.07837 24.91467 14.99652
#
# Velocity S-wave (km/s) = 1.43588 3.18040 2.46746
# Velocity P-wave (km/s) = 3.42134 5.90854 4.82786
#
# Compressibility (1/GPa) = 0.04532783
#
# Stress axis : x y z
#
# Youngs Moduli (GPa) = 16.91508 54.95262 115.92694
#
# Poissons Ratio (x) = 0.63746 0.44824
# Poissons Ratio (y) = 0.19622 0.56115
# Poissons Ratio (z) = 0.06540 0.26600
#
# Static dielectric constant tensor:
#      x y z
#    x 2.042950 0.000000 -0.046380 
#    y 0.000000 1.938250 0.000000 
#    z -0.046380 0.000000 2.124530 
# 
# From -- ./inp_files/69887.got.cif
#   From: 2010.05.17/outbox.cif.g08.bks.cpg/sg5_35_cif.got.tgz:69887.got - 2010.06.03 18:56:24.
