data_PCOD9126702
_publ_section_title
;
Structure prediction by ZEFSAII (Michael W. Deem and Ramdas Pophale) SiO2 
 PCOD9126702
Probable space group: C 2
;
_chemical_formula_sum "Si O2"
_cell_formula_units_Z 26
_cell_length_a 11.853431
_cell_length_b 19.012544
_cell_length_c 9.558420
_cell_angle_alpha 90.000000
_cell_angle_beta 36.750666
_cell_angle_gamma 90.000000
_cell_volume 1288.884609
_symmetry_space_group_name_H-M "C 2"
_symmetry_group_IT_number 5
_symmetry_cell_setting 'monoclinic'
loop_
_space_group_symop_operation_xyz
x,y,z
-x,y,-z
1/2+x,1/2+y,z
1/2-x,1/2+y,-z
loop_
_atom_site_type_symbol
_atom_site_label
_atom_site_fract_x
_atom_site_fract_y
_atom_site_fract_z
Si Si1 0.629585 0.411800 0.733488
Si Si2 0.476147 0.266864 0.296929
Si Si3 0.000000 0.443257 0.500000
Si Si4 0.388441 0.130254 0.247359
Si Si5 0.683968 0.070934 0.161495
Si Si6 0.965407 0.037086 0.378119
Si Si7 0.219025 0.215188 0.808362
O O1 0.548654 0.345618 0.729509
O O2 0.620850 0.479375 0.640962
O O3 0.847291 0.400521 0.562558
O O4 0.500000 0.422157 0.000000
O O5 0.414106 0.213473 0.236938
O O6 0.336898 0.246833 0.562849
O O7 0.685182 0.248705 0.147782
O O8 0.130569 0.496699 0.281244
O O9 0.497165 0.099173 0.272560
O O10 0.177852 0.101794 0.459841
O O11 0.500000 0.105090 0.000000
O O12 0.749148 0.131074 0.205350
O O13 0.844675 0.062363 0.885589
O O14 0.000000 0.007865 0.500000
O O15 0.000000 0.228843 0.000000
#
# Coordination Sequence:
#
# PCOD9126702 Si02
#       7
#     4   4   2   4   4   4   4
#     4  12  27  45  67  96 140 184 226 280 340 407
#     4  10  24  43  63  98 136 175 227 275 336 405
#     4  12  24  42  68 100 132 184 226 280 338 408
#     4  11  21  41  64  94 134 174 220 281 337 394
#     4  11  22  40  67 100 131 168 232 281 339 399
#     4  12  25  41  69 101 137 177 225 284 340 399
#     4  10  22  41  71  97 127 176 223 285 338 399
#
# _framework density 20.172481000000001
#
# number of rings (size 3 to 8) (size 9 to 14) (size 15 to 20)
#    0.000    0.923    4.615    3.231    4.308    1.231 
#    1.385    0.769    0.000    0.000    0.000    0.000 
#    0.000    0.000    0.000    0.000    0.000    0.000 
#
# Total GULP energy -72638.153474 kJ/mol
# GULP energy per Si atom -5587.550267 kJ/mol
# Density = 2.012657 g / cm^3
# Si number density = 20.172481 Si / 1000 Ang^3
#
#
#
# Elastic Constant Matrix: (Units=GPa)
#
#
# Indices 1 2 3 4 5 6 
#
# 1 104.1049 25.8083 42.8790 -0.0001 -17.4891 0.0000
# 2 25.8083 57.5168 11.2658 0.0000 0.1729 0.0000
# 3 42.8790 11.2658 124.2479 0.0000 -1.1844 0.0000
# 4 -0.0001 0.0000 0.0000 8.6979 0.0001 8.3277
# 5 -17.4891 0.1729 -1.1844 0.0001 40.4853 0.0000
# 6 0.0000 0.0000 0.0000 8.3277 0.0000 32.7013
#
#
#
# Elastic Compliance Matrix: (Units=1/GPa)
#
#
# Indices 1 2 3 4 5 6 
#
# 1 0.013605 -0.005308 -0.004159 0.000000 0.005778 0.000000
# 2 -0.005308 0.019772 0.000016 0.000000 -0.002377 0.000000
# 3 -0.004159 0.000016 0.009468 0.000000 -0.001520 0.000000
# 4 0.000000 0.000000 0.000000 0.152041 0.000000 -0.038719
# 5 0.005778 -0.002377 -0.001520 0.000000 0.027162 0.000000
# 6 0.000000 0.000000 0.000000 -0.038719 0.000000 0.040440
#
#
# Mechanical properties :
#
#
# Convention : Reuss Voigt Hill
#
# Bulk Modulus (GPa) = 41.76365 49.53064 45.64715
# Shear Modulus (GPa) = 17.27892 30.10466 23.69179
#
# Velocity S-wave (km/s) = 2.92988 3.86730 3.43076
# Velocity P-wave (km/s) = 5.67396 6.67445 6.19443
#
# Compressibility (1/GPa) = 0.02394427
#
# Stress axis : x y z
#
# Youngs Moduli (GPa) = 73.50144 50.57730 105.62174
#
# Poissons Ratio (x) = 0.26844 0.43927
# Poissons Ratio (y) = 0.39011 -0.00172
# Poissons Ratio (z) = 0.30569 -0.00082
#
# Static dielectric constant tensor:
#      x y z
#    x 1.744220 0.000000 0.016260 
#    y 0.000000 1.714590 0.000000 
#    z 0.016260 0.000000 1.704770 
# 
# From -- ./inp_files/21892.got.cif
#   From: 2010.05.17/outbox.cif.g08.bks.cpg/sg5_11_cif.got.tgz:21892.got - 2010.06.03 18:56:24.
