data_PCOD9126470
_publ_section_title
;
Structure prediction by ZEFSAII (Michael W. Deem and Ramdas Pophale) SiO2 
 PCOD9126470
Probable space group: C 2
;
_chemical_formula_sum "Si O2"
_cell_formula_units_Z 28
_cell_length_a 10.593550
_cell_length_b 11.438727
_cell_length_c 11.947093
_cell_angle_alpha 90.000000
_cell_angle_beta 81.831810
_cell_angle_gamma 90.000000
_cell_volume 1433.022989
_symmetry_space_group_name_H-M "C 2"
_symmetry_group_IT_number 5
_symmetry_cell_setting 'monoclinic'
loop_
_space_group_symop_operation_xyz
x,y,z
-x,y,-z
1/2+x,1/2+y,z
1/2-x,1/2+y,-z
loop_
_atom_site_type_symbol
_atom_site_label
_atom_site_fract_x
_atom_site_fract_y
_atom_site_fract_z
Si Si1 0.684723 0.897620 0.844057
Si Si2 0.704639 0.261851 0.740048
Si Si3 0.993476 0.601374 0.870081
Si Si4 0.355441 0.412483 0.044255
Si Si5 0.650361 0.492374 0.610026
Si Si6 0.209981 0.128875 0.814920
Si Si7 0.651205 0.537646 0.352989
O O1 0.663980 0.760456 0.833455
O O2 0.555402 0.972473 0.857777
O O3 0.771232 0.947894 0.733370
O O4 0.767378 0.920355 0.946069
O O5 0.579833 0.183220 0.780160
O O6 0.716631 0.329717 0.856861
O O7 0.684820 0.362622 0.650089
O O8 0.812510 0.168547 0.692552
O O9 0.850482 0.614856 0.847879
O O10 0.000000 0.632615 0.000000
O O11 0.371904 0.536467 0.104212
O O12 0.500000 0.373768 0.000000
O O13 0.711755 0.584606 0.687605
O O14 0.687369 0.517794 0.477914
O O15 0.498307 0.511208 0.639118
#
# Coordination Sequence:
#
# PCOD9126470 Si02
#       7
#     4   4   4   4   4   4   4
#     4  11  23  38  64  92 127 168 209 261 320 391
#     4  10  22  40  68  90 126 169 208 269 318 382
#     4  11  21  40  60  94 130 166 205 261 329 380
#     4  11  22  39  62  92 125 166 211 260 327 386
#     4  10  23  43  64  93 123 165 220 264 318 379
#     4  11  23  38  61  93 127 164 213 260 314 385
#     4  10  23  43  66  91 123 169 215 262 324 374
#
# _framework density 19.539114000000001
#
# number of rings (size 3 to 8) (size 9 to 14) (size 15 to 20)
#    0.000    1.429    1.429    4.714    4.000    2.857 
#    0.000    2.143    0.000    0.000    0.000    0.000 
#    0.000    0.000    0.000    0.000    0.000    0.000 
#
# Total GULP energy -78204.727193 kJ/mol
# GULP energy per Si atom -5586.051942 kJ/mol
# Density = 1.949464 g / cm^3
# Si number density = 19.539114 Si / 1000 Ang^3
#
#
#
# Elastic Constant Matrix: (Units=GPa)
#
#
# Indices 1 2 3 4 5 6 
#
# 1 12.6501 5.0150 -5.5659 0.0000 -1.2605 0.0000
# 2 5.0150 162.9924 43.8756 0.0000 -7.7297 0.0000
# 3 -5.5659 43.8756 109.0173 0.0000 2.1983 0.0000
# 4 0.0000 0.0000 0.0000 43.6609 0.0000 11.3243
# 5 -1.2605 -7.7297 2.1983 0.0000 32.0522 0.0000
# 6 0.0000 0.0000 0.0000 11.3243 0.0000 32.0216
#
#
#
# Elastic Compliance Matrix: (Units=1/GPa)
#
#
# Indices 1 2 3 4 5 6 
#
# 1 0.083421 -0.004052 0.005851 0.000000 0.001902 0.000000
# 2 -0.004052 0.007189 -0.003136 0.000000 0.001789 0.000000
# 3 0.005851 -0.003136 0.010759 0.000000 -0.001264 0.000000
# 4 0.000000 0.000000 0.000000 0.025217 0.000000 -0.008918
# 5 0.001902 0.001789 -0.001264 0.000000 0.031792 0.000000
# 6 0.000000 0.000000 0.000000 -0.008918 0.000000 0.034383
#
#
# Mechanical properties :
#
#
# Convention : Reuss Voigt Hill
#
# Bulk Modulus (GPa) = 10.13207 41.25656 25.69432
# Shear Modulus (GPa) = 21.89784 37.63595 29.76690
#
# Velocity S-wave (km/s) = 3.35134 4.39359 3.90738
# Velocity P-wave (km/s) = 4.49134 6.84828 5.79099
#
# Compressibility (1/GPa) = 0.09869650
#
# Stress axis : x y z
#
# Youngs Moduli (GPa) = 11.98736 139.10078 92.94252
#
# Poissons Ratio (x) = 0.56359 -0.54385
# Poissons Ratio (y) = 0.04857 0.29149
# Poissons Ratio (z) = -0.07014 0.43626
#
# Static dielectric constant tensor:
#      x y z
#    x 1.646640 0.000000 -0.001190 
#    y 0.000000 1.708960 0.000000 
#    z -0.001190 0.000000 1.671700 
# 
# From -- ./inp_files/38804.got.cif
#   From: 2010.05.17/outbox.cif.g08.bks.cpg/sg5_20_cif.got.tgz:38804.got - 2010.06.03 18:56:24.
