data_PCOD9126316
_publ_section_title
;
Structure prediction by ZEFSAII (Michael W. Deem and Ramdas Pophale) SiO2 
 PCOD9126316
Probable space group: C 2
;
_chemical_formula_sum "Si O2"
_cell_formula_units_Z 20
_cell_length_a 13.383776
_cell_length_b 6.377997
_cell_length_c 20.295035
_cell_angle_alpha 90.000000
_cell_angle_beta 153.711804
_cell_angle_gamma 90.000000
_cell_volume 767.264679
_symmetry_space_group_name_H-M "C 2"
_symmetry_group_IT_number 5
_symmetry_cell_setting 'monoclinic'
loop_
_space_group_symop_operation_xyz
x,y,z
-x,y,-z
1/2+x,1/2+y,z
1/2-x,1/2+y,-z
loop_
_atom_site_type_symbol
_atom_site_label
_atom_site_fract_x
_atom_site_fract_y
_atom_site_fract_z
Si Si1 0.665903 0.350520 0.818896
Si Si2 0.000801 0.598713 0.604016
Si Si3 0.710272 0.447012 0.051127
Si Si4 0.380002 0.694159 0.723064
Si Si5 0.267729 0.236037 0.793404
O O1 0.505323 0.201210 0.679197
O O2 0.545649 0.504876 0.799404
O O3 0.763520 0.502131 0.819010
O O4 0.818991 0.193387 0.952649
O O5 0.217579 0.667244 0.688952
O O6 0.046727 0.344470 0.629979
O O7 0.787845 0.689068 0.438977
O O8 0.728398 0.361248 0.135905
O O9 0.955347 0.390339 0.168112
O O10 0.501402 0.313171 0.899077
#
# Coordination Sequence:
#
# PCOD9126316 Si02
#       5
#     4   4   4   4   4
#     4  10  22  39  70  86 129 174 204 276 323 390
#     4  10  23  40  60  96 131 166 218 266 322 395
#     4   9  20  39  62  94 122 165 220 258 329 392
#     4  10  23  40  60  96 131 166 218 266 322 395
#     4   9  20  39  62  94 122 165 220 258 329 392
#
# _framework density 26.066623
#
# number of rings (size 3 to 8) (size 9 to 14) (size 15 to 20)
#    0.000    2.400    0.000    0.000    8.400   14.400 
#    7.200    4.000    0.000    0.000    0.000    0.000 
#    0.000    0.000    0.000    0.000    0.000    0.000 
#
# Total GULP energy -55730.078749 kJ/mol
# GULP energy per Si atom -5573.007875 kJ/mol
# Density = 2.600729 g / cm^3
# Si number density = 26.066623 Si / 1000 Ang^3
#
#
#
# Elastic Constant Matrix: (Units=GPa)
#
#
# Indices 1 2 3 4 5 6 
#
# 1 91.3744 28.3685 9.7411 -0.0006 11.1434 -0.0002
# 2 28.3685 164.8606 55.8472 0.0013 14.9379 0.0007
# 3 9.7411 55.8472 97.9736 0.0048 17.1562 0.0012
# 4 -0.0006 0.0013 0.0048 26.4898 0.0008 -0.5982
# 5 11.1434 14.9379 17.1562 0.0008 39.7264 -0.0001
# 6 -0.0002 0.0007 0.0012 -0.5982 -0.0001 37.0845
#
#
#
# Elastic Compliance Matrix: (Units=1/GPa)
#
#
# Indices 1 2 3 4 5 6 
#
# 1 0.011836 -0.001923 0.000404 0.000000 -0.002772 0.000000
# 2 -0.001923 0.007871 -0.004188 0.000000 -0.000612 0.000000
# 3 0.000404 -0.004188 0.013304 -0.000002 -0.004284 0.000000
# 4 0.000000 0.000000 -0.000002 0.037764 0.000000 0.000609
# 5 -0.002772 -0.000612 -0.004284 0.000000 0.028030 0.000000
# 6 0.000000 0.000000 0.000000 0.000609 0.000000 0.026975
#
#
# Mechanical properties :
#
#
# Convention : Reuss Voigt Hill
#
# Bulk Modulus (GPa) = 46.30039 60.23578 53.26809
# Shear Modulus (GPa) = 34.62797 38.01026 36.31911
#
# Velocity S-wave (km/s) = 3.64873 3.82278 3.73677
# Velocity P-wave (km/s) = 5.96254 6.53019 6.25281
#
# Compressibility (1/GPa) = 0.02159809
#
# Stress axis : x y z
#
# Youngs Moduli (GPa) = 84.48974 127.05258 75.16399
#
# Poissons Ratio (x) = 0.24426 -0.03040
# Poissons Ratio (y) = 0.16243 0.31481
# Poissons Ratio (z) = -0.03417 0.53213
#
# Static dielectric constant tensor:
#      x y z
#    x 2.070940 0.000000 0.038740 
#    y 0.000000 2.201570 0.000000 
#    z 0.038740 0.000000 2.186020 
# 
# From -- ./inp_files/12448.got.cif
#   From: 2010.05.17/outbox.cif.g08.bks.cpg/sg5_7_cif.got.tgz:12448.got - 2010.06.03 18:56:24.
