data_PCOD9126275
_publ_section_title
;
Structure prediction by ZEFSAII (Michael W. Deem and Ramdas Pophale) SiO2 
 PCOD9126275
Probable space group: C 2
;
_chemical_formula_sum "Si O2"
_cell_formula_units_Z 28
_cell_length_a 16.470711
_cell_length_b 7.868487
_cell_length_c 16.719205
_cell_angle_alpha 90.000000
_cell_angle_beta 143.902576
_cell_angle_gamma 90.000000
_cell_volume 1276.593054
_symmetry_space_group_name_H-M "C 2"
_symmetry_group_IT_number 5
_symmetry_cell_setting 'monoclinic'
loop_
_space_group_symop_operation_xyz
x,y,z
-x,y,-z
1/2+x,1/2+y,z
1/2-x,1/2+y,-z
loop_
_atom_site_type_symbol
_atom_site_label
_atom_site_fract_x
_atom_site_fract_y
_atom_site_fract_z
Si Si1 0.862307 0.967000 0.200052
Si Si2 0.205126 0.540696 0.542535
Si Si3 0.199792 0.611912 0.789370
Si Si4 0.550964 0.321902 0.205986
Si Si5 0.451162 0.752811 0.670199
Si Si6 0.401006 0.992551 0.116507
Si Si7 0.500000 0.495192 0.000000
Si Si8 0.000000 0.597473 0.500000
O O1 0.848415 0.808759 0.248595
O O2 0.956016 0.903176 0.200099
O O3 0.942915 0.133770 0.294011
O O4 0.712780 0.001982 0.043167
O O5 0.297920 0.398949 0.660905
O O6 0.312843 0.650100 0.578609
O O7 0.100606 0.429718 0.407188
O O8 0.116540 0.661957 0.530482
O O9 0.172906 0.544368 0.858096
O O10 0.106423 0.515859 0.649104
O O11 0.358892 0.600095 0.892745
O O12 0.523380 0.122970 0.194186
O O13 0.502201 0.381247 0.080846
O O14 0.535783 0.806628 0.817389
#
# Coordination Sequence:
#
# PCOD9126275 Si02
#       8
#     4   4   4   4   4   4   2   2
#     4  10  23  40  70  98 127 179 233 280 340 409
#     4  11  24  41  66  94 132 179 223 277 347 399
#     4  11  24  42  69  99 137 184 226 280 354 414
#     4  10  22  39  65 100 128 177 225 275 346 406
#     4  11  23  41  70  97 132 174 236 285 327 413
#     4  11  21  41  71  99 131 174 235 286 331 421
#     4  12  22  42  70  98 146 172 224 294 350 412
#     4  12  24  42  64  94 136 178 218 272 354 400
#
# _framework density 21.93338
#
# number of rings (size 3 to 8) (size 9 to 14) (size 15 to 20)
#    0.000    1.143    4.286    2.571    6.000    0.000 
#    0.000    2.857    0.000    0.000    0.000    0.000 
#    0.000    0.000    0.000    0.000    0.000    0.000 
#
# Total GULP energy -78040.809096 kJ/mol
# GULP energy per Si atom -5574.343507 kJ/mol
# Density = 2.188346 g / cm^3
# Si number density = 21.933380 Si / 1000 Ang^3
#
#
#
# Elastic Constant Matrix: (Units=GPa)
#
#
# Indices 1 2 3 4 5 6 
#
# 1 75.3893 30.6246 35.7782 0.0000 13.4737 0.0000
# 2 30.6246 90.8947 20.7395 0.0000 12.8856 0.0000
# 3 35.7782 20.7395 108.2741 0.0000 20.6786 0.0000
# 4 0.0000 0.0000 0.0000 30.9753 0.0000 3.5310
# 5 13.4737 12.8856 20.6786 0.0000 30.0774 0.0000
# 6 0.0000 0.0000 0.0000 3.5310 0.0000 14.6914
#
#
#
# Elastic Compliance Matrix: (Units=1/GPa)
#
#
# Indices 1 2 3 4 5 6 
#
# 1 0.017741 -0.004548 -0.004427 0.000000 -0.002955 0.000000
# 2 -0.004548 0.013089 -0.000371 0.000000 -0.003315 0.000000
# 3 -0.004427 -0.000371 0.011927 0.000000 -0.006058 0.000000
# 4 0.000000 0.000000 0.000000 0.033193 0.000000 -0.007978
# 5 -0.002955 -0.003315 -0.006058 0.000000 0.040156 0.000000
# 6 0.000000 0.000000 0.000000 -0.007978 0.000000 0.069984
#
#
# Mechanical properties :
#
#
# Convention : Reuss Voigt Hill
#
# Bulk Modulus (GPa) = 41.55564 49.87141 45.71352
# Shear Modulus (GPa) = 23.49578 27.64322 25.56950
#
# Velocity S-wave (km/s) = 3.27652 3.55396 3.41806
# Velocity P-wave (km/s) = 5.77075 6.29507 6.03860
#
# Compressibility (1/GPa) = 0.02406412
#
# Stress axis : x y z
#
# Youngs Moduli (GPa) = 56.36604 76.40128 83.84629
#
# Poissons Ratio (x) = 0.34750 0.37117
# Poissons Ratio (y) = 0.25638 0.03111
# Poissons Ratio (z) = 0.24952 0.02835
#
# Static dielectric constant tensor:
#      x y z
#    x 1.791500 0.000000 -0.035150 
#    y 0.000000 1.859390 0.000000 
#    z -0.035150 0.000000 1.885360 
# 
# From -- ./inp_files/26818.got.cif
#   From: 2010.05.17/outbox.cif.g08.bks.cpg/sg5_14_cif.got.tgz:26818.got - 2010.06.03 18:56:24.
