data_PCOD9126312
_publ_section_title
;
Structure prediction by ZEFSAII (Michael W. Deem and Ramdas Pophale) SiO2 
 PCOD9126312
Probable space group: C 2
;
_chemical_formula_sum "Si O2"
_cell_formula_units_Z 32
_cell_length_a 18.979232
_cell_length_b 14.381719
_cell_length_c 12.463067
_cell_angle_alpha 90.000000
_cell_angle_beta 152.436316
_cell_angle_gamma 90.000000
_cell_volume 1574.149574
_symmetry_space_group_name_H-M "C 2"
_symmetry_group_IT_number 5
_symmetry_cell_setting 'monoclinic'
loop_
_space_group_symop_operation_xyz
x,y,z
-x,y,-z
1/2+x,1/2+y,z
1/2-x,1/2+y,-z
loop_
_atom_site_type_symbol
_atom_site_label
_atom_site_fract_x
_atom_site_fract_y
_atom_site_fract_z
Si Si1 0.161058 0.233950 0.011241
Si Si2 0.908838 0.389261 0.683268
Si Si3 0.327149 0.016794 0.926288
Si Si4 0.163196 0.195692 0.763728
Si Si5 0.386506 0.387248 0.260546
Si Si6 0.429661 0.543909 0.022999
Si Si7 0.143170 0.944298 0.468406
Si Si8 0.343027 0.900468 0.342053
O O1 0.146201 0.201376 0.868272
O O2 0.027021 0.305426 0.861681
O O3 0.316445 0.293760 0.215576
O O4 0.145888 0.144656 0.064367
O O5 0.756836 0.386110 0.547565
O O6 0.871374 0.389455 0.507023
O O7 0.999587 0.482965 0.839308
O O8 0.290765 0.123698 0.898239
O O9 0.252567 0.959492 0.926815
O O10 0.243951 0.982814 0.704287
O O11 0.187750 0.299611 0.752318
O O12 0.000000 0.162090 0.500000
O O13 0.500000 0.430799 0.500000
O O14 0.498828 0.382319 0.312485
O O15 0.297153 0.468977 0.862330
O O16 0.500000 0.533016 0.000000
O O17 0.563064 0.525425 0.290425
O O18 0.500000 0.934919 0.500000
#
# Coordination Sequence:
#
# PCOD9126312 Si02
#       8
#     4   4   4   4   4   4   4   4
#     4  11  23  40  67  95 127 174 224 265 321 400
#     4  11  23  44  67 100 133 172 217 274 340 390
#     4  10  22  39  69  99 126 170 225 275 324 387
#     4  11  20  38  67  97 122 167 228 271 319 381
#     4   9  20  39  64  95 122 167 220 269 321 380
#     4  12  26  43  64  98 139 179 213 273 344 395
#     4  11  22  42  68  93 136 170 218 274 337 389
#     4  11  24  44  68  95 134 177 224 270 330 400
#
# _framework density 20.328436
#
# number of rings (size 3 to 8) (size 9 to 14) (size 15 to 20)
#    0.000    1.250    3.750    3.750    3.500    3.500 
#    0.000    3.750    0.000    0.000    0.000    0.000 
#    0.000    0.000    0.000    0.000    0.000    0.000 
#
# Total GULP energy -89304.524108 kJ/mol
# GULP energy per Si atom -5581.532757 kJ/mol
# Density = 2.028217 g / cm^3
# Si number density = 20.328436 Si / 1000 Ang^3
#
#
#
# Elastic Constant Matrix: (Units=GPa)
#
#
# Indices 1 2 3 4 5 6 
#
# 1 145.3215 33.9724 29.9441 0.0000 28.6577 0.0000
# 2 33.9724 86.2277 15.9695 0.0000 18.9688 0.0000
# 3 29.9441 15.9695 41.8898 0.0000 16.7027 0.0000
# 4 0.0000 0.0000 0.0000 14.8955 0.0000 7.7280
# 5 28.6577 18.9688 16.7027 0.0000 28.1887 0.0000
# 6 0.0000 0.0000 0.0000 7.7280 0.0000 20.9501
#
#
#
# Elastic Compliance Matrix: (Units=1/GPa)
#
#
# Indices 1 2 3 4 5 6 
#
# 1 0.009200 -0.001615 -0.003489 0.000000 -0.006199 0.000000
# 2 -0.001615 0.014027 -0.001419 0.000000 -0.006956 0.000000
# 3 -0.003489 -0.001419 0.032881 0.000000 -0.014980 0.000000
# 4 0.000000 0.000000 0.000000 0.083023 0.000000 -0.030625
# 5 -0.006199 -0.006956 -0.014980 0.000000 0.055335 0.000000
# 6 0.000000 0.000000 0.000000 -0.030625 0.000000 0.059029
#
#
# Mechanical properties :
#
#
# Convention : Reuss Voigt Hill
#
# Bulk Modulus (GPa) = 23.22307 48.13455 35.67881
# Shear Modulus (GPa) = 17.80024 25.71038 21.75531
#
# Velocity S-wave (km/s) = 2.96232 3.56019 3.27493
# Velocity P-wave (km/s) = 4.81136 6.37415 5.64708
#
# Compressibility (1/GPa) = 0.04306062
#
# Stress axis : x y z
#
# Youngs Moduli (GPa) = 108.69261 71.29354 30.41303
#
# Poissons Ratio (x) = 0.11513 0.10612
# Poissons Ratio (y) = 0.17552 0.04317
# Poissons Ratio (z) = 0.37925 0.10119
#
# Static dielectric constant tensor:
#      x y z
#    x 1.769060 0.000000 -0.000900 
#    y 0.000000 1.720300 0.000000 
#    z -0.000900 0.000000 1.767160 
# 
# From -- ./inp_files/31063.got.cif
#   From: 2010.05.17/outbox.cif.g08.bks.cpg/sg5_16_cif.got.tgz:31063.got - 2010.06.03 18:56:24.
