data_PCOD9127685
_publ_section_title
;
Structure prediction by ZEFSAII (Michael W. Deem and Ramdas Pophale) SiO2 
 PCOD9127685
Probable space group: C 2
;
_chemical_formula_sum "Si O2"
_cell_formula_units_Z 24
_cell_length_a 12.918754
_cell_length_b 5.044174
_cell_length_c 14.323580
_cell_angle_alpha 90.000000
_cell_angle_beta 95.063989
_cell_angle_gamma 90.000000
_cell_volume 929.744856
_symmetry_space_group_name_H-M "C 2"
_symmetry_group_IT_number 5
_symmetry_cell_setting 'monoclinic'
loop_
_space_group_symop_operation_xyz
x,y,z
-x,y,-z
1/2+x,1/2+y,z
1/2-x,1/2+y,-z
loop_
_atom_site_type_symbol
_atom_site_label
_atom_site_fract_x
_atom_site_fract_y
_atom_site_fract_z
Si Si1 0.589721 0.922290 0.078273
Si Si2 0.070785 0.307718 0.782352
Si Si3 0.818149 0.991239 0.511503
Si Si4 0.711725 0.406405 0.123279
Si Si5 0.450939 0.065189 0.406532
Si Si6 0.414845 0.404403 0.701565
O O1 0.526057 0.943185 0.170789
O O2 0.678992 0.701857 0.093359
O O3 0.644467 0.198030 0.058553
O O4 0.500000 0.841947 0.000000
O O5 0.168410 0.330479 0.858896
O O6 0.104174 0.422739 0.684272
O O7 0.020366 0.023278 0.754905
O O8 0.732366 0.763326 0.529730
O O9 0.890605 0.823271 0.444538
O O10 0.868724 0.079295 0.613845
O O11 0.667503 0.372262 0.224485
O O12 0.500000 0.916630 0.500000
O O13 0.552418 0.158759 0.358092
#
# Coordination Sequence:
#
# PCOD9127685 Si02
#       6
#     4   4   4   4   4   4
#     4  11  26  48  73 107 143 177 229 293 351 423
#     4  11  25  44  74 100 146 184 236 287 352 409
#     4  11  26  41  64  99 137 189 243 287 338 408
#     4  11  25  44  75 103 138 183 230 282 355 423
#     4  10  23  41  66  95 143 188 229 288 341 396
#     4  10  24  42  64  99 139 182 235 289 344 402
#
# _framework density 25.813531999999999
#
# number of rings (size 3 to 8) (size 9 to 14) (size 15 to 20)
#    0.000    1.333    1.667    1.500   11.667    2.000 
#    0.000    0.000    0.000    0.000    0.000    0.000 
#    0.000    0.000    0.000    0.000    0.000    0.000 
#
# Total GULP energy -67053.968030 kJ/mol
# GULP energy per Si atom -5587.830669 kJ/mol
# Density = 2.575478 g / cm^3
# Si number density = 25.813532 Si / 1000 Ang^3
#
#
#
# Elastic Constant Matrix: (Units=GPa)
#
#
# Indices 1 2 3 4 5 6 
#
# 1 112.4169 25.5011 27.5151 0.0000 8.9817 0.0000
# 2 25.5011 87.8615 -1.5772 0.0000 0.9154 0.0000
# 3 27.5151 -1.5772 92.9024 0.0000 -7.8305 0.0000
# 4 0.0000 0.0000 0.0000 26.8035 0.0000 11.2391
# 5 8.9817 0.9154 -7.8305 0.0000 52.7555 0.0000
# 6 0.0000 0.0000 0.0000 11.2391 0.0000 29.7741
#
#
#
# Elastic Compliance Matrix: (Units=1/GPa)
#
#
# Indices 1 2 3 4 5 6 
#
# 1 0.010611 -0.003117 -0.003386 0.000000 -0.002255 0.000000
# 2 -0.003117 0.012302 0.001173 0.000000 0.000491 0.000000
# 3 -0.003386 0.001173 0.011983 0.000000 0.002335 0.000000
# 4 0.000000 0.000000 0.000000 0.044324 0.000000 -0.016732
# 5 -0.002255 0.000491 0.002335 0.000000 0.019677 0.000000
# 6 0.000000 0.000000 0.000000 -0.016732 0.000000 0.039902
#
#
# Mechanical properties :
#
#
# Convention : Reuss Voigt Hill
#
# Bulk Modulus (GPa) = 41.25721 44.00653 42.63187
# Shear Modulus (GPa) = 31.73812 37.98275 34.86044
#
# Velocity S-wave (km/s) = 3.51025 3.84008 3.67886
# Velocity P-wave (km/s) = 5.69619 6.06189 5.88188
#
# Compressibility (1/GPa) = 0.02423819
#
# Stress axis : x y z
#
# Youngs Moduli (GPa) = 94.23780 81.28610 83.44819
#
# Poissons Ratio (x) = 0.25338 0.28254
# Poissons Ratio (y) = 0.29376 -0.09793
# Poissons Ratio (z) = 0.31907 -0.09539
#
# Static dielectric constant tensor:
#      x y z
#    x 2.100530 0.000000 0.040100 
#    y 0.000000 2.081470 0.000000 
#    z 0.040100 0.000000 2.113920 
# 
# From -- ./inp_files/53873.got.cif
#   From: 2010.05.17/outbox.cif.g08.bks.cpg/sg5_27_cif.got.tgz:53873.got - 2010.06.03 18:56:24.
