data_PCOD9127445
_publ_section_title
;
Structure prediction by ZEFSAII (Michael W. Deem and Ramdas Pophale) SiO2 
 PCOD9127445
Probable space group: C 2
;
_chemical_formula_sum "Si O2"
_cell_formula_units_Z 18
_cell_length_a 12.530125
_cell_length_b 8.724543
_cell_length_c 7.980682
_cell_angle_alpha 90.000000
_cell_angle_beta 130.469728
_cell_angle_gamma 90.000000
_cell_volume 663.711715
_symmetry_space_group_name_H-M "C 2"
_symmetry_group_IT_number 5
_symmetry_cell_setting 'monoclinic'
loop_
_space_group_symop_operation_xyz
x,y,z
-x,y,-z
1/2+x,1/2+y,z
1/2-x,1/2+y,-z
loop_
_atom_site_type_symbol
_atom_site_label
_atom_site_fract_x
_atom_site_fract_y
_atom_site_fract_z
Si Si1 0.859703 0.343690 0.603048
Si Si2 0.392868 0.167312 0.746042
Si Si3 0.000000 0.949293 0.000000
Si Si4 0.856181 0.151417 0.090785
Si Si5 0.346923 0.349590 0.285866
O O1 0.765329 0.234186 0.387849
O O2 0.881136 0.527401 0.603146
O O3 0.011148 0.264306 0.762787
O O4 0.232012 0.341265 0.318288
O O5 0.500000 0.103162 0.000000
O O6 0.458980 0.339411 0.805469
O O7 0.877580 0.055383 0.940657
O O8 0.853162 0.022887 0.228186
O O9 0.715449 0.244972 0.924912
O O10 0.500000 0.298515 0.500000
#
# Coordination Sequence:
#
# PCOD9127445 Si02
#       5
#     4   4   2   4   4
#     4  12  24  50  82 112 158 216 255 327 404 465
#     4  10  24  41  78 114 145 205 266 308 397 467
#     4  10  22  46  74 106 154 202 254 314 388 462
#     4  12  27  50  76 114 159 208 261 322 400 463
#     4  12  28  48  76 115 159 201 270 327 380 482
#
# _framework density 27.120208000000002
#
# number of rings (size 3 to 8) (size 9 to 14) (size 15 to 20)
#    0.667    0.000    2.222    5.333    3.111    1.778 
#    0.000    0.000    0.000    0.000    0.000    0.000 
#    0.000    0.000    0.000    0.000    0.000    0.000 
#
# Total GULP energy -50277.623780 kJ/mol
# GULP energy per Si atom -5586.402642 kJ/mol
# Density = 2.705848 g / cm^3
# Si number density = 27.120208 Si / 1000 Ang^3
#
#
#
# Elastic Constant Matrix: (Units=GPa)
#
#
# Indices 1 2 3 4 5 6 
#
# 1 81.8427 47.7463 31.1831 0.0000 18.3724 0.0000
# 2 47.7463 226.9429 87.6468 0.0000 26.6280 0.0000
# 3 31.1831 87.6468 213.5717 0.0000 46.2701 0.0000
# 4 0.0000 0.0000 0.0000 43.3246 0.0000 3.6364
# 5 18.3724 26.6280 46.2701 0.0000 41.3548 0.0000
# 6 0.0000 0.0000 0.0000 3.6364 0.0000 59.5340
#
#
#
# Elastic Compliance Matrix: (Units=1/GPa)
#
#
# Indices 1 2 3 4 5 6 
#
# 1 0.014809 -0.002515 -0.000073 0.000000 -0.004877 0.000000
# 2 -0.002515 0.005715 -0.001878 0.000000 -0.000461 0.000000
# 3 -0.000073 -0.001878 0.006857 0.000000 -0.006430 0.000000
# 4 0.000000 0.000000 0.000000 0.023201 0.000000 -0.001417
# 5 -0.004877 -0.000461 -0.006430 0.000000 0.033839 0.000000
# 6 0.000000 0.000000 0.000000 -0.001417 0.000000 0.016884
#
#
# Mechanical properties :
#
#
# Convention : Reuss Voigt Hill
#
# Bulk Modulus (GPa) = 54.20866 95.05666 74.63266
# Shear Modulus (GPa) = 42.96061 52.56140 47.76100
#
# Velocity S-wave (km/s) = 3.98437 4.40715 4.20108
# Velocity P-wave (km/s) = 6.41861 7.81175 7.14920
#
# Compressibility (1/GPa) = 0.01844724
#
# Stress axis : x y z
#
# Youngs Moduli (GPa) = 67.52823 174.97791 145.84044
#
# Poissons Ratio (x) = 0.44006 0.01070
# Poissons Ratio (y) = 0.16983 0.27393
# Poissons Ratio (z) = 0.00496 0.32866
#
# Static dielectric constant tensor:
#      x y z
#    x 2.214090 0.000000 -0.041120 
#    y 0.000000 2.031400 0.000000 
#    z -0.041120 0.000000 2.095030 
# 
# From -- ./inp_files/44267.got.cif
#   From: 2010.05.17/outbox.cif.g08.bks.cpg/sg5_23_cif.got.tgz:44267.got - 2010.06.03 18:56:24.
