data_PCOD9127389
_publ_section_title
;
Structure prediction by ZEFSAII (Michael W. Deem and Ramdas Pophale) SiO2 
 PCOD9127389
Probable space group: C 2
;
_chemical_formula_sum "Si O2"
_cell_formula_units_Z 28
_cell_length_a 6.949309
_cell_length_b 12.585687
_cell_length_c 18.388505
_cell_angle_alpha 90.000000
_cell_angle_beta 116.429687
_cell_angle_gamma 90.000000
_cell_volume 1440.195577
_symmetry_space_group_name_H-M "C 2"
_symmetry_group_IT_number 5
_symmetry_cell_setting 'monoclinic'
loop_
_space_group_symop_operation_xyz
x,y,z
-x,y,-z
1/2+x,1/2+y,z
1/2-x,1/2+y,-z
loop_
_atom_site_type_symbol
_atom_site_label
_atom_site_fract_x
_atom_site_fract_y
_atom_site_fract_z
Si Si1 0.546381 0.750000 0.360110
Si Si2 0.962406 0.249770 0.074482
Si Si3 0.451478 0.900886 0.778304
Si Si4 0.500000 0.296738 0.500000
Si Si5 0.982845 0.025446 0.278861
Si Si6 0.205475 0.391628 0.574495
Si Si7 0.405567 0.512667 0.870324
Si Si8 0.500000 0.336335 0.000000
O O1 0.527807 0.838091 0.293826
O O2 0.793281 0.739117 0.429393
O O3 0.474228 0.641963 0.310975
O O4 0.395864 0.789439 0.401052
O O5 0.063358 0.318129 0.156899
O O6 0.051239 0.129691 0.090371
O O7 0.707404 0.262568 0.044135
O O8 0.000000 0.294568 0.000000
O O9 0.656144 0.976909 0.826497
O O10 0.234516 0.966153 0.738027
O O11 0.384597 0.363012 0.544757
O O12 0.009767 0.021623 0.197143
O O13 0.184312 0.965897 0.348328
O O14 0.000000 0.442543 0.500000
O O15 0.517354 0.418221 0.935062
#
# Coordination Sequence:
#
# PCOD9127389 Si02
#       8
#     4   4   4   2   4   4   4   2
#     4  11  23  42  63  97 126 167 215 265 319 384
#     4  11  23  44  67  93 132 176 212 265 320 376
#     4  11  24  42  64  96 132 167 215 267 318 380
#     4  10  22  46  66  88 132 170 208 270 324 376
#     4  12  24  40  68  95 128 175 211 262 330 377
#     4  10  23  44  65  92 132 165 214 268 316 389
#     4  11  23  43  66  98 130 170 216 264 321 380
#     4  10  24  44  66  94 134 166 220 264 308 388
#
# _framework density 19.441803
#
# number of rings (size 3 to 8) (size 9 to 14) (size 15 to 20)
#    0.000    1.143    5.000    0.857    1.000    3.429 
#    5.143    0.000    0.000    0.000    0.000    0.000 
#    0.000    0.000    0.000    0.000    0.000    0.000 
#
# Total GULP energy -78157.352018 kJ/mol
# GULP energy per Si atom -5582.668001 kJ/mol
# Density = 1.939755 g / cm^3
# Si number density = 19.441803 Si / 1000 Ang^3
#
#
#
# Elastic Constant Matrix: (Units=GPa)
#
#
# Indices 1 2 3 4 5 6 
#
# 1 87.2535 48.9110 37.5346 0.0000 -1.3146 0.0000
# 2 48.9110 89.1559 42.2283 0.0000 16.4097 0.0000
# 3 37.5346 42.2283 115.7539 0.0000 -4.2828 0.0000
# 4 0.0000 0.0000 0.0000 24.6341 0.0000 2.6810
# 5 -1.3146 16.4097 -4.2828 0.0000 45.6379 0.0000
# 6 0.0000 0.0000 0.0000 2.6810 0.0000 25.1108
#
#
#
# Elastic Compliance Matrix: (Units=1/GPa)
#
#
# Indices 1 2 3 4 5 6 
#
# 1 0.017698 -0.009344 -0.002194 0.000000 0.003664 0.000000
# 2 -0.009344 0.019938 -0.004534 0.000000 -0.007863 0.000000
# 3 -0.002194 -0.004534 0.011101 0.000000 0.002609 0.000000
# 4 0.000000 0.000000 0.000000 0.041071 0.000000 -0.004385
# 5 0.003664 -0.007863 0.002609 0.000000 0.025089 0.000000
# 6 0.000000 0.000000 0.000000 -0.004385 0.000000 0.040292
#
#
# Mechanical properties :
#
#
# Convention : Reuss Voigt Hill
#
# Bulk Modulus (GPa) = 60.27374 61.05679 60.66527
# Shear Modulus (GPa) = 25.92483 29.97587 27.95035
#
# Velocity S-wave (km/s) = 3.65562 3.93087 3.79574
# Velocity P-wave (km/s) = 6.99196 7.21633 7.10503
#
# Compressibility (1/GPa) = 0.01659097
#
# Stress axis : x y z
#
# Youngs Moduli (GPa) = 56.50360 50.15671 90.07930
#
# Poissons Ratio (x) = 0.46867 0.19767
# Poissons Ratio (y) = 0.52797 0.40846
# Poissons Ratio (z) = 0.12399 0.22743
#
# Static dielectric constant tensor:
#      x y z
#    x 1.656240 0.000000 -0.003170 
#    y 0.000000 1.649430 0.000000 
#    z -0.003170 0.000000 1.695640 
# 
# From -- ./inp_files/64044.got.cif
#   From: 2010.05.17/outbox.cif.g08.bks.cpg/sg5_33_cif.got.tgz:64044.got - 2010.06.03 18:56:24.
