data_PCOD9127029
_publ_section_title
;
Structure prediction by ZEFSAII (Michael W. Deem and Ramdas Pophale) SiO2 
 PCOD9127029
Probable space group: C 2
;
_chemical_formula_sum "Si O2"
_cell_formula_units_Z 24
_cell_length_a 18.871114
_cell_length_b 8.690276
_cell_length_c 8.879856
_cell_angle_alpha 90.000000
_cell_angle_beta 141.128745
_cell_angle_gamma 90.000000
_cell_volume 913.904808
_symmetry_space_group_name_H-M "C 2"
_symmetry_group_IT_number 5
_symmetry_cell_setting 'monoclinic'
loop_
_space_group_symop_operation_xyz
x,y,z
-x,y,-z
1/2+x,1/2+y,z
1/2-x,1/2+y,-z
loop_
_atom_site_type_symbol
_atom_site_label
_atom_site_fract_x
_atom_site_fract_y
_atom_site_fract_z
Si Si1 0.539034 0.315380 0.408171
Si Si2 0.903225 0.438608 0.713274
Si Si3 0.224368 0.159427 0.452912
Si Si4 0.283759 0.806591 0.937039
Si Si5 0.670794 0.155061 0.038606
Si Si6 0.998180 0.140129 0.773901
O O1 0.500000 0.240845 0.500000
O O2 0.670931 0.319438 0.653488
O O3 0.507035 0.495709 0.343365
O O4 0.454780 0.228679 0.154427
O O5 0.805469 0.335621 0.629534
O O6 0.826850 0.578942 0.534760
O O7 0.949665 0.314940 0.669039
O O8 0.000000 0.463285 0.000000
O O9 0.272027 0.158587 0.703458
O O10 0.095897 0.090596 0.253610
O O11 0.334048 0.978744 0.024394
O O12 0.244708 0.748745 0.038238
O O13 0.369836 0.683638 0.005053
#
# Coordination Sequence:
#
# PCOD9127029 Si02
#       6
#     4   4   4   4   4   4
#     4  10  22  43  67 103 139 175 213 274 345 408
#     4  10  23  46  66  92 132 178 228 282 330 388
#     4  10  24  46  66  97 130 178 227 279 334 390
#     4  11  21  44  65 103 142 169 223 271 342 405
#     4  11  23  43  71 101 141 180 212 281 337 411
#     4  10  23  41  72  92 131 181 217 287 333 385
#
# _framework density 26.260942
#
# number of rings (size 3 to 8) (size 9 to 14) (size 15 to 20)
#    1.000    0.667    1.667    3.000    0.000    1.333 
#   18.000    1.667    0.000    0.000    0.000    0.000 
#    0.000    0.000    0.000    0.000    0.000    0.000 
#
# Total GULP energy -66848.187917 kJ/mol
# GULP energy per Si atom -5570.682326 kJ/mol
# Density = 2.620117 g / cm^3
# Si number density = 26.260942 Si / 1000 Ang^3
#
#
#
# Elastic Constant Matrix: (Units=GPa)
#
#
# Indices 1 2 3 4 5 6 
#
# 1 51.2616 18.4372 25.3229 0.0000 18.7072 0.0000
# 2 18.4372 132.4988 85.1739 0.0000 4.4698 0.0000
# 3 25.3229 85.1739 181.5366 0.0000 44.2845 0.0000
# 4 0.0000 0.0000 0.0000 51.0037 0.0000 12.9127
# 5 18.7072 4.4698 44.2845 0.0000 50.4249 0.0000
# 6 0.0000 0.0000 0.0000 12.9127 0.0000 49.7968
#
#
#
# Elastic Compliance Matrix: (Units=1/GPa)
#
#
# Indices 1 2 3 4 5 6 
#
# 1 0.023714 -0.003237 0.000365 0.000000 -0.008831 0.000000
# 2 -0.003237 0.012093 -0.006686 0.000000 0.006001 0.000000
# 3 0.000365 -0.006686 0.010796 0.000000 -0.009024 0.000000
# 4 0.000000 0.000000 0.000000 0.020984 0.000000 -0.005441
# 5 -0.008831 0.006001 -0.009024 0.000000 0.030501 0.000000
# 6 0.000000 0.000000 0.000000 -0.005441 0.000000 0.021493
#
#
# Mechanical properties :
#
#
# Convention : Reuss Voigt Hill
#
# Bulk Modulus (GPa) = 36.37956 69.24056 52.81006
# Shear Modulus (GPa) = 33.81565 46.00262 39.90913
#
# Velocity S-wave (km/s) = 3.59232 4.18993 3.90258
# Velocity P-wave (km/s) = 5.57580 7.05911 6.36084
#
# Compressibility (1/GPa) = 0.02748797
#
# Stress axis : x y z
#
# Youngs Moduli (GPa) = 42.16831 82.68992 92.62551
#
# Poissons Ratio (x) = 0.26763 -0.03380
# Poissons Ratio (y) = 0.13648 0.61933
# Poissons Ratio (z) = -0.01539 0.55290
#
# Static dielectric constant tensor:
#      x y z
#    x 2.192250 0.000000 0.059580 
#    y 0.000000 2.091850 0.000000 
#    z 0.059580 0.000000 2.105430 
# 
# From -- ./inp_files/47236.got.cif
#   From: 2010.05.17/outbox.cif.g08.bks.cpg/sg5_24_cif.got.tgz:47236.got - 2010.06.03 18:56:24.
