data_PCOD9127252
_publ_section_title
;
Structure prediction by ZEFSAII (Michael W. Deem and Ramdas Pophale) SiO2 
 PCOD9127252
Probable space group: C 2
;
_chemical_formula_sum "Si O2"
_cell_formula_units_Z 14
_cell_length_a 19.372084
_cell_length_b 4.850737
_cell_length_c 5.406215
_cell_angle_alpha 90.000000
_cell_angle_beta 99.288545
_cell_angle_gamma 90.000000
_cell_volume 501.354891
_symmetry_space_group_name_H-M "C 2"
_symmetry_group_IT_number 5
_symmetry_cell_setting 'monoclinic'
loop_
_space_group_symop_operation_xyz
x,y,z
-x,y,-z
1/2+x,1/2+y,z
1/2-x,1/2+y,-z
loop_
_atom_site_type_symbol
_atom_site_label
_atom_site_fract_x
_atom_site_fract_y
_atom_site_fract_z
Si Si1 0.097267 0.622440 0.176491
Si Si2 0.364778 0.616102 0.520365
Si Si3 0.791098 0.492103 0.112882
Si Si4 0.500000 0.388949 0.500000
O O1 0.102192 0.304155 0.247912
O O2 0.026074 0.723100 0.271328
O O3 0.150249 0.821680 0.366040
O O4 0.134481 0.618658 0.932848
O O5 0.307519 0.797939 0.354118
O O6 0.432566 0.566272 0.386473
O O7 0.741710 0.760988 0.093326
#
# Coordination Sequence:
#
# PCOD9127252 Si02
#       4
#     4   4   4   2
#     4  10  22  44  72 105 142 187 234 304 358 422
#     4  10  22  44  72 105 142 187 234 304 358 422
#     4  12  26  44  71 111 146 190 248 282 364 444
#     4   8  22  44  76 104 134 190 242 290 392 396
#
# _framework density 27.924334000000002
#
# number of rings (size 3 to 8) (size 9 to 14) (size 15 to 20)
#    1.714    0.000    0.000    4.286    0.000    4.571 
#    0.000    8.571    0.000    0.000    0.000    0.000 
#    0.000    0.000    0.000    0.000    0.000    0.000 
#
# Total GULP energy -39014.529248 kJ/mol
# GULP energy per Si atom -5573.504178 kJ/mol
# Density = 2.786078 g / cm^3
# Si number density = 27.924334 Si / 1000 Ang^3
#
#
#
# Elastic Constant Matrix: (Units=GPa)
#
#
# Indices 1 2 3 4 5 6 
#
# 1 107.9822 37.7683 -9.3209 0.0000 -45.7108 0.0000
# 2 37.7683 149.2948 17.1853 0.0000 0.3671 0.0000
# 3 -9.3209 17.1853 47.0557 0.0000 -15.2169 0.0000
# 4 0.0000 0.0000 0.0000 38.1840 0.0000 1.2807
# 5 -45.7108 0.3671 -15.2169 0.0000 39.3903 0.0000
# 6 0.0000 0.0000 0.0000 1.2807 0.0000 45.0099
#
#
#
# Elastic Compliance Matrix: (Units=1/GPa)
#
#
# Indices 1 2 3 4 5 6 
#
# 1 0.050072 -0.017471 0.040159 0.000000 0.073783 0.000000
# 2 -0.017471 0.013138 -0.016976 0.000000 -0.026955 0.000000
# 3 0.040159 -0.016976 0.057741 0.000000 0.069067 0.000000
# 4 0.000000 0.000000 0.000000 0.026214 0.000000 -0.000746
# 5 0.073783 -0.026955 0.069067 0.000000 0.137941 0.000000
# 6 0.000000 0.000000 0.000000 -0.000746 0.000000 0.022239
#
#
# Mechanical properties :
#
#
# Convention : Reuss Voigt Hill
#
# Bulk Modulus (GPa) = 7.55431 43.95534 25.75482
# Shear Modulus (GPa) = 14.70392 41.76349 28.23371
#
# Velocity S-wave (km/s) = 2.29719 3.87149 3.18320
# Velocity P-wave (km/s) = 3.12206 5.97993 4.77005
#
# Compressibility (1/GPa) = 0.13237482
#
# Stress axis : x y z
#
# Youngs Moduli (GPa) = 19.97142 76.11327 17.31877
#
# Poissons Ratio (x) = 1.32978 -0.69550
# Poissons Ratio (y) = 0.34892 0.29400
# Poissons Ratio (z) = -0.80203 1.29207
#
# Static dielectric constant tensor:
#      x y z
#    x 2.324060 0.000000 -0.003590 
#    y 0.000000 2.054380 0.000000 
#    z -0.003590 0.000000 2.319130 
# 
# From -- ./inp_files/9034.got.cif
#   From: 2010.05.17/outbox.cif.g08.bks.cpg/sg5_5_cif.got.tgz:9034.got - 2010.06.03 18:56:24.
