data_PCOD9127962
_publ_section_title
;
Structure prediction by ZEFSAII (Michael W. Deem and Ramdas Pophale) SiO2 
 PCOD9127962
Probable space group: C 2
;
_chemical_formula_sum "Si O2"
_cell_formula_units_Z 20
_cell_length_a 30.852933
_cell_length_b 5.152722
_cell_length_c 4.737614
_cell_angle_alpha 90.000000
_cell_angle_beta 83.313910
_cell_angle_gamma 90.000000
_cell_volume 748.047354
_symmetry_space_group_name_H-M "C 2"
_symmetry_group_IT_number 5
_symmetry_cell_setting 'monoclinic'
loop_
_space_group_symop_operation_xyz
x,y,z
-x,y,-z
1/2+x,1/2+y,z
1/2-x,1/2+y,-z
loop_
_atom_site_type_symbol
_atom_site_label
_atom_site_fract_x
_atom_site_fract_y
_atom_site_fract_z
Si Si1 0.256212 0.869620 0.698126
Si Si2 0.880775 0.764432 0.260846
Si Si3 0.319601 0.239154 0.821711
Si Si4 0.546982 0.515352 0.396234
Si Si5 0.547341 0.862101 0.882727
O O1 0.254652 0.616102 0.499133
O O2 0.303224 0.936597 0.805874
O O3 0.222388 0.852741 0.982793
O O4 0.915715 0.876710 0.456351
O O5 0.908282 0.518444 0.120456
O O6 0.949244 0.096677 0.931881
O O7 0.858460 0.848897 0.986940
O O8 0.337871 0.265453 0.492119
O O9 0.500000 0.392642 0.500000
O O10 0.545578 0.791631 0.556666
O O11 0.500000 0.977216 0.000000
#
# Coordination Sequence:
#
# PCOD9127962 Si02
#       5
#     4   4   4   4   4
#     4  12  28  58  84 116 160 220 270 336 416 496
#     4  12  26  45  74 118 146 204 262 333 380 474
#     4  12  28  49  76 118 152 206 272 331 412 478
#     4  10  23  44  70 106 155 208 257 314 386 465
#     4  10  23  44  70 106 155 208 257 314 386 465
#
# _framework density 26.736272
#
# number of rings (size 3 to 8) (size 9 to 14) (size 15 to 20)
#    0.000    0.800    2.000    3.600    0.000   11.200 
#    7.200    0.000    0.000    0.000    0.000    0.000 
#    0.000    0.000    0.000    0.000    0.000    0.000 
#
# Total GULP energy -55700.573928 kJ/mol
# GULP energy per Si atom -5570.057393 kJ/mol
# Density = 2.667542 g / cm^3
# Si number density = 26.736272 Si / 1000 Ang^3
#
#
#
# Elastic Constant Matrix: (Units=GPa)
#
#
# Indices 1 2 3 4 5 6 
#
# 1 111.9597 23.7584 26.5212 0.0000 -0.4295 0.0000
# 2 23.7584 89.2839 31.1653 0.0000 -4.8889 0.0000
# 3 26.5212 31.1653 186.3904 0.0000 -17.9305 0.0000
# 4 0.0000 0.0000 0.0000 48.5568 0.0000 7.2758
# 5 -0.4295 -4.8889 -17.9305 0.0000 37.9921 0.0000
# 6 0.0000 0.0000 0.0000 7.2758 0.0000 53.2664
#
#
#
# Elastic Compliance Matrix: (Units=1/GPa)
#
#
# Indices 1 2 3 4 5 6 
#
# 1 0.009656 -0.002235 -0.001066 0.000000 -0.000681 0.000000
# 2 -0.002235 0.012426 -0.001685 0.000000 0.000779 0.000000
# 3 -0.001066 -0.001685 0.006051 0.000000 0.002627 0.000000
# 4 0.000000 0.000000 0.000000 0.021025 0.000000 -0.002872
# 5 -0.000681 0.000779 0.002627 0.000000 0.027654 0.000000
# 6 0.000000 0.000000 0.000000 -0.002872 0.000000 0.019166
#
#
# Mechanical properties :
#
#
# Convention : Reuss Voigt Hill
#
# Bulk Modulus (GPa) = 55.05982 61.16933 58.11457
# Shear Modulus (GPa) = 44.64234 48.37567 46.50900
#
# Velocity S-wave (km/s) = 4.09067 4.25828 4.17531
# Velocity P-wave (km/s) = 6.55361 6.86336 6.71027
#
# Compressibility (1/GPa) = 0.01816207
#
# Stress axis : x y z
#
# Youngs Moduli (GPa) = 103.56410 80.47905 165.25787
#
# Poissons Ratio (x) = 0.17985 0.17613
# Poissons Ratio (y) = 0.23143 0.27842
# Poissons Ratio (z) = 0.11038 0.13559
#
# Static dielectric constant tensor:
#      x y z
#    x 2.195330 0.000000 0.020530 
#    y 0.000000 2.212030 0.000000 
#    z 0.020530 0.000000 1.957950 
# 
# From -- ./inp_files/10580.got.cif
#   From: 2010.05.17/outbox.cif.g08.bks.cpg/sg5_6_cif.got.tgz:10580.got - 2010.06.03 18:56:24.
