data_PCOD9127862
_publ_section_title
;
Structure prediction by ZEFSAII (Michael W. Deem and Ramdas Pophale) SiO2 
 PCOD9127862
Probable space group: C 2
;
_chemical_formula_sum "Si O2"
_cell_formula_units_Z 32
_cell_length_a 14.668609
_cell_length_b 7.805972
_cell_length_c 13.029306
_cell_angle_alpha 90.000000
_cell_angle_beta 66.360781
_cell_angle_gamma 90.000000
_cell_volume 1366.704502
_symmetry_space_group_name_H-M "C 2"
_symmetry_group_IT_number 5
_symmetry_cell_setting 'monoclinic'
loop_
_space_group_symop_operation_xyz
x,y,z
-x,y,-z
1/2+x,1/2+y,z
1/2-x,1/2+y,-z
loop_
_atom_site_type_symbol
_atom_site_label
_atom_site_fract_x
_atom_site_fract_y
_atom_site_fract_z
Si Si1 0.914675 0.640870 0.216510
Si Si2 0.218427 0.989862 0.229295
Si Si3 0.221986 0.607032 0.297109
Si Si4 0.626239 0.989808 0.142561
Si Si5 0.116881 0.124737 0.471433
Si Si6 0.908599 0.996558 0.108743
Si Si7 0.295914 0.640415 0.976861
Si Si8 0.808132 0.758811 0.474527
O O1 0.834238 0.532277 0.189745
O O2 0.865099 0.693841 0.347710
O O3 0.010689 0.528925 0.194151
O O4 0.936155 0.811621 0.140288
O O5 0.201520 0.793109 0.259140
O O6 0.164182 0.102214 0.338357
O O7 0.181332 0.042557 0.136556
O O8 0.163225 0.482038 0.245438
O O9 0.341630 0.576633 0.231858
O O10 0.186859 0.631040 0.429645
O O11 0.653773 0.822800 0.062897
O O12 0.679327 0.144899 0.055799
O O13 0.142820 0.940088 0.513927
O O14 0.000000 0.154923 0.500000
O O15 0.189505 0.257705 0.498836
O O16 0.828383 0.018850 0.055220
O O17 0.000000 0.072046 0.000000
#
# Coordination Sequence:
#
# PCOD9127862 Si02
#       8
#     4   4   4   4   4   4   4   4
#     4  11  26  43  71 106 139 191 245 307 369 445
#     4  10  23  43  68 100 142 179 245 296 364 448
#     4  10  23  43  70 103 145 189 235 309 367 443
#     4  11  26  43  69 102 139 192 242 295 380 439
#     4  10  23  44  71 104 142 200 245 311 379 439
#     4  11  26  42  71 102 138 188 240 290 374 439
#     4  11  24  46  66  95 144 186 234 301 358 452
#     4  10  23  46  74 105 152 186 260 312 364 464
#
# _framework density 23.413986000000001
#
# number of rings (size 3 to 8) (size 9 to 14) (size 15 to 20)
#    0.000    1.500    0.000    3.750   12.250    2.000 
#    4.500    0.625    0.000    0.000    0.000    0.000 
#    0.000    0.000    0.000    0.000    0.000    0.000 
#
# Total GULP energy -89246.935006 kJ/mol
# GULP energy per Si atom -5577.933438 kJ/mol
# Density = 2.336070 g / cm^3
# Si number density = 23.413986 Si / 1000 Ang^3
#
#
#
# Elastic Constant Matrix: (Units=GPa)
#
#
# Indices 1 2 3 4 5 6 
#
# 1 83.0020 30.0911 21.9140 0.0000 -19.3334 0.0000
# 2 30.0911 92.4832 34.2613 0.0000 11.4581 0.0000
# 3 21.9140 34.2613 98.4499 0.0000 12.4072 0.0000
# 4 0.0000 0.0000 0.0000 27.4451 0.0000 7.0033
# 5 -19.3334 11.4581 12.4072 0.0000 41.8736 0.0000
# 6 0.0000 0.0000 0.0000 7.0033 0.0000 30.2164
#
#
#
# Elastic Compliance Matrix: (Units=1/GPa)
#
#
# Indices 1 2 3 4 5 6 
#
# 1 0.017471 -0.005812 -0.003203 0.000000 0.010606 0.000000
# 2 -0.005812 0.014545 -0.003042 0.000000 -0.005762 0.000000
# 3 -0.003203 -0.003042 0.012476 0.000000 -0.004343 0.000000
# 4 0.000000 0.000000 0.000000 0.038727 0.000000 -0.008976
# 5 0.010606 -0.005762 -0.004343 0.000000 0.031642 0.000000
# 6 0.000000 0.000000 0.000000 -0.008976 0.000000 0.035175
#
#
# Mechanical properties :
#
#
# Convention : Reuss Voigt Hill
#
# Bulk Modulus (GPa) = 49.07109 49.60755 49.33932
# Shear Modulus (GPa) = 27.63324 32.41824 30.02574
#
# Velocity S-wave (km/s) = 3.43913 3.72501 3.58492
# Velocity P-wave (km/s) = 6.06413 6.30350 6.18497
#
# Compressibility (1/GPa) = 0.02037860
#
# Stress axis : x y z
#
# Youngs Moduli (GPa) = 57.23785 68.75430 80.15204
#
# Poissons Ratio (x) = 0.39960 0.25672
# Poissons Ratio (y) = 0.33266 0.24380
# Poissons Ratio (z) = 0.18333 0.20913
#
# Static dielectric constant tensor:
#      x y z
#    x 2.085220 0.000000 -0.081140 
#    y 0.000000 1.920350 0.000000 
#    z -0.081140 0.000000 1.942720 
# 
# From -- ./inp_files/54186.got.cif
#   From: 2010.05.17/outbox.cif.g08.bks.cpg/sg5_28_cif.got.tgz:54186.got - 2010.06.03 18:56:24.
