data_PCOD9127732
_publ_section_title
;
Structure prediction by ZEFSAII (Michael W. Deem and Ramdas Pophale) SiO2 
 PCOD9127732
Probable space group: C 2
;
_chemical_formula_sum "Si O2"
_cell_formula_units_Z 28
_cell_length_a 18.485166
_cell_length_b 5.261712
_cell_length_c 14.123147
_cell_angle_alpha 90.000000
_cell_angle_beta 108.084804
_cell_angle_gamma 90.000000
_cell_volume 1305.806565
_symmetry_space_group_name_H-M "C 2"
_symmetry_group_IT_number 5
_symmetry_cell_setting 'monoclinic'
loop_
_space_group_symop_operation_xyz
x,y,z
-x,y,-z
1/2+x,1/2+y,z
1/2-x,1/2+y,-z
loop_
_atom_site_type_symbol
_atom_site_label
_atom_site_fract_x
_atom_site_fract_y
_atom_site_fract_z
Si Si1 0.904141 0.138090 0.224466
Si Si2 0.222055 0.020961 0.438235
Si Si3 0.623809 0.921493 0.978655
Si Si4 0.382343 0.015046 0.811428
Si Si5 0.071921 0.004781 0.283208
Si Si6 0.727131 0.828188 0.741858
Si Si7 0.788091 0.740353 0.104170
O O1 0.914045 0.284340 0.126959
O O2 0.864543 0.289778 0.293735
O O3 0.985535 0.029258 0.280597
O O4 0.833335 0.947499 0.182128
O O5 0.240426 0.300909 0.483018
O O6 0.132053 0.968592 0.391935
O O7 0.252124 0.979780 0.344108
O O8 0.647435 0.195041 0.949148
O O9 0.708519 0.807480 0.025443
O O10 0.592101 0.946625 0.070977
O O11 0.423169 0.263409 0.785325
O O12 0.293331 0.108199 0.774034
O O13 0.400221 0.764852 0.757387
O O14 0.733152 0.003791 0.837535
#
# Coordination Sequence:
#
# PCOD9127732 Si02
#       7
#     4   4   4   4   4   4   4
#     4  11  25  40  65  95 144 178 225 280 330 385
#     4  11  24  46  79  99 123 164 226 275 345 433
#     4  11  20  36  60  97 128 188 235 264 293 389
#     4  11  23  43  67  94 141 184 232 265 326 399
#     4  11  27  46  66 101 139 176 212 294 354 383
#     4  10  23  41  71  96 128 182 222 274 336 410
#     4  11  20  36  64  95 134 178 235 269 315 379
#
# _framework density 21.442685000000001
#
# number of rings (size 3 to 8) (size 9 to 14) (size 15 to 20)
#    0.000    1.143    2.857    4.286    8.000    0.571 
#    0.000    0.714    0.000    0.000    0.000    0.000 
#    0.000    0.000    0.000    0.000    0.000    0.000 
#
# Total GULP energy -78030.499645 kJ/mol
# GULP energy per Si atom -5573.607117 kJ/mol
# Density = 2.139388 g / cm^3
# Si number density = 21.442685 Si / 1000 Ang^3
#
#
#
# Elastic Constant Matrix: (Units=GPa)
#
#
# Indices 1 2 3 4 5 6 
#
# 1 112.1613 7.5661 20.0229 0.0000 13.9885 0.0000
# 2 7.5661 65.9390 -8.8771 0.0000 -6.3753 0.0000
# 3 20.0229 -8.8771 36.1990 0.0000 6.8902 0.0000
# 4 0.0000 0.0000 0.0000 14.2044 0.0000 -10.8944
# 5 13.9885 -6.3753 6.8902 0.0000 26.1208 0.0000
# 6 0.0000 0.0000 0.0000 -10.8944 0.0000 25.2577
#
#
#
# Elastic Compliance Matrix: (Units=1/GPa)
#
#
# Indices 1 2 3 4 5 6 
#
# 1 0.010682 -0.002446 -0.005587 0.000000 -0.004844 0.000000
# 2 -0.002446 0.016464 0.004608 0.000000 0.004113 0.000000
# 3 -0.005587 0.004608 0.032704 0.000000 -0.004510 0.000000
# 4 0.000000 0.000000 0.000000 0.105204 0.000000 0.045377
# 5 -0.004844 0.004113 -0.004510 0.000000 0.043071 0.000000
# 6 0.000000 0.000000 0.000000 0.045377 0.000000 0.059164
#
#
# Mechanical properties :
#
#
# Convention : Reuss Voigt Hill
#
# Bulk Modulus (GPa) = 18.86792 27.96924 23.41858
# Shear Modulus (GPa) = 17.13466 26.15574 21.64520
#
# Velocity S-wave (km/s) = 2.82989 3.49635 3.18062
# Velocity P-wave (km/s) = 4.41543 5.41953 4.94304
#
# Compressibility (1/GPa) = 0.05300002
#
# Stress axis : x y z
#
# Youngs Moduli (GPa) = 93.61385 60.73792 30.57766
#
# Poissons Ratio (x) = 0.14857 0.17082
# Poissons Ratio (y) = 0.22899 -0.14089
# Poissons Ratio (z) = 0.52297 -0.27986
#
# Static dielectric constant tensor:
#      x y z
#    x 1.799510 0.000000 -0.015040 
#    y 0.000000 1.992350 0.000000 
#    z -0.015040 0.000000 1.858900 
# 
# From -- ./inp_files/55280.got.cif
#   From: 2010.05.17/outbox.cif.g08.bks.cpg/sg5_28_cif.got.tgz:55280.got - 2010.06.03 18:56:24.
