data_PCOD9127582
_publ_section_title
;
Structure prediction by ZEFSAII (Michael W. Deem and Ramdas Pophale) SiO2 
 PCOD9127582
Probable space group: C 2
;
_chemical_formula_sum "Si O2"
_cell_formula_units_Z 20
_cell_length_a 7.538420
_cell_length_b 7.276093
_cell_length_c 17.936478
_cell_angle_alpha 90.000000
_cell_angle_beta 117.681482
_cell_angle_gamma 90.000000
_cell_volume 871.215906
_symmetry_space_group_name_H-M "C 2"
_symmetry_group_IT_number 5
_symmetry_cell_setting 'monoclinic'
loop_
_space_group_symop_operation_xyz
x,y,z
-x,y,-z
1/2+x,1/2+y,z
1/2-x,1/2+y,-z
loop_
_atom_site_type_symbol
_atom_site_label
_atom_site_fract_x
_atom_site_fract_y
_atom_site_fract_z
Si Si1 0.287347 0.811560 0.813521
Si Si2 0.703695 0.550189 0.517809
Si Si3 0.216042 0.075111 0.057239
Si Si4 0.238880 0.164136 0.896904
Si Si5 0.958389 0.816835 0.385178
O O1 0.182973 0.700780 0.860919
O O2 0.499478 0.707750 0.841865
O O3 0.157031 0.809170 0.713939
O O4 0.307367 0.019766 0.847909
O O5 0.500000 0.665438 0.500000
O O6 0.916790 0.636720 0.570996
O O7 0.638487 0.468643 0.425536
O O8 0.683770 0.385085 0.575185
O O9 0.181340 0.872810 0.083971
O O10 0.293614 0.075469 0.988173
O O11 0.000000 0.165401 0.000000
#
# Coordination Sequence:
#
# PCOD9127582 Si02
#       5
#     4   4   4   4   4
#     4  11  25  41  64 101 129 174 232 273 329 403
#     4   8  21  42  66  93 131 171 212 268 343 383
#     4  10  23  39  62  93 132 184 217 277 335 391
#     4  11  24  42  65  93 135 178 222 278 335 391
#     4   9  21  45  66 101 129 176 217 277 329 408
#
# _framework density 22.956423999999998
#
# number of rings (size 3 to 8) (size 9 to 14) (size 15 to 20)
#    1.200    0.800    2.000    0.000    5.600    3.200 
#    7.200    0.000    0.000    0.000    0.000    0.000 
#    0.000    0.000    0.000    0.000    0.000    0.000 
#
# Total GULP energy -55684.516510 kJ/mol
# GULP energy per Si atom -5568.451651 kJ/mol
# Density = 2.290417 g / cm^3
# Si number density = 22.956424 Si / 1000 Ang^3
#
#
#
# Elastic Constant Matrix: (Units=GPa)
#
#
# Indices 1 2 3 4 5 6 
#
# 1 76.4862 27.5491 33.2844 0.0000 12.4783 0.0000
# 2 27.5491 116.5563 42.0955 0.0000 6.9790 0.0000
# 3 33.2844 42.0955 194.2399 0.0000 3.4510 0.0000
# 4 0.0000 0.0000 0.0000 35.9740 0.0000 9.9803
# 5 12.4783 6.9790 3.4510 0.0000 17.0453 0.0000
# 6 0.0000 0.0000 0.0000 9.9803 0.0000 34.8745
#
#
#
# Elastic Compliance Matrix: (Units=1/GPa)
#
#
# Indices 1 2 3 4 5 6 
#
# 1 0.016657 -0.002531 -0.002115 0.000000 -0.010729 0.000000
# 2 -0.002531 0.009895 -0.001678 0.000000 -0.001859 0.000000
# 3 -0.002115 -0.001678 0.005856 0.000000 0.001050 0.000000
# 4 0.000000 0.000000 0.000000 0.030195 0.000000 -0.008641
# 5 -0.010729 -0.001859 0.001050 0.000000 0.067071 0.000000
# 6 0.000000 0.000000 0.000000 -0.008641 0.000000 0.031147
#
#
# Mechanical properties :
#
#
# Convention : Reuss Voigt Hill
#
# Bulk Modulus (GPa) = 50.60673 65.90447 58.25560
# Shear Modulus (GPa) = 27.76946 36.53564 32.15255
#
# Velocity S-wave (km/s) = 3.48179 3.99372 3.74651
# Velocity P-wave (km/s) = 6.18517 7.07370 6.64430
#
# Compressibility (1/GPa) = 0.01976022
#
# Stress axis : x y z
#
# Youngs Moduli (GPa) = 60.03610 101.06185 170.77448
#
# Poissons Ratio (x) = 0.25574 0.36122
# Poissons Ratio (y) = 0.15193 0.28652
# Poissons Ratio (z) = 0.12699 0.16956
#
# Static dielectric constant tensor:
#      x y z
#    x 1.991870 0.000000 0.020870 
#    y 0.000000 1.947720 0.000000 
#    z 0.020870 0.000000 1.825180 
# 
# From -- ./inp_files/64231.got.cif
#   From: 2010.05.17/outbox.cif.g08.bks.cpg/sg5_33_cif.got.tgz:64231.got - 2010.06.03 18:56:24.
