data_PCOD9127859
_publ_section_title
;
Structure prediction by ZEFSAII (Michael W. Deem and Ramdas Pophale) SiO2 
 PCOD9127859
Probable space group: C 2
;
_chemical_formula_sum "Si O2"
_cell_formula_units_Z 14
_cell_length_a 20.795414
_cell_length_b 4.917535
_cell_length_c 5.276888
_cell_angle_alpha 90.000000
_cell_angle_beta 68.234043
_cell_angle_gamma 90.000000
_cell_volume 501.154121
_symmetry_space_group_name_H-M "C 2"
_symmetry_group_IT_number 5
_symmetry_cell_setting 'monoclinic'
loop_
_space_group_symop_operation_xyz
x,y,z
-x,y,-z
1/2+x,1/2+y,z
1/2-x,1/2+y,-z
loop_
_atom_site_type_symbol
_atom_site_label
_atom_site_fract_x
_atom_site_fract_y
_atom_site_fract_z
Si Si1 0.403657 0.201500 0.799783
Si Si2 0.262321 0.320684 0.156563
Si Si3 0.120438 0.202712 0.511020
Si Si4 0.000000 0.020820 0.000000
O O1 0.381919 0.404072 0.605816
O O2 0.404719 0.907289 0.673530
O O3 0.341135 0.238295 0.094932
O O4 0.472123 0.322422 0.822144
O O5 0.200689 0.273210 0.445857
O O6 0.258032 0.621364 0.048349
O O7 0.064102 0.202977 0.813716
#
# Coordination Sequence:
#
# PCOD9127859 Si02
#       4
#     4   4   4   2
#     4  10  23  43  67  97 135 175 223 276 329 396
#     4   8  16  38  66  90 126 174 218 272 326 380
#     4  10  23  43  67  97 135 175 223 276 329 396
#     4  12  26  42  72 104 136 180 218 274 348 400
#
# _framework density 27.935518999999999
#
# number of rings (size 3 to 8) (size 9 to 14) (size 15 to 20)
#    0.000    2.286    0.000    0.857    0.000    9.143 
#    0.000   17.143    0.000    6.857    0.000    0.000 
#    0.000    0.000    0.000    0.000    0.000    0.000 
#
# Total GULP energy -39281.711258 kJ/mol
# GULP energy per Si atom -5611.673037 kJ/mol
# Density = 2.787194 g / cm^3
# Si number density = 27.935519 Si / 1000 Ang^3
#
#
#
# Elastic Constant Matrix: (Units=GPa)
#
#
# Indices 1 2 3 4 5 6 
#
# 1 112.8799 26.2633 65.2866 0.0000 -34.0160 0.0000
# 2 26.2633 115.3925 47.9845 0.0000 -1.1380 0.0000
# 3 65.2866 47.9845 147.3310 0.0000 -43.4516 0.0000
# 4 0.0000 0.0000 0.0000 33.0153 0.0000 -11.2531
# 5 -34.0160 -1.1380 -43.4516 0.0000 68.4649 0.0000
# 6 0.0000 0.0000 0.0000 -11.2531 0.0000 33.4658
#
#
#
# Elastic Compliance Matrix: (Units=1/GPa)
#
#
# Indices 1 2 3 4 5 6 
#
# 1 0.012611 -0.001102 -0.004167 0.000000 0.003603 0.000000
# 2 -0.001102 0.010435 -0.003716 0.000000 -0.002733 0.000000
# 3 -0.004167 -0.003716 0.011338 0.000000 0.005063 0.000000
# 4 0.000000 0.000000 0.000000 0.034210 0.000000 0.011503
# 5 0.003603 -0.002733 0.005063 0.000000 0.019564 0.000000
# 6 0.000000 0.000000 0.000000 0.011503 0.000000 0.033749
#
#
# Mechanical properties :
#
#
# Convention : Reuss Voigt Hill
#
# Bulk Modulus (GPa) = 60.92475 72.74133 66.83304
# Shear Modulus (GPa) = 34.40003 42.72713 38.56358
#
# Velocity S-wave (km/s) = 3.51295 3.91511 3.71947
# Velocity P-wave (km/s) = 6.18957 6.82151 6.51321
#
# Compressibility (1/GPa) = 0.01641369
#
# Stress axis : x y z
#
# Youngs Moduli (GPa) = 79.29547 95.82850 88.20225
#
# Poissons Ratio (x) = 0.10560 0.36752
# Poissons Ratio (y) = 0.08738 0.32778
# Poissons Ratio (z) = 0.33041 0.35613
#
# Static dielectric constant tensor:
#      x y z
#    x 2.138770 0.000000 -0.102250 
#    y 0.000000 2.071000 0.000000 
#    z -0.102250 0.000000 2.221410 
# 
# From -- ./inp_files/596.got.cif
#   From: 2010.05.17/outbox.cif.g08.bks.cpg/sg5_1_cif.got.tgz:596.got - 2010.06.03 18:56:24.
