data_PCOD9127939
_publ_section_title
;
Structure prediction by ZEFSAII (Michael W. Deem and Ramdas Pophale) SiO2 
 PCOD9127939
Probable space group: C 2
;
_chemical_formula_sum "Si O2"
_cell_formula_units_Z 16
_cell_length_a 22.842154
_cell_length_b 6.801706
_cell_length_c 6.715493
_cell_angle_alpha 90.000000
_cell_angle_beta 42.152547
_cell_angle_gamma 90.000000
_cell_volume 700.203797
_symmetry_space_group_name_H-M "C 2"
_symmetry_group_IT_number 5
_symmetry_cell_setting 'monoclinic'
loop_
_space_group_symop_operation_xyz
x,y,z
-x,y,-z
1/2+x,1/2+y,z
1/2-x,1/2+y,-z
loop_
_atom_site_type_symbol
_atom_site_label
_atom_site_fract_x
_atom_site_fract_y
_atom_site_fract_z
Si Si1 0.409235 0.934220 0.610820
Si Si2 0.085003 0.052484 0.170823
Si Si3 0.803743 0.669284 0.154539
Si Si4 0.120952 0.334028 0.742251
O O1 0.500000 0.978771 0.500000
O O2 0.381197 0.718611 0.761075
O O3 0.421635 0.930468 0.344472
O O4 0.332869 0.080987 0.868617
O O5 0.000000 0.973418 0.500000
O O6 0.068535 0.180950 0.013537
O O7 0.148415 0.878218 0.955610
O O8 0.842585 0.509839 0.211093
O O9 0.703585 0.709776 0.452415
#
# Coordination Sequence:
#
# PCOD9127939 Si02
#       4
#     4   4   4   4
#     4  10  25  44  67  99 137 178 221 275 334 400
#     4  10  23  44  67  99 135 175 223 272 338 397
#     4  11  23  41  69 104 130 179 225 275 336 393
#     4  11  24  43  71  99 139 172 225 280 333 395
#
# _framework density 22.850490000000001
#
# number of rings (size 3 to 8) (size 9 to 14) (size 15 to 20)
#    0.000    1.500    2.500    0.750    3.500   12.000 
#    0.000    5.000    0.000    0.000    0.000    0.000 
#    0.000    0.000    0.000    0.000    0.000    0.000 
#
# Total GULP energy -44700.433531 kJ/mol
# GULP energy per Si atom -5587.554191 kJ/mol
# Density = 2.279848 g / cm^3
# Si number density = 22.850490 Si / 1000 Ang^3
#
#
#
# Elastic Constant Matrix: (Units=GPa)
#
#
# Indices 1 2 3 4 5 6 
#
# 1 57.0232 -8.2736 40.3843 0.0000 10.8112 0.0000
# 2 -8.2736 60.0621 9.5367 0.0000 -2.1309 0.0000
# 3 40.3843 9.5367 154.3868 0.0000 8.9419 0.0000
# 4 0.0000 0.0000 0.0000 60.0841 0.0000 -9.7018
# 5 10.8112 -2.1309 8.9419 0.0000 49.5342 0.0000
# 6 0.0000 0.0000 0.0000 -9.7018 0.0000 6.9044
#
#
#
# Elastic Compliance Matrix: (Units=1/GPa)
#
#
# Indices 1 2 3 4 5 6 
#
# 1 0.023145 0.004020 -0.006084 0.000000 -0.003780 0.000000
# 2 0.004020 0.017554 -0.002151 0.000000 0.000266 0.000000
# 3 -0.006084 -0.002151 0.008216 0.000000 -0.000248 0.000000
# 4 0.000000 0.000000 0.000000 0.021528 0.000000 0.030250
# 5 -0.003780 0.000266 -0.000248 0.000000 0.021069 0.000000
# 6 0.000000 0.000000 0.000000 0.030250 0.000000 0.187341
#
#
# Mechanical properties :
#
#
# Convention : Reuss Voigt Hill
#
# Bulk Modulus (GPa) = 24.70013 39.41852 32.05933
# Shear Modulus (GPa) = 16.62353 38.62618 27.62486
#
# Velocity S-wave (km/s) = 2.70013 4.11589 3.48075
# Velocity P-wave (km/s) = 4.53364 6.31471 5.49679
#
# Compressibility (1/GPa) = 0.04048562
#
# Stress axis : x y z
#
# Youngs Moduli (GPa) = 43.20534 56.96623 121.71596
#
# Poissons Ratio (x) = -0.22901 0.74048
# Poissons Ratio (y) = -0.17369 0.26185
# Poissons Ratio (z) = 0.26285 0.12255
#
# Static dielectric constant tensor:
#      x y z
#    x 1.909720 0.000000 -0.015740 
#    y 0.000000 1.822680 0.000000 
#    z -0.015740 0.000000 1.881210 
# 
# From -- ./inp_files/9068.got.cif
#   From: 2010.05.17/outbox.cif.g08.bks.cpg/sg5_5_cif.got.tgz:9068.got - 2010.06.03 18:56:24.
