data_PCOD9127035
_publ_section_title
;
Structure prediction by ZEFSAII (Michael W. Deem and Ramdas Pophale) SiO2 
 PCOD9127035
Probable space group: C 2
;
_chemical_formula_sum "Si O2"
_cell_formula_units_Z 28
_cell_length_a 11.360386
_cell_length_b 10.570931
_cell_length_c 22.177562
_cell_angle_alpha 90.000000
_cell_angle_beta 149.732317
_cell_angle_gamma 90.000000
_cell_volume 1342.411332
_symmetry_space_group_name_H-M "C 2"
_symmetry_group_IT_number 5
_symmetry_cell_setting 'monoclinic'
loop_
_space_group_symop_operation_xyz
x,y,z
-x,y,-z
1/2+x,1/2+y,z
1/2-x,1/2+y,-z
loop_
_atom_site_type_symbol
_atom_site_label
_atom_site_fract_x
_atom_site_fract_y
_atom_site_fract_z
Si Si1 0.559245 0.670910 0.348929
Si Si2 0.761711 0.406864 0.627381
Si Si3 0.499533 0.289277 0.771324
Si Si4 0.384913 0.149932 0.603049
Si Si5 0.288358 0.539239 0.698633
Si Si6 0.101530 0.543859 0.195579
Si Si7 0.796921 0.505925 0.950128
O O1 0.550898 0.806022 0.312856
O O2 0.711622 0.585932 0.370290
O O3 0.318722 0.598756 0.253809
O O4 0.685587 0.691109 0.468563
O O5 0.500000 0.356220 0.500000
O O6 0.803711 0.441229 0.715268
O O7 0.785910 0.534368 0.599190
O O8 0.468947 0.254552 0.687909
O O9 0.293558 0.386320 0.700018
O O10 0.492317 0.161858 0.806596
O O11 0.726360 0.372911 0.887311
O O12 0.595277 0.099092 0.655139
O O13 0.547952 0.575864 0.838063
O O14 0.902858 0.493529 0.063218
O O15 0.000000 0.567638 0.000000
#
# Coordination Sequence:
#
# PCOD9127035 Si02
#       7
#     4   4   4   4   4   4   4
#     4  12  24  38  71  97 140 176 224 287 339 416
#     4  11  24  41  65 101 137 182 220 280 351 407
#     4   9  24  41  68  97 132 183 222 283 344 400
#     4  11  23  43  67 100 139 176 228 280 349 412
#     4  10  23  43  61 103 130 178 231 275 342 407
#     4  11  22  46  65 103 136 175 231 287 347 405
#     4  10  22  43  67  91 130 178 224 279 333 408
#
# _framework density 20.857989
#
# number of rings (size 3 to 8) (size 9 to 14) (size 15 to 20)
#    0.857    0.571    2.857    2.143    2.000    5.714 
#    2.571    2.143    0.000    0.000    0.000    0.000 
#    0.000    0.000    0.000    0.000    0.000    0.000 
#
# Total GULP energy -78167.414928 kJ/mol
# GULP energy per Si atom -5583.386781 kJ/mol
# Density = 2.081052 g / cm^3
# Si number density = 20.857989 Si / 1000 Ang^3
#
#
#
# Elastic Constant Matrix: (Units=GPa)
#
#
# Indices 1 2 3 4 5 6 
#
# 1 78.9647 7.2702 39.5426 -0.0001 -3.5016 -0.0001
# 2 7.2702 63.6732 33.3862 -0.0001 -13.0020 -0.0001
# 3 39.5426 33.3862 128.8793 -0.0001 -22.7732 0.0000
# 4 -0.0001 -0.0001 -0.0001 18.3367 0.0000 -5.6537
# 5 -3.5016 -13.0020 -22.7732 0.0000 38.9497 -0.0001
# 6 -0.0001 -0.0001 0.0000 -5.6537 -0.0001 36.4488
#
#
#
# Elastic Compliance Matrix: (Units=1/GPa)
#
#
# Indices 1 2 3 4 5 6 
#
# 1 0.015063 0.000637 -0.005029 0.000000 -0.001374 0.000000
# 2 0.000637 0.018691 -0.004377 0.000000 0.003737 0.000000
# 3 -0.005029 -0.004377 0.011261 0.000000 0.004671 0.000000
# 4 0.000000 0.000000 0.000000 0.057275 0.000000 0.008884
# 5 -0.001374 0.003737 0.004671 0.000000 0.029529 0.000000
# 6 0.000000 0.000000 0.000000 0.008884 0.000000 0.028814
#
#
# Mechanical properties :
#
#
# Convention : Reuss Voigt Hill
#
# Bulk Modulus (GPa) = 36.39516 47.99058 42.19287
# Shear Modulus (GPa) = 26.69085 31.50159 29.09622
#
# Velocity S-wave (km/s) = 3.58110 3.89046 3.73898
# Velocity P-wave (km/s) = 5.88098 6.57564 6.23799
#
# Compressibility (1/GPa) = 0.02747618
#
# Stress axis : x y z
#
# Youngs Moduli (GPa) = 66.38871 53.50295 88.79831
#
# Poissons Ratio (x) = -0.03406 0.44659
# Poissons Ratio (y) = -0.04226 0.38864
# Poissons Ratio (z) = 0.33388 0.23417
#
# Static dielectric constant tensor:
#      x y z
#    x 1.748870 0.000000 0.007330 
#    y 0.000000 1.775600 0.000000 
#    z 0.007330 0.000000 1.740230 
# 
# From -- ./inp_files/65309.got.cif
#   From: 2010.05.17/outbox.cif.g08.bks.cpg/sg5_33_cif.got.tgz:65309.got - 2010.06.03 18:56:24.
