data_PCOD9127650
_publ_section_title
;
Structure prediction by ZEFSAII (Michael W. Deem and Ramdas Pophale) SiO2 
 PCOD9127650
Probable space group: C 2
;
_chemical_formula_sum "Si O2"
_cell_formula_units_Z 30
_cell_length_a 23.346999
_cell_length_b 8.590034
_cell_length_c 7.300561
_cell_angle_alpha 90.000000
_cell_angle_beta 61.198955
_cell_angle_gamma 90.000000
_cell_volume 1283.021545
_symmetry_space_group_name_H-M "C 2"
_symmetry_group_IT_number 5
_symmetry_cell_setting 'monoclinic'
loop_
_space_group_symop_operation_xyz
x,y,z
-x,y,-z
1/2+x,1/2+y,z
1/2-x,1/2+y,-z
loop_
_atom_site_type_symbol
_atom_site_label
_atom_site_fract_x
_atom_site_fract_y
_atom_site_fract_z
Si Si1 0.000000 0.023211 0.000000
Si Si2 0.816286 0.739666 0.586726
Si Si3 0.648689 0.232681 0.864878
Si Si4 0.719295 0.947091 0.820226
Si Si5 0.474890 0.037328 0.832927
Si Si6 0.547553 0.318081 0.582682
Si Si7 0.098556 0.244132 0.071555
Si Si8 0.292121 0.522150 0.053193
O O1 0.053457 0.133040 0.017301
O O2 0.034481 0.914863 0.790791
O O3 0.850360 0.685583 0.348844
O O4 0.770692 0.884143 0.597513
O O5 0.877873 0.809138 0.600887
O O6 0.765984 0.617840 0.754028
O O7 0.666585 0.407923 0.880270
O O8 0.707355 0.128005 0.848740
O O9 0.583236 0.164787 0.054133
O O10 0.652023 0.856201 0.889004
O O11 0.755447 0.919253 0.957678
O O12 0.527974 0.138079 0.645645
O O13 0.500000 0.998132 0.000000
O O14 0.448978 0.879498 0.778247
O O15 0.500000 0.384553 0.500000
O O16 0.150235 0.139263 0.106427
#
# Coordination Sequence:
#
# PCOD9127650 Si02
#       8
#     2   4   4   4   4   4   4   4
#     4  12  24  48  74 104 150 184 234 292 352 416
#     4  11  23  41  62  97 132 171 232 281 341 418
#     4  11  21  40  70  91 132 180 221 281 345 414
#     4  10  24  41  67  98 132 178 227 284 352 414
#     4  11  21  44  67  98 137 184 229 274 357 415
#     4  12  27  43  71 105 138 188 237 286 347 426
#     4  10  23  40  74  97 136 190 225 284 357 417
#     4  11  23  42  66 100 132 177 231 291 347 407
#
# _framework density 23.382304999999999
#
# number of rings (size 3 to 8) (size 9 to 14) (size 15 to 20)
#    0.000    1.067    2.667    4.000    7.467    1.067 
#    0.000    2.000    0.000    0.000    0.000    0.000 
#    0.000    0.000    0.000    0.000    0.000    0.000 
#
# Total GULP energy -83619.037286 kJ/mol
# GULP energy per Si atom -5574.602486 kJ/mol
# Density = 2.332909 g / cm^3
# Si number density = 23.382305 Si / 1000 Ang^3
#
#
#
# Elastic Constant Matrix: (Units=GPa)
#
#
# Indices 1 2 3 4 5 6 
#
# 1 121.3704 46.3640 30.1392 0.0000 -23.2322 0.0000
# 2 46.3640 118.6797 29.7729 0.0000 -25.1739 0.0000
# 3 30.1392 29.7729 43.0198 0.0000 -13.5700 0.0000
# 4 0.0000 0.0000 0.0000 18.5048 0.0000 -3.5485
# 5 -23.2322 -25.1739 -13.5700 0.0000 37.1972 0.0000
# 6 0.0000 0.0000 0.0000 -3.5485 0.0000 55.7821
#
#
#
# Elastic Compliance Matrix: (Units=1/GPa)
#
#
# Indices 1 2 3 4 5 6 
#
# 1 0.011041 -0.002309 -0.005034 0.000000 0.003497 0.000000
# 2 -0.002309 0.011532 -0.004923 0.000000 0.004566 0.000000
# 3 -0.005034 -0.004923 0.031795 0.000000 0.005123 0.000000
# 4 0.000000 0.000000 0.000000 0.054707 0.000000 0.003480
# 5 0.003497 0.004566 0.005123 0.000000 0.034027 0.000000
# 6 0.000000 0.000000 0.000000 0.003480 0.000000 0.018148
#
#
# Mechanical properties :
#
#
# Convention : Reuss Voigt Hill
#
# Bulk Modulus (GPa) = 33.51671 55.06913 44.29292
# Shear Modulus (GPa) = 25.54582 34.08306 29.81444
#
# Velocity S-wave (km/s) = 3.30893 3.82205 3.57471
# Velocity P-wave (km/s) = 5.38182 6.56355 6.00184
#
# Compressibility (1/GPa) = 0.02983587
#
# Stress axis : x y z
#
# Youngs Moduli (GPa) = 90.57516 86.71894 31.45128
#
# Poissons Ratio (x) = 0.20019 0.15833
# Poissons Ratio (y) = 0.20909 0.15483
# Poissons Ratio (z) = 0.45598 0.42691
#
# Static dielectric constant tensor:
#      x y z
#    x 2.112910 0.000000 0.046510 
#    y 0.000000 1.941890 0.000000 
#    z 0.046510 0.000000 1.866090 
# 
# From -- ./inp_files/30660.got.cif
#   From: 2010.05.17/outbox.cif.g08.bks.cpg/sg5_16_cif.got.tgz:30660.got - 2010.06.03 18:56:24.
