data_PCOD9127228
_publ_section_title
;
Structure prediction by ZEFSAII (Michael W. Deem and Ramdas Pophale) SiO2 
 PCOD9127228
Probable space group: C 2
;
_chemical_formula_sum "Si O2"
_cell_formula_units_Z 20
_cell_length_a 20.739734
_cell_length_b 7.413472
_cell_length_c 13.835833
_cell_angle_alpha 90.000000
_cell_angle_beta 25.439747
_cell_angle_gamma 90.000000
_cell_volume 913.809536
_symmetry_space_group_name_H-M "C 2"
_symmetry_group_IT_number 5
_symmetry_cell_setting 'monoclinic'
loop_
_space_group_symop_operation_xyz
x,y,z
-x,y,-z
1/2+x,1/2+y,z
1/2-x,1/2+y,-z
loop_
_atom_site_type_symbol
_atom_site_label
_atom_site_fract_x
_atom_site_fract_y
_atom_site_fract_z
Si Si1 0.672657 0.900360 0.678065
Si Si2 0.167896 0.290241 0.892472
Si Si3 0.073953 0.796987 0.806116
Si Si4 0.150245 0.512546 0.238738
Si Si5 0.191061 0.647173 0.968812
O O1 0.717154 0.791472 0.713904
O O2 0.795630 0.897813 0.427822
O O3 0.645125 0.107467 0.746271
O O4 0.511844 0.822436 0.862104
O O5 0.217498 0.116017 0.883614
O O6 0.237884 0.466575 0.849072
O O7 0.000000 0.889260 0.000000
O O8 0.946428 0.736614 0.903509
O O9 0.183654 0.300187 0.192415
O O10 0.000000 0.552041 0.500000
O O11 0.142242 0.586703 0.141337
#
# Coordination Sequence:
#
# PCOD9127228 Si02
#       5
#     4   4   4   4   4
#     4  10  22  44  70  98 139 173 217 291 337 402
#     4  10  22  48  69 102 141 174 228 282 342 400
#     4  11  23  43  68 100 135 175 224 277 342 402
#     4  12  26  45  71  98 136 185 228 273 337 402
#     4  11  24  46  67 100 136 176 230 277 329 404
#
# _framework density 21.886398
#
# number of rings (size 3 to 8) (size 9 to 14) (size 15 to 20)
#    0.000    1.200    6.000    1.200    2.800    5.600 
#    3.600    0.000    0.000    0.000    0.000    0.000 
#    0.000    0.000    0.000    0.000    0.000    0.000 
#
# Total GULP energy -55958.756894 kJ/mol
# GULP energy per Si atom -5595.875689 kJ/mol
# Density = 2.183658 g / cm^3
# Si number density = 21.886398 Si / 1000 Ang^3
#
#
#
# Elastic Constant Matrix: (Units=GPa)
#
#
# Indices 1 2 3 4 5 6 
#
# 1 113.1902 24.0013 32.1611 0.0000 34.3051 0.0000
# 2 24.0013 85.3378 19.1010 0.0000 10.4334 0.0000
# 3 32.1611 19.1010 119.0050 0.0000 41.0426 0.0000
# 4 0.0000 0.0000 0.0000 17.5971 0.0000 8.6698
# 5 34.3051 10.4334 41.0426 0.0000 27.3515 0.0000
# 6 0.0000 0.0000 0.0000 8.6698 0.0000 30.0804
#
#
#
# Elastic Compliance Matrix: (Units=1/GPa)
#
#
# Indices 1 2 3 4 5 6 
#
# 1 0.016163 -0.002405 0.005582 0.000000 -0.027730 0.000000
# 2 -0.002405 0.012681 -0.001570 0.000000 0.000535 0.000000
# 3 0.005582 -0.001570 0.019388 0.000000 -0.035495 0.000000
# 4 0.000000 0.000000 0.000000 0.066233 0.000000 -0.019090
# 5 -0.027730 0.000535 -0.035495 0.000000 0.124399 0.000000
# 6 0.000000 0.000000 0.000000 -0.019090 0.000000 0.038746
#
#
# Mechanical properties :
#
#
# Convention : Reuss Voigt Hill
#
# Bulk Modulus (GPa) = 19.43813 52.00665 35.72239
# Shear Modulus (GPa) = 17.15007 31.15712 24.15360
#
# Velocity S-wave (km/s) = 2.80231 3.77713 3.32564
# Velocity P-wave (km/s) = 4.40128 6.54492 5.57706
#
# Compressibility (1/GPa) = 0.05144528
#
# Stress axis : x y z
#
# Youngs Moduli (GPa) = 61.86937 78.86124 51.57849
#
# Poissons Ratio (x) = 0.18965 -0.28789
# Poissons Ratio (y) = 0.14879 0.08097
# Poissons Ratio (z) = -0.34533 0.12380
#
# Static dielectric constant tensor:
#      x y z
#    x 1.791000 0.000000 -0.010580 
#    y 0.000000 1.813030 0.000000 
#    z -0.010580 0.000000 1.766030 
# 
# From -- ./inp_files/18259.got.cif
#   From: 2010.05.17/outbox.cif.g08.bks.cpg/sg5_10_cif.got.tgz:18259.got - 2010.06.03 18:56:24.
