data_PCOD9127417
_publ_section_title
;
Structure prediction by ZEFSAII (Michael W. Deem and Ramdas Pophale) SiO2 
 PCOD9127417
Probable space group: C 2
;
_chemical_formula_sum "Si O2"
_cell_formula_units_Z 22
_cell_length_a 15.774324
_cell_length_b 9.717577
_cell_length_c 12.016759
_cell_angle_alpha 90.000000
_cell_angle_beta 26.767009
_cell_angle_gamma 90.000000
_cell_volume 829.581957
_symmetry_space_group_name_H-M "C 2"
_symmetry_group_IT_number 5
_symmetry_cell_setting 'monoclinic'
loop_
_space_group_symop_operation_xyz
x,y,z
-x,y,-z
1/2+x,1/2+y,z
1/2-x,1/2+y,-z
loop_
_atom_site_type_symbol
_atom_site_label
_atom_site_fract_x
_atom_site_fract_y
_atom_site_fract_z
Si Si1 0.000000 0.856350 0.000000
Si Si2 0.105200 0.469856 0.487208
Si Si3 0.901138 0.640734 0.937290
Si Si4 0.666770 0.491861 0.385715
Si Si5 0.453489 0.718776 0.781276
Si Si6 0.254358 0.711878 0.387589
O O1 0.181278 0.925905 0.734941
O O2 0.094935 0.773766 0.988874
O O3 0.981020 0.381004 0.721637
O O4 0.165796 0.628318 0.389107
O O5 0.000000 0.420844 0.500000
O O6 0.834254 0.528004 0.104266
O O7 0.752895 0.665478 0.011014
O O8 0.110126 0.638711 0.644021
O O9 0.500000 0.445113 0.500000
O O10 0.587544 0.628385 0.540774
O O11 0.717119 0.371437 0.410988
O O12 0.537608 0.695062 0.805712
#
# Coordination Sequence:
#
# PCOD9127417 Si02
#       6
#     2   4   4   4   4   4
#     4  12  22  44  74  94 130 192 230 282 350 418
#     4  12  24  44  70 104 139 183 230 290 352 423
#     4  11  23  44  76  96 135 195 232 281 363 418
#     4  10  22  46  70 102 146 183 234 297 353 435
#     4  11  22  42  70 103 134 187 241 281 345 446
#     4  12  26  42  72 108 145 173 236 302 354 419
#
# _framework density 26.519380000000002
#
# number of rings (size 3 to 8) (size 9 to 14) (size 15 to 20)
#    0.000    0.727    5.455    2.182    0.000    4.364 
#    0.000    8.182    0.000    0.000    0.000    0.000 
#    0.000    0.000    0.000    0.000    0.000    0.000 
#
# Total GULP energy -61362.670403 kJ/mol
# GULP energy per Si atom -5578.424582 kJ/mol
# Density = 2.645902 g / cm^3
# Si number density = 26.519380 Si / 1000 Ang^3
#
#
#
# Elastic Constant Matrix: (Units=GPa)
#
#
# Indices 1 2 3 4 5 6 
#
# 1 147.1402 21.6989 10.9104 0.0000 -53.5992 0.0000
# 2 21.6989 102.1704 11.3438 0.0000 -8.3440 0.0000
# 3 10.9104 11.3438 103.0510 0.0000 -20.4733 0.0000
# 4 0.0000 0.0000 0.0000 37.5057 0.0000 20.2700
# 5 -53.5992 -8.3440 -20.4733 0.0000 28.1132 0.0000
# 6 0.0000 0.0000 0.0000 20.2700 0.0000 54.0840
#
#
#
# Elastic Compliance Matrix: (Units=1/GPa)
#
#
# Indices 1 2 3 4 5 6 
#
# 1 0.028236 -0.002123 0.009136 0.000000 0.059856 0.000000
# 2 -0.002123 0.010222 -0.001288 0.000000 -0.001951 0.000000
# 3 0.009136 -0.001288 0.014337 0.000000 0.027477 0.000000
# 4 0.000000 0.000000 0.000000 0.033435 0.000000 -0.012531
# 5 0.059856 -0.001951 0.027477 0.000000 0.169119 0.000000
# 6 0.000000 0.000000 0.000000 -0.012531 0.000000 0.023186
#
#
# Mechanical properties :
#
#
# Convention : Reuss Voigt Hill
#
# Bulk Modulus (GPa) = 15.56541 48.91866 32.24203
# Shear Modulus (GPa) = 17.33101 44.50116 30.91608
#
# Velocity S-wave (km/s) = 2.55918 4.10086 3.41807
# Velocity P-wave (km/s) = 3.82292 6.39603 5.26896
#
# Compressibility (1/GPa) = 0.06424501
#
# Stress axis : x y z
#
# Youngs Moduli (GPa) = 35.41613 97.82765 69.74815
#
# Poissons Ratio (x) = 0.20766 -0.63721
# Poissons Ratio (y) = 0.07518 0.08985
# Poissons Ratio (z) = -0.32356 0.12602
#
# Static dielectric constant tensor:
#      x y z
#    x 2.631270 0.000000 0.315650 
#    y 0.000000 2.939520 0.000000 
#    z 0.315650 0.000000 1.984670 
# 
# From -- ./inp_files/42653.got.cif
#   From: 2010.05.17/outbox.cif.g08.bks.cpg/sg5_22_cif.got.tgz:42653.got - 2010.06.03 18:56:24.
