data_PCOD9127390
_publ_section_title
;
Structure prediction by ZEFSAII (Michael W. Deem and Ramdas Pophale) SiO2 
 PCOD9127390
Probable space group: C 2
;
_chemical_formula_sum "Si O2"
_cell_formula_units_Z 28
_cell_length_a 30.245627
_cell_length_b 5.049667
_cell_length_c 8.102637
_cell_angle_alpha 90.000000
_cell_angle_beta 61.361296
_cell_angle_gamma 90.000000
_cell_volume 1086.119796
_symmetry_space_group_name_H-M "C 2"
_symmetry_group_IT_number 5
_symmetry_cell_setting 'monoclinic'
loop_
_space_group_symop_operation_xyz
x,y,z
-x,y,-z
1/2+x,1/2+y,z
1/2-x,1/2+y,-z
loop_
_atom_site_type_symbol
_atom_site_label
_atom_site_fract_x
_atom_site_fract_y
_atom_site_fract_z
Si Si1 0.772704 0.026320 0.894070
Si Si2 0.509158 0.175978 0.819618
Si Si3 0.776911 0.871565 0.514150
Si Si4 0.543981 0.492302 0.348442
Si Si5 0.091469 0.344044 0.013100
Si Si6 0.873943 0.537064 0.376163
Si Si7 0.867007 0.664409 0.746654
O O1 0.771056 0.012051 0.700842
O O2 0.821097 0.859761 0.861996
O O3 0.770395 0.324054 0.963491
O O4 0.494933 0.300527 0.672298
O O5 0.567066 0.099962 0.716700
O O6 0.500000 0.354235 0.000000
O O7 0.464671 0.960552 0.919885
O O8 0.756303 0.100837 0.430621
O O9 0.834183 0.766109 0.395816
O O10 0.500000 0.689339 0.500000
O O11 0.587134 0.364196 0.380761
O O12 0.577832 0.578227 0.130988
O O13 0.124333 0.343840 0.787446
O O14 0.117118 0.510883 0.116461
O O15 0.859428 0.484112 0.594606
#
# Coordination Sequence:
#
# PCOD9127390 Si02
#       7
#     4   4   4   4   4   4   4
#     4  11  26  46  76 106 145 187 240 307 363 434
#     4   9  20  42  60  92 134 176 222 271 345 418
#     4  11  26  49  74 107 141 189 246 300 367 429
#     4  11  22  39  68 100 138 179 230 290 345 427
#     4  10  24  39  66  98 134 177 227 283 350 416
#     4  10  22  46  66  94 139 182 227 292 350 431
#     4  10  24  44  67  96 138 184 230 281 366 421
#
# _framework density 25.779845000000002
#
# number of rings (size 3 to 8) (size 9 to 14) (size 15 to 20)
#    0.000    1.714    1.429    0.857    8.000    1.714 
#   10.286    0.000    0.000    0.000    0.000    0.000 
#    0.000    0.000    0.000    0.000    0.000    0.000 
#
# Total GULP energy -78051.416957 kJ/mol
# GULP energy per Si atom -5575.101211 kJ/mol
# Density = 2.572117 g / cm^3
# Si number density = 25.779845 Si / 1000 Ang^3
#
#
#
# Elastic Constant Matrix: (Units=GPa)
#
#
# Indices 1 2 3 4 5 6 
#
# 1 113.3972 21.2477 16.4798 0.0000 2.3483 0.0000
# 2 21.2477 66.1319 3.5055 0.0000 1.1796 0.0000
# 3 16.4798 3.5055 104.6368 0.0000 0.7620 0.0000
# 4 0.0000 0.0000 0.0000 22.5997 0.0000 -1.1309
# 5 2.3483 1.1796 0.7620 0.0000 35.4602 0.0000
# 6 0.0000 0.0000 0.0000 -1.1309 0.0000 16.7260
#
#
#
# Elastic Compliance Matrix: (Units=1/GPa)
#
#
# Indices 1 2 3 4 5 6 
#
# 1 0.009596 -0.002999 -0.001407 0.000000 -0.000505 0.000000
# 2 -0.002999 0.016094 -0.000064 0.000000 -0.000335 0.000000
# 3 -0.001407 -0.000064 0.009781 0.000000 -0.000115 0.000000
# 4 0.000000 0.000000 0.000000 0.044399 0.000000 0.003002
# 5 -0.000505 -0.000335 -0.000115 0.000000 0.028248 0.000000
# 6 0.000000 0.000000 0.000000 0.003002 0.000000 0.059990
#
#
# Mechanical properties :
#
#
# Convention : Reuss Voigt Hill
#
# Bulk Modulus (GPa) = 37.69355 40.73687 39.21521
# Shear Modulus (GPa) = 26.89723 31.15270 29.02496
#
# Velocity S-wave (km/s) = 3.23359 3.47999 3.35905
# Velocity P-wave (km/s) = 5.34738 5.65538 5.50353
#
# Compressibility (1/GPa) = 0.02652974
#
# Stress axis : x y z
#
# Youngs Moduli (GPa) = 104.21534 62.13352 102.23412
#
# Poissons Ratio (x) = 0.18636 0.14385
# Poissons Ratio (y) = 0.31258 0.00658
# Poissons Ratio (z) = 0.14664 0.00400
#
# Static dielectric constant tensor:
#      x y z
#    x 2.093260 0.000000 0.021060 
#    y 0.000000 2.092250 0.000000 
#    z 0.021060 0.000000 2.461560 
# 
# From -- ./inp_files/32231.got.cif
#   From: 2010.05.17/outbox.cif.g08.bks.cpg/sg5_17_cif.got.tgz:32231.got - 2010.06.03 18:56:24.
