data_PCOD9127190
_publ_section_title
;
Structure prediction by ZEFSAII (Michael W. Deem and Ramdas Pophale) SiO2 
 PCOD9127190
Probable space group: C 2
;
_chemical_formula_sum "Si O2"
_cell_formula_units_Z 28
_cell_length_a 14.890434
_cell_length_b 11.201458
_cell_length_c 8.111785
_cell_angle_alpha 90.000000
_cell_angle_beta 70.945923
_cell_angle_gamma 90.000000
_cell_volume 1278.871922
_symmetry_space_group_name_H-M "C 2"
_symmetry_group_IT_number 5
_symmetry_cell_setting 'monoclinic'
loop_
_space_group_symop_operation_xyz
x,y,z
-x,y,-z
1/2+x,1/2+y,z
1/2-x,1/2+y,-z
loop_
_atom_site_type_symbol
_atom_site_label
_atom_site_fract_x
_atom_site_fract_y
_atom_site_fract_z
Si Si1 0.097539 0.607250 0.526991
Si Si2 0.294722 0.561928 0.830477
Si Si3 0.245387 0.334361 0.080793
Si Si4 0.926752 0.785946 0.177275
Si Si5 0.296859 0.631605 0.456191
Si Si6 0.103574 0.342233 0.450561
Si Si7 0.507759 0.529402 0.798364
O O1 0.104543 0.681180 0.688500
O O2 0.204935 0.622431 0.393746
O O3 0.086121 0.466377 0.551555
O O4 0.000000 0.648848 0.500000
O O5 0.257207 0.687467 0.936770
O O6 0.278826 0.564626 0.642157
O O7 0.408776 0.570582 0.782387
O O8 0.257840 0.437407 0.934051
O O9 0.338414 0.348271 0.140074
O O10 0.150782 0.361866 0.243609
O O11 0.981317 0.888642 0.243115
O O12 0.000000 0.737786 0.000000
O O13 0.320166 0.766014 0.495856
O O14 0.394721 0.586914 0.319903
O O15 0.000000 0.282307 0.500000
O O16 0.500000 0.543966 0.000000
#
# Coordination Sequence:
#
# PCOD9127190 Si02
#       7
#     4   4   4   4   4   4   4
#     4  11  25  44  68 104 133 191 237 290 368 429
#     4  11  23  44  76 104 146 197 235 305 368 424
#     4  11  22  45  72 106 147 188 239 307 365 426
#     4  11  22  46  67  96 149 180 233 307 360 419
#     4  11  23  45  72 101 144 181 247 297 359 439
#     4  10  22  44  68  94 145 187 227 300 367 422
#     4  11  23  44  70 104 139 188 239 296 357 436
#
# _framework density 21.894295
#
# number of rings (size 3 to 8) (size 9 to 14) (size 15 to 20)
#    0.000    1.143    5.714    3.000    0.000    3.429 
#    5.143    0.714    0.000    0.000    0.000    0.000 
#    0.000    0.000    0.000    0.000    0.000    0.000 
#
# Total GULP energy -78065.206926 kJ/mol
# GULP energy per Si atom -5576.086209 kJ/mol
# Density = 2.184446 g / cm^3
# Si number density = 21.894295 Si / 1000 Ang^3
#
#
#
# Elastic Constant Matrix: (Units=GPa)
#
#
# Indices 1 2 3 4 5 6 
#
# 1 156.8220 17.0041 26.4587 0.0000 -18.4670 0.0000
# 2 17.0041 83.5148 38.8757 0.0000 -7.5730 0.0000
# 3 26.4587 38.8757 88.9785 0.0000 -29.2234 0.0000
# 4 0.0000 0.0000 0.0000 42.9650 0.0000 4.9463
# 5 -18.4670 -7.5730 -29.2234 0.0000 22.0309 0.0000
# 6 0.0000 0.0000 0.0000 4.9463 0.0000 58.2365
#
#
#
# Elastic Compliance Matrix: (Units=1/GPa)
#
#
# Indices 1 2 3 4 5 6 
#
# 1 0.007150 -0.001059 0.000328 0.000000 0.006065 0.000000
# 2 -0.001059 0.015695 -0.008970 0.000000 -0.007390 0.000000
# 3 0.000328 -0.008970 0.025052 0.000000 0.030422 0.000000
# 4 0.000000 0.000000 0.000000 0.023505 0.000000 -0.001996
# 5 0.006065 -0.007390 0.030422 0.000000 0.088289 0.000000
# 6 0.000000 0.000000 0.000000 -0.001996 0.000000 0.017341
#
#
# Mechanical properties :
#
#
# Convention : Reuss Voigt Hill
#
# Bulk Modulus (GPa) = 35.09181 54.88804 44.98992
# Shear Modulus (GPa) = 24.28014 41.11160 32.69587
#
# Velocity S-wave (km/s) = 3.33373 4.33798 3.86858
# Velocity P-wave (km/s) = 5.55707 7.08624 6.36772
#
# Compressibility (1/GPa) = 0.02849668
#
# Stress axis : x y z
#
# Youngs Moduli (GPa) = 139.85477 63.71612 39.91764
#
# Poissons Ratio (x) = 0.06746 -0.01311
# Poissons Ratio (y) = 0.14806 0.35804
# Poissons Ratio (z) = -0.04592 0.57151
#
# Static dielectric constant tensor:
#      x y z
#    x 1.834860 0.000000 0.045120 
#    y 0.000000 1.839400 0.000000 
#    z 0.045120 0.000000 1.679910 
# 
# From -- ./inp_files/23578.got.cif
#   From: 2010.05.17/outbox.cif.g08.bks.cpg/sg5_12_cif.got.tgz:23578.got - 2010.06.03 18:56:24.
