data_PCOD9127097
_publ_section_title
;
Structure prediction by ZEFSAII (Michael W. Deem and Ramdas Pophale) SiO2 
 PCOD9127097
Probable space group: C 2
;
_chemical_formula_sum "Si O2"
_cell_formula_units_Z 20
_cell_length_a 5.455303
_cell_length_b 17.527405
_cell_length_c 9.053121
_cell_angle_alpha 90.000000
_cell_angle_beta 82.790167
_cell_angle_gamma 90.000000
_cell_volume 858.790610
_symmetry_space_group_name_H-M "C 2"
_symmetry_group_IT_number 5
_symmetry_cell_setting 'monoclinic'
loop_
_space_group_symop_operation_xyz
x,y,z
-x,y,-z
1/2+x,1/2+y,z
1/2-x,1/2+y,-z
loop_
_atom_site_type_symbol
_atom_site_label
_atom_site_fract_x
_atom_site_fract_y
_atom_site_fract_z
Si Si1 0.764808 0.550210 0.898778
Si Si2 0.062895 0.952588 0.650080
Si Si3 0.362206 0.868253 0.154947
Si Si4 0.300336 0.791609 0.632181
Si Si5 0.084170 0.711910 0.158748
O O1 0.741678 0.492403 0.758755
O O2 0.761374 0.635359 0.825703
O O3 0.500000 0.540233 0.000000
O O4 0.000000 0.545702 0.000000
O O5 0.179009 0.871233 0.590124
O O6 0.000000 0.994537 0.500000
O O7 0.807643 0.930312 0.752280
O O8 0.559980 0.823869 0.237215
O O9 0.189720 0.796661 0.132173
O O10 0.500000 0.896078 0.000000
O O11 0.500000 0.764462 0.500000
O O12 0.115326 0.726060 0.697765
O O13 0.000000 0.696254 0.000000
#
# Coordination Sequence:
#
# PCOD9127097 Si02
#       5
#     4   4   4   4   4
#     4  11  28  48  79 112 156 204 261 314 382 462
#     4  11  26  45  72 112 155 200 250 321 388 458
#     4  11  22  40  75 107 143 196 259 317 379 450
#     4  11  23  41  74 107 149 194 254 321 384 450
#     4  10  22  43  72 107 143 197 256 320 372 454
#
# _framework density 23.288565999999999
#
# number of rings (size 3 to 8) (size 9 to 14) (size 15 to 20)
#    0.000    1.200    4.000    0.600    8.400    0.000 
#    0.000    1.000   13.200    4.800    0.000    0.000 
#    0.000    0.000    0.000    0.000    0.000    0.000 
#
# Total GULP energy -55722.954180 kJ/mol
# GULP energy per Si atom -5572.295418 kJ/mol
# Density = 2.323556 g / cm^3
# Si number density = 23.288566 Si / 1000 Ang^3
#
#
#
# Elastic Constant Matrix: (Units=GPa)
#
#
# Indices 1 2 3 4 5 6 
#
# 1 93.0902 13.3321 50.0915 0.0000 -3.0760 0.0000
# 2 13.3321 92.0533 50.2271 0.0000 -14.8435 0.0000
# 3 50.0915 50.2271 130.1962 0.0000 -4.4261 0.0000
# 4 0.0000 0.0000 0.0000 19.1815 0.0000 4.4419
# 5 -3.0760 -14.8435 -4.4261 0.0000 48.1307 0.0000
# 6 0.0000 0.0000 0.0000 4.4419 0.0000 31.3131
#
#
#
# Elastic Compliance Matrix: (Units=1/GPa)
#
#
# Indices 1 2 3 4 5 6 
#
# 1 0.013663 0.001260 -0.005717 0.000000 0.000736 0.000000
# 2 0.001260 0.014592 -0.005977 0.000000 0.004031 0.000000
# 3 -0.005717 -0.005977 0.012149 0.000000 -0.001091 0.000000
# 4 0.000000 0.000000 0.000000 0.053904 0.000000 -0.007647
# 5 0.000736 0.004031 -0.001091 0.000000 0.021967 0.000000
# 6 0.000000 0.000000 0.000000 -0.007647 0.000000 0.033020
#
#
# Mechanical properties :
#
#
# Convention : Reuss Voigt Hill
#
# Bulk Modulus (GPa) = 51.19217 60.29344 55.74280
# Shear Modulus (GPa) = 28.30037 33.17099 30.73568
#
# Velocity S-wave (km/s) = 3.48976 3.77815 3.63681
# Velocity P-wave (km/s) = 6.18606 6.70660 6.45158
#
# Compressibility (1/GPa) = 0.01953424
#
# Stress axis : x y z
#
# Youngs Moduli (GPa) = 73.19172 68.53056 82.31066
#
# Poissons Ratio (x) = -0.08631 0.47061
# Poissons Ratio (y) = -0.09219 0.49196
# Poissons Ratio (z) = 0.41847 0.40960
#
# Static dielectric constant tensor:
#      x y z
#    x 2.214980 0.000000 0.113830 
#    y 0.000000 1.924560 0.000000 
#    z 0.113830 0.000000 1.899570 
# 
# From -- ./inp_files/12036.got.cif
#   From: 2010.05.17/outbox.cif.g08.bks.cpg/sg5_7_cif.got.tgz:12036.got - 2010.06.03 18:56:24.
