data_PCOD9127370
_publ_section_title
;
Structure prediction by ZEFSAII (Michael W. Deem and Ramdas Pophale) SiO2 
 PCOD9127370
Probable space group: C 2
;
_chemical_formula_sum "Si O2"
_cell_formula_units_Z 30
_cell_length_a 23.742239
_cell_length_b 5.232104
_cell_length_c 20.971622
_cell_angle_alpha 90.000000
_cell_angle_beta 27.344150
_cell_angle_gamma 90.000000
_cell_volume 1196.627007
_symmetry_space_group_name_H-M "C 2"
_symmetry_group_IT_number 5
_symmetry_cell_setting 'monoclinic'
loop_
_space_group_symop_operation_xyz
x,y,z
-x,y,-z
1/2+x,1/2+y,z
1/2-x,1/2+y,-z
loop_
_atom_site_type_symbol
_atom_site_label
_atom_site_fract_x
_atom_site_fract_y
_atom_site_fract_z
Si Si1 0.506911 0.933370 0.324958
Si Si2 0.560309 0.548275 0.708613
Si Si3 0.717970 0.254518 0.446717
Si Si4 0.273978 0.292727 0.707546
Si Si5 0.099556 0.931115 0.025083
Si Si6 0.665471 0.772841 0.279175
Si Si7 0.500000 0.659514 0.000000
Si Si8 0.268362 0.240128 0.939509
O O1 0.519512 0.738507 0.253890
O O2 0.553929 0.821918 0.343901
O O3 0.364282 0.999382 0.469890
O O4 0.594632 0.180370 0.225186
O O5 0.654926 0.420096 0.564983
O O6 0.642257 0.707536 0.675840
O O7 0.482589 0.356634 0.831489
O O8 0.704565 0.344945 0.388247
O O9 0.344027 0.507397 0.675966
O O10 0.312899 0.012342 0.694628
O O11 0.126939 0.311850 0.866336
O O12 0.017498 0.991599 0.046256
O O13 0.172452 0.180540 0.979097
O O14 0.212365 0.761259 0.888101
O O15 0.250705 0.509616 0.990559
#
# Coordination Sequence:
#
# PCOD9127370 Si02
#       8
#     4   4   4   4   4   4   2   4
#     4  11  26  46  71 108 151 198 253 308 385 451
#     4  12  24  48  71 112 150 200 252 313 385 459
#     4  12  27  46  75 108 154 207 252 310 382 462
#     4  11  26  51  76 112 148 199 258 311 377 453
#     4  10  22  45  74 104 148 184 250 310 380 439
#     4  10  27  50  77 113 145 197 257 316 381 445
#     4  10  22  46  76 106 146 190 240 316 366 440
#     4  11  23  42  71 107 144 191 240 307 376 437
#
# _framework density 25.070467000000001
#
# number of rings (size 3 to 8) (size 9 to 14) (size 15 to 20)
#    0.000    1.067    4.000    0.800    3.733    8.000 
#    7.200    0.000    0.000    0.000    0.000    0.000 
#    0.000    0.000    0.000    0.000    0.000    0.000 
#
# Total GULP energy -84020.825793 kJ/mol
# GULP energy per Si atom -5601.388386 kJ/mol
# Density = 2.501341 g / cm^3
# Si number density = 25.070467 Si / 1000 Ang^3
#
#
#
# Elastic Constant Matrix: (Units=GPa)
#
#
# Indices 1 2 3 4 5 6 
#
# 1 149.0310 19.1091 14.0994 0.0052 2.7459 0.0247
# 2 19.1091 71.4577 10.2636 -0.0520 3.7096 0.0718
# 3 14.0994 10.2636 66.1299 0.0002 15.4802 -0.0063
# 4 0.0052 -0.0520 0.0002 26.5599 0.0191 5.9439
# 5 2.7459 3.7096 15.4802 0.0191 55.1443 -0.0124
# 6 0.0247 0.0718 -0.0063 5.9439 -0.0124 28.8859
#
#
#
# Elastic Compliance Matrix: (Units=1/GPa)
#
#
# Indices 1 2 3 4 5 6 
#
# 1 0.007047 -0.001709 -0.001265 -0.000005 0.000119 -0.000001
# 2 -0.001709 0.014735 -0.001831 0.000039 -0.000392 -0.000044
# 3 -0.001265 -0.001831 0.016732 -0.000002 -0.004511 0.000008
# 4 -0.000005 0.000039 -0.000002 0.039468 -0.000017 -0.008122
# 5 0.000119 -0.000392 -0.004511 -0.000017 0.019421 0.000012
# 6 -0.000001 -0.000044 0.000008 -0.008122 0.000012 0.036290
#
#
# Mechanical properties :
#
#
# Convention : Reuss Voigt Hill
#
# Bulk Modulus (GPa) = 34.59793 41.50698 38.05246
# Shear Modulus (GPa) = 32.69334 38.32776 35.51055
#
# Velocity S-wave (km/s) = 3.61509 3.91423 3.76763
# Velocity P-wave (km/s) = 5.59065 6.08443 5.84276
#
# Compressibility (1/GPa) = 0.02890346
#
# Stress axis : x y z
#
# Youngs Moduli (GPa) = 141.91201 67.86714 59.76738
#
# Poissons Ratio (x) = 0.11598 0.07561
# Poissons Ratio (y) = 0.24251 0.10942
# Poissons Ratio (z) = 0.17953 0.12425
#
# Static dielectric constant tensor:
#      x y z
#    x 1.955270 -0.000040 0.014620 
#    y -0.000040 1.990560 0.000050 
#    z 0.014620 0.000050 2.047020 
# 
# From -- ./inp_files/67269.got.cif
#   From: 2010.05.17/outbox.cif.g08.bks.cpg/sg5_34_cif.got.tgz:67269.got - 2010.06.03 18:56:24.
