data_PCOD9127930
_publ_section_title
;
Structure prediction by ZEFSAII (Michael W. Deem and Ramdas Pophale) SiO2 
 PCOD9127930
Probable space group: C 2
;
_chemical_formula_sum "Si O2"
_cell_formula_units_Z 32
_cell_length_a 10.347337
_cell_length_b 9.730981
_cell_length_c 15.862790
_cell_angle_alpha 90.000000
_cell_angle_beta 89.600923
_cell_angle_gamma 90.000000
_cell_volume 1597.181453
_symmetry_space_group_name_H-M "C 2"
_symmetry_group_IT_number 5
_symmetry_cell_setting 'monoclinic'
loop_
_space_group_symop_operation_xyz
x,y,z
-x,y,-z
1/2+x,1/2+y,z
1/2-x,1/2+y,-z
loop_
_atom_site_type_symbol
_atom_site_label
_atom_site_fract_x
_atom_site_fract_y
_atom_site_fract_z
Si Si1 0.134698 0.863170 0.963813
Si Si2 0.019031 0.198139 0.287813
Si Si3 0.504605 0.200292 0.347945
Si Si4 0.397075 0.431402 0.229059
Si Si5 0.261644 0.610494 0.578153
Si Si6 0.214866 0.281623 0.584726
Si Si7 0.389257 0.978931 0.770598
Si Si8 0.633499 0.059447 0.037802
O O1 0.123668 0.865171 0.862562
O O2 0.250246 0.961894 0.988094
O O3 0.153255 0.712215 0.002275
O O4 0.000000 0.917158 0.000000
O O5 0.138946 0.146132 0.345833
O O6 0.060739 0.324141 0.228806
O O7 0.899026 0.250153 0.347040
O O8 0.973923 0.073077 0.229681
O O9 0.470293 0.327494 0.288718
O O10 0.380488 0.175657 0.406554
O O11 0.643748 0.228389 0.387479
O O12 0.520599 0.066281 0.290246
O O13 0.255396 0.467444 0.264920
O O14 0.236344 0.445959 0.568932
O O15 0.318254 0.690281 0.497118
O O16 0.378792 0.051755 0.861076
O O17 0.500000 0.007427 0.000000
#
# Coordination Sequence:
#
# PCOD9127930 Si02
#       8
#     4   4   4   4   4   4   4   4
#     4  10  23  44  67 101 137 174 219 275 333 401
#     4  12  25  46  67 100 138 174 232 278 337 404
#     4  12  23  44  69  98 136 174 226 270 345 396
#     4  11  24  43  70 100 136 176 221 283 330 399
#     4  12  28  44  69 100 134 181 224 284 340 401
#     4  12  28  44  69 100 134 181 224 284 340 401
#     4  11  24  43  70 100 136 176 221 283 330 399
#     4  10  23  44  67 101 137 174 219 275 333 401
#
# _framework density 20.035295000000001
#
# number of rings (size 3 to 8) (size 9 to 14) (size 15 to 20)
#    0.000    0.750    5.000    2.250    3.500    6.500 
#    4.500    0.000    0.000    0.000    0.000    0.000 
#    0.000    0.000    0.000    0.000    0.000    0.000 
#
# Total GULP energy -89379.755287 kJ/mol
# GULP energy per Si atom -5586.234705 kJ/mol
# Density = 1.998969 g / cm^3
# Si number density = 20.035295 Si / 1000 Ang^3
#
#
#
# Elastic Constant Matrix: (Units=GPa)
#
#
# Indices 1 2 3 4 5 6 
#
# 1 105.1981 5.5093 12.6637 0.0000 6.7983 0.0000
# 2 5.5093 103.7301 40.2233 0.0000 17.3601 0.0000
# 3 12.6637 40.2233 57.4787 0.0000 2.0651 0.0000
# 4 0.0000 0.0000 0.0000 33.7153 0.0000 -1.9750
# 5 6.7983 17.3601 2.0651 0.0000 26.5557 0.0000
# 6 0.0000 0.0000 0.0000 -1.9750 0.0000 25.4905
#
#
#
# Elastic Compliance Matrix: (Units=1/GPa)
#
#
# Indices 1 2 3 4 5 6 
#
# 1 0.009989 0.001084 -0.002850 0.000000 -0.003044 0.000000
# 2 0.001084 0.015265 -0.010582 0.000000 -0.009434 0.000000
# 3 -0.002850 -0.010582 0.025227 0.000000 0.005686 0.000000
# 4 0.000000 0.000000 0.000000 0.029795 0.000000 0.002309
# 5 -0.003044 -0.009434 0.005686 0.000000 0.044161 0.000000
# 6 0.000000 0.000000 0.000000 0.002309 0.000000 0.039409
#
#
# Mechanical properties :
#
#
# Convention : Reuss Voigt Hill
#
# Bulk Modulus (GPa) = 38.78325 42.57773 40.68049
# Shear Modulus (GPa) = 25.36295 31.01967 28.19131
#
# Velocity S-wave (km/s) = 3.56183 3.93905 3.75518
# Velocity P-wave (km/s) = 6.02619 6.47963 6.25702
#
# Compressibility (1/GPa) = 0.02578433
#
# Stress axis : x y z
#
# Youngs Moduli (GPa) = 100.11096 65.50856 39.64020
#
# Poissons Ratio (x) = -0.07102 0.11298
# Poissons Ratio (y) = -0.10853 0.41949
# Poissons Ratio (z) = 0.28532 0.69324
#
# Static dielectric constant tensor:
#      x y z
#    x 1.692290 0.000000 -0.003170 
#    y 0.000000 1.690680 0.000000 
#    z -0.003170 0.000000 1.723530 
# 
# From -- ./inp_files/52463.got.cif
#   From: 2010.05.17/outbox.cif.g08.bks.cpg/sg5_27_cif.got.tgz:52463.got - 2010.06.03 18:56:24.
