data_PCOD9127333
_publ_section_title
;
Structure prediction by ZEFSAII (Michael W. Deem and Ramdas Pophale) SiO2 
 PCOD9127333
Probable space group: C 2
;
_chemical_formula_sum "Si O2"
_cell_formula_units_Z 26
_cell_length_a 14.978741
_cell_length_b 8.587738
_cell_length_c 13.915027
_cell_angle_alpha 90.000000
_cell_angle_beta 40.829899
_cell_angle_gamma 90.000000
_cell_volume 1170.289723
_symmetry_space_group_name_H-M "C 2"
_symmetry_group_IT_number 5
_symmetry_cell_setting 'monoclinic'
loop_
_space_group_symop_operation_xyz
x,y,z
-x,y,-z
1/2+x,1/2+y,z
1/2-x,1/2+y,-z
loop_
_atom_site_type_symbol
_atom_site_label
_atom_site_fract_x
_atom_site_fract_y
_atom_site_fract_z
Si Si1 0.402434 0.542980 0.310467
Si Si2 0.257682 0.697809 0.246959
Si Si3 0.411085 0.030868 0.919929
Si Si4 0.833628 0.181755 0.970700
Si Si5 0.691071 0.780176 0.450318
Si Si6 0.000000 0.501936 0.500000
Si Si7 0.801920 0.547355 0.226221
O O1 0.345449 0.627303 0.261601
O O2 0.565957 0.558473 0.163552
O O3 0.353833 0.647683 0.439101
O O4 0.325301 0.376817 0.374658
O O5 0.232102 0.879439 0.288545
O O6 0.117008 0.606675 0.358651
O O7 0.338726 0.675205 0.081865
O O8 0.379620 0.856792 0.909007
O O9 0.572375 0.048297 0.800595
O O10 0.356368 0.054216 0.073556
O O11 0.322283 0.149524 0.930850
O O12 0.571692 0.901941 0.525123
O O13 0.715774 0.694967 0.328099
#
# Coordination Sequence:
#
# PCOD9127333 Si02
#       7
#     4   4   4   4   4   2   4
#     4  11  24  43  68  98 136 182 220 278 343 401
#     4  10  22  45  69  94 134 181 223 283 336 398
#     4  10  24  41  70  99 133 173 225 281 341 399
#     4  11  24  41  70 100 132 174 231 281 331 403
#     4  11  26  44  69  98 139 179 229 279 341 406
#     4  10  26  44  66 102 134 180 230 284 332 404
#     4  10  22  47  66  96 135 179 220 279 350 400
#
# _framework density 22.216719000000001
#
# number of rings (size 3 to 8) (size 9 to 14) (size 15 to 20)
#    0.000    1.538    1.538    1.385    6.462    3.077 
#   13.846    0.000    0.000    0.000    0.000    0.000 
#    0.000    0.000    0.000    0.000    0.000    0.000 
#
# Total GULP energy -72684.201968 kJ/mol
# GULP energy per Si atom -5591.092459 kJ/mol
# Density = 2.216615 g / cm^3
# Si number density = 22.216719 Si / 1000 Ang^3
#
#
#
# Elastic Constant Matrix: (Units=GPa)
#
#
# Indices 1 2 3 4 5 6 
#
# 1 58.0055 16.5645 -1.0712 0.0000 -9.6852 0.0000
# 2 16.5645 82.9224 39.3104 0.0000 -3.2187 0.0000
# 3 -1.0712 39.3104 62.3543 0.0000 -3.7532 0.0000
# 4 0.0000 0.0000 0.0000 27.4613 0.0000 -1.3473
# 5 -9.6852 -3.2187 -3.7532 0.0000 26.9684 0.0000
# 6 0.0000 0.0000 0.0000 -1.3473 0.0000 30.5434
#
#
#
# Elastic Compliance Matrix: (Units=1/GPa)
#
#
# Indices 1 2 3 4 5 6 
#
# 1 0.020202 -0.005885 0.004489 0.000000 0.007177 0.000000
# 2 -0.005885 0.018922 -0.012123 0.000000 -0.001542 0.000000
# 3 0.004489 -0.012123 0.023968 0.000000 0.003501 0.000000
# 4 0.000000 0.000000 0.000000 0.036494 0.000000 0.001610
# 5 0.007177 -0.001542 0.003501 0.000000 0.039961 0.000000
# 6 0.000000 0.000000 0.000000 0.001610 0.000000 0.032811
#
#
# Mechanical properties :
#
#
# Convention : Reuss Voigt Hill
#
# Bulk Modulus (GPa) = 27.73619 34.76552 31.25085
# Shear Modulus (GPa) = 23.65021 26.89320 25.27170
#
# Velocity S-wave (km/s) = 3.26624 3.48299 3.37636
# Velocity P-wave (km/s) = 5.17068 5.64423 5.41263
#
# Compressibility (1/GPa) = 0.03605398
#
# Stress axis : x y z
#
# Youngs Moduli (GPa) = 49.50091 52.84756 41.72207
#
# Poissons Ratio (x) = 0.31101 -0.18730
# Poissons Ratio (y) = 0.29131 0.50581
# Poissons Ratio (z) = -0.22222 0.64068
#
# Static dielectric constant tensor:
#      x y z
#    x 1.816630 0.000000 -0.026850 
#    y 0.000000 1.791010 0.000000 
#    z -0.026850 0.000000 1.837290 
# 
# From -- ./inp_files/29157.got.cif
#   From: 2010.05.17/outbox.cif.g08.bks.cpg/sg5_15_cif.got.tgz:29157.got - 2010.06.03 18:56:24.
