data_PCOD9127332
_publ_section_title
;
Structure prediction by ZEFSAII (Michael W. Deem and Ramdas Pophale) SiO2 
 PCOD9127332
Probable space group: C 2
;
_chemical_formula_sum "Si O2"
_cell_formula_units_Z 32
_cell_length_a 10.334615
_cell_length_b 9.317540
_cell_length_c 27.276520
_cell_angle_alpha 90.000000
_cell_angle_beta 144.474880
_cell_angle_gamma 90.000000
_cell_volume 1526.178679
_symmetry_space_group_name_H-M "C 2"
_symmetry_group_IT_number 5
_symmetry_cell_setting 'monoclinic'
loop_
_space_group_symop_operation_xyz
x,y,z
-x,y,-z
1/2+x,1/2+y,z
1/2-x,1/2+y,-z
loop_
_atom_site_type_symbol
_atom_site_label
_atom_site_fract_x
_atom_site_fract_y
_atom_site_fract_z
Si Si1 0.705929 0.588290 0.692660
Si Si2 0.593934 0.444052 0.975447
Si Si3 0.765664 0.587531 0.400231
Si Si4 0.886937 0.437296 0.841083
Si Si5 0.230144 0.924759 0.598421
Si Si6 0.811884 0.427793 0.312859
Si Si7 0.080158 0.137091 0.165106
Si Si8 0.345916 0.154986 0.908503
O O1 0.450125 0.561730 0.631945
O O2 0.861074 0.509787 0.780314
O O3 0.748137 0.521889 0.652278
O O4 0.742338 0.759102 0.705472
O O5 0.519107 0.558474 0.912569
O O6 0.483134 0.289259 0.929645
O O7 0.500000 0.482888 0.000000
O O8 0.858988 0.433742 0.061099
O O9 0.758262 0.492571 0.349244
O O10 0.000000 0.561017 0.500000
O O11 0.762545 0.756265 0.384757
O O12 0.784641 0.278081 0.808570
O O13 0.776682 0.542211 0.846496
O O14 0.000000 0.954078 0.500000
O O15 0.428180 0.945563 0.620745
O O16 0.693878 0.519309 0.233929
O O17 0.878980 0.204625 0.134887
O O18 0.500000 0.093165 0.000000
#
# Coordination Sequence:
#
# PCOD9127332 Si02
#       8
#     4   4   4   4   4   4   4   4
#     4  11  25  41  64  99 133 164 211 267 313 377
#     4  11  23  43  64  87 123 167 209 263 313 364
#     4  10  22  45  69  94 129 170 210 257 319 382
#     4  12  23  41  65  90 124 167 210 258 315 368
#     4  10  23  44  69  96 128 167 210 259 318 381
#     4  11  25  41  65  98 131 168 210 262 317 377
#     4  12  25  42  64  91 126 167 211 260 314 373
#     4  11  22  44  62  86 123 162 213 262 310 364
#
# _framework density 20.967400000000001
#
# number of rings (size 3 to 8) (size 9 to 14) (size 15 to 20)
#    0.000    1.000    3.750    3.000    1.750    6.000 
#    2.250    0.000    0.000    0.000    0.000    0.000 
#    0.000    0.000    0.000    0.000    0.000    0.000 
#
# Total GULP energy -89464.030071 kJ/mol
# GULP energy per Si atom -5591.501879 kJ/mol
# Density = 2.091968 g / cm^3
# Si number density = 20.967400 Si / 1000 Ang^3
#
#
#
# Elastic Constant Matrix: (Units=GPa)
#
#
# Indices 1 2 3 4 5 6 
#
# 1 58.2468 35.0374 -1.6140 0.0000 -9.0269 0.0000
# 2 35.0374 103.1459 36.2428 0.0000 -23.6178 0.0000
# 3 -1.6140 36.2428 51.8655 0.0000 -1.6805 0.0000
# 4 0.0000 0.0000 0.0000 31.3986 0.0000 -10.2606
# 5 -9.0269 -23.6178 -1.6805 0.0000 34.6746 0.0000
# 6 0.0000 0.0000 0.0000 -10.2606 0.0000 34.5908
#
#
#
# Elastic Compliance Matrix: (Units=1/GPa)
#
#
# Indices 1 2 3 4 5 6 
#
# 1 0.024199 -0.011581 0.008808 0.000000 -0.001161 0.000000
# 2 -0.011581 0.021347 -0.014928 0.000000 0.010802 0.000000
# 3 0.008808 -0.014928 0.029778 0.000000 -0.006432 0.000000
# 4 0.000000 0.000000 0.000000 0.035267 0.000000 0.010461
# 5 -0.001161 0.010802 -0.006432 0.000000 0.035583 0.000000
# 6 0.000000 0.000000 0.000000 0.010461 0.000000 0.032012
#
#
# Mechanical properties :
#
#
# Convention : Reuss Voigt Hill
#
# Bulk Modulus (GPa) = 25.04854 39.17673 32.11263
# Shear Modulus (GPa) = 22.03666 29.70561 25.87113
#
# Velocity S-wave (km/s) = 3.24542 3.76806 3.51647
# Velocity P-wave (km/s) = 5.10059 6.13646 5.64235
#
# Compressibility (1/GPa) = 0.03992249
#
# Stress axis : x y z
#
# Youngs Moduli (GPa) = 41.32472 46.84408 33.58235
#
# Poissons Ratio (x) = 0.54249 -0.29579
# Poissons Ratio (y) = 0.47857 0.50130
# Poissons Ratio (z) = -0.36398 0.69927
#
# Static dielectric constant tensor:
#      x y z
#    x 1.779520 0.000000 0.034060 
#    y 0.000000 1.737940 0.000000 
#    z 0.034060 0.000000 1.738230 
# 
# From -- ./inp_files/71779.got.cif
#   From: 2010.05.17/outbox.cif.g08.bks.cpg/sg5_36_cif.got.tgz:71779.got - 2010.06.03 18:56:24.
