data_PCOD9127274
_publ_section_title
;
Structure prediction by ZEFSAII (Michael W. Deem and Ramdas Pophale) SiO2 
 PCOD9127274
Probable space group: C 2
;
_chemical_formula_sum "Si O2"
_cell_formula_units_Z 20
_cell_length_a 11.672973
_cell_length_b 7.795034
_cell_length_c 18.338495
_cell_angle_alpha 90.000000
_cell_angle_beta 30.275926
_cell_angle_gamma 90.000000
_cell_volume 841.270600
_symmetry_space_group_name_H-M "C 2"
_symmetry_group_IT_number 5
_symmetry_cell_setting 'monoclinic'
loop_
_space_group_symop_operation_xyz
x,y,z
-x,y,-z
1/2+x,1/2+y,z
1/2-x,1/2+y,-z
loop_
_atom_site_type_symbol
_atom_site_label
_atom_site_fract_x
_atom_site_fract_y
_atom_site_fract_z
Si Si1 0.414444 0.342820 0.697666
Si Si2 0.500000 0.332508 0.500000
Si Si3 0.244806 0.152717 0.387499
Si Si4 0.348045 0.968495 0.909815
Si Si5 0.000000 0.161699 0.000000
Si Si6 0.742974 0.618034 0.116766
O O1 0.389481 0.255598 0.630646
O O2 0.623837 0.258164 0.624900
O O3 0.180988 0.275327 0.859535
O O4 0.395808 0.540577 0.737961
O O5 0.658367 0.464179 0.459812
O O6 0.000000 0.233333 0.500000
O O7 0.428931 0.090963 0.225143
O O8 0.372933 0.781720 0.859097
O O9 0.143625 0.049347 0.976681
O O10 0.272335 0.978598 0.035278
O O11 0.000000 0.663249 0.000000
#
# Coordination Sequence:
#
# PCOD9127274 Si02
#       6
#     4   2   4   4   2   4
#     4  11  23  45  73 102 140 186 237 291 351 410
#     4  10  24  44  70  96 146 186 228 290 348 418
#     4   9  23  44  67  94 146 183 232 284 338 426
#     4  11  23  44  70 110 140 181 232 295 354 411
#     4  10  22  44  74 110 138 178 240 290 350 426
#     4  12  25  42  74 105 141 180 231 301 355 409
#
# _framework density 23.773562999999999
#
# number of rings (size 3 to 8) (size 9 to 14) (size 15 to 20)
#    0.600    0.800    2.000    3.600    2.800    1.600 
#    0.000    3.000    0.000    4.800    0.000    0.000 
#    0.000    0.000    0.000    0.000    0.000    0.000 
#
# Total GULP energy -55676.598298 kJ/mol
# GULP energy per Si atom -5567.659830 kJ/mol
# Density = 2.371945 g / cm^3
# Si number density = 23.773563 Si / 1000 Ang^3
#
#
#
# Elastic Constant Matrix: (Units=GPa)
#
#
# Indices 1 2 3 4 5 6 
#
# 1 101.9001 29.3301 62.0845 0.0020 4.1279 0.0049
# 2 29.3301 61.5781 -3.6791 -0.0007 -2.6041 0.0017
# 3 62.0845 -3.6791 43.1312 -0.0023 2.4855 0.0055
# 4 0.0020 -0.0007 -0.0023 8.2836 0.0004 12.3763
# 5 4.1279 -2.6041 2.4855 0.0004 63.9298 -0.0018
# 6 0.0049 0.0017 0.0055 12.3763 -0.0018 55.1602
#
#
#
# Elastic Compliance Matrix: (Units=1/GPa)
#
#
# Indices 1 2 3 4 5 6 
#
# 1 -0.140976 0.079842 0.209493 0.000172 0.004210 -0.000049
# 2 0.079842 -0.028873 -0.117289 -0.000093 -0.001771 0.000026
# 3 0.209493 -0.117289 -0.287962 -0.000240 -0.007109 0.000067
# 4 0.000172 -0.000093 -0.000240 0.181595 -0.000008 -0.040744
# 5 0.004210 -0.001771 -0.007109 -0.000008 0.015575 0.000003
# 6 -0.000049 0.000026 0.000067 -0.040744 0.000003 0.027271
#
#
# Mechanical properties :
#
#
# Convention : Reuss Voigt Hill
#
# Bulk Modulus (GPa) = -8.79383 42.45337 16.82977
# Shear Modulus (GPa) = -8.12520 33.39966 12.63723
#
# Velocity S-wave (km/s) = -1.85072 3.75228 2.30807
# Velocity P-wave (km/s) = 2.87644 6.05549 3.76796
#
# Compressibility (1/GPa) = -0.11371615
#
# Stress axis : x y z
#
# Youngs Moduli (GPa) = -7.09342 -34.63488 -3.47268
#
# Poissons Ratio (x) = 2.76534 0.72750
# Poissons Ratio (y) = 0.56636 -0.40731
# Poissons Ratio (z) = 1.48602 -4.06228
#
# Static dielectric constant tensor:
#      x y z
#    x 1.951460 0.000000 -0.004430 
#    y 0.000000 2.018460 0.000020 
#    z -0.004430 0.000020 0.859430 
# 
# From -- ./inp_files/44361.got.cif
#   From: 2010.05.17/outbox.cif.g08.bks.cpg/sg5_23_cif.got.tgz:44361.got - 2010.06.03 18:56:24.
