data_PCOD9127162
_publ_section_title
;
Structure prediction by ZEFSAII (Michael W. Deem and Ramdas Pophale) SiO2 
 PCOD9127162
Probable space group: C 2
;
_chemical_formula_sum "Si O2"
_cell_formula_units_Z 26
_cell_length_a 25.459443
_cell_length_b 4.893323
_cell_length_c 12.560555
_cell_angle_alpha 90.000000
_cell_angle_beta 136.453411
_cell_angle_gamma 90.000000
_cell_volume 1078.066727
_symmetry_space_group_name_H-M "C 2"
_symmetry_group_IT_number 5
_symmetry_cell_setting 'monoclinic'
loop_
_space_group_symop_operation_xyz
x,y,z
-x,y,-z
1/2+x,1/2+y,z
1/2-x,1/2+y,-z
loop_
_atom_site_type_symbol
_atom_site_label
_atom_site_fract_x
_atom_site_fract_y
_atom_site_fract_z
Si Si1 0.139075 0.912960 0.173329
Si Si2 0.961434 0.140365 0.146281
Si Si3 0.622468 0.554505 0.370940
Si Si4 0.191950 0.888096 0.797231
Si Si5 0.146352 0.393585 0.851929
Si Si6 0.691131 0.062921 0.577408
Si Si7 0.500000 0.012281 0.000000
O O1 0.131309 0.128172 0.259166
O O2 0.229407 0.896984 0.296673
O O3 0.076670 0.693769 0.120104
O O4 0.107955 0.981375 0.010818
O O5 0.986336 0.340069 0.086669
O O6 0.928857 0.296898 0.199013
O O7 0.036643 0.960893 0.273917
O O8 0.635039 0.821132 0.461053
O O9 0.681408 0.305432 0.476089
O O10 0.165595 0.196858 0.779847
O O11 0.180342 0.743941 0.667565
O O12 0.145288 0.703455 0.812293
O O13 0.280760 0.867312 0.961905
#
# Coordination Sequence:
#
# PCOD9127162 Si02
#       7
#     4   4   4   4   4   4   2
#     4  12  25  44  70 103 141 194 242 288 355 435
#     4  12  25  44  72 106 140 192 238 302 357 425
#     4  12  26  45  65 106 147 186 230 297 365 438
#     4  10  22  44  67 104 132 181 244 306 341 433
#     4  10  23  41  73  99 135 178 248 297 360 405
#     4  12  27  45  71 100 146 188 234 294 370 428
#     4  12  24  42  76 104 154 176 260 298 350 432
#
# _framework density 24.117248
#
# number of rings (size 3 to 8) (size 9 to 14) (size 15 to 20)
#    0.000    0.615    4.615    2.769    4.308    1.231 
#    0.000    4.615    0.000    0.000    0.000    0.000 
#    0.000    0.000    0.000    0.000    0.000    0.000 
#
# Total GULP energy -72626.684246 kJ/mol
# GULP energy per Si atom -5586.668019 kJ/mol
# Density = 2.406236 g / cm^3
# Si number density = 24.117248 Si / 1000 Ang^3
#
#
#
# Elastic Constant Matrix: (Units=GPa)
#
#
# Indices 1 2 3 4 5 6 
#
# 1 60.8291 -11.4367 -5.1924 0.0000 8.2454 -0.0001
# 2 -11.4367 84.2040 11.6175 -0.0007 4.7649 -0.0001
# 3 -5.1924 11.6175 72.4010 0.0000 2.7168 -0.0001
# 4 0.0000 -0.0007 0.0000 25.3762 0.0000 -4.0152
# 5 8.2454 4.7649 2.7168 0.0000 34.1484 0.0000
# 6 -0.0001 -0.0001 -0.0001 -4.0152 0.0000 13.5258
#
#
#
# Elastic Compliance Matrix: (Units=1/GPa)
#
#
# Indices 1 2 3 4 5 6 
#
# 1 0.017638 0.002518 0.001037 0.000000 -0.004693 0.000000
# 2 0.002518 0.012586 -0.001755 0.000000 -0.002225 0.000000
# 3 0.001037 -0.001755 0.014211 0.000000 -0.001136 0.000000
# 4 0.000000 0.000000 0.000000 0.041349 0.000000 0.012275
# 5 -0.004693 -0.002225 -0.001136 0.000000 0.030818 0.000000
# 6 0.000000 0.000000 0.000000 0.012275 0.000000 0.077577
#
#
# Mechanical properties :
#
#
# Convention : Reuss Voigt Hill
#
# Bulk Modulus (GPa) = 20.81896 23.04565 21.93231
# Shear Modulus (GPa) = 24.20252 29.43977 26.82115
#
# Velocity S-wave (km/s) = 3.17130 3.49763 3.33846
# Velocity P-wave (km/s) = 4.69688 5.08799 4.89634
#
# Compressibility (1/GPa) = 0.04803313
#
# Stress axis : x y z
#
# Youngs Moduli (GPa) = 56.69737 79.45329 70.36976
#
# Poissons Ratio (x) = -0.20007 -0.07297
# Poissons Ratio (y) = -0.14277 0.12353
# Poissons Ratio (z) = -0.05879 0.13948
#
# Static dielectric constant tensor:
#      x y z
#    x 1.918080 0.000000 0.020010 
#    y 0.000000 1.931500 0.000000 
#    z 0.020010 0.000000 2.016630 
# 
# From -- ./inp_files/46985.got.cif
#   From: 2010.05.17/outbox.cif.g08.bks.cpg/sg5_24_cif.got.tgz:46985.got - 2010.06.03 18:56:24.
