data_PCOD9127464
_publ_section_title
;
Structure prediction by ZEFSAII (Michael W. Deem and Ramdas Pophale) SiO2 
 PCOD9127464
Probable space group: C 2
;
_chemical_formula_sum "Si O2"
_cell_formula_units_Z 24
_cell_length_a 26.119176
_cell_length_b 7.884689
_cell_length_c 5.955612
_cell_angle_alpha 90.000000
_cell_angle_beta 111.209025
_cell_angle_gamma 90.000000
_cell_volume 1143.432856
_symmetry_space_group_name_H-M "C 2"
_symmetry_group_IT_number 5
_symmetry_cell_setting 'monoclinic'
loop_
_space_group_symop_operation_xyz
x,y,z
-x,y,-z
1/2+x,1/2+y,z
1/2-x,1/2+y,-z
loop_
_atom_site_type_symbol
_atom_site_label
_atom_site_fract_x
_atom_site_fract_y
_atom_site_fract_z
Si Si1 0.615097 0.380410 0.546652
Si Si2 0.879755 0.529483 0.691671
Si Si3 0.500000 0.306104 0.500000
Si Si4 0.339827 0.667636 0.649877
Si Si5 0.275475 0.172542 0.777094
Si Si6 0.203564 0.028340 0.023030
Si Si7 0.000000 0.621070 0.000000
O O1 0.620151 0.183288 0.487832
O O2 0.556800 0.406117 0.571257
O O3 0.622094 0.506866 0.347434
O O4 0.663950 0.439337 0.782434
O O5 0.864205 0.340629 0.590436
O O6 0.830814 0.585829 0.781154
O O7 0.941105 0.527634 0.891852
O O8 0.497467 0.214030 0.245655
O O9 0.278219 0.641908 0.458984
O O10 0.330262 0.672018 0.900950
O O11 0.256694 0.105011 0.989751
O O12 0.282107 0.374051 0.791716
#
# Coordination Sequence:
#
# PCOD9127464 Si02
#       7
#     4   4   2   4   4   4   2
#     4  10  24  44  67  98 132 182 232 285 352 417
#     4  11  23  45  70  94 142 181 227 294 344 425
#     4  10  22  46  78  98 136 186 238 292 344 422
#     4  11  24  43  62 105 136 175 231 285 358 419
#     4  11  23  37  67  96 137 178 224 287 350 421
#     4  11  23  40  63 102 133 178 229 284 355 420
#     4  10  24  48  70 108 134 192 238 280 360 412
#
# _framework density 20.989426999999999
#
# number of rings (size 3 to 8) (size 9 to 14) (size 15 to 20)
#    0.000    1.333    1.667    3.000    9.333    0.000 
#   15.000    0.833    0.000    0.000    0.000    0.000 
#    0.000    0.000    0.000    0.000    0.000    0.000 
#
# Total GULP energy -66876.865802 kJ/mol
# GULP energy per Si atom -5573.072150 kJ/mol
# Density = 2.094165 g / cm^3
# Si number density = 20.989427 Si / 1000 Ang^3
#
#
#
# Elastic Constant Matrix: (Units=GPa)
#
#
# Indices 1 2 3 4 5 6 
#
# 1 166.2257 33.0622 25.1706 0.0000 7.0401 0.0000
# 2 33.0622 83.1465 12.2375 0.0000 -1.2082 0.0000
# 3 25.1706 12.2375 53.9974 0.0000 0.7350 0.0000
# 4 0.0000 0.0000 0.0000 17.8373 0.0000 -9.0271
# 5 7.0401 -1.2082 0.7350 0.0000 31.9053 0.0000
# 6 0.0000 0.0000 0.0000 -9.0271 0.0000 15.7175
#
#
#
# Elastic Compliance Matrix: (Units=1/GPa)
#
#
# Indices 1 2 3 4 5 6 
#
# 1 0.006965 -0.002398 -0.002682 0.000000 -0.001566 0.000000
# 2 -0.002398 0.013276 -0.001906 0.000000 0.001076 0.000000
# 3 -0.002682 -0.001906 0.020201 0.000000 0.000054 0.000000
# 4 0.000000 0.000000 0.000000 0.079034 0.000000 0.045392
# 5 -0.001566 0.001076 0.000054 0.000000 0.031728 0.000000
# 6 0.000000 0.000000 0.000000 0.045392 0.000000 0.089693
#
#
# Mechanical properties :
#
#
# Convention : Reuss Voigt Hill
#
# Bulk Modulus (GPa) = 37.77669 49.36779 43.57224
# Shear Modulus (GPa) = 18.96147 28.61865 23.79006
#
# Velocity S-wave (km/s) = 3.00889 3.69654 3.37030
# Velocity P-wave (km/s) = 5.48710 6.46456 5.99578
#
# Compressibility (1/GPa) = 0.02647135
#
# Stress axis : x y z
#
# Youngs Moduli (GPa) = 143.56948 75.32108 49.50284
#
# Poissons Ratio (x) = 0.18059 0.13277
# Poissons Ratio (y) = 0.34423 0.09435
# Poissons Ratio (z) = 0.38507 0.14355
#
# Static dielectric constant tensor:
#      x y z
#    x 1.756290 0.000000 -0.086140 
#    y 0.000000 1.771850 0.000000 
#    z -0.086140 0.000000 1.915380 
# 
# From -- ./inp_files/10135.got.cif
#   From: 2010.05.17/outbox.cif.g08.bks.cpg/sg5_6_cif.got.tgz:10135.got - 2010.06.03 18:56:24.
