data_PCOD9127412
_publ_section_title
;
Structure prediction by ZEFSAII (Michael W. Deem and Ramdas Pophale) SiO2 
 PCOD9127412
Probable space group: C 2
;
_chemical_formula_sum "Si O2"
_cell_formula_units_Z 24
_cell_length_a 15.873194
_cell_length_b 12.178691
_cell_length_c 8.586391
_cell_angle_alpha 90.000000
_cell_angle_beta 138.033126
_cell_angle_gamma 90.000000
_cell_volume 1109.960351
_symmetry_space_group_name_H-M "C 2"
_symmetry_group_IT_number 5
_symmetry_cell_setting 'monoclinic'
loop_
_space_group_symop_operation_xyz
x,y,z
-x,y,-z
1/2+x,1/2+y,z
1/2-x,1/2+y,-z
loop_
_atom_site_type_symbol
_atom_site_label
_atom_site_fract_x
_atom_site_fract_y
_atom_site_fract_z
Si Si1 0.059245 0.093490 0.736327
Si Si2 0.457534 0.799587 0.117585
Si Si3 0.673235 0.998135 0.909783
Si Si4 0.201965 0.360272 0.641177
Si Si5 0.566719 0.207778 0.927784
Si Si6 0.581576 0.418713 0.270132
O O1 0.105733 0.186221 0.918346
O O2 0.000000 0.141877 0.500000
O O3 0.179875 0.021093 0.863798
O O4 0.953202 0.018099 0.668099
O O5 0.579205 0.809461 0.395891
O O6 0.371800 0.902693 0.037578
O O7 0.500000 0.795972 0.000000
O O8 0.596751 0.107884 0.853329
O O9 0.664422 0.947750 0.722970
O O10 0.277985 0.413440 0.601032
O O11 0.301377 0.271299 0.849375
O O12 0.471340 0.302985 0.736280
O O13 0.500000 0.170991 0.000000
O O14 0.500000 0.434545 0.000000
#
# Coordination Sequence:
#
# PCOD9127412 Si02
#       6
#     4   4   4   4   4   4
#     4  12  25  42  71  98 137 171 223 272 331 392
#     4  12  28  45  65 101 134 177 223 271 333 389
#     4  12  22  41  69  98 132 173 217 276 324 391
#     4  10  22  46  69  93 137 172 223 266 334 386
#     4   9  19  40  68  97 132 171 216 269 329 388
#     4   9  19  43  68  98 127 178 215 270 326 393
#
# _framework density 21.622395000000001
#
# number of rings (size 3 to 8) (size 9 to 14) (size 15 to 20)
#    0.000    1.667    3.333    4.500    2.333    0.000 
#    6.000    5.000    0.000    0.000    0.000    0.000 
#    0.000    0.000    0.000    0.000    0.000    0.000 
#
# Total GULP energy -67041.335326 kJ/mol
# GULP energy per Si atom -5586.777944 kJ/mol
# Density = 2.157318 g / cm^3
# Si number density = 21.622395 Si / 1000 Ang^3
#
#
#
# Elastic Constant Matrix: (Units=GPa)
#
#
# Indices 1 2 3 4 5 6 
#
# 1 123.5785 75.9774 30.1008 0.0000 -21.4170 0.0000
# 2 75.9774 124.8030 22.1608 0.0000 -32.6897 0.0000
# 3 30.1008 22.1608 50.8480 0.0000 -12.3747 0.0000
# 4 0.0000 0.0000 0.0000 3.1252 0.0000 2.5924
# 5 -21.4170 -32.6897 -12.3747 0.0000 23.5913 0.0000
# 6 0.0000 0.0000 0.0000 2.5924 0.0000 32.3930
#
#
#
# Elastic Compliance Matrix: (Units=1/GPa)
#
#
# Indices 1 2 3 4 5 6 
#
# 1 0.014006 -0.007837 -0.005072 0.000000 -0.000804 0.000000
# 2 -0.007837 0.017053 0.001406 0.000000 0.017252 0.000000
# 3 -0.005072 0.001406 0.024543 0.000000 0.010218 0.000000
# 4 0.000000 0.000000 0.000000 0.342734 0.000000 -0.027429
# 5 -0.000804 0.017252 0.010218 0.000000 0.070924 0.000000
# 6 0.000000 0.000000 0.000000 -0.027429 0.000000 0.033066
#
#
# Mechanical properties :
#
#
# Convention : Reuss Voigt Hill
#
# Bulk Modulus (GPa) = 30.67806 61.74527 46.21166
# Shear Modulus (GPa) = 9.32495 23.22127 16.27311
#
# Velocity S-wave (km/s) = 2.07894 3.28067 2.74634
# Velocity P-wave (km/s) = 4.47007 6.55504 5.61026
#
# Compressibility (1/GPa) = 0.03259658
#
# Stress axis : x y z
#
# Youngs Moduli (GPa) = 71.39777 58.64158 40.74549
#
# Poissons Ratio (x) = 0.45955 0.20664
# Poissons Ratio (y) = 0.55952 -0.05728
# Poissons Ratio (z) = 0.36209 -0.08244
#
# Static dielectric constant tensor:
#      x y z
#    x 1.818680 0.000000 -0.006260 
#    y 0.000000 1.807480 0.000000 
#    z -0.006260 0.000000 1.778250 
# 
# From -- ./inp_files/24238.got.cif
#   From: 2010.05.17/outbox.cif.g08.bks.cpg/sg5_13_cif.got.tgz:24238.got - 2010.06.03 18:56:24.
