data_PCOD9127146
_publ_section_title
;
Structure prediction by ZEFSAII (Michael W. Deem and Ramdas Pophale) SiO2 
 PCOD9127146
Probable space group: C 2
;
_chemical_formula_sum "Si O2"
_cell_formula_units_Z 26
_cell_length_a 20.215328
_cell_length_b 8.548649
_cell_length_c 9.841134
_cell_angle_alpha 90.000000
_cell_angle_beta 131.891705
_cell_angle_gamma 90.000000
_cell_volume 1266.002565
_symmetry_space_group_name_H-M "C 2"
_symmetry_group_IT_number 5
_symmetry_cell_setting 'monoclinic'
loop_
_space_group_symop_operation_xyz
x,y,z
-x,y,-z
1/2+x,1/2+y,z
1/2-x,1/2+y,-z
loop_
_atom_site_type_symbol
_atom_site_label
_atom_site_fract_x
_atom_site_fract_y
_atom_site_fract_z
Si Si1 0.500000 0.343920 0.000000
Si Si2 0.482980 0.046422 0.126224
Si Si3 0.186538 0.169183 0.980478
Si Si4 0.194212 0.978822 0.248103
Si Si5 0.275491 0.004729 0.860133
Si Si6 0.489014 0.771223 0.647472
Si Si7 0.700063 0.667942 0.517299
O O1 0.483852 0.222496 0.852587
O O2 0.410367 0.438250 0.894388
O O3 0.522187 0.942355 0.299230
O O4 0.500000 0.969441 0.000000
O O5 0.378120 0.054291 0.006404
O O6 0.218628 0.119303 0.876530
O O7 0.080392 0.198554 0.831596
O O8 0.215096 0.035588 0.125323
O O9 0.229747 0.330369 0.090151
O O10 0.208459 0.121022 0.372346
O O11 0.249628 0.827208 0.370996
O O12 0.244257 0.028474 0.664232
O O13 0.500000 0.779380 0.500000
O O14 0.402231 0.679120 0.576631
#
# Coordination Sequence:
#
# PCOD9127146 Si02
#       7
#     2   4   4   4   4   4   4
#     4  10  22  44  66  94 128 178 224 266 320 402
#     4   9  22  40  69  91 133 177 216 267 330 400
#     4  11  25  44  70  93 132 184 214 270 338 404
#     4  12  26  41  70  96 132 175 225 274 335 386
#     4  11  22  44  66  98 132 171 222 269 331 393
#     4  11  24  42  65  98 135 172 219 273 337 387
#     4  12  25  43  66 101 134 166 227 284 321 391
#
# _framework density 20.537082999999999
#
# number of rings (size 3 to 8) (size 9 to 14) (size 15 to 20)
#    0.462    0.615    3.077    2.769   10.769    0.000 
#    0.000    0.000    0.000    0.000    0.000    0.000 
#    0.000    0.000    0.000    0.000    0.000    0.000 
#
# Total GULP energy -72622.085145 kJ/mol
# GULP energy per Si atom -5586.314242 kJ/mol
# Density = 2.049034 g / cm^3
# Si number density = 20.537083 Si / 1000 Ang^3
#
#
#
# Elastic Constant Matrix: (Units=GPa)
#
#
# Indices 1 2 3 4 5 6 
#
# 1 48.3786 3.7983 -6.3381 0.0000 -5.5028 0.0000
# 2 3.7983 65.0759 17.4667 0.0000 3.0564 0.0000
# 3 -6.3381 17.4667 61.2914 0.0000 -15.0416 0.0000
# 4 0.0000 0.0000 0.0000 32.7893 0.0000 -6.8755
# 5 -5.5028 3.0564 -15.0416 0.0000 33.5694 0.0000
# 6 0.0000 0.0000 0.0000 -6.8755 0.0000 31.2015
#
#
#
# Elastic Compliance Matrix: (Units=1/GPa)
#
#
# Indices 1 2 3 4 5 6 
#
# 1 0.022157 -0.002790 0.004539 0.000000 0.005920 0.000000
# 2 -0.002790 0.017506 -0.006495 0.000000 -0.004961 0.000000
# 3 0.004539 -0.006495 0.021306 0.000000 0.010882 0.000000
# 4 0.000000 0.000000 0.000000 0.031975 0.000000 0.007046
# 5 0.005920 -0.004961 0.010882 0.000000 0.036087 0.000000
# 6 0.000000 0.000000 0.000000 0.007046 0.000000 0.033602
#
#
# Mechanical properties :
#
#
# Convention : Reuss Voigt Hill
#
# Bulk Modulus (GPa) = 19.42547 22.73330 21.07938
# Shear Modulus (GPa) = 26.41527 30.16664 28.29095
#
# Velocity S-wave (km/s) = 3.59029 3.83676 3.71557
# Velocity P-wave (km/s) = 5.16393 5.54266 5.35664
#
# Compressibility (1/GPa) = 0.05147882
#
# Stress axis : x y z
#
# Youngs Moduli (GPa) = 45.13174 57.12410 46.93436
#
# Poissons Ratio (x) = 0.15935 -0.21304
# Poissons Ratio (y) = 0.12590 0.30483
# Poissons Ratio (z) = -0.20486 0.37101
#
# Static dielectric constant tensor:
#      x y z
#    x 1.692980 0.000000 0.004920 
#    y 0.000000 1.738640 0.000000 
#    z 0.004920 0.000000 1.716820 
# 
# From -- ./inp_files/29104.got.cif
#   From: 2010.05.17/outbox.cif.g08.bks.cpg/sg5_15_cif.got.tgz:29104.got - 2010.06.03 18:56:24.
