data_PCOD9127243
_publ_section_title
;
Structure prediction by ZEFSAII (Michael W. Deem and Ramdas Pophale) SiO2 
 PCOD9127243
Probable space group: C 2
;
_chemical_formula_sum "Si O2"
_cell_formula_units_Z 14
_cell_length_a 6.936832
_cell_length_b 9.856101
_cell_length_c 10.209482
_cell_angle_alpha 90.000000
_cell_angle_beta 127.950392
_cell_angle_gamma 90.000000
_cell_volume 550.421884
_symmetry_space_group_name_H-M "C 2"
_symmetry_group_IT_number 5
_symmetry_cell_setting 'monoclinic'
loop_
_space_group_symop_operation_xyz
x,y,z
-x,y,-z
1/2+x,1/2+y,z
1/2-x,1/2+y,-z
loop_
_atom_site_type_symbol
_atom_site_label
_atom_site_fract_x
_atom_site_fract_y
_atom_site_fract_z
Si Si1 0.500000 0.851501 0.500000
Si Si2 0.260219 0.128305 0.987379
Si Si3 0.488340 0.492900 0.352533
Si Si4 0.533274 0.876383 0.804009
O O1 0.253021 0.929004 0.441507
O O2 0.574070 0.807415 0.679391
O O3 0.167938 0.280548 0.965460
O O4 0.661464 0.025052 0.865603
O O5 0.500000 0.137285 0.000000
O O6 0.066048 0.060536 0.809054
O O7 0.500000 0.571164 0.500000
O O8 0.253698 0.395335 0.281997
#
# Coordination Sequence:
#
# PCOD9127243 Si02
#       4
#     2   4   4   4
#     4  10  22  44  72 100 132 192 224 274 346 412
#     4  10  23  44  71 101 140 178 227 285 339 407
#     4   9  21  45  65 103 140 175 228 285 336 406
#     4  10  23  46  70 101 140 177 230 284 339 405
#
# _framework density 25.435034000000002
#
# number of rings (size 3 to 8) (size 9 to 14) (size 15 to 20)
#    0.000    2.286    0.000    0.000    6.000    0.000 
#   23.143    0.000    0.000    0.000    0.000    0.000 
#    0.000    0.000    0.000    0.000    0.000    0.000 
#
# Total GULP energy -38978.949919 kJ/mol
# GULP energy per Si atom -5568.421417 kJ/mol
# Density = 2.537714 g / cm^3
# Si number density = 25.435034 Si / 1000 Ang^3
#
#
#
# Elastic Constant Matrix: (Units=GPa)
#
#
# Indices 1 2 3 4 5 6 
#
# 1 112.8701 24.8737 42.9334 0.0003 -28.2134 0.0005
# 2 24.8737 59.1377 29.8550 0.0000 1.4269 0.0000
# 3 42.9334 29.8550 111.5426 0.0000 -2.2665 0.0001
# 4 0.0003 0.0000 0.0000 69.4759 0.0002 0.4708
# 5 -28.2134 1.4269 -2.2665 0.0002 44.3322 0.0004
# 6 0.0005 0.0000 0.0001 0.4708 0.0004 4.4666
#
#
#
# Elastic Compliance Matrix: (Units=1/GPa)
#
#
# Indices 1 2 3 4 5 6 
#
# 1 0.013286 -0.003809 -0.003924 0.000000 0.008377 -0.000002
# 2 -0.003809 0.020679 -0.004136 0.000000 -0.003301 0.000001
# 3 -0.003924 -0.004136 0.011546 0.000000 -0.001774 0.000000
# 4 0.000000 0.000000 0.000000 0.014404 0.000000 -0.001518
# 5 0.008377 -0.003301 -0.001774 0.000000 0.027904 -0.000003
# 6 -0.000002 0.000001 0.000000 -0.001518 -0.000003 0.224046
#
#
# Mechanical properties :
#
#
# Convention : Reuss Voigt Hill
#
# Bulk Modulus (GPa) = 45.92723 53.20829 49.56776
# Shear Modulus (GPa) = 14.58315 36.04749 25.31532
#
# Velocity S-wave (km/s) = 2.39707 3.76871 3.15825
# Velocity P-wave (km/s) = 5.07515 6.31682 5.72972
#
# Compressibility (1/GPa) = 0.02177357
#
# Stress axis : x y z
#
# Youngs Moduli (GPa) = 75.26840 48.35714 86.60638
#
# Poissons Ratio (x) = 0.18420 0.33984
# Poissons Ratio (y) = 0.28672 0.35819
# Poissons Ratio (z) = 0.29535 0.20000
#
# Static dielectric constant tensor:
#      x y z
#    x 1.920690 0.000000 -0.027270 
#    y 0.000000 2.150900 0.000000 
#    z -0.027270 0.000000 2.051450 
# 
# From -- ./inp_files/11518.got.cif
#   From: 2010.05.17/outbox.cif.g08.bks.cpg/sg5_6_cif.got.tgz:11518.got - 2010.06.03 18:56:24.
