data_PCOD9127686
_publ_section_title
;
Structure prediction by ZEFSAII (Michael W. Deem and Ramdas Pophale) SiO2 
 PCOD9127686
Probable space group: C 2
;
_chemical_formula_sum "Si O2"
_cell_formula_units_Z 18
_cell_length_a 4.983510
_cell_length_b 21.528128
_cell_length_c 7.091051
_cell_angle_alpha 90.000000
_cell_angle_beta 69.427212
_cell_angle_gamma 90.000000
_cell_volume 712.251144
_symmetry_space_group_name_H-M "C 2"
_symmetry_group_IT_number 5
_symmetry_cell_setting 'monoclinic'
loop_
_space_group_symop_operation_xyz
x,y,z
-x,y,-z
1/2+x,1/2+y,z
1/2-x,1/2+y,-z
loop_
_atom_site_type_symbol
_atom_site_label
_atom_site_fract_x
_atom_site_fract_y
_atom_site_fract_z
Si Si1 0.832168 0.177400 0.240891
Si Si2 0.926943 0.039937 0.240890
Si Si3 0.073953 0.459352 0.761709
Si Si4 0.000000 0.858669 0.500000
Si Si5 0.835663 0.757985 0.238291
O O1 0.837607 0.108669 0.324787
O O2 0.513201 0.200345 0.281173
O O3 0.014602 0.232922 0.290080
O O4 0.000000 0.172398 0.000000
O O5 0.695319 0.984415 0.290080
O O6 0.205627 0.016992 0.281172
O O7 0.000000 0.044939 0.000000
O O8 0.242310 0.401122 0.639545
O O9 0.000000 0.446206 0.000000
O O10 0.881858 0.816215 0.360454
O O11 0.000000 0.771131 0.000000
#
# Coordination Sequence:
#
# PCOD9127686 Si02
#       5
#     4   4   4   2   4
#     4   9  18  38  68  99 131 170 221 283 349 405
#     4   9  18  38  68  99 131 170 221 283 349 405
#     4  10  23  41  66  99 135 179 226 279 338 402
#     4  12  28  46  68 100 144 190 236 276 328 408
#     4  10  23  41  66  99 135 179 226 279 338 402
#
# _framework density 25.271984
#
# number of rings (size 3 to 8) (size 9 to 14) (size 15 to 20)
#    0.000    2.222    0.000    1.333    0.000   16.000 
#    0.000    4.444    0.000    0.000    0.000    0.000 
#    0.000    0.000    0.000    0.000    0.000    0.000 
#
# Total GULP energy -50463.250792 kJ/mol
# GULP energy per Si atom -5607.027866 kJ/mol
# Density = 2.521446 g / cm^3
# Si number density = 25.271984 Si / 1000 Ang^3
#
#
#
# Elastic Constant Matrix: (Units=GPa)
#
#
# Indices 1 2 3 4 5 6 
#
# 1 97.6251 25.4200 -1.9829 0.0000 -2.8537 0.0000
# 2 25.4200 165.2297 51.1688 0.0000 2.4689 0.0000
# 3 -1.9829 51.1688 121.6206 0.0000 5.1548 0.0000
# 4 0.0000 0.0000 0.0000 12.1716 0.0000 0.7671
# 5 -2.8537 2.4689 5.1548 0.0000 35.6896 0.0000
# 6 0.0000 0.0000 0.0000 0.7671 0.0000 4.1662
#
#
#
# Elastic Compliance Matrix: (Units=1/GPa)
#
#
# Indices 1 2 3 4 5 6 
#
# 1 0.010802 -0.001975 0.000971 0.000000 0.000860 0.000000
# 2 -0.001975 0.007320 -0.003103 0.000000 -0.000216 0.000000
# 3 0.000971 -0.003103 0.009590 0.000000 -0.001093 0.000000
# 4 0.000000 0.000000 0.000000 0.083123 0.000000 -0.015304
# 5 0.000860 -0.000216 -0.001093 0.000000 0.028261 0.000000
# 6 0.000000 0.000000 0.000000 -0.015304 0.000000 0.242846
#
#
# Mechanical properties :
#
#
# Convention : Reuss Voigt Hill
#
# Bulk Modulus (GPa) = 51.28829 59.29856 55.29343
# Shear Modulus (GPa) = 12.60536 31.06344 21.83440
#
# Velocity S-wave (km/s) = 2.23578 3.50975 2.94254
# Velocity P-wave (km/s) = 5.19649 6.31977 5.78546
#
# Compressibility (1/GPa) = 0.01949763
#
# Stress axis : x y z
#
# Youngs Moduli (GPa) = 92.57129 136.60804 104.27662
#
# Poissons Ratio (x) = 0.26986 -0.10123
# Poissons Ratio (y) = 0.18287 0.32355
# Poissons Ratio (z) = -0.08986 0.42387
#
# Static dielectric constant tensor:
#      x y z
#    x 1.940580 0.000000 0.016590 
#    y 0.000000 1.898490 0.000000 
#    z 0.016590 0.000000 2.113670 
# 
# From -- ./inp_files/12017.got.cif
#   From: 2010.05.17/outbox.cif.g08.bks.cpg/sg5_7_cif.got.tgz:12017.got - 2010.06.03 18:56:24.
