data_PCOD9127317
_publ_section_title
;
Structure prediction by ZEFSAII (Michael W. Deem and Ramdas Pophale) SiO2 
 PCOD9127317
Probable space group: C 2
;
_chemical_formula_sum "Si O2"
_cell_formula_units_Z 24
_cell_length_a 19.358534
_cell_length_b 5.061364
_cell_length_c 12.811201
_cell_angle_alpha 90.000000
_cell_angle_beta 47.091364
_cell_angle_gamma 90.000000
_cell_volume 919.394935
_symmetry_space_group_name_H-M "C 2"
_symmetry_group_IT_number 5
_symmetry_cell_setting 'monoclinic'
loop_
_space_group_symop_operation_xyz
x,y,z
-x,y,-z
1/2+x,1/2+y,z
1/2-x,1/2+y,-z
loop_
_atom_site_type_symbol
_atom_site_label
_atom_site_fract_x
_atom_site_fract_y
_atom_site_fract_z
Si Si1 0.328903 0.000000 0.675345
Si Si2 0.644316 0.561153 0.974086
Si Si3 0.096037 0.779175 0.215295
Si Si4 0.000000 0.693531 0.000000
Si Si5 0.301893 0.689667 0.495970
Si Si6 0.000000 0.843659 0.500000
Si Si7 0.021336 0.419912 0.788091
O O1 0.415394 0.167382 0.537535
O O2 0.368557 0.025723 0.754511
O O3 0.307755 0.766393 0.614061
O O4 0.228215 0.127436 0.808788
O O5 0.667127 0.402186 0.058607
O O6 0.573591 0.374805 0.983469
O O7 0.580196 0.797863 0.080168
O O8 0.057613 0.975027 0.346663
O O9 0.005048 0.680845 0.247347
O O10 0.940702 0.512423 0.139612
O O11 0.239144 0.910225 0.498978
O O12 0.406702 0.733958 0.343747
#
# Coordination Sequence:
#
# PCOD9127317 Si02
#       7
#     4   4   4   2   4   2   4
#     4  10  22  45  67 105 139 191 240 299 365 431
#     4  11  24  39  72  99 138 186 243 295 364 429
#     4   9  21  43  66  95 139 176 236 298 359 423
#     4  10  24  42  64  98 144 184 238 306 352 434
#     4  12  28  47  76 107 148 194 247 297 366 439
#     4   8  18  42  68  86 142 178 232 290 366 422
#     4  11  23  43  69 100 140 188 240 304 361 430
#
# _framework density 26.104125
#
# number of rings (size 3 to 8) (size 9 to 14) (size 15 to 20)
#    1.000    0.667    1.667    1.500   11.667    0.000 
#    3.000    0.833    0.000    0.000    0.000    0.000 
#    0.000    0.000    0.000    0.000    0.000    0.000 
#
# Total GULP energy -66850.386949 kJ/mol
# GULP energy per Si atom -5570.865579 kJ/mol
# Density = 2.604471 g / cm^3
# Si number density = 26.104125 Si / 1000 Ang^3
#
#
#
# Elastic Constant Matrix: (Units=GPa)
#
#
# Indices 1 2 3 4 5 6 
#
# 1 98.7626 18.7463 28.8238 0.0007 20.3568 -0.0123
# 2 18.7463 65.4470 12.8838 0.0073 -1.1835 -0.0393
# 3 28.8238 12.8838 162.9197 0.0016 -6.9754 -0.0104
# 4 0.0007 0.0073 0.0016 21.5906 0.0028 -2.3346
# 5 20.3568 -1.1835 -6.9754 0.0028 45.9071 0.0020
# 6 -0.0123 -0.0393 -0.0104 -2.3346 0.0020 6.8972
#
#
#
# Elastic Compliance Matrix: (Units=1/GPa)
#
#
# Indices 1 2 3 4 5 6 
#
# 1 0.012646 -0.003291 -0.002235 0.000002 -0.006032 0.000003
# 2 -0.003291 0.016380 -0.000637 0.000004 0.001785 0.000087
# 3 -0.002235 -0.000637 0.006669 0.000000 0.001988 0.000002
# 4 0.000002 0.000004 0.000000 0.048076 -0.000004 0.016273
# 5 -0.006032 0.001785 0.001988 -0.000004 0.024806 -0.000006
# 6 0.000003 0.000087 0.000002 0.016273 -0.000006 0.150496
#
#
# Mechanical properties :
#
#
# Convention : Reuss Voigt Hill
#
# Bulk Modulus (GPa) = 42.79301 49.78191 46.28746
# Shear Modulus (GPa) = 17.90907 32.65733 25.28320
#
# Velocity S-wave (km/s) = 2.62212 3.54084 3.11553
# Velocity P-wave (km/s) = 5.05926 5.98571 5.54188
#
# Compressibility (1/GPa) = 0.02336831
#
# Stress axis : x y z
#
# Youngs Moduli (GPa) = 79.07843 61.05044 149.94925
#
# Poissons Ratio (x) = 0.20093 0.33518
# Poissons Ratio (y) = 0.26026 0.09546
# Poissons Ratio (z) = 0.17676 0.03887
#
# Static dielectric constant tensor:
#      x y z
#    x 2.103400 0.000000 0.007880 
#    y 0.000000 2.102670 -0.000010 
#    z 0.007880 -0.000010 2.094140 
# 
# From -- ./inp_files/56484.got.cif
#   From: 2010.05.17/outbox.cif.g08.bks.cpg/sg5_29_cif.got.tgz:56484.got - 2010.06.03 18:56:24.
