data_PCOD9127184
_publ_section_title
;
Structure prediction by ZEFSAII (Michael W. Deem and Ramdas Pophale) SiO2 
 PCOD9127184
Probable space group: C 2
;
_chemical_formula_sum "Si O2"
_cell_formula_units_Z 18
_cell_length_a 18.376949
_cell_length_b 5.485778
_cell_length_c 18.787290
_cell_angle_alpha 90.000000
_cell_angle_beta 155.108273
_cell_angle_gamma 90.000000
_cell_volume 797.186063
_symmetry_space_group_name_H-M "C 2"
_symmetry_group_IT_number 5
_symmetry_cell_setting 'monoclinic'
loop_
_space_group_symop_operation_xyz
x,y,z
-x,y,-z
1/2+x,1/2+y,z
1/2-x,1/2+y,-z
loop_
_atom_site_type_symbol
_atom_site_label
_atom_site_fract_x
_atom_site_fract_y
_atom_site_fract_z
Si Si1 0.081598 0.630090 0.147472
Si Si2 0.971259 0.305676 0.669157
Si Si3 0.354245 0.907750 0.323229
Si Si4 0.000000 0.185078 0.000000
Si Si5 0.554571 0.307636 0.275514
O O1 0.280318 0.692675 0.308913
O O2 0.018571 0.772676 0.159904
O O3 0.000000 0.718240 0.000000
O O4 0.027277 0.351467 0.095781
O O5 0.764243 0.306323 0.470222
O O6 0.009576 0.561477 0.742661
O O7 0.072285 0.305859 0.684723
O O8 0.009410 0.061260 0.748040
O O9 0.500000 0.035912 0.500000
O O10 0.194276 0.083914 0.165905
#
# Coordination Sequence:
#
# PCOD9127184 Si02
#       5
#     4   4   4   2   4
#     4  10  24  44  70 100 151 192 244 307 377 441
#     4  10  24  40  72 111 147 190 256 304 385 445
#     4  12  24  45  76 109 145 200 258 309 379 462
#     4  10  26  44  74 110 150 190 262 318 372 446
#     4  10  22  44  68 109 152 192 243 321 369 455
#
# _framework density 22.579419999999999
#
# number of rings (size 3 to 8) (size 9 to 14) (size 15 to 20)
#    0.667    0.889    3.333    0.000    6.222    2.667 
#    0.000    4.444    0.000    0.000    0.000    0.000 
#    0.000    0.000    0.000    0.000    0.000    0.000 
#
# Total GULP energy -50131.646755 kJ/mol
# GULP energy per Si atom -5570.182973 kJ/mol
# Density = 2.252803 g / cm^3
# Si number density = 22.579420 Si / 1000 Ang^3
#
#
#
# Elastic Constant Matrix: (Units=GPa)
#
#
# Indices 1 2 3 4 5 6 
#
# 1 161.7432 83.1122 46.9012 0.0001 -23.9667 -0.0002
# 2 83.1122 130.8672 57.7862 0.0002 0.1836 0.0008
# 3 46.9012 57.7862 68.9756 0.0000 -6.4461 0.0001
# 4 0.0001 0.0002 0.0000 17.2181 0.0003 -9.4453
# 5 -23.9667 0.1836 -6.4461 0.0003 31.4542 0.0002
# 6 -0.0002 0.0008 0.0001 -9.4453 0.0002 15.7534
#
#
#
# Elastic Compliance Matrix: (Units=1/GPa)
#
#
# Indices 1 2 3 4 5 6 
#
# 1 0.011126 -0.006471 -0.001375 0.000000 0.008234 0.000001
# 2 -0.006471 0.016041 -0.009694 -0.000001 -0.007011 -0.000001
# 3 -0.001375 -0.009694 0.023920 0.000000 0.003911 0.000001
# 4 0.000000 -0.000001 0.000000 0.086543 -0.000001 0.051888
# 5 0.008234 -0.007011 0.003911 -0.000001 0.038908 0.000000
# 6 0.000001 -0.000001 0.000001 0.051888 0.000000 0.094589
#
#
# Mechanical properties :
#
#
# Convention : Reuss Voigt Hill
#
# Bulk Modulus (GPa) = 62.47067 81.90945 72.19006
# Shear Modulus (GPa) = 16.04911 24.47091 20.26001
#
# Velocity S-wave (km/s) = 2.66895 3.29564 2.99871
# Velocity P-wave (km/s) = 6.10122 7.12998 6.63556
#
# Compressibility (1/GPa) = 0.01600751
#
# Stress axis : x y z
#
# Youngs Moduli (GPa) = 89.87656 62.33949 41.80562
#
# Poissons Ratio (x) = 0.40337 0.05749
# Poissons Ratio (y) = 0.58155 0.40528
# Poissons Ratio (z) = 0.12360 0.60434
#
# Static dielectric constant tensor:
#      x y z
#    x 1.823900 0.000000 -0.029870 
#    y 0.000000 2.300490 0.000000 
#    z -0.029870 0.000000 1.950760 
# 
# From -- ./inp_files/25787.got.cif
#   From: 2010.05.17/outbox.cif.g08.bks.cpg/sg5_13_cif.got.tgz:25787.got - 2010.06.03 18:56:24.
