data_PCOD9127547
_publ_section_title
;
Structure prediction by ZEFSAII (Michael W. Deem and Ramdas Pophale) SiO2 
 PCOD9127547
Probable space group: C 2
;
_chemical_formula_sum "Si O2"
_cell_formula_units_Z 26
_cell_length_a 6.514129
_cell_length_b 13.418729
_cell_length_c 13.010436
_cell_angle_alpha 90.000000
_cell_angle_beta 80.957268
_cell_angle_gamma 90.000000
_cell_volume 1123.124987
_symmetry_space_group_name_H-M "C 2"
_symmetry_group_IT_number 5
_symmetry_cell_setting 'monoclinic'
loop_
_space_group_symop_operation_xyz
x,y,z
-x,y,-z
1/2+x,1/2+y,z
1/2-x,1/2+y,-z
loop_
_atom_site_type_symbol
_atom_site_label
_atom_site_fract_x
_atom_site_fract_y
_atom_site_fract_z
Si Si1 0.651501 0.308390 0.902034
Si Si2 0.000000 0.424134 0.000000
Si Si3 0.332448 0.586481 0.437960
Si Si4 0.238463 0.860546 0.328022
Si Si5 0.500000 0.931348 0.500000
Si Si6 0.500000 0.245142 0.500000
Si Si7 0.375196 0.491288 0.841936
Si Si8 0.014932 0.193878 0.227315
O O1 0.522237 0.401209 0.867313
O O2 0.754911 0.238566 0.807712
O O3 0.851135 0.353992 0.944143
O O4 0.500000 0.260355 0.000000
O O5 0.160148 0.488479 0.920787
O O6 0.500000 0.540820 0.500000
O O7 0.166648 0.501206 0.427823
O O8 0.451948 0.641361 0.338242
O O9 0.196168 0.673201 0.501169
O O10 0.386164 0.875152 0.416021
O O11 0.185346 0.960072 0.270069
O O12 0.349148 0.784297 0.239477
O O13 0.039330 0.809535 0.395442
O O14 0.488144 0.597297 0.846374
#
# Coordination Sequence:
#
# PCOD9127547 Si02
#       8
#     4   2   4   4   2   2   4   4
#     4  10  24  48  73 102 142 177 229 293 353 421
#     4  10  22  52  68 106 140 176 230 292 356 420
#     4  10  23  44  66  99 140 187 243 284 350 419
#     4  11  25  45  71 101 144 187 235 291 347 415
#     4  11  26  44  67 100 152 188 231 304 341 412
#     4   9  24  40  63  96 132 184 231 290 345 406
#     4  11  25  46  73 100 141 183 234 290 349 421
#     4  11  25  43  72 105 133 187 233 282 351 421
#
# _framework density 23.149695000000001
#
# number of rings (size 3 to 8) (size 9 to 14) (size 15 to 20)
#    0.000    1.538    1.538    0.923   12.923    0.000 
#    9.692    0.000    0.000    0.000    0.000    0.000 
#    0.000    0.000    0.000    0.000    0.000    0.000 
#
# Total GULP energy -72587.365799 kJ/mol
# GULP energy per Si atom -5583.643523 kJ/mol
# Density = 2.309701 g / cm^3
# Si number density = 23.149695 Si / 1000 Ang^3
#
#
#
# Elastic Constant Matrix: (Units=GPa)
#
#
# Indices 1 2 3 4 5 6 
#
# 1 98.2854 36.6697 50.8968 0.0000 -21.4817 0.0000
# 2 36.6697 100.4793 26.1487 0.0000 -26.0005 0.0000
# 3 50.8968 26.1487 89.6458 0.0000 -37.1222 0.0000
# 4 0.0000 0.0000 0.0000 10.4605 0.0000 -10.9219
# 5 -21.4817 -26.0005 -37.1222 0.0000 57.3039 0.0000
# 6 0.0000 0.0000 0.0000 -10.9219 0.0000 37.3155
#
#
#
# Elastic Compliance Matrix: (Units=1/GPa)
#
#
# Indices 1 2 3 4 5 6 
#
# 1 0.015624 -0.003877 -0.008258 0.000000 -0.001252 0.000000
# 2 -0.003877 0.012409 0.000425 0.000000 0.004452 0.000000
# 3 -0.008258 0.000425 0.019840 0.000000 0.009950 0.000000
# 4 0.000000 0.000000 0.000000 0.137671 0.000000 0.040295
# 5 -0.001252 0.004452 0.009950 0.000000 0.025447 0.000000
# 6 0.000000 0.000000 0.000000 0.040295 0.000000 0.038593
#
#
# Mechanical properties :
#
#
# Convention : Reuss Voigt Hill
#
# Bulk Modulus (GPa) = 40.89467 57.31568 49.10517
# Shear Modulus (GPa) = 17.78398 32.66231 25.22314
#
# Velocity S-wave (km/s) = 2.77468 3.76029 3.30444
# Velocity P-wave (km/s) = 5.28855 6.60799 5.98474
#
# Compressibility (1/GPa) = 0.02445306
#
# Stress axis : x y z
#
# Youngs Moduli (GPa) = 64.00591 80.58988 50.40442
#
# Poissons Ratio (x) = 0.31242 0.41623
# Poissons Ratio (y) = 0.24813 -0.02143
# Poissons Ratio (z) = 0.52855 -0.03427
#
# Static dielectric constant tensor:
#      x y z
#    x 1.836470 0.000000 -0.013170 
#    y 0.000000 1.884770 0.000000 
#    z -0.013170 0.000000 1.923150 
# 
# From -- ./inp_files/48936.got.cif
#   From: 2010.05.17/outbox.cif.g08.bks.cpg/sg5_25_cif.got.tgz:48936.got - 2010.06.03 18:56:24.
