data_PCOD9127166
_publ_section_title
;
Structure prediction by ZEFSAII (Michael W. Deem and Ramdas Pophale) SiO2 
 PCOD9127166
Probable space group: C 2
;
_chemical_formula_sum "Si O2"
_cell_formula_units_Z 24
_cell_length_a 10.792140
_cell_length_b 7.657730
_cell_length_c 21.667182
_cell_angle_alpha 90.000000
_cell_angle_beta 141.345957
_cell_angle_gamma 90.000000
_cell_volume 1118.467796
_symmetry_space_group_name_H-M "C 2"
_symmetry_group_IT_number 5
_symmetry_cell_setting 'monoclinic'
loop_
_space_group_symop_operation_xyz
x,y,z
-x,y,-z
1/2+x,1/2+y,z
1/2-x,1/2+y,-z
loop_
_atom_site_type_symbol
_atom_site_label
_atom_site_fract_x
_atom_site_fract_y
_atom_site_fract_z
Si Si1 0.304838 0.439040 0.705111
Si Si2 0.392494 0.303143 0.267068
Si Si3 0.836689 0.799687 0.387439
Si Si4 0.680752 0.670420 0.895133
Si Si5 0.615673 0.891603 0.753176
Si Si6 0.509457 0.889793 0.939859
O O1 0.401627 0.332718 0.687336
O O2 0.170024 0.589331 0.622941
O O3 0.492685 0.543626 0.808059
O O4 0.193996 0.333678 0.716047
O O5 0.388261 0.352326 0.337307
O O6 0.217067 0.416305 0.168264
O O7 0.344550 0.099438 0.235546
O O8 0.618074 0.858932 0.324724
O O9 0.000000 0.855238 0.500000
O O10 0.718785 0.790751 0.849849
O O11 0.612607 0.795757 0.923579
O O12 0.860221 0.555940 0.990801
O O13 0.500000 0.780724 0.000000
#
# Coordination Sequence:
#
# PCOD9127166 Si02
#       6
#     4   4   4   4   4   4
#     4  10  22  44  67  95 135 173 221 281 336 397
#     4  11  23  44  66  97 141 172 228 280 329 401
#     4  10  23  45  71  98 133 174 223 282 344 402
#     4  11  25  41  64  94 134 184 227 272 330 389
#     4  10  22  44  67  94 135 176 221 286 335 395
#     4  12  25  41  62  97 132 180 231 274 322 400
#
# _framework density 21.457924999999999
#
# number of rings (size 3 to 8) (size 9 to 14) (size 15 to 20)
#    0.000    1.333    6.667    0.000    2.333    8.000 
#    0.000    0.833    0.000    0.000    0.000    0.000 
#    0.000    0.000    0.000    0.000    0.000    0.000 
#
# Total GULP energy -66977.716407 kJ/mol
# GULP energy per Si atom -5581.476367 kJ/mol
# Density = 2.140909 g / cm^3
# Si number density = 21.457925 Si / 1000 Ang^3
#
#
#
# Elastic Constant Matrix: (Units=GPa)
#
#
# Indices 1 2 3 4 5 6 
#
# 1 195.8478 31.2802 52.0769 0.0000 -27.4369 0.0000
# 2 31.2802 47.7595 25.9846 0.0000 -6.0150 0.0000
# 3 52.0769 25.9846 122.0508 0.0000 -18.2047 0.0000
# 4 0.0000 0.0000 0.0000 19.8720 0.0000 5.2605
# 5 -27.4369 -6.0150 -18.2047 0.0000 25.9678 0.0000
# 6 0.0000 0.0000 0.0000 5.2605 0.0000 24.3969
#
#
#
# Elastic Compliance Matrix: (Units=1/GPa)
#
#
# Indices 1 2 3 4 5 6 
#
# 1 0.006714 -0.002936 -0.001433 0.000000 0.005409 0.000000
# 2 -0.002936 0.025077 -0.004112 0.000000 -0.000177 0.000000
# 3 -0.001433 -0.004112 0.010400 0.000000 0.004824 0.000000
# 4 0.000000 0.000000 0.000000 0.053368 0.000000 -0.011507
# 5 0.005409 -0.000177 0.004824 0.000000 0.047565 0.000000
# 6 0.000000 0.000000 0.000000 -0.011507 0.000000 0.043470
#
#
# Mechanical properties :
#
#
# Convention : Reuss Voigt Hill
#
# Bulk Modulus (GPa) = 39.63973 64.92683 52.28328
# Shear Modulus (GPa) = 23.58873 31.13511 27.36192
#
# Velocity S-wave (km/s) = 3.31917 3.81331 3.57479
# Velocity P-wave (km/s) = 5.76216 7.05067 6.43873
#
# Compressibility (1/GPa) = 0.02522722
#
# Stress axis : x y z
#
# Youngs Moduli (GPa) = 148.94861 39.87785 96.15663
#
# Poissons Ratio (x) = 0.11710 0.13776
# Poissons Ratio (y) = 0.43738 0.39542
# Poissons Ratio (z) = 0.21339 0.16399
#
# Static dielectric constant tensor:
#      x y z
#    x 1.862810 0.000000 -0.003820 
#    y 0.000000 1.816810 0.000000 
#    z -0.003820 0.000000 1.754080 
# 
# From -- ./inp_files/65076.got.cif
#   From: 2010.05.17/outbox.cif.g08.bks.cpg/sg5_33_cif.got.tgz:65076.got - 2010.06.03 18:56:24.
