data_PCOD9127910
_publ_section_title
;
Structure prediction by ZEFSAII (Michael W. Deem and Ramdas Pophale) SiO2 
 PCOD9127910
Probable space group: C 2
;
_chemical_formula_sum "Si O2"
_cell_formula_units_Z 32
_cell_length_a 16.793152
_cell_length_b 10.089469
_cell_length_c 14.718783
_cell_angle_alpha 90.000000
_cell_angle_beta 145.539789
_cell_angle_gamma 90.000000
_cell_volume 1411.111425
_symmetry_space_group_name_H-M "C 2"
_symmetry_group_IT_number 5
_symmetry_cell_setting 'monoclinic'
loop_
_space_group_symop_operation_xyz
x,y,z
-x,y,-z
1/2+x,1/2+y,z
1/2-x,1/2+y,-z
loop_
_atom_site_type_symbol
_atom_site_label
_atom_site_fract_x
_atom_site_fract_y
_atom_site_fract_z
Si Si1 0.249347 0.799510 0.116211
Si Si2 0.153963 0.999996 0.168036
Si Si3 0.471532 0.919399 0.210155
Si Si4 0.423033 0.075333 0.514479
Si Si5 0.540951 0.364306 0.391282
Si Si6 0.073979 0.766873 0.227704
Si Si7 0.683316 0.975199 0.273151
Si Si8 0.250880 0.012372 0.860252
O O1 0.232091 0.938991 0.152911
O O2 0.376561 0.806604 0.165451
O O3 0.276525 0.664050 0.195861
O O4 0.095059 0.775388 0.930671
O O5 0.122742 0.867201 0.196173
O O6 0.260803 0.083031 0.330044
O O7 0.000000 0.058129 0.000000
O O8 0.587727 0.880640 0.245750
O O9 0.546784 0.996156 0.364379
O O10 0.354103 0.002043 0.043526
O O11 0.500000 0.010525 0.500000
O O12 0.482182 0.222097 0.584173
O O13 0.611031 0.325192 0.360660
O O14 0.654204 0.451521 0.551046
O O15 0.393286 0.439980 0.249880
O O16 0.131382 0.621630 0.256608
O O17 0.671446 0.952710 0.154661
#
# Coordination Sequence:
#
# PCOD9127910 Si02
#       8
#     4   4   4   4   4   4   4   4
#     4  11  22  45  73 105 136 189 249 306 355 436
#     4  10  23  43  77 103 135 186 246 299 360 433
#     4  12  25  44  73 106 138 193 241 306 364 429
#     4  12  24  46  69 101 150 185 234 302 369 438
#     4  12  27  46  69 107 154 194 235 305 381 432
#     4  11  22  44  73 102 142 181 250 309 354 429
#     4  12  25  46  73 105 145 195 243 304 362 438
#     4  12  25  47  74 104 148 195 250 299 371 438
#
# _framework density 22.677160000000001
#
# number of rings (size 3 to 8) (size 9 to 14) (size 15 to 20)
#    0.000    0.500    6.250    2.250    0.000    2.000 
#    2.250    2.500    0.000    0.000    0.000    0.000 
#    0.000    0.000    0.000    0.000    0.000    0.000 
#
# Total GULP energy -89352.601550 kJ/mol
# GULP energy per Si atom -5584.537597 kJ/mol
# Density = 2.262555 g / cm^3
# Si number density = 22.677160 Si / 1000 Ang^3
#
#
#
# Elastic Constant Matrix: (Units=GPa)
#
#
# Indices 1 2 3 4 5 6 
#
# 1 109.5747 -7.2633 4.0259 0.0000 -9.8553 0.0000
# 2 -7.2633 20.4453 14.7634 0.0000 2.3737 0.0000
# 3 4.0259 14.7634 90.9919 0.0000 -5.3303 0.0000
# 4 0.0000 0.0000 0.0000 27.0107 0.0000 2.5510
# 5 -9.8553 2.3737 -5.3303 0.0000 38.7016 0.0000
# 6 0.0000 0.0000 0.0000 2.5510 0.0000 25.3567
#
#
#
# Elastic Compliance Matrix: (Units=1/GPa)
#
#
# Indices 1 2 3 4 5 6 
#
# 1 0.009602 0.003838 -0.000925 0.000000 0.002082 0.000000
# 2 0.003838 0.057787 -0.009775 0.000000 -0.003913 0.000000
# 3 -0.000925 -0.009775 0.012741 0.000000 0.002119 0.000000
# 4 0.000000 0.000000 0.000000 0.037377 0.000000 -0.003760
# 5 0.002082 -0.003913 0.002119 0.000000 0.026901 0.000000
# 6 0.000000 0.000000 0.000000 -0.003760 0.000000 0.039816
#
#
# Mechanical properties :
#
#
# Convention : Reuss Voigt Hill
#
# Bulk Modulus (GPa) = 15.05929 27.11820 21.08875
# Shear Modulus (GPa) = 22.71860 32.17953 27.44906
#
# Velocity S-wave (km/s) = 3.16860 3.77109 3.48289
# Velocity P-wave (km/s) = 4.47681 5.56289 5.04914
#
# Compressibility (1/GPa) = 0.06640421
#
# Stress axis : x y z
#
# Youngs Moduli (GPa) = 104.14649 17.30496 78.48665
#
# Poissons Ratio (x) = -0.06641 0.07264
# Poissons Ratio (y) = -0.39967 0.76720
# Poissons Ratio (z) = 0.09639 0.16915
#
# Static dielectric constant tensor:
#      x y z
#    x 1.877580 0.000000 -0.037290 
#    y 0.000000 1.819780 0.000000 
#    z -0.037290 0.000000 1.865880 
# 
# From -- ./inp_files/56041.got.cif
#   From: 2010.05.17/outbox.cif.g08.bks.cpg/sg5_29_cif.got.tgz:56041.got - 2010.06.03 18:56:24.
