data_PCOD9128639
_publ_section_title
;
Structure prediction by ZEFSAII (Michael W. Deem and Ramdas Pophale) SiO2 
 PCOD9128639
Probable space group: C 2
;
_chemical_formula_sum "Si O2"
_cell_formula_units_Z 22
_cell_length_a 18.054942
_cell_length_b 9.179659
_cell_length_c 5.418531
_cell_angle_alpha 90.000000
_cell_angle_beta 86.732779
_cell_angle_gamma 90.000000
_cell_volume 896.597918
_symmetry_space_group_name_H-M "C 2"
_symmetry_group_IT_number 5
_symmetry_cell_setting 'monoclinic'
loop_
_space_group_symop_operation_xyz
x,y,z
-x,y,-z
1/2+x,1/2+y,z
1/2-x,1/2+y,-z
loop_
_atom_site_type_symbol
_atom_site_label
_atom_site_fract_x
_atom_site_fract_y
_atom_site_fract_z
Si Si1 0.500000 0.029400 0.000000
Si Si2 0.365135 0.461347 0.837725
Si Si3 0.000000 0.853684 0.500000
Si Si4 0.659035 0.741408 0.382521
Si Si5 0.257661 0.010393 0.492179
Si Si6 0.500000 0.847390 0.500000
Si Si7 0.877398 0.709250 0.194475
O O1 0.426116 0.125112 0.982975
O O2 0.494628 0.937777 0.249191
O O3 0.448186 0.440515 0.707907
O O4 0.346327 0.633487 0.851760
O O5 0.301704 0.414533 0.652792
O O6 0.353232 0.361304 0.076626
O O7 0.939255 0.754021 0.379994
O O8 0.704249 0.644453 0.574102
O O9 0.575497 0.759105 0.480969
O O10 0.697316 0.898208 0.348039
O O11 0.316977 0.098587 0.311773
#
# Coordination Sequence:
#
# PCOD9128639 Si02
#       7
#     2   4   2   4   4   2   4
#     4  12  26  44  84 112 162 206 278 336 414 480
#     4  10  25  45  73 108 151 208 255 340 394 491
#     4  12  22  46  78 108 154 204 276 326 412 480
#     4  10  24  49  73 114 152 210 264 333 404 481
#     4  10  24  46  76 113 156 208 263 336 408 491
#     4  12  26  52  78 120 158 216 274 344 404 494
#     4  12  24  46  76 118 151 211 269 340 404 493
#
# _framework density 24.537196999999999
#
# number of rings (size 3 to 8) (size 9 to 14) (size 15 to 20)
#    1.091    0.000    3.636    2.182    0.000    2.909 
#    9.818    0.000    0.000    0.000    0.000    0.000 
#    0.000    0.000    0.000    0.000    0.000    0.000 
#
# Total GULP energy -61374.444158 kJ/mol
# GULP energy per Si atom -5579.494923 kJ/mol
# Density = 2.448135 g / cm^3
# Si number density = 24.537197 Si / 1000 Ang^3
#
#
#
# Elastic Constant Matrix: (Units=GPa)
#
#
# Indices 1 2 3 4 5 6 
#
# 1 180.6813 63.0911 26.0548 0.0000 0.7213 0.0000
# 2 63.0911 145.7671 40.3165 0.0000 -4.0591 0.0000
# 3 26.0548 40.3165 83.2344 0.0000 -7.0795 0.0000
# 4 0.0000 0.0000 0.0000 24.7120 0.0000 34.5957
# 5 0.7213 -4.0591 -7.0795 0.0000 19.9706 0.0000
# 6 0.0000 0.0000 0.0000 34.5957 0.0000 29.8183
#
#
#
# Elastic Compliance Matrix: (Units=1/GPa)
#
#
# Indices 1 2 3 4 5 6 
#
# 1 0.006587 -0.002639 -0.000876 0.000000 -0.001085 0.000000
# 2 -0.002639 0.008980 -0.003465 0.000000 0.000692 0.000000
# 3 -0.000876 -0.003465 0.014342 0.000000 0.004412 0.000000
# 4 0.000000 0.000000 0.000000 -0.064824 0.000000 0.075210
# 5 -0.001085 0.000692 0.004412 0.000000 0.051818 0.000000
# 6 0.000000 0.000000 0.000000 0.075210 0.000000 -0.053723
#
#
# Mechanical properties :
#
#
# Convention : Reuss Voigt Hill
#
# Bulk Modulus (GPa) = 62.69746 74.28972 68.49359
# Shear Modulus (GPa) = -284.97460 33.58154 -125.69653
#
# Velocity S-wave (km/s) = -10.78851 3.70347 -7.16506
# Velocity P-wave (km/s) = 11.38340 6.97350 6.36208
#
# Compressibility (1/GPa) = 0.01594961
#
# Stress axis : x y z
#
# Youngs Moduli (GPa) = 151.82166 111.35924 69.72574
#
# Poissons Ratio (x) = 0.29385 0.06107
# Poissons Ratio (y) = 0.40063 0.24158
# Poissons Ratio (z) = 0.13298 0.38583
#
# Static dielectric constant tensor:
#      x y z
#    x 1.961480 0.000000 -0.046730 
#    y 0.000000 2.012060 0.000000 
#    z -0.046730 0.000000 1.842170 
# 
# From -- ./inp_files/9294.got.cif
#   From: 2010.05.17/outbox.cif.g08.bks.cpg/sg5_5_cif.got.tgz:9294.got - 2010.06.03 18:56:24.
