data_PCOD9128540
_publ_section_title
;
Structure prediction by ZEFSAII (Michael W. Deem and Ramdas Pophale) SiO2 
 PCOD9128540
Probable space group: C 2
;
_chemical_formula_sum "Si O2"
_cell_formula_units_Z 18
_cell_length_a 13.026885
_cell_length_b 5.117251
_cell_length_c 18.691171
_cell_angle_alpha 90.000000
_cell_angle_beta 35.499233
_cell_angle_gamma 90.000000
_cell_volume 723.535252
_symmetry_space_group_name_H-M "C 2"
_symmetry_group_IT_number 5
_symmetry_cell_setting 'monoclinic'
loop_
_space_group_symop_operation_xyz
x,y,z
-x,y,-z
1/2+x,1/2+y,z
1/2-x,1/2+y,-z
loop_
_atom_site_type_symbol
_atom_site_label
_atom_site_fract_x
_atom_site_fract_y
_atom_site_fract_z
Si Si1 0.536852 0.127260 0.581252
Si Si2 0.707199 0.728526 0.069289
Si Si3 0.745993 0.631767 0.406435
Si Si4 0.654050 0.792096 0.770388
Si Si5 0.000000 0.520003 0.000000
O O1 0.622789 0.392120 0.502270
O O2 0.582806 0.122157 0.639263
O O3 0.330653 0.131246 0.682560
O O4 0.639259 0.891022 0.485483
O O5 0.497805 0.672047 0.194571
O O6 0.293917 0.062819 0.298328
O O7 0.772273 0.520342 0.972686
O O8 0.833153 0.684384 0.065374
O O9 0.567309 0.848271 0.895847
#
# Coordination Sequence:
#
# PCOD9128540 Si02
#       5
#     4   4   4   4   2
#     4  10  24  46  71 102 140 185 236 293 350 413
#     4  10  25  46  69 101 141 188 238 286 347 418
#     4  10  24  45  71 104 141 184 235 290 353 415
#     4  11  25  46  75 106 145 189 236 292 355 426
#     4  10  26  48  72 108 146 188 236 292 356 428
#
# _framework density 24.877846999999999
#
# number of rings (size 3 to 8) (size 9 to 14) (size 15 to 20)
#    0.000    1.778    0.000    0.667    0.000   28.444 
#    0.000    4.444    0.000    0.000    0.000    0.000 
#    0.000    0.000    0.000    0.000    0.000    0.000 
#
# Total GULP energy -50440.372291 kJ/mol
# GULP energy per Si atom -5604.485810 kJ/mol
# Density = 2.482122 g / cm^3
# Si number density = 24.877847 Si / 1000 Ang^3
#
#
#
# Elastic Constant Matrix: (Units=GPa)
#
#
# Indices 1 2 3 4 5 6 
#
# 1 180.9532 32.4426 83.9287 -0.0013 -35.0687 0.0005
# 2 32.4426 94.2284 36.7192 0.0014 -7.7603 0.0047
# 3 83.9287 36.7192 128.4153 0.0003 -42.3734 0.0009
# 4 -0.0013 0.0014 0.0003 -60.3594 0.0001 7.5028
# 5 -35.0687 -7.7603 -42.3734 0.0001 73.9067 -0.0008
# 6 0.0005 0.0047 0.0009 7.5028 -0.0008 30.9083
#
#
#
# Elastic Compliance Matrix: (Units=1/GPa)
#
#
# Indices 1 2 3 4 5 6 
#
# 1 0.008050 -0.000867 -0.004666 0.000000 0.001054 0.000000
# 2 -0.000867 0.012082 -0.003213 0.000000 -0.000985 -0.000002
# 3 -0.004666 -0.003213 0.013460 0.000000 0.005166 0.000000
# 4 0.000000 0.000000 0.000000 -0.016082 0.000000 0.003904
# 5 0.001054 -0.000985 0.005166 0.000000 0.016889 0.000000
# 6 0.000000 -0.000002 0.000000 0.003904 0.000000 0.031406
#
#
# Mechanical properties :
#
#
# Convention : Reuss Voigt Hill
#
# Bulk Modulus (GPa) = 62.10964 78.86420 70.48692
# Shear Modulus (GPa) = 56.39345 25.59155 40.99250
#
# Velocity S-wave (km/s) = 4.76627 3.21080 4.06365
# Velocity P-wave (km/s) = 7.43706 6.74648 7.10017
#
# Compressibility (1/GPa) = 0.01610056
#
# Stress axis : x y z
#
# Youngs Moduli (GPa) = 124.22543 82.76815 74.29425
#
# Poissons Ratio (x) = 0.07173 0.34663
# Poissons Ratio (y) = 0.10766 0.23873
# Poissons Ratio (z) = 0.57960 0.26596
#
# Static dielectric constant tensor:
#      x y z
#    x 2.021150 0.000000 0.021070 
#    y 0.000000 1.945960 0.000000 
#    z 0.021070 0.000000 2.129960 
# 
# From -- ./inp_files/70739.got.cif
#   From: 2010.05.17/outbox.cif.g08.bks.cpg/sg5_36_cif.got.tgz:70739.got - 2010.06.03 18:56:24.
