data_PCOD9128844
_publ_section_title
;
Structure prediction by ZEFSAII (Michael W. Deem and Ramdas Pophale) SiO2 
 PCOD9128844
Probable space group: C 2
;
_chemical_formula_sum "Si O2"
_cell_formula_units_Z 22
_cell_length_a 12.122688
_cell_length_b 8.323327
_cell_length_c 14.922059
_cell_angle_alpha 90.000000
_cell_angle_beta 41.763819
_cell_angle_gamma 90.000000
_cell_volume 1002.857034
_symmetry_space_group_name_H-M "C 2"
_symmetry_group_IT_number 5
_symmetry_cell_setting 'monoclinic'
loop_
_space_group_symop_operation_xyz
x,y,z
-x,y,-z
1/2+x,1/2+y,z
1/2-x,1/2+y,-z
loop_
_atom_site_type_symbol
_atom_site_label
_atom_site_fract_x
_atom_site_fract_y
_atom_site_fract_z
Si Si1 0.000000 0.711990 0.500000
Si Si2 0.638590 0.794037 0.989526
Si Si3 0.945643 0.002633 0.856286
Si Si4 0.248462 0.523573 0.215262
Si Si5 0.359330 0.458960 0.440597
Si Si6 0.528052 0.816128 0.588335
O O1 0.856569 0.615399 0.641948
O O2 0.913469 0.828292 0.480226
O O3 0.564379 0.694357 0.118501
O O4 0.269254 0.652536 0.123441
O O5 0.500000 0.851697 0.000000
O O6 0.764881 0.925561 0.951266
O O7 0.072837 0.962325 0.859572
O O8 0.042612 0.939780 0.711017
O O9 0.139427 0.367456 0.261196
O O10 0.405720 0.638019 0.439848
O O11 0.166624 0.438563 0.538338
O O12 0.500000 0.830738 0.500000
#
# Coordination Sequence:
#
# PCOD9128844 Si02
#       6
#     2   4   4   4   4   4
#     4  12  22  44  72 104 138 180 210 284 344 406
#     4  10  25  45  65  94 129 178 225 274 325 389
#     4  11  23  46  67  93 131 178 223 274 327 391
#     4  11  22  44  69  95 140 169 219 280 339 391
#     4  12  25  42  70 100 141 174 222 273 345 402
#     4  12  24  42  66 104 131 174 217 273 342 408
#
# _framework density 21.937325000000001
#
# number of rings (size 3 to 8) (size 9 to 14) (size 15 to 20)
#    0.000    0.727    5.455    2.182    2.545    0.000 
#    3.273    0.000    0.000    0.000    0.000    0.000 
#    0.000    0.000    0.000    0.000    0.000    0.000 
#
# Total GULP energy -61383.341859 kJ/mol
# GULP energy per Si atom -5580.303805 kJ/mol
# Density = 2.188739 g / cm^3
# Si number density = 21.937325 Si / 1000 Ang^3
#
#
#
# Elastic Constant Matrix: (Units=GPa)
#
#
# Indices 1 2 3 4 5 6 
#
# 1 151.9247 50.8125 33.5752 0.0000 -27.0239 0.0000
# 2 50.8125 76.0093 -0.9980 0.0000 -16.1209 0.0000
# 3 33.5752 -0.9980 45.9240 0.0000 -9.3394 0.0000
# 4 0.0000 0.0000 0.0000 20.1585 0.0000 -16.1050
# 5 -27.0239 -16.1209 -9.3394 0.0000 54.0725 0.0000
# 6 0.0000 0.0000 0.0000 -16.1050 0.0000 43.7424
#
#
#
# Elastic Compliance Matrix: (Units=1/GPa)
#
#
# Indices 1 2 3 4 5 6 
#
# 1 0.011025 -0.007034 -0.007793 0.000000 0.002067 0.000000
# 2 -0.007034 0.018596 0.006176 0.000000 0.003096 0.000000
# 3 -0.007793 0.006176 0.028179 0.000000 0.002814 0.000000
# 4 0.000000 0.000000 0.000000 0.070279 0.000000 0.025875
# 5 0.002067 0.003096 0.002814 0.000000 0.020935 0.000000
# 6 0.000000 0.000000 0.000000 0.025875 0.000000 0.032388
#
#
# Mechanical properties :
#
#
# Convention : Reuss Voigt Hill
#
# Bulk Modulus (GPa) = 24.69216 48.95972 36.82594
# Shear Modulus (GPa) = 23.56244 36.29257 29.92751
#
# Velocity S-wave (km/s) = 3.28087 4.07181 3.69755
# Velocity P-wave (km/s) = 5.06284 6.66878 5.92052
#
# Compressibility (1/GPa) = 0.04049869
#
# Stress axis : x y z
#
# Youngs Moduli (GPa) = 90.70658 53.77467 35.48769
#
# Poissons Ratio (x) = 0.37825 0.27654
# Poissons Ratio (y) = 0.63802 -0.21918
# Poissons Ratio (z) = 0.70684 -0.33212
#
# Static dielectric constant tensor:
#      x y z
#    x 1.869260 0.000000 -0.002530 
#    y 0.000000 1.830550 0.000000 
#    z -0.002530 0.000000 1.854830 
# 
# From -- ./inp_files/60179.got.cif
#   From: 2010.05.17/outbox.cif.g08.bks.cpg/sg5_31_cif.got.tgz:60179.got - 2010.06.03 18:56:24.
