data_PCOD9128069
_publ_section_title
;
Structure prediction by ZEFSAII (Michael W. Deem and Ramdas Pophale) SiO2 
 PCOD9128069
Probable space group: C 2
;
_chemical_formula_sum "Si O2"
_cell_formula_units_Z 30
_cell_length_a 5.959821
_cell_length_b 17.580424
_cell_length_c 13.022664
_cell_angle_alpha 90.000000
_cell_angle_beta 112.121138
_cell_angle_gamma 90.000000
_cell_volume 1264.026405
_symmetry_space_group_name_H-M "C 2"
_symmetry_group_IT_number 5
_symmetry_cell_setting 'monoclinic'
loop_
_space_group_symop_operation_xyz
x,y,z
-x,y,-z
1/2+x,1/2+y,z
1/2-x,1/2+y,-z
loop_
_atom_site_type_symbol
_atom_site_label
_atom_site_fract_x
_atom_site_fract_y
_atom_site_fract_z
Si Si1 0.285999 0.888470 0.877066
Si Si2 0.660236 0.149271 0.743096
Si Si3 0.886492 0.699277 0.890682
Si Si4 0.961538 0.514958 0.610933
Si Si5 0.300249 0.373285 0.680264
Si Si6 0.500000 0.413961 0.500000
Si Si7 0.565358 0.784233 0.280708
Si Si8 0.900473 0.053778 0.098611
O O1 0.393033 0.854501 0.790010
O O2 0.002208 0.860419 0.805155
O O3 0.230612 0.978270 0.881290
O O4 0.500000 0.870004 0.000000
O O5 0.583974 0.184165 0.838255
O O6 0.724030 0.220958 0.681810
O O7 0.879870 0.090201 0.798049
O O8 0.450168 0.092370 0.672250
O O9 0.650327 0.736330 0.805595
O O10 0.785620 0.623128 0.927220
O O11 0.000000 0.749524 0.000000
O O12 0.717807 0.467169 0.574633
O O13 0.000000 0.538137 0.500000
O O14 0.181167 0.456734 0.673004
O O15 0.418935 0.369420 0.587923
O O16 0.066139 0.318650 0.643559
O O17 0.000000 0.039143 0.000000
#
# Coordination Sequence:
#
# PCOD9128069 Si02
#       8
#     4   4   4   4   4   2   4   4
#     4  12  28  41  69 109 153 195 249 303 360 439
#     4  11  24  47  73 103 145 193 245 300 367 443
#     4  11  24  41  69  98 146 197 245 297 361 432
#     4  10  23  45  82 112 139 183 246 316 375 435
#     4  11  24  47  73 112 146 193 250 307 377 437
#     4  10  24  44  82 118 138 182 250 326 378 432
#     4  11  28  43  69 104 149 200 241 297 372 447
#     4  11  24  41  67 107 137 191 250 303 354 425
#
# _framework density 23.733684
#
# number of rings (size 3 to 8) (size 9 to 14) (size 15 to 20)
#    0.000    1.067    2.667    2.000    9.333    1.067 
#    0.000    0.000   27.867    0.000    0.000    0.000 
#    0.000    0.000    0.000    0.000    0.000    0.000 
#
# Total GULP energy -83631.254470 kJ/mol
# GULP energy per Si atom -5575.416965 kJ/mol
# Density = 2.367967 g / cm^3
# Si number density = 23.733684 Si / 1000 Ang^3
#
#
#
# Elastic Constant Matrix: (Units=GPa)
#
#
# Indices 1 2 3 4 5 6 
#
# 1 94.5683 36.2787 32.2801 0.0000 -8.3104 0.0000
# 2 36.2787 104.3942 48.5418 0.0000 -18.1917 0.0000
# 3 32.2801 48.5418 73.5774 0.0000 8.0184 0.0000
# 4 0.0000 0.0000 0.0000 -18.5346 0.0000 73.3833
# 5 -8.3104 -18.1917 8.0184 0.0000 40.4124 0.0000
# 6 0.0000 0.0000 0.0000 73.3833 0.0000 -85.3349
#
#
#
# Elastic Compliance Matrix: (Units=1/GPa)
#
#
# Indices 1 2 3 4 5 6 
#
# 1 0.013195 -0.001797 -0.004917 0.000000 0.002880 0.000000
# 2 -0.001797 0.017361 -0.011730 0.000000 0.009773 0.000000
# 3 -0.004917 -0.011730 0.024707 0.000000 -0.011194 0.000000
# 4 0.000000 0.000000 0.000000 0.022436 0.000000 0.019294
# 5 0.002880 0.009773 -0.011194 0.000000 0.031958 0.000000
# 6 0.000000 0.000000 0.000000 0.019294 0.000000 0.004873
#
#
# Mechanical properties :
#
#
# Convention : Reuss Voigt Hill
#
# Bulk Modulus (GPa) = 54.42454 56.30456 55.36455
# Shear Modulus (GPa) = 31.73696 -2.32879 14.70408
#
# Velocity S-wave (km/s) = 3.66076 -0.99164 2.49177
# Velocity P-wave (km/s) = 6.39135 4.73960 5.62642
#
# Compressibility (1/GPa) = 0.01837407
#
# Stress axis : x y z
#
# Youngs Moduli (GPa) = 75.78390 57.59993 40.47391
#
# Poissons Ratio (x) = 0.10352 0.19902
# Poissons Ratio (y) = 0.13620 0.47477
# Poissons Ratio (z) = 0.37265 0.67567
#
# Static dielectric constant tensor:
#      x y z
#    x 1.944090 0.000000 0.042230 
#    y 0.000000 1.933370 0.000000 
#    z 0.042230 0.000000 1.964940 
# 
# From -- ./inp_files/49367.got.cif
#   From: 2010.05.17/outbox.cif.g08.bks.cpg/sg5_25_cif.got.tgz:49367.got - 2010.06.03 18:56:24.
