data_PCOD9128573
_publ_section_title
;
Structure prediction by ZEFSAII (Michael W. Deem and Ramdas Pophale) SiO2 
 PCOD9128573
Probable space group: C 2
;
_chemical_formula_sum "Si O2"
_cell_formula_units_Z 14
_cell_length_a 7.184971
_cell_length_b 7.410809
_cell_length_c 15.322839
_cell_angle_alpha 90.000000
_cell_angle_beta 129.318721
_cell_angle_gamma 90.000000
_cell_volume 631.197087
_symmetry_space_group_name_H-M "C 2"
_symmetry_group_IT_number 5
_symmetry_cell_setting 'monoclinic'
loop_
_space_group_symop_operation_xyz
x,y,z
-x,y,-z
1/2+x,1/2+y,z
1/2-x,1/2+y,-z
loop_
_atom_site_type_symbol
_atom_site_label
_atom_site_fract_x
_atom_site_fract_y
_atom_site_fract_z
Si Si1 0.150491 0.782940 0.466808
Si Si2 0.860337 0.411501 0.351217
Si Si3 0.000117 0.010582 0.097763
Si Si4 0.000000 0.362906 0.000000
O O1 0.004544 0.599417 0.405864
O O2 0.000000 0.877791 0.500000
O O3 0.193877 0.873925 0.385779
O O4 0.423353 0.766551 0.584468
O O5 0.700206 0.423802 0.218102
O O6 0.000000 0.930685 0.000000
O O7 0.737452 0.977418 0.057806
O O8 0.040576 0.223401 0.092468
#
# Coordination Sequence:
#
# PCOD9128573 Si02
#       4
#     4   4   4   2
#     4  11  24  46  67 106 134 184 223 287 335 412
#     4  11  25  46  73 101 143 176 235 275 353 400
#     4  10  25  46  71 104 136 185 223 291 333 417
#     4  10  24  46  68 102 138 176 234 268 352 390
#
# _framework density 22.180078000000002
#
# number of rings (size 3 to 8) (size 9 to 14) (size 15 to 20)
#    0.857    0.571    2.857    1.714    6.000    4.571 
#    0.000    0.000    0.000    0.000    0.000    0.000 
#    0.000    0.000    0.000    0.000    0.000    0.000 
#
# Total GULP energy -39067.738333 kJ/mol
# GULP energy per Si atom -5581.105476 kJ/mol
# Density = 2.212960 g / cm^3
# Si number density = 22.180078 Si / 1000 Ang^3
#
#
#
# Elastic Constant Matrix: (Units=GPa)
#
#
# Indices 1 2 3 4 5 6 
#
# 1 181.9281 64.0252 80.2388 0.0000 12.5212 0.0000
# 2 64.0252 77.5182 18.4323 0.0000 6.2021 0.0000
# 3 80.2388 18.4323 171.5016 0.0000 -14.3589 0.0000
# 4 0.0000 0.0000 0.0000 9.7706 0.0000 28.4077
# 5 12.5212 6.2021 -14.3589 0.0000 26.9936 0.0000
# 6 0.0000 0.0000 0.0000 28.4077 0.0000 16.5715
#
#
#
# Elastic Compliance Matrix: (Units=1/GPa)
#
#
# Indices 1 2 3 4 5 6 
#
# 1 0.010373 -0.007031 -0.004569 0.000000 -0.005627 0.000000
# 2 -0.007031 0.018425 0.001285 0.000000 -0.000288 0.000000
# 3 -0.004569 0.001285 0.008355 0.000000 0.006268 0.000000
# 4 0.000000 0.000000 0.000000 -0.025689 0.000000 0.044037
# 5 -0.005627 -0.000288 0.006268 0.000000 0.043056 0.000000
# 6 0.000000 0.000000 0.000000 0.044037 0.000000 -0.015146
#
#
# Mechanical properties :
#
#
# Convention : Reuss Voigt Hill
#
# Bulk Modulus (GPa) = 60.51768 84.03783 72.27776
# Shear Modulus (GPa) = 76.32185 28.55058 52.43622
#
# Velocity S-wave (km/s) = 5.87238 3.59167 4.86749
# Velocity P-wave (km/s) = 8.56292 7.42774 8.01545
#
# Compressibility (1/GPa) = 0.01652410
#
# Stress axis : x y z
#
# Youngs Moduli (GPa) = 96.40018 54.27399 119.68831
#
# Poissons Ratio (x) = 0.38162 0.54682
# Poissons Ratio (y) = 0.67782 -0.15383
# Poissons Ratio (z) = 0.44042 -0.06976
#
# Static dielectric constant tensor:
#      x y z
#    x 1.830020 0.000000 -0.025380 
#    y 0.000000 1.892630 0.000000 
#    z -0.025380 0.000000 1.774420 
# 
# From -- ./inp_files/48477.got.cif
#   From: 2010.05.17/outbox.cif.g08.bks.cpg/sg5_25_cif.got.tgz:48477.got - 2010.06.03 18:56:24.
