data_PCOD9128255
_publ_section_title
;
Structure prediction by ZEFSAII (Michael W. Deem and Ramdas Pophale) SiO2 
 PCOD9128255
Probable space group: C 2
;
_chemical_formula_sum "Si O2"
_cell_formula_units_Z 28
_cell_length_a 10.842409
_cell_length_b 9.017915
_cell_length_c 15.143414
_cell_angle_alpha 90.000000
_cell_angle_beta 55.010146
_cell_angle_gamma 90.000000
_cell_volume 1213.037083
_symmetry_space_group_name_H-M "C 2"
_symmetry_group_IT_number 5
_symmetry_cell_setting 'monoclinic'
loop_
_space_group_symop_operation_xyz
x,y,z
-x,y,-z
1/2+x,1/2+y,z
1/2-x,1/2+y,-z
loop_
_atom_site_type_symbol
_atom_site_label
_atom_site_fract_x
_atom_site_fract_y
_atom_site_fract_z
Si Si1 0.779178 0.436110 0.668942
Si Si2 0.000000 0.919206 0.500000
Si Si3 0.254169 0.744170 0.856989
Si Si4 0.000000 0.955773 0.000000
Si Si5 0.076681 0.495984 0.630699
Si Si6 0.745195 0.753834 0.497943
Si Si7 0.724976 0.983499 0.741628
Si Si8 0.071431 0.173731 0.808194
O O1 0.757932 0.337368 0.764699
O O2 0.787738 0.325504 0.583832
O O3 0.649056 0.556226 0.710192
O O4 0.929976 0.524852 0.634029
O O5 0.107411 0.820469 0.516896
O O6 0.117994 0.995022 0.380410
O O7 0.220376 0.580222 0.832108
O O8 0.411670 0.734424 0.842044
O O9 0.135644 0.839280 0.962991
O O10 0.957179 0.068240 0.095746
O O11 0.215725 0.583368 0.529271
O O12 0.109252 0.320480 0.610185
O O13 0.093600 0.536292 0.726246
O O14 0.684663 0.811641 0.777417
#
# Coordination Sequence:
#
# PCOD9128255 Si02
#       8
#     4   2   4   2   4   4   4   4
#     4  11  23  43  68  95 140 182 231 293 351 414
#     4  10  24  40  62 106 144 194 240 278 330 420
#     4  11  24  48  73 105 137 182 234 299 358 430
#     4  10  28  48  72 108 134 176 240 294 376 426
#     4  11  24  40  62  99 137 190 240 286 341 410
#     4  11  24  39  61  93 141 188 240 288 335 398
#     4  11  23  43  69 103 147 186 238 285 348 417
#     4  11  25  46  74 104 137 182 231 296 361 434
#
# _framework density 23.082559
#
# number of rings (size 3 to 8) (size 9 to 14) (size 15 to 20)
#    0.000    1.143    2.857    2.143    6.000    5.143 
#    0.000    0.000    0.000    0.000    0.000    0.000 
#    0.000    0.000    0.000    0.000    0.000    0.000 
#
# Total GULP energy -78112.216801 kJ/mol
# GULP energy per Si atom -5579.444057 kJ/mol
# Density = 2.303002 g / cm^3
# Si number density = 23.082559 Si / 1000 Ang^3
#
#
#
# Elastic Constant Matrix: (Units=GPa)
#
#
# Indices 1 2 3 4 5 6 
#
# 1 90.7583 19.0613 6.5156 0.0000 -13.7259 0.0000
# 2 19.0613 122.9969 29.4009 0.0000 -14.4007 0.0000
# 3 6.5156 29.4009 55.3798 0.0000 -5.6865 0.0000
# 4 0.0000 0.0000 0.0000 36.4339 0.0000 -0.5860
# 5 -13.7259 -14.4007 -5.6865 0.0000 25.8626 0.0000
# 6 0.0000 0.0000 0.0000 -0.5860 0.0000 36.6719
#
#
#
# Elastic Compliance Matrix: (Units=1/GPa)
#
#
# Indices 1 2 3 4 5 6 
#
# 1 0.012147 -0.001155 -0.000225 0.000000 0.005754 0.000000
# 2 -0.001155 0.009888 -0.004718 0.000000 0.003856 0.000000
# 3 -0.000225 -0.004718 0.020775 0.000000 0.001821 0.000000
# 4 0.000000 0.000000 0.000000 0.027454 0.000000 0.000439
# 5 0.005754 0.003856 0.001821 0.000000 0.044267 0.000000
# 6 0.000000 0.000000 0.000000 0.000439 0.000000 0.027276
#
#
# Mechanical properties :
#
#
# Convention : Reuss Voigt Hill
#
# Bulk Modulus (GPa) = 32.66374 42.12115 37.39245
# Shear Modulus (GPa) = 30.44896 34.07083 32.25990
#
# Velocity S-wave (km/s) = 3.63593 3.84610 3.74249
# Velocity P-wave (km/s) = 5.63987 6.16530 5.90843
#
# Compressibility (1/GPa) = 0.03061498
#
# Stress axis : x y z
#
# Youngs Moduli (GPa) = 82.32316 101.12779 48.13387
#
# Poissons Ratio (x) = 0.11680 0.01084
# Poissons Ratio (y) = 0.09508 0.22709
# Poissons Ratio (z) = 0.01853 0.47712
#
# Static dielectric constant tensor:
#      x y z
#    x 1.894880 0.000000 -0.030670 
#    y 0.000000 1.883830 0.000000 
#    z -0.030670 0.000000 1.925460 
# 
# From -- ./inp_files/52397.got.cif
#   From: 2010.05.17/outbox.cif.g08.bks.cpg/sg5_27_cif.got.tgz:52397.got - 2010.06.03 18:56:24.
