data_PCOD9128284
_publ_section_title
;
Structure prediction by ZEFSAII (Michael W. Deem and Ramdas Pophale) SiO2 
 PCOD9128284
Probable space group: C 2
;
_chemical_formula_sum "Si O2"
_cell_formula_units_Z 18
_cell_length_a 14.457792
_cell_length_b 5.884681
_cell_length_c 13.202775
_cell_angle_alpha 90.000000
_cell_angle_beta 136.410733
_cell_angle_gamma 90.000000
_cell_volume 774.487181
_symmetry_space_group_name_H-M "C 2"
_symmetry_group_IT_number 5
_symmetry_cell_setting 'monoclinic'
loop_
_space_group_symop_operation_xyz
x,y,z
-x,y,-z
1/2+x,1/2+y,z
1/2-x,1/2+y,-z
loop_
_atom_site_type_symbol
_atom_site_label
_atom_site_fract_x
_atom_site_fract_y
_atom_site_fract_z
Si Si1 0.777051 0.290060 0.888559
Si Si2 0.684795 0.802750 0.470259
Si Si3 0.500000 0.446419 0.000000
Si Si4 0.893333 0.425984 0.188290
Si Si5 0.245322 0.687792 0.257063
O O1 0.774963 0.423453 0.781647
O O2 0.893460 0.101332 0.973516
O O3 0.632043 0.179320 0.790524
O O4 0.820384 0.425725 0.022375
O O5 0.743442 0.553333 0.483419
O O6 0.544185 0.844134 0.303560
O O7 0.671931 0.761691 0.580568
O O8 0.404114 0.292400 0.854713
O O9 0.818555 0.273162 0.213235
#
# Coordination Sequence:
#
# PCOD9128284 Si02
#       5
#     4   4   2   4   4
#     4  11  23  43  77 108 145 191 253 310 370 447
#     4  12  31  50  76 109 156 200 250 311 378 444
#     4  10  24  40  74 104 150 188 252 300 374 442
#     4  11  25  46  74 109 146 196 252 305 377 448
#     4  11  25  46  71 110 147 199 245 313 374 446
#
# _framework density 23.241184000000001
#
# number of rings (size 3 to 8) (size 9 to 14) (size 15 to 20)
#    0.000    0.889    2.222    2.667   15.556    0.000 
#    0.000    0.000    0.000    0.000    0.000    0.000 
#    0.000    0.000    0.000    0.000    0.000    0.000 
#
# Total GULP energy -50234.630178 kJ/mol
# GULP energy per Si atom -5581.625575 kJ/mol
# Density = 2.318829 g / cm^3
# Si number density = 23.241184 Si / 1000 Ang^3
#
#
#
# Elastic Constant Matrix: (Units=GPa)
#
#
# Indices 1 2 3 4 5 6 
#
# 1 61.3486 39.2319 15.5644 0.0000 -1.4299 0.0000
# 2 39.2319 124.0399 33.7295 0.0000 4.4638 0.0000
# 3 15.5644 33.7295 80.7132 0.0000 -8.3870 0.0000
# 4 0.0000 0.0000 0.0000 22.5063 0.0000 1.9904
# 5 -1.4299 4.4638 -8.3870 0.0000 33.0516 0.0000
# 6 0.0000 0.0000 0.0000 1.9904 0.0000 31.5192
#
#
#
# Elastic Compliance Matrix: (Units=1/GPa)
#
#
# Indices 1 2 3 4 5 6 
#
# 1 0.020638 -0.006247 -0.001221 0.000000 0.001427 0.000000
# 2 -0.006247 0.011153 -0.003739 0.000000 -0.002725 0.000000
# 3 -0.001221 -0.003739 0.014620 0.000000 0.004162 0.000000
# 4 0.000000 0.000000 0.000000 0.044681 0.000000 -0.002822
# 5 0.001427 -0.002725 0.004162 0.000000 0.031742 0.000000
# 6 0.000000 0.000000 0.000000 -0.002822 0.000000 0.031905
#
#
# Mechanical properties :
#
#
# Convention : Reuss Voigt Hill
#
# Bulk Modulus (GPa) = 41.67236 49.23925 45.45581
# Shear Modulus (GPa) = 27.00491 29.25383 28.12937
#
# Velocity S-wave (km/s) = 3.41243 3.55167 3.48275
# Velocity P-wave (km/s) = 5.78753 6.16858 5.98109
#
# Compressibility (1/GPa) = 0.02399672
#
# Stress axis : x y z
#
# Youngs Moduli (GPa) = 48.45411 89.66576 68.39922
#
# Poissons Ratio (x) = 0.56013 0.08352
# Poissons Ratio (y) = 0.30268 0.25575
# Poissons Ratio (z) = 0.05916 0.33527
#
# Static dielectric constant tensor:
#      x y z
#    x 1.875070 0.000000 0.011280 
#    y 0.000000 2.056750 0.000000 
#    z 0.011280 0.000000 1.789610 
# 
# From -- ./inp_files/25903.got.cif
#   From: 2010.05.17/outbox.cif.g08.bks.cpg/sg5_13_cif.got.tgz:25903.got - 2010.06.03 18:56:24.
