data_PCOD9128894
_publ_section_title
;
Structure prediction by ZEFSAII (Michael W. Deem and Ramdas Pophale) SiO2 
 PCOD9128894
Probable space group: C 2
;
_chemical_formula_sum "Si O2"
_cell_formula_units_Z 24
_cell_length_a 10.044438
_cell_length_b 10.173741
_cell_length_c 11.098651
_cell_angle_alpha 90.000000
_cell_angle_beta 82.982889
_cell_angle_gamma 90.000000
_cell_volume 1125.670487
_symmetry_space_group_name_H-M "C 2"
_symmetry_group_IT_number 5
_symmetry_cell_setting 'monoclinic'
loop_
_space_group_symop_operation_xyz
x,y,z
-x,y,-z
1/2+x,1/2+y,z
1/2-x,1/2+y,-z
loop_
_atom_site_type_symbol
_atom_site_label
_atom_site_fract_x
_atom_site_fract_y
_atom_site_fract_z
Si Si1 0.317031 0.180540 0.737840
Si Si2 0.585541 0.051040 0.783273
Si Si3 0.667912 0.454648 0.388206
Si Si4 0.104610 0.006320 0.656767
Si Si5 0.358832 0.807896 0.046121
Si Si6 0.373954 0.334544 0.104824
O O1 0.439295 0.082198 0.746051
O O2 0.362147 0.319879 0.679461
O O3 0.240132 0.212575 0.870053
O O4 0.205866 0.125588 0.660547
O O5 0.623498 0.184013 0.849820
O O6 0.691656 0.014939 0.667617
O O7 0.597073 0.929487 0.874049
O O8 0.652558 0.430584 0.531640
O O9 0.547359 0.547862 0.355548
O O10 0.112577 0.925397 0.779368
O O11 0.500000 0.739836 0.000000
O O12 0.266958 0.857883 0.947006
O O13 0.500000 0.354443 0.000000
#
# Coordination Sequence:
#
# PCOD9128894 Si02
#       6
#     4   4   4   4   4   4
#     4  11  24  47  69 100 136 184 228 282 346 402
#     4  11  23  46  71  95 140 184 225 286 339 407
#     4  10  25  47  67 102 133 178 240 278 344 403
#     4  11  25  43  71 100 136 179 227 289 340 404
#     4  11  25  41  65 105 138 174 233 276 341 421
#     4  12  23  42  71 102 137 184 222 281 350 405
#
# _framework density 21.320625
#
# number of rings (size 3 to 8) (size 9 to 14) (size 15 to 20)
#    0.000    1.000    3.333    2.500    7.000    1.333 
#    0.000    0.000    0.000    0.000    0.000    0.000 
#    0.000    0.000    0.000    0.000    0.000    0.000 
#
# Total GULP energy -67076.800184 kJ/mol
# GULP energy per Si atom -5589.733349 kJ/mol
# Density = 2.127210 g / cm^3
# Si number density = 21.320625 Si / 1000 Ang^3
#
#
#
# Elastic Constant Matrix: (Units=GPa)
#
#
# Indices 1 2 3 4 5 6 
#
# 1 138.0415 25.8590 56.9293 0.0000 -3.5972 0.0000
# 2 25.8590 25.1573 -5.4444 0.0000 0.6954 0.0000
# 3 56.9293 -5.4444 119.6290 0.0000 -12.9209 0.0000
# 4 0.0000 0.0000 0.0000 15.7155 0.0000 10.9382
# 5 -3.5972 0.6954 -12.9209 0.0000 35.5791 0.0000
# 6 0.0000 0.0000 0.0000 10.9382 0.0000 25.4818
#
#
#
# Elastic Compliance Matrix: (Units=1/GPa)
#
#
# Indices 1 2 3 4 5 6 
#
# 1 0.012774 -0.014586 -0.006841 0.000000 -0.000908 0.000000
# 2 -0.014586 0.056800 0.009624 0.000000 0.000910 0.000000
# 3 -0.006841 0.009624 0.012446 0.000000 0.003640 0.000000
# 4 0.000000 0.000000 0.000000 0.090742 0.000000 -0.038952
# 5 -0.000908 0.000910 0.003640 0.000000 0.029319 0.000000
# 6 0.000000 0.000000 0.000000 -0.038952 0.000000 0.055964
#
#
# Mechanical properties :
#
#
# Convention : Reuss Voigt Hill
#
# Bulk Modulus (GPa) = 17.11869 48.61285 32.86577
# Shear Modulus (GPa) = 16.60463 29.05420 22.82942
#
# Velocity S-wave (km/s) = 2.79374 3.69552 3.27581
# Velocity P-wave (km/s) = 4.29572 6.40777 5.45494
#
# Compressibility (1/GPa) = 0.05841568
#
# Stress axis : x y z
#
# Youngs Moduli (GPa) = 78.28388 17.60563 80.34874
#
# Poissons Ratio (x) = 0.25679 0.54965
# Poissons Ratio (y) = 1.14182 -0.77331
# Poissons Ratio (z) = 0.53552 -0.16944
#
# Static dielectric constant tensor:
#      x y z
#    x 1.808700 0.000000 -0.003080 
#    y 0.000000 1.768850 0.000000 
#    z -0.003080 0.000000 1.797100 
# 
# From -- ./inp_files/35432.got.cif
#   From: 2010.05.17/outbox.cif.g08.bks.cpg/sg5_18_cif.got.tgz:35432.got - 2010.06.03 18:56:24.
