data_PCOD9128707
_publ_section_title
;
Structure prediction by ZEFSAII (Michael W. Deem and Ramdas Pophale) SiO2 
 PCOD9128707
Probable space group: C 2
;
_chemical_formula_sum "Si O2"
_cell_formula_units_Z 18
_cell_length_a 11.945813
_cell_length_b 8.968171
_cell_length_c 12.692088
_cell_angle_alpha 90.000000
_cell_angle_beta 149.389485
_cell_angle_gamma 90.000000
_cell_volume 692.373642
_symmetry_space_group_name_H-M "C 2"
_symmetry_group_IT_number 5
_symmetry_cell_setting 'monoclinic'
loop_
_space_group_symop_operation_xyz
x,y,z
-x,y,-z
1/2+x,1/2+y,z
1/2-x,1/2+y,-z
loop_
_atom_site_type_symbol
_atom_site_label
_atom_site_fract_x
_atom_site_fract_y
_atom_site_fract_z
Si Si1 0.937588 0.271600 0.559137
Si Si2 0.668148 0.024300 0.829394
Si Si3 0.742156 0.478789 0.794529
Si Si4 0.927340 0.800200 0.139588
Si Si5 0.000000 0.733229 0.500000
O O1 0.679277 0.250795 0.351004
O O2 0.000000 0.349630 0.500000
O O3 0.994733 0.388846 0.696595
O O4 0.088758 0.125285 0.673861
O O5 0.691010 0.141353 0.942928
O O6 0.579491 0.125451 0.660201
O O7 0.883559 0.917078 0.009645
O O8 0.661074 0.388190 0.830654
O O9 0.695326 0.359224 0.661184
O O10 0.000000 0.516783 0.000000
#
# Coordination Sequence:
#
# PCOD9128707 Si02
#       5
#     4   4   4   4   2
#     4  12  26  45  78 110 162 200 258 320 400 459
#     4  11  25  47  74 112 154 207 258 321 385 471
#     4  11  26  48  84 115 156 206 264 326 391 466
#     4  11  27  47  76 114 156 202 263 321 390 462
#     4  10  24  48  72 118 162 200 258 320 400 454
#
# _framework density 25.997523000000001
#
# number of rings (size 3 to 8) (size 9 to 14) (size 15 to 20)
#    0.000    0.889    2.222    2.667    6.222    7.111 
#    0.000    0.000    0.000    0.000    0.000    0.000 
#    0.000    0.000    0.000    0.000    0.000    0.000 
#
# Total GULP energy -50104.257773 kJ/mol
# GULP energy per Si atom -5567.139753 kJ/mol
# Density = 2.593835 g / cm^3
# Si number density = 25.997523 Si / 1000 Ang^3
#
#
#
# Elastic Constant Matrix: (Units=GPa)
#
#
# Indices 1 2 3 4 5 6 
#
# 1 122.1919 55.1002 48.4987 0.0014 1.5210 0.0007
# 2 55.1002 273.1051 117.1141 0.0014 7.3913 0.0013
# 3 48.4987 117.1141 167.3215 0.0020 9.9421 0.0010
# 4 0.0014 0.0014 0.0020 92.9236 0.0006 20.0690
# 5 1.5210 7.3913 9.9421 0.0006 44.1601 -0.0010
# 6 0.0007 0.0013 0.0010 20.0690 -0.0010 82.9022
#
#
#
# Elastic Compliance Matrix: (Units=1/GPa)
#
#
# Indices 1 2 3 4 5 6 
#
# 1 0.009456 -0.001047 -0.002026 0.000000 0.000306 0.000000
# 2 -0.001047 0.005348 -0.003435 0.000000 -0.000086 0.000000
# 3 -0.002026 -0.003435 0.009051 0.000000 -0.001393 0.000000
# 4 0.000000 0.000000 0.000000 0.011355 0.000000 -0.002749
# 5 0.000306 -0.000086 -0.001393 0.000000 0.022962 0.000000
# 6 0.000000 0.000000 0.000000 -0.002749 0.000000 0.012728
#
#
# Mechanical properties :
#
#
# Convention : Reuss Voigt Hill
#
# Bulk Modulus (GPa) = 92.25924 111.56048 101.90986
# Shear Modulus (GPa) = 57.12352 66.79089 61.95720
#
# Velocity S-wave (km/s) = 4.69259 5.07415 4.88710
# Velocity P-wave (km/s) = 8.05762 8.79400 8.43385
#
# Compressibility (1/GPa) = 0.01083902
#
# Stress axis : x y z
#
# Youngs Moduli (GPa) = 105.74747 186.98325 110.49017
#
# Poissons Ratio (x) = 0.19583 0.22386
# Poissons Ratio (y) = 0.11075 0.37949
# Poissons Ratio (z) = 0.21426 0.64222
#
# Static dielectric constant tensor:
#      x y z
#    x 0.117220 0.000030 2.590060 
#    y 0.000030 2.091000 -0.000050 
#    z 2.590060 -0.000050 -1.502370 
# 
# From -- ./inp_files/62202.got.cif
#   From: 2010.05.17/outbox.cif.g08.bks.cpg/sg5_32_cif.got.tgz:62202.got - 2010.06.03 18:56:24.
