data_PCOD9128056
_publ_section_title
;
Structure prediction by ZEFSAII (Michael W. Deem and Ramdas Pophale) SiO2 
 PCOD9128056
Probable space group: C 2
;
_chemical_formula_sum "Si O2"
_cell_formula_units_Z 22
_cell_length_a 11.573478
_cell_length_b 9.867331
_cell_length_c 7.648292
_cell_angle_alpha 90.000000
_cell_angle_beta 68.745727
_cell_angle_gamma 90.000000
_cell_volume 814.019915
_symmetry_space_group_name_H-M "C 2"
_symmetry_group_IT_number 5
_symmetry_cell_setting 'monoclinic'
loop_
_space_group_symop_operation_xyz
x,y,z
-x,y,-z
1/2+x,1/2+y,z
1/2-x,1/2+y,-z
loop_
_atom_site_type_symbol
_atom_site_label
_atom_site_fract_x
_atom_site_fract_y
_atom_site_fract_z
Si Si1 0.265183 0.714800 0.775203
Si Si2 0.120330 0.814946 0.537375
Si Si3 0.252997 0.962400 0.995728
Si Si4 0.402754 0.557993 0.197795
Si Si5 0.384817 0.869774 0.225859
Si Si6 0.500000 0.877304 0.500000
O O1 0.167197 0.719222 0.670882
O O2 0.302535 0.573375 0.840748
O O3 0.384583 0.787885 0.629501
O O4 0.212934 0.811289 0.959249
O O5 0.239200 0.844660 0.352092
O O6 0.000000 0.767231 0.500000
O O7 0.090489 0.960830 0.641809
O O8 0.378631 0.930568 0.034071
O O9 0.232159 0.037244 0.820576
O O10 0.431403 0.714740 0.207137
O O11 0.500000 0.505950 0.000000
O O12 0.447484 0.946485 0.354022
#
# Coordination Sequence:
#
# PCOD9128056 Si02
#       6
#     4   4   4   4   4   2
#     4  10  23  45  74 100 138 177 236 278 342 405
#     4  10  24  44  68 100 138 182 225 281 343 407
#     4  11  22  44  67 100 136 180 224 283 336 410
#     4  11  23  42  74  97 129 183 244 274 323 415
#     4  11  24  40  70 100 137 172 233 282 335 398
#     4  10  24  44  68 106 128 188 230 278 330 424
#
# _framework density 27.026364999999998
#
# number of rings (size 3 to 8) (size 9 to 14) (size 15 to 20)
#    0.000    1.455    1.818    2.182    6.364    0.000 
#    1.636    1.818    4.000    1.091    0.000    0.000 
#    0.000    0.000    0.000    0.000    0.000    0.000 
#
# Total GULP energy -61457.010772 kJ/mol
# GULP energy per Si atom -5587.000979 kJ/mol
# Density = 2.696485 g / cm^3
# Si number density = 27.026365 Si / 1000 Ang^3
#
#
#
# Elastic Constant Matrix: (Units=GPa)
#
#
# Indices 1 2 3 4 5 6 
#
# 1 204.4321 20.3028 47.5504 0.0000 60.2013 0.0000
# 2 20.3028 93.1356 40.9841 0.0000 3.4503 0.0000
# 3 47.5504 40.9841 118.8987 0.0000 20.1793 0.0000
# 4 0.0000 0.0000 0.0000 26.4005 0.0000 19.3749
# 5 60.2013 3.4503 20.1793 0.0000 68.5816 0.0000
# 6 0.0000 0.0000 0.0000 19.3749 0.0000 32.8843
#
#
#
# Elastic Compliance Matrix: (Units=1/GPa)
#
#
# Indices 1 2 3 4 5 6 
#
# 1 0.006986 -0.000595 -0.001635 0.000000 -0.005622 0.000000
# 2 -0.000595 0.012738 -0.004350 0.000000 0.001162 0.000000
# 3 -0.001635 -0.004350 0.010823 0.000000 -0.001531 0.000000
# 4 0.000000 0.000000 0.000000 0.066733 0.000000 -0.039318
# 5 -0.005622 0.001162 -0.001531 0.000000 0.019908 0.000000
# 6 0.000000 0.000000 0.000000 -0.039318 0.000000 0.053575
#
#
# Mechanical properties :
#
#
# Convention : Reuss Voigt Hill
#
# Bulk Modulus (GPa) = 57.51057 70.46013 63.98535
# Shear Modulus (GPa) = 26.35475 46.08189 36.21832
#
# Velocity S-wave (km/s) = 3.12613 4.13373 3.66472
# Velocity P-wave (km/s) = 5.86139 6.99365 6.45240
#
# Compressibility (1/GPa) = 0.01738811
#
# Stress axis : x y z
#
# Youngs Moduli (GPa) = 143.13362 78.50591 92.39193
#
# Poissons Ratio (x) = 0.04674 0.15103
# Poissons Ratio (y) = 0.08522 0.40188
# Poissons Ratio (z) = 0.23398 0.34148
#
# Static dielectric constant tensor:
#      x y z
#    x 2.345760 0.000000 -0.094020 
#    y 0.000000 2.038310 0.000000 
#    z -0.094020 0.000000 2.183410 
# 
# From -- ./inp_files/19041.got.cif
#   From: 2010.05.17/outbox.cif.g08.bks.cpg/sg5_10_cif.got.tgz:19041.got - 2010.06.03 18:56:24.
