data_PCOD9128210
_publ_section_title
;
Structure prediction by ZEFSAII (Michael W. Deem and Ramdas Pophale) SiO2 
 PCOD9128210
Probable space group: C 2
;
_chemical_formula_sum "Si O2"
_cell_formula_units_Z 28
_cell_length_a 4.916130
_cell_length_b 24.850732
_cell_length_c 10.532527
_cell_angle_alpha 90.000000
_cell_angle_beta 73.188055
_cell_angle_gamma 90.000000
_cell_volume 1231.755991
_symmetry_space_group_name_H-M "C 2"
_symmetry_group_IT_number 5
_symmetry_cell_setting 'monoclinic'
loop_
_space_group_symop_operation_xyz
x,y,z
-x,y,-z
1/2+x,1/2+y,z
1/2-x,1/2+y,-z
loop_
_atom_site_type_symbol
_atom_site_label
_atom_site_fract_x
_atom_site_fract_y
_atom_site_fract_z
Si Si1 0.775414 0.089730 0.298376
Si Si2 0.287814 0.730283 0.644032
Si Si3 0.434467 0.176525 0.869418
Si Si4 0.071809 0.899902 0.338769
Si Si5 0.285861 0.521902 0.650064
Si Si6 0.640092 0.838610 0.226309
Si Si7 0.500000 0.170235 0.500000
Si Si8 0.000000 0.271432 0.000000
O O1 0.707793 0.129159 0.191695
O O2 0.526982 0.044236 0.336892
O O3 0.740581 0.127725 0.427670
O O4 0.074423 0.060756 0.264410
O O5 0.500000 0.718906 0.500000
O O6 0.311652 0.790342 0.682126
O O7 0.246675 0.693103 0.771222
O O8 0.997449 0.711645 0.616320
O O9 0.500000 0.156642 0.000000
O O10 0.239523 0.230854 0.909472
O O11 0.320549 0.858504 0.277528
O O12 0.000000 0.894031 0.500000
O O13 0.833999 0.885664 0.263954
O O14 0.191911 0.960309 0.309523
O O15 0.500000 0.524959 0.500000
O O16 0.651397 0.810160 0.085260
#
# Coordination Sequence:
#
# PCOD9128210 Si02
#       8
#     4   4   4   4   4   4   2   2
#     4  11  24  39  70  99 139 186 232 285 362 429
#     4  11  25  39  67 104 147 177 236 299 359 434
#     4  11  26  45  68 102 146 198 241 287 355 440
#     4  11  25  45  73 107 139 182 238 313 378 425
#     4  11  22  44  70 104 141 179 234 303 374 432
#     4  12  26  44  72  99 143 191 243 293 369 431
#     4  10  24  34  62 102 142 184 226 280 360 436
#     4  12  28  48  70  98 146 210 244 288 358 452
#
# _framework density 22.731774000000001
#
# number of rings (size 3 to 8) (size 9 to 14) (size 15 to 20)
#    0.000    0.857    2.857    3.000   13.000    2.286 
#    0.000    0.000    9.429    0.000    0.000    0.000 
#    0.000    0.000    0.000    0.000    0.000    0.000 
#
# Total GULP energy -78080.222207 kJ/mol
# GULP energy per Si atom -5577.158729 kJ/mol
# Density = 2.268004 g / cm^3
# Si number density = 22.731774 Si / 1000 Ang^3
#
#
#
# Elastic Constant Matrix: (Units=GPa)
#
#
# Indices 1 2 3 4 5 6 
#
# 1 82.9117 17.5819 15.3338 0.0000 7.7028 0.0000
# 2 17.5819 114.5003 46.3520 0.0000 13.2706 0.0000
# 3 15.3338 46.3520 87.4134 0.0000 5.3246 0.0000
# 4 0.0000 0.0000 0.0000 27.3534 0.0000 3.3970
# 5 7.7028 13.2706 5.3246 0.0000 35.6710 0.0000
# 6 0.0000 0.0000 0.0000 3.3970 0.0000 38.5796
#
#
#
# Elastic Compliance Matrix: (Units=1/GPa)
#
#
# Indices 1 2 3 4 5 6 
#
# 1 0.012774 -0.001096 -0.001530 0.000000 -0.002122 0.000000
# 2 -0.001096 0.011610 -0.005768 0.000000 -0.003222 0.000000
# 3 -0.001530 -0.005768 0.014750 0.000000 0.000275 0.000000
# 4 0.000000 0.000000 0.000000 0.036963 0.000000 -0.003255
# 5 -0.002122 -0.003222 0.000275 0.000000 0.029650 0.000000
# 6 0.000000 0.000000 0.000000 -0.003255 0.000000 0.026207
#
#
# Mechanical properties :
#
#
# Convention : Reuss Voigt Hill
#
# Bulk Modulus (GPa) = 44.75165 49.26228 47.00697
# Shear Modulus (GPa) = 32.01218 34.02466 33.01842
#
# Velocity S-wave (km/s) = 3.75675 3.87303 3.81533
# Velocity P-wave (km/s) = 6.20863 6.45900 6.33505
#
# Compressibility (1/GPa) = 0.02234554
#
# Stress axis : x y z
#
# Youngs Moduli (GPa) = 78.28642 86.13053 67.79591
#
# Poissons Ratio (x) = 0.09440 0.10375
# Poissons Ratio (y) = 0.08580 0.39105
# Poissons Ratio (z) = 0.11980 0.49680
#
# Static dielectric constant tensor:
#      x y z
#    x 2.122140 0.000000 0.123570 
#    y 0.000000 1.808160 0.000000 
#    z 0.123570 0.000000 2.081000 
# 
# From -- ./inp_files/33934.got.cif
#   From: 2010.05.17/outbox.cif.g08.bks.cpg/sg5_17_cif.got.tgz:33934.got - 2010.06.03 18:56:24.
