data_PCOD9128330
_publ_section_title
;
Structure prediction by ZEFSAII (Michael W. Deem and Ramdas Pophale) SiO2 
 PCOD9128330
Probable space group: C 2
;
_chemical_formula_sum "Si O2"
_cell_formula_units_Z 28
_cell_length_a 28.445546
_cell_length_b 7.861644
_cell_length_c 21.070050
_cell_angle_alpha 90.000000
_cell_angle_beta 163.150176
_cell_angle_gamma 90.000000
_cell_volume 1365.801997
_symmetry_space_group_name_H-M "C 2"
_symmetry_group_IT_number 5
_symmetry_cell_setting 'monoclinic'
loop_
_space_group_symop_operation_xyz
x,y,z
-x,y,-z
1/2+x,1/2+y,z
1/2-x,1/2+y,-z
loop_
_atom_site_type_symbol
_atom_site_label
_atom_site_fract_x
_atom_site_fract_y
_atom_site_fract_z
Si Si1 0.092765 0.609170 0.297829
Si Si2 0.870785 0.304863 0.968526
Si Si3 0.124436 0.096684 0.233910
Si Si4 0.277963 0.391887 0.352055
Si Si5 0.245049 0.258439 0.615976
Si Si6 0.405909 0.318298 0.160459
Si Si7 0.128885 0.212747 0.894740
O O1 0.245063 0.580999 0.540686
O O2 0.161034 0.716284 0.327626
O O3 0.964570 0.705608 0.177170
O O4 0.014773 0.441209 0.166824
O O5 0.750627 0.369624 0.759301
O O6 0.801730 0.284134 0.949747
O O7 0.954723 0.133804 0.049273
O O8 0.160832 0.263719 0.239123
O O9 0.167653 0.930346 0.248176
O O10 0.246053 0.587812 0.330251
O O11 0.452384 0.331950 0.603488
O O12 0.052675 0.283073 0.353400
O O13 0.384951 0.512056 0.112738
O O14 0.245171 0.249988 0.986226
#
# Coordination Sequence:
#
# PCOD9128330 Si02
#       7
#     4   4   4   4   4   4   4
#     4  11  20  38  66  95 125 161 216 265 308 383
#     4  12  22  40  65  94 132 167 208 266 328 379
#     4  11  20  38  63  92 126 164 208 260 310 379
#     4  10  25  42  59  95 135 166 203 265 327 382
#     4  11  22  40  66  93 129 166 213 262 319 381
#     4  10  24  42  66  95 125 170 221 266 317 379
#     4  11  22  40  68  94 123 170 222 266 314 381
#
# _framework density 20.500775000000001
#
# number of rings (size 3 to 8) (size 9 to 14) (size 15 to 20)
#    0.000    1.143    4.286    2.143    4.000    0.571 
#    7.714    0.000    0.000    0.000    0.000    0.000 
#    0.000    0.000    0.000    0.000    0.000    0.000 
#
# Total GULP energy -78191.589570 kJ/mol
# GULP energy per Si atom -5585.113541 kJ/mol
# Density = 2.045411 g / cm^3
# Si number density = 20.500775 Si / 1000 Ang^3
#
#
#
# Elastic Constant Matrix: (Units=GPa)
#
#
# Indices 1 2 3 4 5 6 
#
# 1 105.3567 13.7449 52.9903 0.0001 5.9816 0.0001
# 2 13.7449 83.6562 32.3660 0.0001 -1.2907 0.0001
# 3 52.9903 32.3660 58.8852 0.0001 -1.2590 0.0001
# 4 0.0001 0.0001 0.0001 18.6756 0.0001 6.8269
# 5 5.9816 -1.2907 -1.2590 0.0001 43.2040 0.0001
# 6 0.0001 0.0001 0.0001 6.8269 0.0001 24.7553
#
#
#
# Elastic Compliance Matrix: (Units=1/GPa)
#
#
# Indices 1 2 3 4 5 6 
#
# 1 0.018885 0.004382 -0.019468 0.000000 -0.003051 0.000000
# 2 0.004382 0.016201 -0.012859 0.000000 -0.000497 0.000000
# 3 -0.019468 -0.012859 0.041645 0.000000 0.003525 0.000000
# 4 0.000000 0.000000 0.000000 0.059549 0.000000 -0.016422
# 5 -0.003051 -0.000497 0.003525 0.000000 0.023656 0.000000
# 6 0.000000 0.000000 0.000000 -0.016422 0.000000 0.044924
#
#
# Mechanical properties :
#
#
# Convention : Reuss Voigt Hill
#
# Bulk Modulus (GPa) = 47.98317 49.56673 48.77495
# Shear Modulus (GPa) = 18.67787 27.24677 22.96232
#
# Velocity S-wave (km/s) = 3.02169 3.64958 3.35038
# Velocity P-wave (km/s) = 5.96913 6.47995 6.22978
#
# Compressibility (1/GPa) = 0.02084064
#
# Stress axis : x y z
#
# Youngs Moduli (GPa) = 52.95266 61.72433 24.01269
#
# Poissons Ratio (x) = -0.27049 0.46748
# Poissons Ratio (y) = -0.23205 0.30878
# Poissons Ratio (z) = 1.03089 0.79371
#
# Static dielectric constant tensor:
#      x y z
#    x 1.832810 0.000000 0.005400 
#    y 0.000000 1.795680 0.000000 
#    z 0.005400 0.000000 1.746350 
# 
# From -- ./inp_files/67534.got.cif
#   From: 2010.05.17/outbox.cif.g08.bks.cpg/sg5_34_cif.got.tgz:67534.got - 2010.06.03 18:56:24.
