data_PCOD9128081
_publ_section_title
;
Structure prediction by ZEFSAII (Michael W. Deem and Ramdas Pophale) SiO2 
 PCOD9128081
Probable space group: C 2
;
_chemical_formula_sum "Si O2"
_cell_formula_units_Z 26
_cell_length_a 17.236197
_cell_length_b 5.008379
_cell_length_c 19.316359
_cell_angle_alpha 90.000000
_cell_angle_beta 139.836557
_cell_angle_gamma 90.000000
_cell_volume 1075.483046
_symmetry_space_group_name_H-M "C 2"
_symmetry_group_IT_number 5
_symmetry_cell_setting 'monoclinic'
loop_
_space_group_symop_operation_xyz
x,y,z
-x,y,-z
1/2+x,1/2+y,z
1/2-x,1/2+y,-z
loop_
_atom_site_type_symbol
_atom_site_label
_atom_site_fract_x
_atom_site_fract_y
_atom_site_fract_z
Si Si1 0.906608 0.457930 0.639990
Si Si2 0.500000 0.431780 0.500000
Si Si3 0.395996 0.371197 0.029293
Si Si4 0.651245 0.228704 0.152857
Si Si5 0.702372 0.242795 0.732040
Si Si6 0.645819 0.472450 0.480960
Si Si7 0.847098 0.689994 0.152041
O O1 0.783558 0.517562 0.597861
O O2 0.888635 0.669456 0.563837
O O3 0.038792 0.490097 0.761260
O O4 0.882843 0.152864 0.604373
O O5 0.605971 0.265428 0.606542
O O6 0.560151 0.592202 0.480286
O O7 0.369564 0.184014 0.943906
O O8 0.291862 0.591691 0.946264
O O9 0.539216 0.381308 0.113023
O O10 0.373763 0.306323 0.094382
O O11 0.759033 0.438200 0.233358
O O12 0.687537 0.943877 0.207866
O O13 0.650212 0.337620 0.771563
#
# Coordination Sequence:
#
# PCOD9128081 Si02
#       7
#     4   2   4   4   4   4   4
#     4  10  23  46  67  97 142 177 226 281 346 404
#     4  12  26  44  72 108 132 188 228 288 334 422
#     4  10  24  42  74 100 138 180 237 278 349 401
#     4  10  25  49  67 103 139 181 224 293 338 409
#     4  11  26  44  70  98 144 176 231 281 348 402
#     4  10  24  44  68 100 137 183 224 281 338 419
#     4  11  23  45  70 105 136 186 228 291 335 416
#
# _framework density 24.175183000000001
#
# number of rings (size 3 to 8) (size 9 to 14) (size 15 to 20)
#    0.000    1.538    1.538    0.923    6.462    9.846 
#    5.538    0.000    0.000    0.000    0.000    0.000 
#    0.000    0.000    0.000    0.000    0.000    0.000 
#
# Total GULP energy -72384.474210 kJ/mol
# GULP energy per Si atom -5568.036478 kJ/mol
# Density = 2.412016 g / cm^3
# Si number density = 24.175183 Si / 1000 Ang^3
#
#
#
# Elastic Constant Matrix: (Units=GPa)
#
#
# Indices 1 2 3 4 5 6 
#
# 1 51.9497 -6.3406 6.2786 -0.0011 8.2351 0.0036
# 2 -6.3406 68.4396 18.9298 0.0023 4.1805 0.0090
# 3 6.2786 18.9298 110.4629 -0.0005 -0.4469 0.0014
# 4 -0.0011 0.0023 -0.0005 15.6292 0.0007 9.7571
# 5 8.2351 4.1805 -0.4469 0.0007 37.0903 0.0009
# 6 0.0036 0.0090 0.0014 9.7571 0.0009 15.6040
#
#
#
# Elastic Compliance Matrix: (Units=1/GPa)
#
#
# Indices 1 2 3 4 5 6 
#
# 1 0.020546 0.002656 -0.001643 0.000008 -0.004881 -0.000011
# 2 0.002656 0.015798 -0.002868 0.000006 -0.002405 -0.000013
# 3 -0.001643 -0.002868 0.009641 0.000000 0.000804 0.000001
# 4 0.000008 0.000006 0.000000 0.104952 -0.000003 -0.065625
# 5 -0.004881 -0.002405 0.000804 -0.000003 0.028326 0.000003
# 6 -0.000011 -0.000013 0.000001 -0.065625 0.000003 0.105121
#
#
# Mechanical properties :
#
#
# Convention : Reuss Voigt Hill
#
# Bulk Modulus (GPa) = 23.65461 29.84309 26.74885
# Shear Modulus (GPa) = 16.54623 27.79700 22.17162
#
# Velocity S-wave (km/s) = 2.61900 3.39457 3.03169
# Velocity P-wave (km/s) = 4.35333 5.26645 4.83151
#
# Compressibility (1/GPa) = 0.04227506
#
# Stress axis : x y z
#
# Youngs Moduli (GPa) = 48.67169 63.30074 103.72476
#
# Poissons Ratio (x) = -0.16812 0.17039
# Poissons Ratio (y) = -0.12927 0.29747
# Poissons Ratio (z) = 0.07995 0.18154
#
# Static dielectric constant tensor:
#      x y z
#    x 2.002980 0.000000 0.036320 
#    y 0.000000 1.918880 0.000000 
#    z 0.036320 0.000000 1.969190 
# 
# From -- ./inp_files/66440.got.cif
#   From: 2010.05.17/outbox.cif.g08.bks.cpg/sg5_34_cif.got.tgz:66440.got - 2010.06.03 18:56:24.
