data_PCOD9128843
_publ_section_title
;
Structure prediction by ZEFSAII (Michael W. Deem and Ramdas Pophale) SiO2 
 PCOD9128843
Probable space group: C 2
;
_chemical_formula_sum "Si O2"
_cell_formula_units_Z 28
_cell_length_a 20.133264
_cell_length_b 9.069976
_cell_length_c 14.805030
_cell_angle_alpha 90.000000
_cell_angle_beta 30.865380
_cell_angle_gamma 90.000000
_cell_volume 1386.967195
_symmetry_space_group_name_H-M "C 2"
_symmetry_group_IT_number 5
_symmetry_cell_setting 'monoclinic'
loop_
_space_group_symop_operation_xyz
x,y,z
-x,y,-z
1/2+x,1/2+y,z
1/2-x,1/2+y,-z
loop_
_atom_site_type_symbol
_atom_site_label
_atom_site_fract_x
_atom_site_fract_y
_atom_site_fract_z
Si Si1 0.644884 0.812960 0.841064
Si Si2 0.967437 0.132956 0.640360
Si Si3 0.140938 0.447590 0.212776
Si Si4 0.607719 0.372569 0.541953
Si Si5 0.816885 0.515719 0.037960
Si Si6 0.000000 0.022710 0.000000
Si Si7 0.000000 0.681556 0.500000
Si Si8 0.571732 0.321715 0.080360
O O1 0.738921 0.856411 0.649559
O O2 0.689944 0.880451 0.884258
O O3 0.500000 0.874814 0.000000
O O4 0.620734 0.636857 0.865943
O O5 0.951575 0.306645 0.665957
O O6 0.000000 0.098788 0.500000
O O7 0.827798 0.062808 0.819918
O O8 0.069792 0.044966 0.580269
O O9 0.100890 0.575195 0.329353
O O10 0.120093 0.487153 0.132464
O O11 0.290506 0.396981 0.052245
O O12 0.558333 0.283978 0.510699
O O13 0.528752 0.312449 0.719364
O O14 0.886526 0.658124 0.999560
O O15 0.006459 0.919893 0.079504
#
# Coordination Sequence:
#
# PCOD9128843 Si02
#       8
#     4   4   4   4   4   2   2   4
#     4  10  25  45  64  90 130 184 220 271 326 387
#     4  11  21  36  63 102 132 165 201 272 333 400
#     4  11  24  39  65 106 138 163 212 277 345 397
#     4  12  22  41  69  95 132 172 223 269 337 392
#     4  11  22  42  68  97 134 169 218 273 338 397
#     4  10  26  48  62  90 136 186 228 272 320 384
#     4  12  22  38  64 102 140 168 206 278 342 398
#     4  11  25  42  68  98 132 179 220 277 329 396
#
# _framework density 20.187930999999999
#
# number of rings (size 3 to 8) (size 9 to 14) (size 15 to 20)
#    0.429    0.571    5.714    0.857    3.000    0.000 
#    2.571    0.000    0.000    0.000    0.000    0.000 
#    0.000    0.000    0.000    0.000    0.000    0.000 
#
# Total GULP energy -78077.765186 kJ/mol
# GULP energy per Si atom -5576.983228 kJ/mol
# Density = 2.014198 g / cm^3
# Si number density = 20.187931 Si / 1000 Ang^3
#
#
#
# Elastic Constant Matrix: (Units=GPa)
#
#
# Indices 1 2 3 4 5 6 
#
# 1 44.8139 45.4302 15.6783 0.0000 12.2791 0.0000
# 2 45.4302 112.1587 39.1694 0.0001 8.9011 0.0000
# 3 15.6783 39.1694 124.5528 0.0000 7.8023 0.0000
# 4 0.0000 0.0001 0.0000 32.9627 0.0000 -0.6768
# 5 12.2791 8.9011 7.8023 0.0000 27.6434 0.0000
# 6 0.0000 0.0000 0.0000 -0.6768 0.0000 31.6767
#
#
#
# Elastic Compliance Matrix: (Units=1/GPa)
#
#
# Indices 1 2 3 4 5 6 
#
# 1 0.042385 -0.016305 0.000654 0.000000 -0.013762 0.000000
# 2 -0.016305 0.016444 -0.003299 0.000000 0.002879 0.000000
# 3 0.000654 -0.003299 0.009096 0.000000 -0.001796 0.000000
# 4 0.000000 0.000000 0.000000 0.030351 0.000000 0.000648
# 5 -0.013762 0.002879 -0.001796 0.000000 0.041868 0.000000
# 6 0.000000 0.000000 0.000000 0.000648 0.000000 0.031583
#
#
# Mechanical properties :
#
#
# Convention : Reuss Voigt Hill
#
# Bulk Modulus (GPa) = 33.30403 53.56461 43.43432
# Shear Modulus (GPa) = 22.76503 30.53971 26.65237
#
# Velocity S-wave (km/s) = 3.36170 3.89365 3.63742
# Velocity P-wave (km/s) = 5.62146 6.84139 6.26121
#
# Compressibility (1/GPa) = 0.03002639
#
# Stress axis : x y z
#
# Youngs Moduli (GPa) = 23.59309 60.81277 109.93350
#
# Poissons Ratio (x) = 0.99153 -0.07192
# Poissons Ratio (y) = 0.38468 0.36270
# Poissons Ratio (z) = -0.01544 0.20064
#
# Static dielectric constant tensor:
#      x y z
#    x 1.720650 0.000000 -0.037780 
#    y 0.000000 1.726600 0.000000 
#    z -0.037780 0.000000 1.711390 
# 
# From -- ./inp_files/41738.got.cif
#   From: 2010.05.17/outbox.cif.g08.bks.cpg/sg5_21_cif.got.tgz:41738.got - 2010.06.03 18:56:24.
