data_PCOD9128879
_publ_section_title
;
Structure prediction by ZEFSAII (Michael W. Deem and Ramdas Pophale) SiO2 
 PCOD9128879
Probable space group: C 2
;
_chemical_formula_sum "Si O2"
_cell_formula_units_Z 24
_cell_length_a 9.721256
_cell_length_b 10.482416
_cell_length_c 9.877981
_cell_angle_alpha 90.000000
_cell_angle_beta 101.605177
_cell_angle_gamma 90.000000
_cell_volume 986.010873
_symmetry_space_group_name_H-M "C 2"
_symmetry_group_IT_number 5
_symmetry_cell_setting 'monoclinic'
loop_
_space_group_symop_operation_xyz
x,y,z
-x,y,-z
1/2+x,1/2+y,z
1/2-x,1/2+y,-z
loop_
_atom_site_type_symbol
_atom_site_label
_atom_site_fract_x
_atom_site_fract_y
_atom_site_fract_z
Si Si1 0.600282 0.778420 0.220007
Si Si2 0.156995 0.213449 0.520162
Si Si3 0.501698 0.399157 0.848293
Si Si4 0.173753 0.396723 0.738353
Si Si5 0.690236 0.148427 0.913396
Si Si6 0.750218 0.047047 0.222528
O O1 0.500000 0.659768 0.500000
O O2 0.681013 0.717494 0.365699
O O3 0.434038 0.795273 0.213146
O O4 0.658495 0.700889 0.105454
O O5 0.150476 0.359069 0.576808
O O6 0.250860 0.133078 0.642756
O O7 0.340188 0.379726 0.783357
O O8 0.584801 0.265632 0.869579
O O9 0.591754 0.493970 0.773535
O O10 0.500000 0.450774 0.000000
O O11 0.148100 0.529840 0.809258
O O12 0.843823 0.422049 0.778127
O O13 0.302505 0.109217 0.928437
#
# Coordination Sequence:
#
# PCOD9128879 Si02
#       6
#     4   4   4   4   4   4
#     4  10  27  50  72 111 144 198 246 294 372 433
#     4  10  25  46  72 104 147 195 245 293 362 437
#     4  11  24  45  68 114 143 186 242 299 370 428
#     4  11  25  46  76 104 148 190 244 301 358 435
#     4  11  26  48  74 109 150 186 245 308 364 426
#     4  11  25  47  78 106 149 194 244 303 367 432
#
# _framework density 24.340501
#
# number of rings (size 3 to 8) (size 9 to 14) (size 15 to 20)
#    0.000    1.333    1.667    1.000   14.000    0.000 
#    6.000    2.500    0.000    0.000    0.000    0.000 
#    0.000    0.000    0.000    0.000    0.000    0.000 
#
# Total GULP energy -67096.890533 kJ/mol
# GULP energy per Si atom -5591.407544 kJ/mol
# Density = 2.428510 g / cm^3
# Si number density = 24.340501 Si / 1000 Ang^3
#
#
#
# Elastic Constant Matrix: (Units=GPa)
#
#
# Indices 1 2 3 4 5 6 
#
# 1 119.3685 19.7819 9.1388 0.0000 -0.7319 0.0000
# 2 19.7819 135.8150 47.7409 0.0000 6.4226 0.0000
# 3 9.1388 47.7409 113.3354 0.0000 4.6752 0.0000
# 4 0.0000 0.0000 0.0000 52.5859 0.0000 -3.0322
# 5 -0.7319 6.4226 4.6752 0.0000 30.7745 0.0000
# 6 0.0000 0.0000 0.0000 -3.0322 0.0000 28.4318
#
#
#
# Elastic Compliance Matrix: (Units=1/GPa)
#
#
# Indices 1 2 3 4 5 6 
#
# 1 0.008595 -0.001202 -0.000207 0.000000 0.000487 0.000000
# 2 -0.001202 0.008860 -0.003580 0.000000 -0.001334 0.000000
# 3 -0.000207 -0.003580 0.010383 0.000000 -0.000835 0.000000
# 4 0.000000 0.000000 0.000000 0.019134 0.000000 0.002041
# 5 0.000487 -0.001334 -0.000835 0.000000 0.032911 0.000000
# 6 0.000000 0.000000 0.000000 0.002041 0.000000 0.035389
#
#
# Mechanical properties :
#
#
# Convention : Reuss Voigt Hill
#
# Bulk Modulus (GPa) = 55.99263 57.98245 56.98754
# Shear Modulus (GPa) = 38.10869 41.81560 39.96214
#
# Velocity S-wave (km/s) = 3.96112 4.14930 4.05630
# Velocity P-wave (km/s) = 6.63133 6.84315 6.73807
#
# Compressibility (1/GPa) = 0.01785949
#
# Stress axis : x y z
#
# Youngs Moduli (GPa) = 116.34027 112.87233 96.31584
#
# Poissons Ratio (x) = 0.13571 0.01991
# Poissons Ratio (y) = 0.13988 0.34481
# Poissons Ratio (z) = 0.02405 0.40408
#
# Static dielectric constant tensor:
#      x y z
#    x 1.984940 0.000000 0.024410 
#    y 0.000000 1.974980 0.000000 
#    z 0.024410 0.000000 1.957180 
# 
# From -- ./inp_files/35410.got.cif
#   From: 2010.05.17/outbox.cif.g08.bks.cpg/sg5_18_cif.got.tgz:35410.got - 2010.06.03 18:56:24.
