data_PCOD9128024
_publ_section_title
;
Structure prediction by ZEFSAII (Michael W. Deem and Ramdas Pophale) SiO2 
 PCOD9128024
Probable space group: C 2
;
_chemical_formula_sum "Si O2"
_cell_formula_units_Z 32
_cell_length_a 30.337203
_cell_length_b 5.098752
_cell_length_c 8.665540
_cell_angle_alpha 90.000000
_cell_angle_beta 91.430214
_cell_angle_gamma 90.000000
_cell_volume 1339.984391
_symmetry_space_group_name_H-M "C 2"
_symmetry_group_IT_number 5
_symmetry_cell_setting 'monoclinic'
loop_
_space_group_symop_operation_xyz
x,y,z
-x,y,-z
1/2+x,1/2+y,z
1/2-x,1/2+y,-z
loop_
_atom_site_type_symbol
_atom_site_label
_atom_site_fract_x
_atom_site_fract_y
_atom_site_fract_z
Si Si1 0.225763 0.066320 0.565666
Si Si2 0.771574 0.947488 0.068342
Si Si3 0.950438 0.036087 0.513406
Si Si4 0.358340 0.786363 0.612773
Si Si5 0.547483 0.948249 0.981833
Si Si6 0.643074 0.524682 0.071076
Si Si7 0.923944 0.961504 0.165382
Si Si8 0.914290 0.660084 0.728680
O O1 0.258890 0.308724 0.529155
O O2 0.178324 0.176628 0.504521
O O3 0.226116 0.987788 0.746995
O O4 0.737253 0.729399 0.010442
O O5 0.816485 0.855961 0.987760
O O6 0.932662 0.964055 0.345063
O O7 0.951759 0.783435 0.626002
O O8 0.000000 0.148577 0.500000
O O9 0.908220 0.194130 0.575461
O O10 0.343727 0.713575 0.786684
O O11 0.370456 0.093739 0.624749
O O12 0.541421 0.666041 0.904829
O O13 0.573668 0.157390 0.880998
O O14 0.500000 0.075178 0.000000
O O15 0.568426 0.936983 0.153759
O O16 0.604141 0.366060 0.150025
O O17 0.620003 0.604742 0.907547
#
# Coordination Sequence:
#
# PCOD9128024 Si02
#       8
#     4   4   4   4   4   4   4   4
#     4  12  28  50  78 114 153 193 242 305 375 446
#     4  12  27  47  75 110 144 191 239 301 363 440
#     4  11  26  43  68 104 150 192 248 306 374 436
#     4  11  24  45  73 102 146 195 244 303 378 435
#     4  11  23  41  68  94 135 177 242 285 352 419
#     4  10  23  45  69 101 142 186 250 294 362 429
#     4  11  24  42  65 100 130 186 230 298 346 423
#     4  10  24  43  69  99 140 200 236 310 361 437
#
# _framework density 23.880876000000001
#
# number of rings (size 3 to 8) (size 9 to 14) (size 15 to 20)
#    0.000    1.000    1.250    4.125   10.500    0.500 
#    2.250    0.000    0.000    0.000    0.000    0.000 
#    0.000    0.000    0.000    0.000    0.000    0.000 
#
# Total GULP energy -89162.955529 kJ/mol
# GULP energy per Si atom -5572.684721 kJ/mol
# Density = 2.382652 g / cm^3
# Si number density = 23.880876 Si / 1000 Ang^3
#
#
#
# Elastic Constant Matrix: (Units=GPa)
#
#
# Indices 1 2 3 4 5 6 
#
# 1 62.8050 -3.8018 44.7029 0.0000 -7.8103 0.0000
# 2 -3.8018 79.4396 28.8954 0.0000 -3.0196 0.0000
# 3 44.7029 28.8954 145.4057 0.0000 10.7650 0.0000
# 4 0.0000 0.0000 0.0000 17.1424 0.0000 6.3265
# 5 -7.8103 -3.0196 10.7650 0.0000 32.7014 0.0000
# 6 0.0000 0.0000 0.0000 6.3265 0.0000 24.4459
#
#
#
# Elastic Compliance Matrix: (Units=1/GPa)
#
#
# Indices 1 2 3 4 5 6 
#
# 1 0.023637 0.004698 -0.008867 0.000000 0.008998 0.000000
# 2 0.004698 0.014658 -0.004654 0.000000 0.004008 0.000000
# 3 -0.008867 -0.004654 0.010984 0.000000 -0.006163 0.000000
# 4 0.000000 0.000000 0.000000 0.064495 0.000000 -0.016691
# 5 0.008998 0.004008 -0.006163 0.000000 0.035128 0.000000
# 6 0.000000 0.000000 0.000000 -0.016691 0.000000 0.045226
#
#
# Mechanical properties :
#
#
# Convention : Reuss Voigt Hill
#
# Bulk Modulus (GPa) = 31.61087 47.47147 39.54117
# Shear Modulus (GPa) = 22.49035 29.38152 25.93593
#
# Velocity S-wave (km/s) = 3.07216 3.51142 3.29911
# Velocity P-wave (km/s) = 5.08428 6.03007 5.57726
#
# Compressibility (1/GPa) = 0.03163469
#
# Stress axis : x y z
#
# Youngs Moduli (GPa) = 42.30719 68.22100 91.03845
#
# Poissons Ratio (x) = -0.32053 0.80720
# Poissons Ratio (y) = -0.19877 0.42370
# Poissons Ratio (z) = 0.37512 0.31751
#
# Static dielectric constant tensor:
#      x y z
#    x 2.179220 0.000000 -0.096090 
#    y 0.000000 2.157220 0.000000 
#    z -0.096090 0.000000 2.042960 
# 
# From -- ./inp_files/32294.got.cif
#   From: 2010.05.17/outbox.cif.g08.bks.cpg/sg5_17_cif.got.tgz:32294.got - 2010.06.03 18:56:24.
