data_PCOD9128315
_publ_section_title
;
Structure prediction by ZEFSAII (Michael W. Deem and Ramdas Pophale) SiO2 
 PCOD9128315
Probable space group: C 2
;
_chemical_formula_sum "Si O2"
_cell_formula_units_Z 30
_cell_length_a 7.895612
_cell_length_b 14.469783
_cell_length_c 12.294733
_cell_angle_alpha 90.000000
_cell_angle_beta 111.765783
_cell_angle_gamma 90.000000
_cell_volume 1304.505288
_symmetry_space_group_name_H-M "C 2"
_symmetry_group_IT_number 5
_symmetry_cell_setting 'monoclinic'
loop_
_space_group_symop_operation_xyz
x,y,z
-x,y,-z
1/2+x,1/2+y,z
1/2-x,1/2+y,-z
loop_
_atom_site_type_symbol
_atom_site_label
_atom_site_fract_x
_atom_site_fract_y
_atom_site_fract_z
Si Si1 0.445207 0.768210 0.229585
Si Si2 0.373950 0.028304 0.602731
Si Si3 0.247797 0.457584 0.749257
Si Si4 0.311701 0.708755 0.523196
Si Si5 0.232826 0.570021 0.950406
Si Si6 0.500000 0.737414 0.000000
Si Si7 0.701486 0.082810 0.180385
Si Si8 0.638621 0.392342 0.436697
O O1 0.352829 0.859923 0.254779
O O2 0.623842 0.738300 0.340832
O O3 0.488918 0.787849 0.113102
O O4 0.305436 0.681478 0.207173
O O5 0.287377 0.111739 0.514764
O O6 0.279217 0.033127 0.699184
O O7 0.589790 0.028094 0.671987
O O8 0.324267 0.935796 0.527578
O O9 0.306621 0.499250 0.878118
O O10 0.390648 0.439114 0.687097
O O11 0.500000 0.707282 0.500000
O O12 0.174424 0.783808 0.439902
O O13 0.017489 0.587602 0.884234
O O14 0.329648 0.667725 0.955911
O O15 0.265218 0.537752 0.082170
O O16 0.500000 0.413242 0.500000
#
# Coordination Sequence:
#
# PCOD9128315 Si02
#       8
#     4   4   4   4   4   2   4   4
#     4  11  22  43  67  92 137 169 220 270 332 382
#     4  11  22  39  69  95 132 177 214 267 338 386
#     4  11  23  44  65  94 133 175 215 280 323 394
#     4  12  22  44  68  98 133 178 214 275 334 398
#     4   9  21  40  66  94 127 168 229 259 329 389
#     4  10  24  42  64  94 126 174 218 276 320 396
#     4   9  19  39  66  95 125 173 217 266 320 394
#     4  12  26  41  61  98 136 171 225 268 329 403
#
# _framework density 22.997223999999999
#
# number of rings (size 3 to 8) (size 9 to 14) (size 15 to 20)
#    0.000    1.333    4.000    0.800    1.867    4.267 
#    4.800    2.667    0.000    0.000    0.000    0.000 
#    0.000    0.000    0.000    0.000    0.000    0.000 
#
# Total GULP energy -83825.955360 kJ/mol
# GULP energy per Si atom -5588.397024 kJ/mol
# Density = 2.294488 g / cm^3
# Si number density = 22.997224 Si / 1000 Ang^3
#
#
#
# Elastic Constant Matrix: (Units=GPa)
#
#
# Indices 1 2 3 4 5 6 
#
# 1 93.3940 13.3012 46.9498 0.0000 -34.5322 0.0000
# 2 13.3012 38.8174 34.3627 0.0000 -6.2773 0.0000
# 3 46.9498 34.3627 138.6037 0.0000 -34.8151 0.0000
# 4 0.0000 0.0000 0.0000 31.0692 0.0000 -1.4167
# 5 -34.5322 -6.2773 -34.8151 0.0000 44.6833 0.0000
# 6 0.0000 0.0000 0.0000 -1.4167 0.0000 13.4791
#
#
#
# Elastic Compliance Matrix: (Units=1/GPa)
#
#
# Indices 1 2 3 4 5 6 
#
# 1 0.015930 -0.001665 -0.002424 0.000000 0.010189 0.000000
# 2 -0.001665 0.033348 -0.008517 0.000000 -0.003238 0.000000
# 3 -0.002424 -0.008517 0.011658 0.000000 0.006013 0.000000
# 4 0.000000 0.000000 0.000000 0.032341 0.000000 0.003399
# 5 0.010189 -0.003238 0.006013 0.000000 0.034484 0.000000
# 6 0.000000 0.000000 0.000000 0.003399 0.000000 0.074546
#
#
# Mechanical properties :
#
#
# Convention : Reuss Voigt Hill
#
# Bulk Modulus (GPa) = 27.99242 51.11585 39.55413
# Shear Modulus (GPa) = 20.88304 29.59307 25.23806
#
# Velocity S-wave (km/s) = 3.01669 3.59111 3.31636
# Velocity P-wave (km/s) = 4.93278 6.28251 5.64811
#
# Compressibility (1/GPa) = 0.03572396
#
# Stress axis : x y z
#
# Youngs Moduli (GPa) = 62.77343 29.98663 85.77827
#
# Poissons Ratio (x) = 0.04993 0.20793
# Poissons Ratio (y) = 0.10453 0.73057
# Poissons Ratio (z) = 0.15217 0.25540
#
# Static dielectric constant tensor:
#      x y z
#    x 1.871600 0.000000 -0.037710 
#    y 0.000000 1.792910 0.000000 
#    z -0.037710 0.000000 1.909370 
# 
# From -- ./inp_files/36438.got.cif
#   From: 2010.05.17/outbox.cif.g08.bks.cpg/sg5_19_cif.got.tgz:36438.got - 2010.06.03 18:56:24.
