data_PCOD9128505
_publ_section_title
;
Structure prediction by ZEFSAII (Michael W. Deem and Ramdas Pophale) SiO2 
 PCOD9128505
Probable space group: C 2
;
_chemical_formula_sum "Si O2"
_cell_formula_units_Z 30
_cell_length_a 18.029864
_cell_length_b 5.192061
_cell_length_c 20.218464
_cell_angle_alpha 90.000000
_cell_angle_beta 142.055210
_cell_angle_gamma 90.000000
_cell_volume 1163.821046
_symmetry_space_group_name_H-M "C 2"
_symmetry_group_IT_number 5
_symmetry_cell_setting 'monoclinic'
loop_
_space_group_symop_operation_xyz
x,y,z
-x,y,-z
1/2+x,1/2+y,z
1/2-x,1/2+y,-z
loop_
_atom_site_type_symbol
_atom_site_label
_atom_site_fract_x
_atom_site_fract_y
_atom_site_fract_z
Si Si1 0.715230 0.571630 0.944283
Si Si2 0.226078 0.706478 0.525529
Si Si3 0.041644 0.094753 0.257974
Si Si4 0.996799 0.997094 0.381375
Si Si5 0.291344 0.160428 0.273275
Si Si6 0.500000 0.885122 0.500000
Si Si7 0.054928 0.903821 0.136026
Si Si8 0.819098 0.792159 0.894825
O O1 0.583552 0.705461 0.856262
O O2 0.708343 0.276086 0.960037
O O3 0.730460 0.083014 0.090535
O O4 0.255962 0.920678 0.490543
O O5 0.166884 0.244958 0.347062
O O6 0.092344 0.763181 0.456310
O O7 0.010455 0.052650 0.313234
O O8 0.058509 0.861142 0.217046
O O9 0.035122 0.207240 0.461860
O O10 0.861501 0.918512 0.305102
O O11 0.150727 0.138486 0.193608
O O12 0.287210 0.981473 0.204124
O O13 0.380632 0.033077 0.390172
O O14 0.116680 0.705599 0.128037
O O15 0.923134 0.939330 0.011049
#
# Coordination Sequence:
#
# PCOD9128505 Si02
#       8
#     4   4   4   4   4   2   4   4
#     4  12  27  46  78 115 150 201 259 318 380 464
#     4  10  26  46  72 107 153 195 249 316 383 451
#     4  11  25  46  75 115 147 205 254 328 382 464
#     4  11  27  44  72 110 152 198 264 313 388 469
#     4  10  24  44  78  94 155 196 251 313 389 454
#     4  12  26  44  66 114 142 206 254 314 382 468
#     4   9  21  44  75 106 152 191 258 311 399 444
#     4   9  21  46  73 107 150 195 251 316 383 461
#
# _framework density 25.777159000000001
#
# number of rings (size 3 to 8) (size 9 to 14) (size 15 to 20)
#    0.800    0.800    1.333    1.200   11.200    3.200 
#    2.400    0.000    5.867    0.000    0.000    0.000 
#    0.000    0.000    0.000    0.000    0.000    0.000 
#
# Total GULP energy -83615.806586 kJ/mol
# GULP energy per Si atom -5574.387106 kJ/mol
# Density = 2.571849 g / cm^3
# Si number density = 25.777159 Si / 1000 Ang^3
#
#
#
# Elastic Constant Matrix: (Units=GPa)
#
#
# Indices 1 2 3 4 5 6 
#
# 1 88.2164 15.9415 37.1406 0.0001 -18.5181 0.0004
# 2 15.9415 63.2844 24.1571 0.0007 -15.7609 0.0030
# 3 37.1406 24.1571 134.2737 -0.0001 5.9169 0.0001
# 4 0.0001 0.0007 -0.0001 27.2475 0.0001 1.7691
# 5 -18.5181 -15.7609 5.9169 0.0001 72.7108 0.0003
# 6 0.0004 0.0030 0.0001 1.7691 0.0003 22.3285
#
#
#
# Elastic Compliance Matrix: (Units=1/GPa)
#
#
# Indices 1 2 3 4 5 6 
#
# 1 0.013897 -0.001156 -0.003795 0.000000 0.003598 0.000000
# 2 -0.001156 0.018268 -0.003139 0.000000 0.003921 -0.000002
# 3 -0.003795 -0.003139 0.009167 0.000000 -0.002393 0.000000
# 4 0.000000 0.000000 0.000000 0.036890 0.000000 -0.002923
# 5 0.003598 0.003921 -0.002393 0.000000 0.015714 -0.000001
# 6 0.000000 -0.000002 0.000000 -0.002923 -0.000001 0.045017
#
#
# Mechanical properties :
#
#
# Convention : Reuss Voigt Hill
#
# Bulk Modulus (GPa) = 39.75853 48.91698 44.33775
# Shear Modulus (GPa) = 30.57745 38.35972 34.46858
#
# Velocity S-wave (km/s) = 3.44789 3.86181 3.66071
# Velocity P-wave (km/s) = 5.59536 6.23722 5.92499
#
# Compressibility (1/GPa) = 0.02515184
#
# Stress axis : x y z
#
# Youngs Moduli (GPa) = 71.95540 54.74099 109.08287
#
# Poissons Ratio (x) = 0.06330 0.41392
# Poissons Ratio (y) = 0.08321 0.34246
# Poissons Ratio (z) = 0.27304 0.17186
#
# Static dielectric constant tensor:
#      x y z
#    x 2.087850 0.000000 -0.005070 
#    y 0.000000 2.030770 0.000000 
#    z -0.005070 0.000000 2.064660 
# 
# From -- ./inp_files/66931.got.cif
#   From: 2010.05.17/outbox.cif.g08.bks.cpg/sg5_34_cif.got.tgz:66931.got - 2010.06.03 18:56:24.
