data_PCOD9128847
_publ_section_title
;
Structure prediction by ZEFSAII (Michael W. Deem and Ramdas Pophale) SiO2 
 PCOD9128847
Probable space group: C 2
;
_chemical_formula_sum "Si O2"
_cell_formula_units_Z 28
_cell_length_a 10.380816
_cell_length_b 20.890605
_cell_length_c 10.957256
_cell_angle_alpha 90.000000
_cell_angle_beta 37.038138
_cell_angle_gamma 90.000000
_cell_volume 1431.300101
_symmetry_space_group_name_H-M "C 2"
_symmetry_group_IT_number 5
_symmetry_cell_setting 'monoclinic'
loop_
_space_group_symop_operation_xyz
x,y,z
-x,y,-z
1/2+x,1/2+y,z
1/2-x,1/2+y,-z
loop_
_atom_site_type_symbol
_atom_site_label
_atom_site_fract_x
_atom_site_fract_y
_atom_site_fract_z
Si Si1 0.449500 0.233980 0.182704
Si Si2 0.295507 0.808757 0.087736
Si Si3 0.500000 0.798553 0.500000
Si Si4 0.496894 0.083295 0.146706
Si Si5 0.237448 0.984906 0.486820
Si Si6 0.000000 0.882766 0.500000
Si Si7 0.413062 0.514585 0.940667
Si Si8 0.368777 0.896747 0.806916
O O1 0.628537 0.268738 0.130729
O O2 0.206163 0.258318 0.390890
O O3 0.468573 0.158313 0.191515
O O4 0.500000 0.244723 0.000000
O O5 0.158734 0.840371 0.299412
O O6 0.500000 0.776391 0.000000
O O7 0.388165 0.862693 0.924365
O O8 0.397030 0.842680 0.683615
O O9 0.304577 0.042631 0.348817
O O10 0.500000 0.072684 0.000000
O O11 0.714567 0.054491 0.038064
O O12 0.451996 0.948665 0.363257
O O13 0.114297 0.929980 0.507601
O O14 0.099498 0.010507 0.701571
O O15 0.500000 0.543174 0.000000
O O16 0.338678 0.441386 0.023925
#
# Coordination Sequence:
#
# PCOD9128847 Si02
#       8
#     4   4   2   4   4   2   4   4
#     4  11  26  47  69  96 137 185 237 280 330 403
#     4  12  25  42  65 101 141 179 219 279 344 410
#     4  12  24  41  72  99 136 176 230 278 342 400
#     4  10  25  45  66  97 130 177 231 275 332 405
#     4  11  22  39  66  96 132 171 218 276 345 399
#     4  12  22  37  66 101 134 174 214 276 352 408
#     4  11  24  41  69  98 135 174 218 287 340 398
#     4  11  23  38  63 101 133 168 218 277 340 406
#
# _framework density 19.562635
#
# number of rings (size 3 to 8) (size 9 to 14) (size 15 to 20)
#    0.000    0.857    4.286    2.571    4.000    5.143 
#    0.000    1.429    0.000    0.000    0.000    0.000 
#    0.000    0.000    0.000    0.000    0.000    0.000 
#
# Total GULP energy -78172.554324 kJ/mol
# GULP energy per Si atom -5583.753880 kJ/mol
# Density = 1.951811 g / cm^3
# Si number density = 19.562635 Si / 1000 Ang^3
#
#
#
# Elastic Constant Matrix: (Units=GPa)
#
#
# Indices 1 2 3 4 5 6 
#
# 1 128.5409 57.0653 43.8498 0.0000 -6.6852 0.0000
# 2 57.0653 102.3532 63.7516 0.0000 -2.4412 0.0000
# 3 43.8498 63.7516 135.6287 0.0000 5.1376 0.0000
# 4 0.0000 0.0000 0.0000 4.1896 0.0000 8.8040
# 5 -6.6852 -2.4412 5.1376 0.0000 29.1336 0.0000
# 6 0.0000 0.0000 0.0000 8.8040 0.0000 19.1641
#
#
#
# Elastic Compliance Matrix: (Units=1/GPa)
#
#
# Indices 1 2 3 4 5 6 
#
# 1 0.010550 -0.005167 -0.001065 -0.000002 0.002176 0.000001
# 2 -0.005167 0.016502 -0.006135 0.000003 0.001279 -0.000001
# 3 -0.001065 -0.006135 0.010701 -0.000003 -0.002645 0.000001
# 4 -0.000002 0.000003 -0.000003 6.896516 0.000010 -3.168283
# 5 0.002176 0.001279 -0.002645 0.000010 0.035397 -0.000004
# 6 0.000001 -0.000001 0.000001 -3.168283 -0.000004 1.507701
#
#
# Mechanical properties :
#
#
# Convention : Reuss Voigt Hill
#
# Bulk Modulus (GPa) = 76.80059 77.31736 77.05897
# Shear Modulus (GPa) = 0.58779 23.95454 12.27116
#
# Velocity S-wave (km/s) = 0.54874 3.50309 2.50726
# Velocity P-wave (km/s) = 6.30441 7.48137 6.91797
#
# Compressibility (1/GPa) = 0.01302073
#
# Stress axis : x y z
#
# Youngs Moduli (GPa) = 94.78891 60.59707 93.44822
#
# Poissons Ratio (x) = 0.31310 0.09948
# Poissons Ratio (y) = 0.48976 0.57329
# Poissons Ratio (z) = 0.10091 0.37175
#
# Static dielectric constant tensor:
#      x y z
#    x 1.716550 0.000000 -0.025920 
#    y 0.000000 1.667760 0.000000 
#    z -0.025920 0.000000 1.676280 
# 
# From -- ./inp_files/40673.got.cif
#   From: 2010.05.17/outbox.cif.g08.bks.cpg/sg5_21_cif.got.tgz:40673.got - 2010.06.03 18:56:24.
