data_PCOD9128963
_publ_section_title
;
Structure prediction by ZEFSAII (Michael W. Deem and Ramdas Pophale) SiO2 
 PCOD9128963
Probable space group: C 2
;
_chemical_formula_sum "Si O2"
_cell_formula_units_Z 28
_cell_length_a 14.000728
_cell_length_b 5.200365
_cell_length_c 17.271949
_cell_angle_alpha 90.000000
_cell_angle_beta 58.829416
_cell_angle_gamma 90.000000
_cell_volume 1075.998954
_symmetry_space_group_name_H-M "C 2"
_symmetry_group_IT_number 5
_symmetry_cell_setting 'monoclinic'
loop_
_space_group_symop_operation_xyz
x,y,z
-x,y,-z
1/2+x,1/2+y,z
1/2-x,1/2+y,-z
loop_
_atom_site_type_symbol
_atom_site_label
_atom_site_fract_x
_atom_site_fract_y
_atom_site_fract_z
Si Si1 0.500000 0.854080 0.000000
Si Si2 0.665662 0.135734 0.161548
Si Si3 0.985523 0.426620 0.657422
Si Si4 0.193657 0.370265 0.502633
Si Si5 0.640139 0.835674 0.808443
Si Si6 0.187446 0.144619 0.355661
Si Si7 0.500000 0.279762 0.500000
Si Si8 0.096422 0.138016 0.104115
O O1 0.426785 0.994872 0.095910
O O2 0.583819 0.681497 0.016974
O O3 0.549573 0.105584 0.258337
O O4 0.763026 0.183431 0.184686
O O5 0.649444 0.377147 0.111883
O O6 0.665763 0.874199 0.111743
O O7 0.095827 0.261340 0.599806
O O8 0.003445 0.600107 0.573396
O O9 0.881757 0.234224 0.689967
O O10 0.281995 0.144636 0.473019
O O11 0.192620 0.389477 0.409769
O O12 0.536682 0.669404 0.817940
O O13 0.702230 0.006968 0.719422
O O14 0.105644 0.962743 0.439983
#
# Coordination Sequence:
#
# PCOD9128963 Si02
#       8
#     2   4   4   4   4   4   2   4
#     4   8  24  56  76 120 156 200 258 334 390 492
#     4  12  26  48  83 110 156 205 256 322 391 465
#     4  12  26  46  71 107 150 207 271 305 382 474
#     4  12  28  45  69 107 154 205 256 320 383 448
#     4  10  25  52  78 114 155 204 256 328 398 458
#     4  12  24  47  74 100 154 207 256 322 387 452
#     4  12  20  46  74 100 152 200 272 302 382 466
#     4  10  27  51  77 121 150 199 261 323 388 482
#
# _framework density 26.022333
#
# number of rings (size 3 to 8) (size 9 to 14) (size 15 to 20)
#    0.857    0.000    4.286    1.714    2.000    4.000 
#    2.571    0.000    0.000    0.000    0.000    0.000 
#    0.000    0.000    0.000    0.000    0.000    0.000 
#
# Total GULP energy -78178.871287 kJ/mol
# GULP energy per Si atom -5584.205092 kJ/mol
# Density = 2.596310 g / cm^3
# Si number density = 26.022333 Si / 1000 Ang^3
#
#
#
# Elastic Constant Matrix: (Units=GPa)
#
#
# Indices 1 2 3 4 5 6 
#
# 1 100.1424 13.0618 -12.6005 -0.0004 -12.2589 0.0117
# 2 13.0618 82.5018 15.0647 0.0131 1.1639 0.0110
# 3 -12.6005 15.0647 144.7622 -0.0002 -15.2239 0.0022
# 4 -0.0004 0.0131 -0.0002 17.6246 0.0000 8.1169
# 5 -12.2589 1.1639 -15.2239 0.0000 38.7010 0.0016
# 6 0.0117 0.0110 0.0022 8.1169 0.0016 21.2621
#
#
#
# Elastic Compliance Matrix: (Units=1/GPa)
#
#
# Indices 1 2 3 4 5 6 
#
# 1 0.010972 -0.002090 0.001611 0.000005 0.004172 -0.000007
# 2 -0.002090 0.012785 -0.001692 -0.000009 -0.001712 -0.000002
# 3 0.001611 -0.001692 0.007598 0.000002 0.003550 -0.000002
# 4 0.000005 -0.000009 0.000002 0.068842 0.000004 -0.026281
# 5 0.004172 -0.001712 0.003550 0.000004 0.028609 -0.000005
# 6 -0.000007 -0.000002 -0.000002 -0.026281 -0.000005 0.057065
#
#
# Mechanical properties :
#
#
# Convention : Reuss Voigt Hill
#
# Bulk Modulus (GPa) = 37.02082 39.82871 38.42477
# Shear Modulus (GPa) = 25.09821 36.30957 30.70389
#
# Velocity S-wave (km/s) = 3.10899 3.73946 3.43870
# Velocity P-wave (km/s) = 5.21010 5.82954 5.52850
#
# Compressibility (1/GPa) = 0.02701183
#
# Stress axis : x y z
#
# Youngs Moduli (GPa) = 91.14209 78.21627 131.62059
#
# Poissons Ratio (x) = 0.16348 -0.21208
# Poissons Ratio (y) = 0.19050 0.22277
# Poissons Ratio (z) = -0.14686 0.13238
#
# Static dielectric constant tensor:
#      x y z
#    x 2.797890 -0.000010 -0.115260 
#    y -0.000010 2.030790 0.000000 
#    z -0.115260 0.000000 2.073270 
# 
# From -- ./inp_files/61190.got.cif
#   From: 2010.05.17/outbox.cif.g08.bks.cpg/sg5_31_cif.got.tgz:61190.got - 2010.06.03 18:56:24.
