data_PCOD9128786
_publ_section_title
;
Structure prediction by ZEFSAII (Michael W. Deem and Ramdas Pophale) SiO2 
 PCOD9128786
Probable space group: C 2
;
_chemical_formula_sum "Si O2"
_cell_formula_units_Z 16
_cell_length_a 9.187275
_cell_length_b 5.221768
_cell_length_c 18.783020
_cell_angle_alpha 90.000000
_cell_angle_beta 133.989171
_cell_angle_gamma 90.000000
_cell_volume 648.310493
_symmetry_space_group_name_H-M "C 2"
_symmetry_group_IT_number 5
_symmetry_cell_setting 'monoclinic'
loop_
_space_group_symop_operation_xyz
x,y,z
-x,y,-z
1/2+x,1/2+y,z
1/2-x,1/2+y,-z
loop_
_atom_site_type_symbol
_atom_site_label
_atom_site_fract_x
_atom_site_fract_y
_atom_site_fract_z
Si Si1 0.887115 0.785400 0.036478
Si Si2 0.370208 0.926908 0.784257
Si Si3 0.072505 0.580421 0.727551
Si Si4 0.856364 0.249986 0.383937
O O1 0.046959 0.676648 0.148325
O O2 0.727893 0.545502 0.980529
O O3 0.000000 0.814284 0.000000
O O4 0.533447 0.875379 0.778038
O O5 0.169018 0.988868 0.669571
O O6 0.287006 0.719331 0.809925
O O7 0.071868 0.450176 0.650428
O O8 0.378758 0.268271 0.671945
O O9 0.000000 0.239645 0.500000
#
# Coordination Sequence:
#
# PCOD9128786 Si02
#       4
#     4   4   4   4
#     4  12  28  46  77 107 144 185 242 293 359 425
#     4  10  26  44  70  95 141 174 229 280 351 404
#     4  10  25  38  69  90 138 174 228 270 346 396
#     4  10  26  40  68  97 136 176 227 273 341 407
#
# _framework density 24.679531000000001
#
# number of rings (size 3 to 8) (size 9 to 14) (size 15 to 20)
#    1.500    0.000    0.000    2.250   14.000    1.000 
#    0.000    0.000    0.000    0.000    0.000    0.000 
#    0.000    0.000    0.000    0.000    0.000    0.000 
#
# Total GULP energy -44630.488834 kJ/mol
# GULP energy per Si atom -5578.811104 kJ/mol
# Density = 2.462336 g / cm^3
# Si number density = 24.679531 Si / 1000 Ang^3
#
#
#
# Elastic Constant Matrix: (Units=GPa)
#
#
# Indices 1 2 3 4 5 6 
#
# 1 220.2153 61.5048 55.4372 0.0000 -5.8996 0.0000
# 2 61.5048 68.3884 15.1627 0.0000 7.2098 0.0000
# 3 55.4372 15.1627 112.0805 0.0000 -9.9480 0.0000
# 4 0.0000 0.0000 0.0000 29.4168 0.0000 6.7718
# 5 -5.8996 7.2098 -9.9480 0.0000 27.8765 0.0000
# 6 0.0000 0.0000 0.0000 6.7718 0.0000 45.2839
#
#
#
# Elastic Compliance Matrix: (Units=1/GPa)
#
#
# Indices 1 2 3 4 5 6 
#
# 1 0.006831 -0.005831 -0.002404 0.000000 0.002096 0.000000
# 2 -0.005831 0.020695 -0.000516 0.000000 -0.006771 0.000000
# 3 -0.002404 -0.000516 0.010480 0.000000 0.003365 0.000000
# 4 0.000000 0.000000 0.000000 0.035206 0.000000 -0.005265
# 5 0.002096 -0.006771 0.003365 0.000000 0.039268 0.000000
# 6 0.000000 0.000000 0.000000 -0.005265 0.000000 0.022870
#
#
# Mechanical properties :
#
#
# Convention : Reuss Voigt Hill
#
# Bulk Modulus (GPa) = 48.77435 73.87706 61.32571
# Shear Modulus (GPa) = 31.31122 38.42076 34.86599
#
# Velocity S-wave (km/s) = 3.56576 3.94989 3.76273
# Velocity P-wave (km/s) = 6.06291 7.12753 6.61667
#
# Compressibility (1/GPa) = 0.02050258
#
# Stress axis : x y z
#
# Youngs Moduli (GPa) = 146.39188 48.32057 95.42347
#
# Poissons Ratio (x) = 0.28178 0.22938
# Poissons Ratio (y) = 0.85367 0.04927
# Poissons Ratio (z) = 0.35190 0.02495
#
# Static dielectric constant tensor:
#      x y z
#    x 1.975330 0.000000 0.024760 
#    y 0.000000 2.042010 0.000000 
#    z 0.024760 0.000000 1.992390 
# 
# From -- ./inp_files/37774.got.cif
#   From: 2010.05.17/outbox.cif.g08.bks.cpg/sg5_19_cif.got.tgz:37774.got - 2010.06.03 18:56:24.
