data_PCOD9128988
_publ_section_title
;
Structure prediction by ZEFSAII (Michael W. Deem and Ramdas Pophale) SiO2 
 PCOD9128988
Probable space group: C 2
;
_chemical_formula_sum "Si O2"
_cell_formula_units_Z 30
_cell_length_a 5.483210
_cell_length_b 17.228454
_cell_length_c 15.447134
_cell_angle_alpha 90.000000
_cell_angle_beta 109.702137
_cell_angle_gamma 90.000000
_cell_volume 1373.820643
_symmetry_space_group_name_H-M "C 2"
_symmetry_group_IT_number 5
_symmetry_cell_setting 'monoclinic'
loop_
_space_group_symop_operation_xyz
x,y,z
-x,y,-z
1/2+x,1/2+y,z
1/2-x,1/2+y,-z
loop_
_atom_site_type_symbol
_atom_site_label
_atom_site_fract_x
_atom_site_fract_y
_atom_site_fract_z
Si Si1 0.833328 0.052990 0.160196
Si Si2 0.741724 0.562154 0.588516
Si Si3 0.547560 0.389643 0.605696
Si Si4 0.450870 0.925171 0.146463
Si Si5 0.000000 0.015084 0.000000
Si Si6 0.624510 0.178666 0.243658
Si Si7 0.121229 0.274148 0.238241
Si Si8 0.778170 0.484309 0.316321
O O1 0.620829 0.113313 0.168044
O O2 0.922630 0.065833 0.073678
O O3 0.066550 0.046678 0.256568
O O4 0.714327 0.967162 0.150529
O O5 0.500000 0.584852 0.500000
O O6 0.651658 0.478259 0.615080
O O7 0.800917 0.630739 0.661727
O O8 0.031394 0.533531 0.599233
O O9 0.500000 0.368245 0.500000
O O10 0.732359 0.327900 0.673188
O O11 0.306490 0.407758 0.640314
O O12 0.501595 0.834264 0.154807
O O13 0.231324 0.959336 0.058825
O O14 0.382808 0.953474 0.236072
O O15 0.351411 0.221402 0.225942
O O16 0.873498 0.230767 0.248727
#
# Coordination Sequence:
#
# PCOD9128988 Si02
#       8
#     4   4   4   4   2   4   4   4
#     4  11  22  45  76 107 134 187 247 304 364 442
#     4  11  24  42  67 104 136 192 253 311 348 415
#     4  11  24  42  67 104 136 192 253 311 348 415
#     4  11  22  45  76 107 134 187 247 304 364 442
#     4  10  26  40  86 106 138 172 258 316 362 430
#     4  12  26  45  73 104 150 198 233 291 377 449
#     4  12  26  45  73 104 150 198 233 291 377 449
#     4  11  18  42  73 100 138 178 251 315 359 413
#
# _framework density 21.836911000000001
#
# number of rings (size 3 to 8) (size 9 to 14) (size 15 to 20)
#    0.000    0.800    5.333    2.000    3.733    3.200 
#    0.000    0.000    5.867    0.000    0.000    0.000 
#    0.000    0.000    0.000    0.000    0.000    0.000 
#
# Total GULP energy -83670.389561 kJ/mol
# GULP energy per Si atom -5578.025971 kJ/mol
# Density = 2.178721 g / cm^3
# Si number density = 21.836911 Si / 1000 Ang^3
#
#
#
# Elastic Constant Matrix: (Units=GPa)
#
#
# Indices 1 2 3 4 5 6 
#
# 1 79.1389 15.2691 21.3700 0.0000 7.7714 0.0000
# 2 15.2691 74.3856 -2.8077 0.0000 2.4940 0.0000
# 3 21.3700 -2.8077 100.9083 0.0000 5.6392 0.0000
# 4 0.0000 0.0000 0.0000 18.4679 0.0000 -0.5969
# 5 7.7714 2.4940 5.6392 0.0000 32.7203 0.0000
# 6 0.0000 0.0000 0.0000 -0.5969 0.0000 52.0105
#
#
#
# Elastic Compliance Matrix: (Units=1/GPa)
#
#
# Indices 1 2 3 4 5 6 
#
# 1 0.014264 -0.002950 -0.002954 0.000000 -0.002654 0.000000
# 2 -0.002950 0.014107 0.001048 0.000000 -0.000555 0.000000
# 3 -0.002954 0.001048 0.010633 0.000000 -0.001211 0.000000
# 4 0.000000 0.000000 0.000000 0.054168 0.000000 0.000622
# 5 -0.002654 -0.000555 -0.001211 0.000000 0.031443 0.000000
# 6 0.000000 0.000000 0.000000 0.000622 0.000000 0.019234
#
#
# Mechanical properties :
#
#
# Convention : Reuss Voigt Hill
#
# Bulk Modulus (GPa) = 34.14096 35.78840 34.96468
# Shear Modulus (GPa) = 30.61374 35.34650 32.98012
#
# Velocity S-wave (km/s) = 3.74829 4.02762 3.89046
# Velocity P-wave (km/s) = 5.86527 6.16875 6.01892
#
# Compressibility (1/GPa) = 0.02929033
#
# Stress axis : x y z
#
# Youngs Moduli (GPa) = 70.10825 70.88537 94.05125
#
# Poissons Ratio (x) = 0.20914 0.27787
# Poissons Ratio (y) = 0.20685 -0.09860
# Poissons Ratio (z) = 0.20713 -0.07431
#
# Static dielectric constant tensor:
#      x y z
#    x 2.121340 0.000000 0.006610 
#    y 0.000000 1.789630 0.000000 
#    z 0.006610 0.000000 1.811080 
# 
# From -- ./inp_files/49368.got.cif
#   From: 2010.05.17/outbox.cif.g08.bks.cpg/sg5_25_cif.got.tgz:49368.got - 2010.06.03 18:56:24.
