data_PCOD9128108
_publ_section_title
;
Structure prediction by ZEFSAII (Michael W. Deem and Ramdas Pophale) SiO2 
 PCOD9128108
Probable space group: C 2
;
_chemical_formula_sum "Si O2"
_cell_formula_units_Z 14
_cell_length_a 12.056955
_cell_length_b 8.283187
_cell_length_c 12.424625
_cell_angle_alpha 90.000000
_cell_angle_beta 155.328975
_cell_angle_gamma 90.000000
_cell_volume 517.939134
_symmetry_space_group_name_H-M "C 2"
_symmetry_group_IT_number 5
_symmetry_cell_setting 'monoclinic'
loop_
_space_group_symop_operation_xyz
x,y,z
-x,y,-z
1/2+x,1/2+y,z
1/2-x,1/2+y,-z
loop_
_atom_site_type_symbol
_atom_site_label
_atom_site_fract_x
_atom_site_fract_y
_atom_site_fract_z
Si Si1 0.309177 0.481650 0.467972
Si Si2 0.706952 0.795127 0.043550
Si Si3 0.467910 0.447779 0.842584
Si Si4 0.500000 0.775037 0.500000
O O1 0.561410 0.362994 0.676602
O O2 0.616277 0.616360 0.988044
O O3 0.401167 0.653771 0.505346
O O4 0.046374 0.412880 0.181930
O O5 0.841292 0.813670 0.043737
O O6 0.222255 0.989320 0.430545
O O7 0.259254 0.384487 0.746386
#
# Coordination Sequence:
#
# PCOD9128108 Si02
#       4
#     4   4   4   2
#     4  10  25  46  73 109 146 194 235 313 348 445
#     4  10  23  46  73 105 158 182 246 302 375 409
#     4  10  24  45  79 111 143 199 239 310 355 450
#     4  12  24  50  80 108 146 196 254 286 384 420
#
# _framework density 27.030203
#
# number of rings (size 3 to 8) (size 9 to 14) (size 15 to 20)
#    1.714    0.000    0.000    3.429    4.000    2.286 
#    5.143    0.000    0.000    0.000    0.000    0.000 
#    0.000    0.000    0.000    0.000    0.000    0.000 
#
# Total GULP energy -39219.063439 kJ/mol
# GULP energy per Si atom -5602.723348 kJ/mol
# Density = 2.696868 g / cm^3
# Si number density = 27.030203 Si / 1000 Ang^3
#
#
#
# Elastic Constant Matrix: (Units=GPa)
#
#
# Indices 1 2 3 4 5 6 
#
# 1 135.7435 55.5054 29.1808 0.0040 32.8284 0.0025
# 2 55.5054 208.2858 65.6253 0.0027 42.5172 0.0003
# 3 29.1808 65.6253 167.1380 0.0077 54.4823 0.0012
# 4 0.0040 0.0027 0.0077 55.8498 0.0051 13.6747
# 5 32.8284 42.5172 54.4823 0.0051 51.7651 0.0035
# 6 0.0025 0.0003 0.0012 13.6747 0.0035 30.3641
#
#
#
# Elastic Compliance Matrix: (Units=1/GPa)
#
#
# Indices 1 2 3 4 5 6 
#
# 1 0.009132 -0.001594 0.000750 0.000000 -0.005272 0.000000
# 2 -0.001594 0.006182 -0.001253 0.000000 -0.002747 0.000000
# 3 0.000750 -0.001253 0.009383 -0.000001 -0.009321 0.000001
# 4 0.000000 0.000000 -0.000001 0.020124 -0.000001 -0.009063
# 5 -0.005272 -0.002747 -0.009321 -0.000001 0.034728 -0.000003
# 6 0.000000 0.000000 0.000001 -0.009063 -0.000003 0.037015
#
#
# Mechanical properties :
#
#
# Convention : Reuss Voigt Hill
#
# Bulk Modulus (GPa) = 48.77593 90.19894 69.48743
# Shear Modulus (GPa) = 39.18707 51.65284 45.41996
#
# Velocity S-wave (km/s) = 3.81169 4.37616 4.10364
# Velocity P-wave (km/s) = 6.12014 7.67962 6.94380
#
# Compressibility (1/GPa) = 0.02050192
#
# Stress axis : x y z
#
# Youngs Moduli (GPa) = 109.50226 161.77275 106.57807
#
# Poissons Ratio (x) = 0.25783 -0.07991
# Poissons Ratio (y) = 0.17452 0.13357
# Poissons Ratio (z) = -0.08210 0.20275
#
# Static dielectric constant tensor:
#      x y z
#    x 2.253480 -0.000010 -0.202830 
#    y -0.000010 1.991270 0.000000 
#    z -0.202830 0.000000 2.279840 
# 
# From -- ./inp_files/6425.got.cif
#   From: 2010.05.17/outbox.cif.g08.bks.cpg/sg5_4_cif.got.tgz:6425.got - 2010.06.03 18:56:24.
