data_PCOD9128160
_publ_section_title
;
Structure prediction by ZEFSAII (Michael W. Deem and Ramdas Pophale) SiO2 
 PCOD9128160
Probable space group: C 2
;
_chemical_formula_sum "Si O2"
_cell_formula_units_Z 20
_cell_length_a 24.549944
_cell_length_b 7.119616
_cell_length_c 16.657044
_cell_angle_alpha 90.000000
_cell_angle_beta 14.904163
_cell_angle_gamma 90.000000
_cell_volume 748.826235
_symmetry_space_group_name_H-M "C 2"
_symmetry_group_IT_number 5
_symmetry_cell_setting 'monoclinic'
loop_
_space_group_symop_operation_xyz
x,y,z
-x,y,-z
1/2+x,1/2+y,z
1/2-x,1/2+y,-z
loop_
_atom_site_type_symbol
_atom_site_label
_atom_site_fract_x
_atom_site_fract_y
_atom_site_fract_z
Si Si1 0.766481 0.814950 0.870332
Si Si2 0.801908 0.184943 0.727950
Si Si3 0.045389 0.969017 0.244154
Si Si4 0.286551 0.676441 0.351771
Si Si5 0.900039 0.774136 0.218993
O O1 0.000000 0.783933 0.500000
O O2 0.786012 0.872726 0.936133
O O3 0.696369 0.004367 0.923930
O O4 0.646331 0.618898 0.040125
O O5 0.714219 0.452493 0.657229
O O6 0.000000 0.254541 0.500000
O O7 0.500000 0.164142 0.000000
O O8 0.897126 0.804404 0.422914
O O9 0.112584 0.815923 0.968268
O O10 0.907108 0.096122 0.500277
O O11 0.260813 0.694863 0.485396
O O12 0.500000 0.733367 0.000000
#
# Coordination Sequence:
#
# PCOD9128160 Si02
#       5
#     4   4   4   4   4
#     4   9  22  46  74 121 154 193 251 334 400 468
#     4   9  23  48  82 116 155 194 261 334 396 466
#     4  10  23  47  80 112 159 200 257 330 396 469
#     4  11  29  51  75 110 160 214 268 324 387 471
#     4  11  28  52  77 113 157 217 265 321 397 473
#
# _framework density 26.708462999999998
#
# number of rings (size 3 to 8) (size 9 to 14) (size 15 to 20)
#    0.000    2.400    0.000    0.000   11.200    9.600 
#    3.600    0.000    0.000    0.000    0.000    0.000 
#    0.000    0.000    0.000    0.000    0.000    0.000 
#
# Total GULP energy -55878.748927 kJ/mol
# GULP energy per Si atom -5587.874893 kJ/mol
# Density = 2.664767 g / cm^3
# Si number density = 26.708463 Si / 1000 Ang^3
#
#
#
# Elastic Constant Matrix: (Units=GPa)
#
#
# Indices 1 2 3 4 5 6 
#
# 1 138.3011 37.5974 54.7741 -0.0001 41.6536 0.0000
# 2 37.5974 104.4721 41.7667 -0.0001 2.0531 0.0000
# 3 54.7741 41.7667 92.6475 -0.0009 2.8689 0.0004
# 4 -0.0001 -0.0001 -0.0009 59.1226 0.0003 0.0807
# 5 41.6536 2.0531 2.8689 0.0003 55.7729 0.0000
# 6 0.0000 0.0000 0.0004 0.0807 0.0000 41.2361
#
#
#
# Elastic Compliance Matrix: (Units=1/GPa)
#
#
# Indices 1 2 3 4 5 6 
#
# 1 0.013252 -0.001913 -0.006679 0.000000 -0.009483 0.000000
# 2 -0.001913 0.011954 -0.004296 0.000000 0.001209 0.000000
# 3 -0.006679 -0.004296 0.016546 0.000000 0.004295 0.000000
# 4 0.000000 0.000000 0.000000 0.016914 0.000000 -0.000033
# 5 -0.009483 0.001209 0.004295 0.000000 0.024747 0.000000
# 6 0.000000 0.000000 0.000000 -0.000033 0.000000 0.024251
#
#
# Mechanical properties :
#
#
# Convention : Reuss Voigt Hill
#
# Bulk Modulus (GPa) = 62.58863 67.07746 64.83305
# Shear Modulus (GPa) = 36.03287 44.64517 40.33902
#
# Velocity S-wave (km/s) = 3.67702 4.09292 3.89053
# Velocity P-wave (km/s) = 6.44299 6.89240 6.67148
#
# Compressibility (1/GPa) = 0.01597734
#
# Stress axis : x y z
#
# Youngs Moduli (GPa) = 75.46182 83.65529 60.43895
#
# Poissons Ratio (x) = 0.16000 0.40365
# Poissons Ratio (y) = 0.14433 0.25962
# Poissons Ratio (z) = 0.50399 0.35935
#
# Static dielectric constant tensor:
#      x y z
#    x 2.156830 0.000000 0.006640 
#    y 0.000000 2.048780 0.000000 
#    z 0.006640 0.000000 2.154090 
# 
# From -- ./inp_files/55951.got.cif
#   From: 2010.05.17/outbox.cif.g08.bks.cpg/sg5_28_cif.got.tgz:55951.got - 2010.06.03 18:56:24.
