data_PCOD9128798
_publ_section_title
;
Structure prediction by ZEFSAII (Michael W. Deem and Ramdas Pophale) SiO2 
 PCOD9128798
Probable space group: C 2
;
_chemical_formula_sum "Si O2"
_cell_formula_units_Z 26
_cell_length_a 5.046554
_cell_length_b 9.274547
_cell_length_c 24.793695
_cell_angle_alpha 90.000000
_cell_angle_beta 69.335582
_cell_angle_gamma 90.000000
_cell_volume 1085.796686
_symmetry_space_group_name_H-M "C 2"
_symmetry_group_IT_number 5
_symmetry_cell_setting 'monoclinic'
loop_
_space_group_symop_operation_xyz
x,y,z
-x,y,-z
1/2+x,1/2+y,z
1/2-x,1/2+y,-z
loop_
_atom_site_type_symbol
_atom_site_label
_atom_site_fract_x
_atom_site_fract_y
_atom_site_fract_z
Si Si1 0.929599 0.035890 0.946498
Si Si2 0.495316 0.165268 0.564963
Si Si3 0.489328 0.943686 0.733927
Si Si4 0.533447 0.107259 0.162002
Si Si5 0.500000 0.818472 0.000000
Si Si6 0.425659 0.494111 0.606758
Si Si7 0.611111 0.379908 0.206573
O O1 0.209361 0.044288 0.890416
O O2 0.856640 0.201351 0.968929
O O3 0.676267 0.929793 0.950228
O O4 0.000000 0.970508 0.000000
O O5 0.500000 0.158687 0.500000
O O6 0.502557 0.331961 0.582781
O O7 0.757422 0.079522 0.572085
O O8 0.203486 0.085184 0.602891
O O9 0.428836 0.079442 0.776673
O O10 0.142998 0.343170 0.767686
O O11 0.703900 0.978397 0.671498
O O12 0.180733 0.892213 0.739389
O O13 0.542335 0.277703 0.161500
O O14 0.236459 0.029310 0.173247
#
# Coordination Sequence:
#
# PCOD9128798 Si02
#       7
#     4   4   4   4   2   4   4
#     4  10  26  44  69 100 134 183 228 293 345 429
#     4  12  26  47  72 106 144 190 241 293 353 417
#     4  10  26  43  70 102 142 179 238 283 360 411
#     4  10  26  40  70  95 142 177 236 282 359 410
#     4  10  26  40  70  92 138 164 244 268 368 392
#     4  12  27  44  78 103 148 189 240 296 353 422
#     4  10  25  41  67  98 137 179 229 286 351 420
#
# _framework density 23.945549
#
# number of rings (size 3 to 8) (size 9 to 14) (size 15 to 20)
#    1.385    0.000    0.000    3.231   11.846    0.000 
#    0.000    0.000    0.000    0.000    0.000    0.000 
#    0.000    0.000    0.000    0.000    0.000    0.000 
#
# Total GULP energy -72493.122075 kJ/mol
# GULP energy per Si atom -5576.394006 kJ/mol
# Density = 2.389105 g / cm^3
# Si number density = 23.945549 Si / 1000 Ang^3
#
#
#
# Elastic Constant Matrix: (Units=GPa)
#
#
# Indices 1 2 3 4 5 6 
#
# 1 89.6215 26.9631 -17.2100 0.0000 -11.7666 0.0002
# 2 26.9631 109.4015 8.8716 0.0000 5.9395 0.0001
# 3 -17.2100 8.8716 97.8962 0.0000 -18.5834 0.0002
# 4 0.0000 0.0000 0.0000 11.9567 0.0000 -6.1901
# 5 -11.7666 5.9395 -18.5834 0.0000 28.6728 -0.0001
# 6 0.0002 0.0001 0.0002 -6.1901 -0.0001 23.1622
#
#
#
# Elastic Compliance Matrix: (Units=1/GPa)
#
#
# Indices 1 2 3 4 5 6 
#
# 1 0.014856 -0.004624 0.004983 0.000000 0.010284 0.000000
# 2 -0.004624 0.010848 -0.002945 0.000000 -0.006053 0.000000
# 3 0.004983 -0.002945 0.013526 0.000000 0.011421 0.000000
# 4 0.000000 0.000000 0.000000 0.097065 0.000000 0.025940
# 5 0.010284 -0.006053 0.011421 0.000000 0.047753 0.000000
# 6 0.000000 0.000000 0.000000 0.025940 0.000000 0.050106
#
#
# Mechanical properties :
#
#
# Convention : Reuss Voigt Hill
#
# Bulk Modulus (GPa) = 29.36183 37.12984 33.24584
# Shear Modulus (GPa) = 19.94590 31.31131 25.62860
#
# Velocity S-wave (km/s) = 2.88925 3.62000 3.27507
# Velocity P-wave (km/s) = 4.83931 5.74562 5.31183
#
# Compressibility (1/GPa) = 0.03405783
#
# Stress axis : x y z
#
# Youngs Moduli (GPa) = 67.31193 92.18553 73.93263
#
# Poissons Ratio (x) = 0.42625 -0.36840
# Poissons Ratio (y) = 0.31124 0.21773
# Poissons Ratio (z) = -0.33541 0.27149
#
# Static dielectric constant tensor:
#      x y z
#    x 2.446730 0.000000 0.244970 
#    y 0.000000 2.085220 0.000000 
#    z 0.244970 0.000000 2.104100 
# 
# From -- ./inp_files/71486.got.cif
#   From: 2010.05.17/outbox.cif.g08.bks.cpg/sg5_36_cif.got.tgz:71486.got - 2010.06.03 18:56:24.
