data_PCOD9128898
_publ_section_title
;
Structure prediction by ZEFSAII (Michael W. Deem and Ramdas Pophale) SiO2 
 PCOD9128898
Probable space group: C 2
;
_chemical_formula_sum "Si O2"
_cell_formula_units_Z 24
_cell_length_a 8.805330
_cell_length_b 11.402220
_cell_length_c 11.413780
_cell_angle_alpha 90.000000
_cell_angle_beta 110.641839
_cell_angle_gamma 90.000000
_cell_volume 1072.379954
_symmetry_space_group_name_H-M "C 2"
_symmetry_group_IT_number 5
_symmetry_cell_setting 'monoclinic'
loop_
_space_group_symop_operation_xyz
x,y,z
-x,y,-z
1/2+x,1/2+y,z
1/2-x,1/2+y,-z
loop_
_atom_site_type_symbol
_atom_site_label
_atom_site_fract_x
_atom_site_fract_y
_atom_site_fract_z
Si Si1 0.668728 0.261630 0.690737
Si Si2 0.288148 0.211841 0.566374
Si Si3 0.679026 0.992365 0.296789
Si Si4 0.177281 0.073575 0.102172
Si Si5 0.845268 0.359138 0.258507
Si Si6 0.831903 0.665281 0.920722
O O1 0.480188 0.227516 0.646983
O O2 0.728450 0.237593 0.574599
O O3 0.692370 0.399219 0.715095
O O4 0.775832 0.187390 0.809244
O O5 0.188881 0.297486 0.625743
O O6 0.251339 0.075692 0.582602
O O7 0.519563 0.920800 0.292847
O O8 0.640583 0.083536 0.183646
O O9 0.218603 0.962345 0.193750
O O10 0.288199 0.082842 0.017032
O O11 0.000000 0.072671 0.000000
O O12 0.807258 0.257514 0.152611
O O13 0.000000 0.728869 0.000000
#
# Coordination Sequence:
#
# PCOD9128898 Si02
#       6
#     4   4   4   4   4   4
#     4  11  25  45  71 101 139 185 231 287 347 412
#     4  10  25  47  70 102 137 181 237 289 347 403
#     4  11  24  45  70  99 139 180 232 288 348 405
#     4  12  25  40  69 105 141 181 231 280 346 422
#     4  11  23  44  70  99 139 183 227 293 342 408
#     4  11  23  43  64 101 141 183 227 282 347 412
#
# _framework density 22.380129
#
# number of rings (size 3 to 8) (size 9 to 14) (size 15 to 20)
#    0.000    1.000    3.333    2.500    7.000    1.333 
#    0.000    0.000    0.000    0.000    0.000    0.000 
#    0.000    0.000    0.000    0.000    0.000    0.000 
#
# Total GULP energy -67112.785396 kJ/mol
# GULP energy per Si atom -5592.732116 kJ/mol
# Density = 2.232919 g / cm^3
# Si number density = 22.380129 Si / 1000 Ang^3
#
#
#
# Elastic Constant Matrix: (Units=GPa)
#
#
# Indices 1 2 3 4 5 6 
#
# 1 49.1593 15.6289 13.8919 0.0000 -3.3594 0.0000
# 2 15.6289 99.7741 15.5428 0.0000 -9.3901 0.0000
# 3 13.8919 15.5428 80.5667 0.0000 -14.3966 0.0000
# 4 0.0000 0.0000 0.0000 16.4533 0.0000 -2.5161
# 5 -3.3594 -9.3901 -14.3966 0.0000 31.2063 0.0000
# 6 0.0000 0.0000 0.0000 -2.5161 0.0000 41.5444
#
#
#
# Elastic Compliance Matrix: (Units=1/GPa)
#
#
# Indices 1 2 3 4 5 6 
#
# 1 0.022207 -0.002972 -0.003257 0.000000 -0.000006 0.000000
# 2 -0.002972 0.010897 -0.001156 0.000000 0.002425 0.000000
# 3 -0.003257 -0.001156 0.014246 0.000000 0.005874 0.000000
# 4 0.000000 0.000000 0.000000 0.061346 0.000000 0.003715
# 5 -0.000006 0.002425 0.005874 0.000000 0.035484 0.000000
# 6 0.000000 0.000000 0.000000 0.003715 0.000000 0.024296
#
#
# Mechanical properties :
#
#
# Convention : Reuss Voigt Hill
#
# Bulk Modulus (GPa) = 30.69388 35.51413 33.10400
# Shear Modulus (GPa) = 25.75925 30.13656 27.94790
#
# Velocity S-wave (km/s) = 3.39630 3.67355 3.53764
# Velocity P-wave (km/s) = 5.39670 5.82206 5.61341
#
# Compressibility (1/GPa) = 0.03257979
#
# Stress axis : x y z
#
# Youngs Moduli (GPa) = 45.03133 91.77216 70.19353
#
# Poissons Ratio (x) = 0.27273 0.22861
# Poissons Ratio (y) = 0.13382 0.08117
# Poissons Ratio (z) = 0.14666 0.10612
#
# Static dielectric constant tensor:
#      x y z
#    x 2.006240 0.000000 0.152760 
#    y 0.000000 1.813280 0.000000 
#    z 0.152760 0.000000 1.941930 
# 
# From -- ./inp_files/35475.got.cif
#   From: 2010.05.17/outbox.cif.g08.bks.cpg/sg5_18_cif.got.tgz:35475.got - 2010.06.03 18:56:24.
