data_PCOD9129166
_publ_section_title
;
Structure prediction by ZEFSAII (Michael W. Deem and Ramdas Pophale) SiO2 
 PCOD9129166
Probable space group: C 2
;
_chemical_formula_sum "Si O2"
_cell_formula_units_Z 22
_cell_length_a 11.227166
_cell_length_b 16.495595
_cell_length_c 6.579362
_cell_angle_alpha 90.000000
_cell_angle_beta 115.084779
_cell_angle_gamma 90.000000
_cell_volume 1103.563653
_symmetry_space_group_name_H-M "C 2"
_symmetry_group_IT_number 5
_symmetry_cell_setting 'monoclinic'
loop_
_space_group_symop_operation_xyz
x,y,z
-x,y,-z
1/2+x,1/2+y,z
1/2-x,1/2+y,-z
loop_
_atom_site_type_symbol
_atom_site_label
_atom_site_fract_x
_atom_site_fract_y
_atom_site_fract_z
Si Si1 0.224314 0.806210 0.976334
Si Si2 0.629433 0.803474 0.507940
Si Si3 0.000000 0.892048 0.000000
Si Si4 0.868302 0.439406 0.796573
Si Si5 0.351532 0.683163 0.815413
Si Si6 0.116845 0.018139 0.411997
O O1 0.301328 0.872733 0.896798
O O2 0.257365 0.714824 0.928023
O O3 0.277680 0.818310 0.240002
O O4 0.076212 0.834443 0.895921
O O5 0.500000 0.760714 0.500000
O O6 0.587294 0.885061 0.363332
O O7 0.691996 0.743943 0.392699
O O8 0.079133 0.950413 0.214905
O O9 0.750853 0.496396 0.631355
O O10 0.000000 0.473352 0.000000
O O11 0.358695 0.596543 0.713251
O O12 0.500000 0.702372 0.000000
O O13 0.000000 0.026783 0.500000
#
# Coordination Sequence:
#
# PCOD9129166 Si02
#       6
#     4   4   2   4   4   4
#     4  11  22  40  66 100 134 177 231 280 334 413
#     4  11  18  35  65  94 124 170 218 288 320 388
#     4  12  24  42  72 100 140 184 224 288 352 392
#     4  11  22  38  67 102 133 175 233 278 337 407
#     4  11  23  38  65 101 132 176 238 276 334 406
#     4  12  25  41  68 105 143 179 222 290 349 403
#
# _framework density 19.935414000000002
#
# number of rings (size 3 to 8) (size 9 to 14) (size 15 to 20)
#    0.000    0.727    8.182    1.636    0.000    0.000 
#    0.000    0.000    2.000    4.364    2.364    0.000 
#    0.000    0.000    0.000    0.000    0.000    0.000 
#
# Total GULP energy -61238.130671 kJ/mol
# GULP energy per Si atom -5567.102788 kJ/mol
# Density = 1.989004 g / cm^3
# Si number density = 19.935414 Si / 1000 Ang^3
#
#
#
# Elastic Constant Matrix: (Units=GPa)
#
#
# Indices 1 2 3 4 5 6 
#
# 1 92.9619 53.3811 32.9632 0.0000 0.5514 0.0000
# 2 53.3811 88.3163 42.2953 0.0000 -0.6252 0.0000
# 3 32.9632 42.2953 116.5042 0.0000 -0.6578 0.0000
# 4 0.0000 0.0000 0.0000 -25.1799 0.0000 30.7287
# 5 0.5514 -0.6252 -0.6578 0.0000 25.2673 0.0000
# 6 0.0000 0.0000 0.0000 30.7287 0.0000 -2.8885
#
#
#
# Elastic Compliance Matrix: (Units=1/GPa)
#
#
# Indices 1 2 3 4 5 6 
#
# 1 0.016641 -0.009449 -0.001282 0.000000 -0.000630 0.000000
# 2 -0.009449 0.019072 -0.004247 0.000000 0.000568 0.000000
# 3 -0.001282 -0.004247 0.010489 0.000000 0.000196 0.000000
# 4 0.000000 0.000000 0.000000 0.003314 0.000000 0.035259
# 5 -0.000630 0.000568 0.000196 0.000000 0.039610 0.000000
# 6 0.000000 0.000000 0.000000 0.035259 0.000000 0.028892
#
#
# Mechanical properties :
#
#
# Convention : Reuss Voigt Hill
#
# Bulk Modulus (GPa) = 61.55131 61.67349 61.61240
# Shear Modulus (GPa) = 32.59663 10.71597 21.65630
#
# Velocity S-wave (km/s) = 4.04804 2.32099 3.29952
# Velocity P-wave (km/s) = 7.26576 6.17952 6.74454
#
# Compressibility (1/GPa) = 0.01624661
#
# Stress axis : x y z
#
# Youngs Moduli (GPa) = 60.09177 52.43188 95.33802
#
# Poissons Ratio (x) = 0.49544 0.12218
# Poissons Ratio (y) = 0.56782 0.40492
# Poissons Ratio (z) = 0.07701 0.22269
#
# Static dielectric constant tensor:
#      x y z
#    x 5.374620 0.000000 3.552380 
#    y 0.000000 1.722470 0.000000 
#    z 3.552380 0.000000 5.298020 
# 
# From -- ./inp_files/5032.got.cif
#   From: 2010.05.17/outbox.cif.g08.bks.cpg/sg5_3_cif.got.tgz:5032.got - 2010.06.03 18:56:24.
