data_PCOD9129944
_publ_section_title
;
Structure prediction by ZEFSAII (Michael W. Deem and Ramdas Pophale) SiO2 
 PCOD9129944
Probable space group: C 2
;
_chemical_formula_sum "Si O2"
_cell_formula_units_Z 24
_cell_length_a 8.440171
_cell_length_b 24.958898
_cell_length_c 9.017556
_cell_angle_alpha 90.000000
_cell_angle_beta 148.326169
_cell_angle_gamma 90.000000
_cell_volume 997.455337
_symmetry_space_group_name_H-M "C 2"
_symmetry_group_IT_number 5
_symmetry_cell_setting 'monoclinic'
loop_
_space_group_symop_operation_xyz
x,y,z
-x,y,-z
1/2+x,1/2+y,z
1/2-x,1/2+y,-z
loop_
_atom_site_type_symbol
_atom_site_label
_atom_site_fract_x
_atom_site_fract_y
_atom_site_fract_z
Si Si1 0.053830 0.069690 0.868030
Si Si2 0.976376 0.861325 0.151360
Si Si3 0.794617 0.523195 0.649053
Si Si4 0.521910 0.237929 0.845019
Si Si5 0.187497 0.399630 0.325153
Si Si6 0.100996 0.189966 0.256631
O O1 0.392813 0.054440 0.092137
O O2 0.977019 0.129936 0.754169
O O3 0.000000 0.067873 0.000000
O O4 0.819838 0.028724 0.609404
O O5 0.076782 0.799209 0.243294
O O6 0.217988 0.895953 0.430015
O O7 0.638117 0.871731 0.947136
O O8 0.000000 0.875966 0.000000
O O9 0.500000 0.545376 0.500000
O O10 0.838892 0.462153 0.733745
O O11 0.386303 0.205630 0.592960
O O12 0.500000 0.216928 0.000000
O O13 0.880593 0.238068 0.119435
O O14 0.500000 0.377235 0.500000
O O15 0.000000 0.185344 0.000000
#
# Coordination Sequence:
#
# PCOD9129944 Si02
#       6
#     4   4   4   4   4   4
#     4  11  24  42  66  97 131 173 225 280 338 405
#     4  11  24  42  66  97 131 173 225 280 338 405
#     4  11  24  42  65  96 134 175 222 277 339 408
#     4  11  24  43  67  97 134 175 224 282 341 405
#     4  11  24  42  65  96 134 175 222 277 339 408
#     4  11  24  43  67  97 134 175 224 282 341 405
#
# _framework density 24.061228
#
# number of rings (size 3 to 8) (size 9 to 14) (size 15 to 20)
#    0.000    1.000    0.000    6.000    0.000   17.333 
#    0.000    0.000    0.000    0.000    0.000    0.000 
#    0.000    0.000    0.000    0.000    0.000    0.000 
#
# Total GULP energy -66807.234696 kJ/mol
# GULP energy per Si atom -5567.269558 kJ/mol
# Density = 2.400646 g / cm^3
# Si number density = 24.061228 Si / 1000 Ang^3
#
#
#
# Elastic Constant Matrix: (Units=GPa)
#
#
# Indices 1 2 3 4 5 6 
#
# 1 61.7026 13.0580 52.4530 0.0000 -1.3878 0.0000
# 2 13.0580 45.8940 46.6622 0.0000 -7.1985 0.0000
# 3 52.4530 46.6622 207.8761 0.0000 -4.5905 0.0000
# 4 0.0000 0.0000 0.0000 40.2975 0.0000 -3.4215
# 5 -1.3878 -7.1985 -4.5905 0.0000 41.6155 0.0000
# 6 0.0000 0.0000 0.0000 -3.4215 0.0000 26.2417
#
#
#
# Elastic Compliance Matrix: (Units=1/GPa)
#
#
# Indices 1 2 3 4 5 6 
#
# 1 0.020652 -0.000748 -0.005043 0.000000 0.000003 0.000000
# 2 -0.000748 0.029010 -0.006228 0.000000 0.004306 0.000000
# 3 -0.005043 -0.006228 0.007472 0.000000 -0.000421 0.000000
# 4 0.000000 0.000000 0.000000 0.025093 0.000000 0.003272
# 5 0.000003 0.004306 -0.000421 0.000000 0.024728 0.000000
# 6 0.000000 0.000000 0.000000 0.003272 0.000000 0.038534
#
#
# Mechanical properties :
#
#
# Convention : Reuss Voigt Hill
#
# Bulk Modulus (GPa) = 30.21556 59.97989 45.09773
# Shear Modulus (GPa) = 27.69172 35.18426 31.43799
#
# Velocity S-wave (km/s) = 3.39615 3.82813 3.61859
# Velocity P-wave (km/s) = 5.28805 6.67245 6.02018
#
# Compressibility (1/GPa) = 0.03309553
#
# Stress axis : x y z
#
# Youngs Moduli (GPa) = 48.42065 34.47101 133.83633
#
# Poissons Ratio (x) = 0.02578 0.67496
# Poissons Ratio (y) = 0.03622 0.83354
# Poissons Ratio (z) = 0.24419 0.21469
#
# Static dielectric constant tensor:
#      x y z
#    x 2.040630 0.000000 -0.050140 
#    y 0.000000 1.877560 0.000000 
#    z -0.050140 0.000000 1.964040 
# 
# From -- ./inp_files/17650.got.cif
#   From: 2010.05.17/outbox.cif.g08.bks.cpg/sg5_9_cif.got.tgz:17650.got - 2010.06.03 18:56:24.
