data_PCOD9129649
_publ_section_title
;
Structure prediction by ZEFSAII (Michael W. Deem and Ramdas Pophale) SiO2 
 PCOD9129649
Probable space group: C 2
;
_chemical_formula_sum "Si O2"
_cell_formula_units_Z 18
_cell_length_a 20.930121
_cell_length_b 7.247319
_cell_length_c 12.818420
_cell_angle_alpha 90.000000
_cell_angle_beta 27.375507
_cell_angle_gamma 90.000000
_cell_volume 894.070315
_symmetry_space_group_name_H-M "C 2"
_symmetry_group_IT_number 5
_symmetry_cell_setting 'monoclinic'
loop_
_space_group_symop_operation_xyz
x,y,z
-x,y,-z
1/2+x,1/2+y,z
1/2-x,1/2+y,-z
loop_
_atom_site_type_symbol
_atom_site_label
_atom_site_fract_x
_atom_site_fract_y
_atom_site_fract_z
Si Si1 0.878063 0.860930 0.403520
Si Si2 0.852839 0.787666 0.674992
Si Si3 0.558721 0.717775 0.187935
Si Si4 0.500000 0.653730 0.500000
Si Si5 0.923106 0.498076 0.221199
O O1 0.839108 0.767455 0.570867
O O2 0.935369 0.706650 0.243328
O O3 0.738982 0.950963 0.558875
O O4 0.989784 0.019081 0.265740
O O5 0.000000 0.708437 0.500000
O O6 0.872295 0.008625 0.668394
O O7 0.721639 0.714088 0.926973
O O8 0.526760 0.760931 0.354973
O O9 0.489603 0.863741 0.210381
O O10 0.000000 0.472019 0.000000
#
# Coordination Sequence:
#
# PCOD9129649 Si02
#       5
#     4   4   4   2   4
#     4  11  24  44  66 101 132 178 226 268 342 391
#     4   9  21  44  67  95 136 174 224 277 322 397
#     4  11  22  47  72  94 142 175 218 285 329 394
#     4   8  22  44  66 104 132 168 234 266 336 400
#     4  12  25  42  71  98 136 175 223 278 329 401
#
# _framework density 20.132645
#
# number of rings (size 3 to 8) (size 9 to 14) (size 15 to 20)
#    0.667    0.889    4.444    0.000    0.000    4.444 
#    6.000    0.000    0.000    0.000    0.000    0.000 
#    0.000    0.000    0.000    0.000    0.000    0.000 
#
# Total GULP energy -50273.994700 kJ/mol
# GULP energy per Si atom -5585.999411 kJ/mol
# Density = 2.008682 g / cm^3
# Si number density = 20.132645 Si / 1000 Ang^3
#
#
#
# Elastic Constant Matrix: (Units=GPa)
#
#
# Indices 1 2 3 4 5 6 
#
# 1 118.9682 29.4333 72.9888 0.0000 14.9931 0.0000
# 2 29.4333 62.7160 48.9059 -0.0001 14.6710 0.0000
# 3 72.9888 48.9059 156.9415 0.0000 2.7665 0.0000
# 4 0.0000 -0.0001 0.0000 27.7814 0.0000 8.2496
# 5 14.9931 14.6710 2.7665 0.0000 42.0012 0.0000
# 6 0.0000 0.0000 0.0000 8.2496 0.0000 24.6172
#
#
#
# Elastic Compliance Matrix: (Units=1/GPa)
#
#
# Indices 1 2 3 4 5 6 
#
# 1 0.012432 -0.000630 -0.005518 0.000000 -0.003854 0.000000
# 2 -0.000630 0.023325 -0.006844 0.000000 -0.007472 0.000000
# 3 -0.005518 -0.006844 0.011006 0.000000 0.003635 0.000000
# 4 0.000000 0.000000 0.000000 0.039973 0.000000 -0.013396
# 5 -0.003854 -0.007472 0.003635 0.000000 0.027555 0.000000
# 6 0.000000 0.000000 0.000000 -0.013396 0.000000 0.045111
#
#
# Mechanical properties :
#
#
# Convention : Reuss Voigt Hill
#
# Bulk Modulus (GPa) = 48.12145 71.25355 59.68750
# Shear Modulus (GPa) = 25.99917 31.36647 28.68282
#
# Velocity S-wave (km/s) = 3.59749 3.95142 3.77860
# Velocity P-wave (km/s) = 6.41951 7.50248 6.98202
#
# Compressibility (1/GPa) = 0.02078076
#
# Stress axis : x y z
#
# Youngs Moduli (GPa) = 80.43477 42.87183 90.85627
#
# Poissons Ratio (x) = 0.02703 0.50130
# Poissons Ratio (y) = 0.05071 0.62179
# Poissons Ratio (z) = 0.44380 0.29340
#
# Static dielectric constant tensor:
#      x y z
#    x 1.726980 0.000000 0.000640 
#    y 0.000000 1.714820 0.000000 
#    z 0.000640 0.000000 1.674500 
# 
# From -- ./inp_files/45812.got.cif
#   From: 2010.05.17/outbox.cif.g08.bks.cpg/sg5_23_cif.got.tgz:45812.got - 2010.06.03 18:56:24.
