data_PCOD9129803
_publ_section_title
;
Structure prediction by ZEFSAII (Michael W. Deem and Ramdas Pophale) SiO2 
 PCOD9129803
Probable space group: C 2
;
_chemical_formula_sum "Si O2"
_cell_formula_units_Z 20
_cell_length_a 14.138363
_cell_length_b 4.611822
_cell_length_c 13.452818
_cell_angle_alpha 90.000000
_cell_angle_beta 78.386958
_cell_angle_gamma 90.000000
_cell_volume 859.216149
_symmetry_space_group_name_H-M "C 2"
_symmetry_group_IT_number 5
_symmetry_cell_setting 'monoclinic'
loop_
_space_group_symop_operation_xyz
x,y,z
-x,y,-z
1/2+x,1/2+y,z
1/2-x,1/2+y,-z
loop_
_atom_site_type_symbol
_atom_site_label
_atom_site_fract_x
_atom_site_fract_y
_atom_site_fract_z
Si Si1 0.547660 0.482560 0.201914
Si Si2 0.184262 0.317133 0.536976
Si Si3 0.749288 0.029450 0.927347
Si Si4 0.449742 0.287051 0.415359
Si Si5 0.543972 0.967221 0.888379
O O1 0.655505 0.588474 0.157139
O O2 0.526903 0.371610 0.316140
O O3 0.469175 0.725103 0.191810
O O4 0.524734 0.227185 0.129804
O O5 0.267124 0.070793 0.544510
O O6 0.397491 0.577404 0.467782
O O7 0.126644 0.555460 0.615231
O O8 0.651620 0.072743 0.886747
O O9 0.748303 0.703857 0.969649
O O10 0.500000 0.145739 0.500000
O O11 0.500000 0.842633 0.000000
#
# Coordination Sequence:
#
# PCOD9129803 Si02
#       5
#     4   4   4   4   4
#     4  12  25  44  66 101 144 179 234 284 343 418
#     4   9  20  42  68  92 127 174 225 284 346 407
#     4  12  23  41  68  99 136 180 231 284 344 412
#     4  11  23  44  70  99 139 184 231 292 352 405
#     4  12  23  42  71  96 139 185 223 289 353 402
#
# _framework density 23.27703
#
# number of rings (size 3 to 8) (size 9 to 14) (size 15 to 20)
#    0.000    0.800    4.000    3.600    0.000    0.000 
#   21.600    0.000    0.000    0.000    0.000    0.000 
#    0.000    0.000    0.000    0.000    0.000    0.000 
#
# Total GULP energy -55667.649578 kJ/mol
# GULP energy per Si atom -5566.764958 kJ/mol
# Density = 2.322405 g / cm^3
# Si number density = 23.277030 Si / 1000 Ang^3
#
#
#
# Elastic Constant Matrix: (Units=GPa)
#
#
# Indices 1 2 3 4 5 6 
#
# 1 97.6923 6.8486 47.0041 0.0000 -18.2683 0.0000
# 2 6.8486 106.4048 6.6726 0.0000 -6.4106 0.0000
# 3 47.0041 6.6726 91.2080 0.0000 -13.8466 0.0000
# 4 0.0000 0.0000 0.0000 12.4238 0.0000 0.7370
# 5 -18.2683 -6.4106 -13.8466 0.0000 20.6268 0.0000
# 6 0.0000 0.0000 0.0000 0.7370 0.0000 5.0459
#
#
#
# Elastic Compliance Matrix: (Units=1/GPa)
#
#
# Indices 1 2 3 4 5 6 
#
# 1 0.014975 -0.000024 -0.006350 0.000000 0.008992 0.000000
# 2 -0.000024 0.009584 -0.000267 0.000000 0.002778 0.000000
# 3 -0.006350 -0.000267 0.014909 0.000000 0.004301 0.000000
# 4 0.000000 0.000000 0.000000 0.081194 0.000000 -0.011859
# 5 0.008992 0.002778 0.004301 0.000000 0.060195 0.000000
# 6 0.000000 0.000000 0.000000 -0.011859 0.000000 0.199912
#
#
# Mechanical properties :
#
#
# Convention : Reuss Voigt Hill
#
# Bulk Modulus (GPa) = 38.18971 46.26175 42.22573
# Shear Modulus (GPa) = 12.41371 23.27129 17.84250
#
# Velocity S-wave (km/s) = 2.31184 3.16532 2.77163
# Velocity P-wave (km/s) = 4.85473 5.76858 5.33127
#
# Compressibility (1/GPa) = 0.02618507
#
# Stress axis : x y z
#
# Youngs Moduli (GPa) = 66.77832 104.34355 67.07284
#
# Poissons Ratio (x) = 0.00249 0.42594
# Poissons Ratio (y) = 0.00159 0.01791
# Poissons Ratio (z) = 0.42407 0.02787
#
# Static dielectric constant tensor:
#      x y z
#    x 1.910150 0.000000 -0.058630 
#    y 0.000000 1.904800 0.000000 
#    z -0.058630 0.000000 1.848690 
# 
# From -- ./inp_files/51878.got.cif
#   From: 2010.05.17/outbox.cif.g08.bks.cpg/sg5_26_cif.got.tgz:51878.got - 2010.06.03 18:56:24.
