data_PCOD9129605
_publ_section_title
;
Structure prediction by ZEFSAII (Michael W. Deem and Ramdas Pophale) SiO2 
 PCOD9129605
Probable space group: C 2
;
_chemical_formula_sum "Si O2"
_cell_formula_units_Z 28
_cell_length_a 14.443219
_cell_length_b 13.481866
_cell_length_c 9.460171
_cell_angle_alpha 90.000000
_cell_angle_beta 133.188027
_cell_angle_gamma 90.000000
_cell_volume 1343.095930
_symmetry_space_group_name_H-M "C 2"
_symmetry_group_IT_number 5
_symmetry_cell_setting 'monoclinic'
loop_
_space_group_symop_operation_xyz
x,y,z
-x,y,-z
1/2+x,1/2+y,z
1/2-x,1/2+y,-z
loop_
_atom_site_type_symbol
_atom_site_label
_atom_site_fract_x
_atom_site_fract_y
_atom_site_fract_z
Si Si1 0.736080 0.084710 0.562458
Si Si2 0.220949 0.136715 0.889773
Si Si3 0.649830 0.428585 0.687040
Si Si4 0.525479 0.702036 0.195232
Si Si5 0.366027 0.213156 0.783003
Si Si6 0.221547 0.375031 0.473070
Si Si7 0.363358 0.206070 0.284827
O O1 0.882125 0.108078 0.675180
O O2 0.647985 0.125526 0.345163
O O3 0.720199 0.153814 0.682460
O O4 0.701316 0.971039 0.548888
O O5 0.256841 0.195296 0.785410
O O6 0.102719 0.184156 0.850639
O O7 0.194242 0.023342 0.820914
O O8 0.341272 0.146281 0.119431
O O9 0.500000 0.439878 0.500000
O O10 0.728221 0.418030 0.623224
O O11 0.668702 0.320874 0.777907
O O12 0.604264 0.800066 0.325479
O O13 0.500000 0.707945 0.000000
O O14 0.333461 0.310467 0.659365
O O15 0.500000 0.216879 0.000000
O O16 0.500000 0.204580 0.500000
#
# Coordination Sequence:
#
# PCOD9129605 Si02
#       7
#     4   4   4   4   4   4   4
#     4  11  22  45  67  98 142 184 222 293 362 411
#     4  12  25  44  76 108 137 185 249 291 350 428
#     4  11  23  43  76 100 138 196 236 281 356 431
#     4  11  23  46  71 101 147 183 234 299 352 424
#     4  11  25  44  70 101 140 182 241 296 341 429
#     4  11  24  44  69 101 144 184 230 292 366 408
#     4  11  24  47  68  98 141 181 234 298 345 421
#
# _framework density 20.847356999999999
#
# number of rings (size 3 to 8) (size 9 to 14) (size 15 to 20)
#    0.000    0.857    5.714    1.714    4.000    2.286 
#   10.286    0.000    0.000    0.000    0.000    0.000 
#    0.000    0.000    0.000    0.000    0.000    0.000 
#
# Total GULP energy -78220.703992 kJ/mol
# GULP energy per Si atom -5587.193142 kJ/mol
# Density = 2.079991 g / cm^3
# Si number density = 20.847357 Si / 1000 Ang^3
#
#
#
# Elastic Constant Matrix: (Units=GPa)
#
#
# Indices 1 2 3 4 5 6 
#
# 1 69.0967 16.9753 -7.3215 0.0000 -4.1908 0.0000
# 2 16.9753 144.5488 51.6990 0.0000 6.6473 0.0000
# 3 -7.3215 51.6990 90.3782 0.0000 3.1631 0.0000
# 4 0.0000 0.0000 0.0000 27.4950 0.0000 -7.2776
# 5 -4.1908 6.6473 3.1631 0.0000 26.4306 0.0000
# 6 0.0000 0.0000 0.0000 -7.2776 0.0000 21.0813
#
#
#
# Elastic Compliance Matrix: (Units=1/GPa)
#
#
# Indices 1 2 3 4 5 6 
#
# 1 0.015695 -0.003011 0.002892 0.000000 0.002900 0.000000
# 2 -0.003011 0.009343 -0.005512 0.000000 -0.002167 0.000000
# 3 0.002892 -0.005512 0.014448 0.000000 0.000116 0.000000
# 4 0.000000 0.000000 0.000000 0.040028 0.000000 0.013818
# 5 0.002900 -0.002167 0.000116 0.000000 0.038826 0.000000
# 6 0.000000 0.000000 0.000000 0.013818 0.000000 0.052206
#
#
# Mechanical properties :
#
#
# Convention : Reuss Voigt Hill
#
# Bulk Modulus (GPa) = 35.43168 47.41438 41.42303
# Shear Modulus (GPa) = 26.14857 31.17944 28.66401
#
# Velocity S-wave (km/s) = 3.54543 3.87150 3.71205
# Velocity P-wave (km/s) = 5.81316 6.54046 6.18751
#
# Compressibility (1/GPa) = 0.02822333
#
# Stress axis : x y z
#
# Youngs Moduli (GPa) = 63.71659 107.03280 69.21292
#
# Poissons Ratio (x) = 0.32226 -0.20018
# Poissons Ratio (y) = 0.19184 0.38154
# Poissons Ratio (z) = -0.18428 0.59002
#
# Static dielectric constant tensor:
#      x y z
#    x 1.841600 0.000000 0.016000 
#    y 0.000000 1.752580 0.000000 
#    z 0.016000 0.000000 1.746930 
# 
# From -- ./inp_files/24679.got.cif
#   From: 2010.05.17/outbox.cif.g08.bks.cpg/sg5_13_cif.got.tgz:24679.got - 2010.06.03 18:56:24.
