data_PCOD9129692
_publ_section_title
;
Structure prediction by ZEFSAII (Michael W. Deem and Ramdas Pophale) SiO2 
 PCOD9129692
Probable space group: C 2
;
_chemical_formula_sum "Si O2"
_cell_formula_units_Z 26
_cell_length_a 8.576618
_cell_length_b 18.231373
_cell_length_c 9.318178
_cell_angle_alpha 90.000000
_cell_angle_beta 125.161444
_cell_angle_gamma 90.000000
_cell_volume 1191.163924
_symmetry_space_group_name_H-M "C 2"
_symmetry_group_IT_number 5
_symmetry_cell_setting 'monoclinic'
loop_
_space_group_symop_operation_xyz
x,y,z
-x,y,-z
1/2+x,1/2+y,z
1/2-x,1/2+y,-z
loop_
_atom_site_type_symbol
_atom_site_label
_atom_site_fract_x
_atom_site_fract_y
_atom_site_fract_z
Si Si1 0.500000 0.904410 0.500000
Si Si2 0.524718 0.152103 0.846855
Si Si3 0.927422 0.932821 0.808213
Si Si4 0.694399 0.309470 0.865125
Si Si5 0.657121 0.590071 0.173484
Si Si6 0.542180 0.799306 0.262503
Si Si7 0.857376 0.152537 0.532579
O O1 0.700111 0.938388 0.660520
O O2 0.568969 0.858201 0.400411
O O3 0.611674 0.233387 0.879955
O O4 0.658470 0.094275 0.831300
O O5 0.325824 0.163212 0.661566
O O6 0.500000 0.131255 0.000000
O O7 0.044067 0.876626 0.771049
O O8 0.970386 0.019218 0.845069
O O9 0.000000 0.902351 0.000000
O O10 0.784887 0.294496 0.757440
O O11 0.863439 0.323852 0.069800
O O12 0.715878 0.618514 0.358990
O O13 0.500000 0.636973 0.000000
O O14 0.529304 0.723588 0.345691
O O15 0.000000 0.110625 0.500000
#
# Coordination Sequence:
#
# PCOD9129692 Si02
#       7
#     2   4   4   4   4   4   4
#     4  12  24  42  70 100 136 180 236 286 342 424
#     4  12  25  41  73 104 139 181 236 294 352 413
#     4  11  25  46  70  99 142 187 229 288 359 417
#     4  11  23  44  68 104 142 181 231 292 359 410
#     4  11  25  47  69  99 141 184 230 291 354 422
#     4  11  23  40  72 104 137 177 233 294 350 416
#     4  12  24  42  68 106 139 178 232 292 353 417
#
# _framework density 21.827392
#
# number of rings (size 3 to 8) (size 9 to 14) (size 15 to 20)
#    0.000    0.615    3.846    4.615    2.154    1.846 
#    2.769    3.077    0.000    0.000    0.000    0.000 
#    0.000    0.000    0.000    0.000    0.000    0.000 
#
# Total GULP energy -72378.256929 kJ/mol
# GULP energy per Si atom -5567.558225 kJ/mol
# Density = 2.177771 g / cm^3
# Si number density = 21.827392 Si / 1000 Ang^3
#
#
#
# Elastic Constant Matrix: (Units=GPa)
#
#
# Indices 1 2 3 4 5 6 
#
# 1 126.6523 21.8665 43.8770 0.0000 -18.5675 0.0000
# 2 21.8665 48.6812 -3.2514 0.0000 -3.0961 0.0000
# 3 43.8770 -3.2514 119.2559 0.0000 -15.7590 0.0000
# 4 0.0000 0.0000 0.0000 26.4775 0.0000 25.3838
# 5 -18.5675 -3.0961 -15.7590 0.0000 47.6542 0.0000
# 6 0.0000 0.0000 0.0000 25.3838 0.0000 27.1713
#
#
#
# Elastic Compliance Matrix: (Units=1/GPa)
#
#
# Indices 1 2 3 4 5 6 
#
# 1 0.010326 -0.004717 -0.003594 0.000000 0.002528 0.000000
# 2 -0.004717 0.022851 0.002418 0.000000 0.000446 0.000000
# 3 -0.003594 0.002418 0.010048 0.000000 0.002080 0.000000
# 4 0.000000 0.000000 0.000000 0.361865 0.000000 -0.338060
# 5 0.002528 0.000446 0.002080 0.000000 0.022686 0.000000
# 6 0.000000 0.000000 0.000000 -0.338060 0.000000 0.352624
#
#
# Mechanical properties :
#
#
# Convention : Reuss Voigt Hill
#
# Bulk Modulus (GPa) = 31.80878 46.61931 39.21404
# Shear Modulus (GPa) = 6.22925 35.73374 20.98149
#
# Velocity S-wave (km/s) = 1.69117 4.05051 3.10376
# Velocity P-wave (km/s) = 4.29161 6.57875 5.55418
#
# Compressibility (1/GPa) = 0.03143786
#
# Stress axis : x y z
#
# Youngs Moduli (GPa) = 96.84603 43.76262 99.52000
#
# Poissons Ratio (x) = 0.20644 0.35763
# Poissons Ratio (y) = 0.45685 -0.24059
# Poissons Ratio (z) = 0.34802 -0.10580
#
# Static dielectric constant tensor:
#      x y z
#    x 1.831890 0.000000 -0.070500 
#    y 0.000000 1.852590 0.000000 
#    z -0.070500 0.000000 1.567870 
# 
# From -- ./inp_files/16735.got.cif
#   From: 2010.05.17/outbox.cif.g08.bks.cpg/sg5_9_cif.got.tgz:16735.got - 2010.06.03 18:56:24.
