data_PCOD9129037
_publ_section_title
;
Structure prediction by ZEFSAII (Michael W. Deem and Ramdas Pophale) SiO2 
 PCOD9129037
Probable space group: C 2
;
_chemical_formula_sum "Si O2"
_cell_formula_units_Z 14
_cell_length_a 21.586429
_cell_length_b 4.575843
_cell_length_c 5.363504
_cell_angle_alpha 90.000000
_cell_angle_beta 90.734413
_cell_angle_gamma 90.000000
_cell_volume 529.742540
_symmetry_space_group_name_H-M "C 2"
_symmetry_group_IT_number 5
_symmetry_cell_setting 'monoclinic'
loop_
_space_group_symop_operation_xyz
x,y,z
-x,y,-z
1/2+x,1/2+y,z
1/2-x,1/2+y,-z
loop_
_atom_site_type_symbol
_atom_site_label
_atom_site_fract_x
_atom_site_fract_y
_atom_site_fract_z
Si Si1 0.000000 0.561590 0.500000
Si Si2 0.602973 0.904672 0.851801
Si Si3 0.102835 0.892672 0.192493
Si Si4 0.707813 0.065615 0.503447
O O1 0.957271 0.361576 0.319806
O O2 0.954642 0.768480 0.656865
O O3 0.665193 0.886522 0.695177
O O4 0.603372 0.729028 0.111650
O O5 0.599182 0.245319 0.921091
O O6 0.163555 0.760782 0.326244
O O7 0.747964 0.812838 0.373301
#
# Coordination Sequence:
#
# PCOD9129037 Si02
#       4
#     2   4   4   4
#     4  10  26  46  72 108 148 184 238 296 352 430
#     4  11  25  45  72 106 143 188 237 292 358 424
#     4  11  25  45  72 106 143 188 237 292 358 424
#     4  11  24  45  72 105 146 187 238 298 352 423
#
# _framework density 26.427928000000001
#
# number of rings (size 3 to 8) (size 9 to 14) (size 15 to 20)
#    0.000    1.143    0.000    4.286    0.000   18.286 
#    0.000    0.000    0.000    0.000    0.000    0.000 
#    0.000    0.000    0.000    0.000    0.000    0.000 
#
# Total GULP energy -39209.559251 kJ/mol
# GULP energy per Si atom -5601.365607 kJ/mol
# Density = 2.636778 g / cm^3
# Si number density = 26.427928 Si / 1000 Ang^3
#
#
#
# Elastic Constant Matrix: (Units=GPa)
#
#
# Indices 1 2 3 4 5 6 
#
# 1 173.5826 65.5560 59.1753 0.0000 14.1694 0.0000
# 2 65.5560 127.3041 28.5292 0.0000 3.9202 0.0000
# 3 59.1753 28.5292 87.8553 0.0000 -3.3482 0.0000
# 4 0.0000 0.0000 0.0000 63.1456 0.0000 1.6037
# 5 14.1694 3.9202 -3.3482 0.0000 9.3487 0.0000
# 6 0.0000 0.0000 0.0000 1.6037 0.0000 26.1166
#
#
#
# Elastic Compliance Matrix: (Units=1/GPa)
#
#
# Indices 1 2 3 4 5 6 
#
# 1 0.010831 -0.003515 -0.006817 0.000000 -0.017384 0.000000
# 2 -0.003515 0.009812 -0.000783 0.000000 0.000932 0.000000
# 3 -0.006817 -0.000783 0.016864 0.000000 0.016700 0.000000
# 4 0.000000 0.000000 0.000000 0.015861 0.000000 -0.000974
# 5 -0.017384 0.000932 0.016700 0.000000 0.138904 0.000000
# 6 0.000000 0.000000 0.000000 -0.000974 0.000000 0.038350
#
#
# Mechanical properties :
#
#
# Convention : Reuss Voigt Hill
#
# Bulk Modulus (GPa) = 65.45192 77.25146 71.35169
# Shear Modulus (GPa) = 19.38403 35.42094 27.40249
#
# Velocity S-wave (km/s) = 2.71120 3.66496 3.22355
# Velocity P-wave (km/s) = 5.88394 6.87050 6.39627
#
# Compressibility (1/GPa) = 0.01527839
#
# Stress axis : x y z
#
# Youngs Moduli (GPa) = 92.32670 101.91655 59.29619
#
# Poissons Ratio (x) = 0.35820 0.40419
# Poissons Ratio (y) = 0.32449 0.04645
# Poissons Ratio (z) = 0.62935 0.07984
#
# Static dielectric constant tensor:
#      x y z
#    x 2.070760 0.000000 0.034380 
#    y 0.000000 1.984550 0.000000 
#    z 0.034380 0.000000 2.014810 
# 
# From -- ./inp_files/9004.got.cif
#   From: 2010.05.17/outbox.cif.g08.bks.cpg/sg5_5_cif.got.tgz:9004.got - 2010.06.03 18:56:24.
