data_PCOD9129903
_publ_section_title
;
Structure prediction by ZEFSAII (Michael W. Deem and Ramdas Pophale) SiO2 
 PCOD9129903
Probable space group: C 2
;
_chemical_formula_sum "Si O2"
_cell_formula_units_Z 28
_cell_length_a 25.973262
_cell_length_b 9.070899
_cell_length_c 8.153576
_cell_angle_alpha 90.000000
_cell_angle_beta 140.380880
_cell_angle_gamma 90.000000
_cell_volume 1224.978547
_symmetry_space_group_name_H-M "C 2"
_symmetry_group_IT_number 5
_symmetry_cell_setting 'monoclinic'
loop_
_space_group_symop_operation_xyz
x,y,z
-x,y,-z
1/2+x,1/2+y,z
1/2-x,1/2+y,-z
loop_
_atom_site_type_symbol
_atom_site_label
_atom_site_fract_x
_atom_site_fract_y
_atom_site_fract_z
Si Si1 0.225860 0.844220 0.667742
Si Si2 0.353594 0.314717 0.999916
Si Si3 0.904151 0.960645 0.434721
Si Si4 0.194822 0.584698 0.342036
Si Si5 0.443299 0.534623 0.004045
Si Si6 0.588658 0.844708 0.252965
Si Si7 0.187565 0.258835 0.790822
O O1 0.229071 0.709713 0.547337
O O2 0.136726 0.859678 0.525387
O O3 0.244520 0.998661 0.627260
O O4 0.287741 0.820266 0.970731
O O5 0.407942 0.356834 0.286763
O O6 0.367811 0.167716 0.931782
O O7 0.371569 0.443297 0.911602
O O8 0.264645 0.291967 0.861462
O O9 0.987274 0.040494 0.685671
O O10 0.836899 0.088400 0.241010
O O11 0.152426 0.456960 0.338017
O O12 0.413295 0.687629 0.849919
O O13 0.500000 0.465004 0.000000
O O14 0.612864 0.821832 0.501818
O O15 0.500000 0.905350 0.000000
#
# Coordination Sequence:
#
# PCOD9129903 Si02
#       7
#     4   4   4   4   4   4   4
#     4  11  28  44  74 109 144 197 248 317 378 451
#     4  11  26  43  75 112 148 195 253 311 371 449
#     4  11  23  47  78 106 150 198 250 301 381 456
#     4  12  27  44  71 109 151 190 254 318 378 442
#     4  11  23  47  78 109 150 203 252 304 381 462
#     4  11  26  47  71 107 147 199 254 309 382 458
#     4  11  24  46  74 108 146 194 250 314 373 448
#
# _framework density 22.857541000000001
#
# number of rings (size 3 to 8) (size 9 to 14) (size 15 to 20)
#    0.000    0.857    4.286    2.143    8.000    2.857 
#    0.000    2.143    0.000    0.000    0.000    0.000 
#    0.000    0.000    0.000    0.000    0.000    0.000 
#
# Total GULP energy -78150.941322 kJ/mol
# GULP energy per Si atom -5582.210094 kJ/mol
# Density = 2.280552 g / cm^3
# Si number density = 22.857541 Si / 1000 Ang^3
#
#
#
# Elastic Constant Matrix: (Units=GPa)
#
#
# Indices 1 2 3 4 5 6 
#
# 1 85.0792 49.9827 32.4760 0.0000 -24.7922 0.0000
# 2 49.9827 102.3992 64.8076 0.0000 -24.1450 0.0000
# 3 32.4760 64.8076 162.9909 0.0000 -23.8206 0.0000
# 4 0.0000 0.0000 0.0000 39.1807 0.0000 -8.6311
# 5 -24.7922 -24.1450 -23.8206 0.0000 35.5567 0.0000
# 6 0.0000 0.0000 0.0000 -8.6311 0.0000 34.0653
#
#
#
# Elastic Compliance Matrix: (Units=1/GPa)
#
#
# Indices 1 2 3 4 5 6 
#
# 1 0.018199 -0.007262 0.000438 0.000000 0.008052 0.000000
# 2 -0.007262 0.017200 -0.004905 0.000000 0.003330 0.000000
# 3 0.000438 -0.004905 0.008376 0.000000 0.002586 0.000000
# 4 0.000000 0.000000 0.000000 0.027032 0.000000 0.006849
# 5 0.008052 0.003330 0.002586 0.000000 0.037732 0.000000
# 6 0.000000 0.000000 0.000000 0.006849 0.000000 0.031091
#
#
# Mechanical properties :
#
#
# Convention : Reuss Voigt Hill
#
# Bulk Modulus (GPa) = 49.21992 71.66689 60.44340
# Shear Modulus (GPa) = 29.43580 35.30738 32.37159
#
# Velocity S-wave (km/s) = 3.59248 3.93449 3.76737
# Velocity P-wave (km/s) = 6.22800 7.21541 6.73981
#
# Compressibility (1/GPa) = 0.02031698
#
# Stress axis : x y z
#
# Youngs Moduli (GPa) = 54.94769 58.13879 119.38240
#
# Poissons Ratio (x) = 0.42220 -0.05229
# Poissons Ratio (y) = 0.39903 0.58562
# Poissons Ratio (z) = -0.02407 0.28520
#
# Static dielectric constant tensor:
#      x y z
#    x 1.941800 0.000000 -0.004900 
#    y 0.000000 1.822500 0.000000 
#    z -0.004900 0.000000 1.919220 
# 
# From -- ./inp_files/31769.got.cif
#   From: 2010.05.17/outbox.cif.g08.bks.cpg/sg5_16_cif.got.tgz:31769.got - 2010.06.03 18:56:24.
