data_PCOD9129900
_publ_section_title
;
Structure prediction by ZEFSAII (Michael W. Deem and Ramdas Pophale) SiO2 
 PCOD9129900
Probable space group: C 2
;
_chemical_formula_sum "Si O2"
_cell_formula_units_Z 22
_cell_length_a 15.204697
_cell_length_b 8.832299
_cell_length_c 17.091362
_cell_angle_alpha 90.000000
_cell_angle_beta 23.541049
_cell_angle_gamma 90.000000
_cell_volume 916.732808
_symmetry_space_group_name_H-M "C 2"
_symmetry_group_IT_number 5
_symmetry_cell_setting 'monoclinic'
loop_
_space_group_symop_operation_xyz
x,y,z
-x,y,-z
1/2+x,1/2+y,z
1/2-x,1/2+y,-z
loop_
_atom_site_type_symbol
_atom_site_label
_atom_site_fract_x
_atom_site_fract_y
_atom_site_fract_z
Si Si1 0.219847 0.694620 0.771977
Si Si2 0.000000 0.920943 0.500000
Si Si3 0.436825 0.785951 0.753115
Si Si4 0.727739 0.992824 0.359684
Si Si5 0.303747 0.596291 0.004519
Si Si6 0.581291 0.227853 0.589103
O O1 0.296562 0.536052 0.675333
O O2 0.386495 0.754504 0.703342
O O3 0.204668 0.822592 0.717883
O O4 0.000000 0.680457 0.000000
O O5 0.971931 0.822740 0.445255
O O6 0.697932 0.791587 0.553160
O O7 0.309537 0.933601 0.889284
O O8 0.344281 0.647310 0.882246
O O9 0.635063 0.213172 0.182042
O O10 0.656784 0.059607 0.500761
O O11 0.950645 0.087589 0.157750
O O12 0.500000 0.020486 0.500000
#
# Coordination Sequence:
#
# PCOD9129900 Si02
#       6
#     4   2   4   4   4   4
#     4  12  27  46  75 108 146 190 248 306 366 436
#     4  12  30  46  72 108 150 192 246 308 362 436
#     4  11  28  46  75 108 144 198 243 306 365 446
#     4  11  23  47  76 108 136 196 251 300 363 440
#     4  11  27  48  77 107 149 194 248 304 373 429
#     4  11  28  48  74 106 151 193 248 307 365 441
#
# _framework density 23.998267999999999
#
# number of rings (size 3 to 8) (size 9 to 14) (size 15 to 20)
#    0.000    0.727    3.636    1.091    7.636    4.364 
#    0.000    0.000    0.000    0.000    0.000    0.000 
#    0.000    0.000    0.000    0.000    0.000    0.000 
#
# Total GULP energy -61523.231665 kJ/mol
# GULP energy per Si atom -5593.021060 kJ/mol
# Density = 2.394365 g / cm^3
# Si number density = 23.998268 Si / 1000 Ang^3
#
#
#
# Elastic Constant Matrix: (Units=GPa)
#
#
# Indices 1 2 3 4 5 6 
#
# 1 65.0633 26.7432 25.1249 -0.0008 -2.2820 0.0001
# 2 26.7432 101.5044 21.9918 -0.0008 13.0159 0.0004
# 3 25.1249 21.9918 191.4974 -0.0027 -9.4052 0.0012
# 4 -0.0008 -0.0008 -0.0027 31.5291 0.0010 13.8449
# 5 -2.2820 13.0159 -9.4052 0.0010 47.4083 0.0000
# 6 0.0001 0.0004 0.0012 13.8449 0.0000 50.2229
#
#
#
# Elastic Compliance Matrix: (Units=1/GPa)
#
#
# Indices 1 2 3 4 5 6 
#
# 1 0.017993 -0.004591 -0.001746 0.000000 0.001780 0.000000
# 2 -0.004591 0.011726 -0.000922 0.000000 -0.003623 0.000000
# 3 -0.001746 -0.000922 0.005620 0.000000 0.001284 0.000000
# 4 0.000000 0.000000 0.000000 0.036085 -0.000001 -0.009948
# 5 0.001780 -0.003623 0.001284 -0.000001 0.022429 0.000000
# 6 0.000000 0.000000 0.000000 -0.009948 0.000000 0.022653
#
#
# Mechanical properties :
#
#
# Convention : Reuss Voigt Hill
#
# Bulk Modulus (GPa) = 48.02827 56.19830 52.11329
# Shear Modulus (GPa) = 36.24129 44.77907 40.51018
#
# Velocity S-wave (km/s) = 3.89030 4.32433 4.11304
# Velocity P-wave (km/s) = 6.34318 6.95712 6.65723
#
# Compressibility (1/GPa) = 0.02082107
#
# Stress axis : x y z
#
# Youngs Moduli (GPa) = 55.57636 85.28289 177.93336
#
# Poissons Ratio (x) = 0.39150 0.31070
# Poissons Ratio (y) = 0.25513 0.16410
# Poissons Ratio (z) = 0.09704 0.07865
#
# Static dielectric constant tensor:
#      x y z
#    x 1.913620 0.000000 -0.028540 
#    y 0.000000 1.938820 0.000000 
#    z -0.028540 0.000000 1.917710 
# 
# From -- ./inp_files/61369.got.cif
#   From: 2010.05.17/outbox.cif.g08.bks.cpg/sg5_31_cif.got.tgz:61369.got - 2010.06.03 18:56:24.
