data_PCOD9129439
_publ_section_title
;
Structure prediction by ZEFSAII (Michael W. Deem and Ramdas Pophale) SiO2 
 PCOD9129439
Probable space group: C 2
;
_chemical_formula_sum "Si O2"
_cell_formula_units_Z 32
_cell_length_a 27.423610
_cell_length_b 8.264120
_cell_length_c 14.785047
_cell_angle_alpha 90.000000
_cell_angle_beta 151.135229
_cell_angle_gamma 90.000000
_cell_volume 1617.561623
_symmetry_space_group_name_H-M "C 2"
_symmetry_group_IT_number 5
_symmetry_cell_setting 'monoclinic'
loop_
_space_group_symop_operation_xyz
x,y,z
-x,y,-z
1/2+x,1/2+y,z
1/2-x,1/2+y,-z
loop_
_atom_site_type_symbol
_atom_site_label
_atom_site_fract_x
_atom_site_fract_y
_atom_site_fract_z
Si Si1 0.912655 0.136760 0.285772
Si Si2 0.734719 0.706527 0.808430
Si Si3 0.486608 0.747208 0.134085
Si Si4 0.953325 0.380430 0.580648
Si Si5 0.282775 0.919736 0.754263
Si Si6 0.892471 0.691704 0.579340
Si Si7 0.427879 0.435383 0.125144
Si Si8 0.096551 0.503744 0.213562
O O1 0.804381 0.144382 0.157892
O O2 0.000000 0.082591 0.500000
O O3 0.949455 0.316296 0.315252
O O4 0.913011 0.027108 0.196875
O O5 0.645670 0.825918 0.632855
O O6 0.736929 0.553257 0.745562
O O7 0.838508 0.804951 0.971127
O O8 0.541862 0.779224 0.318515
O O9 0.439762 0.569046 0.064950
O O10 0.564557 0.818260 0.187296
O O11 0.390567 0.866063 0.970032
O O12 0.942509 0.564835 0.591340
O O13 0.212724 0.763988 0.626188
O O14 0.308706 0.997502 0.699039
O O15 0.885929 0.601982 0.665862
O O16 0.967198 0.841738 0.706525
O O17 0.000000 0.570463 0.000000
#
# Coordination Sequence:
#
# PCOD9129439 Si02
#       8
#     4   4   4   4   4   4   4   4
#     4   9  20  39  58  81 116 153 189 238 286 333
#     4  11  22  38  60  86 117 152 190 235 285 339
#     4   9  19  38  59  82 114 147 186 235 284 334
#     4   9  19  38  59  82 114 147 186 235 284 334
#     4  11  22  38  60  86 117 152 190 235 285 339
#     4  11  22  37  60  87 115 152 192 234 283 340
#     4  11  22  37  60  87 115 152 192 234 283 340
#     4   9  20  39  58  81 116 153 189 238 286 333
#
# _framework density 19.782862999999999
#
# number of rings (size 3 to 8) (size 9 to 14) (size 15 to 20)
#    0.000    2.000    0.000    5.250    0.000    6.000 
#    0.000   13.750    0.000    0.000    0.000    0.000 
#    0.000    0.000    0.000    0.000    0.000    0.000 
#
# Total GULP energy -89206.093417 kJ/mol
# GULP energy per Si atom -5575.380839 kJ/mol
# Density = 1.973784 g / cm^3
# Si number density = 19.782863 Si / 1000 Ang^3
#
#
#
# Elastic Constant Matrix: (Units=GPa)
#
#
# Indices 1 2 3 4 5 6 
#
# 1 98.4852 34.8701 -4.8304 0.0000 7.5674 0.0000
# 2 34.8701 81.6853 -2.0264 0.0000 -0.0080 0.0000
# 3 -4.8304 -2.0264 29.4578 0.0000 -1.4526 0.0000
# 4 0.0000 0.0000 0.0000 35.2977 0.0000 -2.5033
# 5 7.5674 -0.0080 -1.4526 0.0000 28.0078 0.0000
# 6 0.0000 0.0000 0.0000 -2.5033 0.0000 32.9147
#
#
#
# Elastic Compliance Matrix: (Units=1/GPa)
#
#
# Indices 1 2 3 4 5 6 
#
# 1 0.012328 -0.005226 0.001502 0.000000 -0.003254 0.000000
# 2 -0.005226 0.014478 0.000209 0.000000 0.001427 0.000000
# 3 0.001502 0.000209 0.034275 0.000000 0.001372 0.000000
# 4 0.000000 0.000000 0.000000 0.028484 0.000000 0.002166
# 5 -0.003254 0.001427 0.001372 0.000000 0.036655 0.000000
# 6 0.000000 0.000000 0.000000 0.002166 0.000000 0.030546
#
#
# Mechanical properties :
#
#
# Convention : Reuss Voigt Hill
#
# Bulk Modulus (GPa) = 18.50077 29.51721 24.00899
# Shear Modulus (GPa) = 27.50076 31.35170 29.42623
#
# Velocity S-wave (km/s) = 3.73249 3.98526 3.86094
# Velocity P-wave (km/s) = 5.28654 6.01077 5.66025
#
# Compressibility (1/GPa) = 0.05405181
#
# Stress axis : x y z
#
# Youngs Moduli (GPa) = 81.11812 69.06966 29.17563
#
# Poissons Ratio (x) = 0.36093 -0.04381
# Poissons Ratio (y) = 0.42389 -0.00611
# Poissons Ratio (z) = -0.12180 -0.01447
#
# Static dielectric constant tensor:
#      x y z
#    x 1.739780 0.000000 -0.016130 
#    y 0.000000 1.695230 0.000000 
#    z -0.016130 0.000000 1.682000 
# 
# From -- ./inp_files/54205.got.cif
#   From: 2010.05.17/outbox.cif.g08.bks.cpg/sg5_28_cif.got.tgz:54205.got - 2010.06.03 18:56:24.
