data_PCOD9129869
_publ_section_title
;
Structure prediction by ZEFSAII (Michael W. Deem and Ramdas Pophale) SiO2 
 PCOD9129869
Probable space group: C 2
;
_chemical_formula_sum "Si O2"
_cell_formula_units_Z 22
_cell_length_a 12.909095
_cell_length_b 5.714375
_cell_length_c 21.791368
_cell_angle_alpha 90.000000
_cell_angle_beta 32.637155
_cell_angle_gamma 90.000000
_cell_volume 866.948152
_symmetry_space_group_name_H-M "C 2"
_symmetry_group_IT_number 5
_symmetry_cell_setting 'monoclinic'
loop_
_space_group_symop_operation_xyz
x,y,z
-x,y,-z
1/2+x,1/2+y,z
1/2-x,1/2+y,-z
loop_
_atom_site_type_symbol
_atom_site_label
_atom_site_fract_x
_atom_site_fract_y
_atom_site_fract_z
Si Si1 0.755545 0.753860 0.276800
Si Si2 0.567073 0.854060 0.100347
Si Si3 0.290126 0.148229 0.779703
Si Si4 0.165272 0.771179 0.520987
Si Si5 0.500000 0.499373 0.500000
Si Si6 0.897554 0.970900 0.840798
O O1 0.919279 0.565722 0.180731
O O2 0.588156 0.658177 0.402861
O O3 0.878192 0.927795 0.258531
O O4 0.684605 0.872502 0.249083
O O5 0.432819 0.684874 0.125993
O O6 0.617223 0.751628 0.142626
O O7 0.757477 0.903297 0.967396
O O8 0.445203 0.251939 0.654219
O O9 0.334063 0.301733 0.817742
O O10 0.249617 0.510479 0.490690
O O11 0.159392 0.838421 0.452416
#
# Coordination Sequence:
#
# PCOD9129869 Si02
#       6
#     4   4   4   4   2   4
#     4  11  25  47  74 113 152 210 261 324 400 475
#     4  11  23  46  72 113 150 202 266 316 404 474
#     4  11  26  45  73 110 156 201 271 324 405 471
#     4  12  28  47  76 115 154 212 277 324 405 486
#     4  12  26  50  80 106 168 202 262 342 388 476
#     4  11  24  45  76 109 156 202 259 335 390 479
#
# _framework density 25.376373000000001
#
# number of rings (size 3 to 8) (size 9 to 14) (size 15 to 20)
#    0.000    0.727    3.636    2.727    2.545    4.364 
#    0.000    1.818    0.000    0.000    0.000    0.000 
#    0.000    0.000    0.000    0.000    0.000    0.000 
#
# Total GULP energy -61342.471292 kJ/mol
# GULP energy per Si atom -5576.588299 kJ/mol
# Density = 2.531861 g / cm^3
# Si number density = 25.376373 Si / 1000 Ang^3
#
#
#
# Elastic Constant Matrix: (Units=GPa)
#
#
# Indices 1 2 3 4 5 6 
#
# 1 128.7193 58.0166 18.7878 -0.0002 10.3400 0.0001
# 2 58.0166 138.4381 38.1790 -0.0007 15.5766 0.0016
# 3 18.7878 38.1790 111.5449 -0.0001 -7.8342 0.0001
# 4 -0.0002 -0.0007 -0.0001 49.6861 0.0000 -12.4730
# 5 10.3400 15.5766 -7.8342 0.0000 38.6946 0.0000
# 6 0.0001 0.0016 0.0001 -12.4730 0.0000 55.8936
#
#
#
# Elastic Compliance Matrix: (Units=1/GPa)
#
#
# Indices 1 2 3 4 5 6 
#
# 1 0.009630 -0.003798 -0.000401 0.000000 -0.001125 0.000000
# 2 -0.003798 0.010072 -0.003065 0.000000 -0.003660 0.000000
# 3 -0.000401 -0.003065 0.010322 0.000000 0.003431 0.000000
# 4 0.000000 0.000000 0.000000 0.021321 0.000000 0.004758
# 5 -0.001125 -0.003660 0.003431 0.000000 0.028312 0.000000
# 6 0.000000 0.000000 0.000000 0.004758 0.000000 0.018953
#
#
# Mechanical properties :
#
#
# Convention : Reuss Voigt Hill
#
# Bulk Modulus (GPa) = 64.53140 67.62990 66.08065
# Shear Modulus (GPa) = 42.26393 46.43611 44.35002
#
# Velocity S-wave (km/s) = 4.08546 4.28237 4.18507
# Velocity P-wave (km/s) = 6.90938 7.15263 7.03206
#
# Compressibility (1/GPa) = 0.01549633
#
# Stress axis : x y z
#
# Youngs Moduli (GPa) = 103.84416 99.28164 96.87593
#
# Poissons Ratio (x) = 0.37712 0.03884
# Poissons Ratio (y) = 0.39445 0.29690
# Poissons Ratio (z) = 0.04163 0.30428
#
# Static dielectric constant tensor:
#      x y z
#    x 2.079420 0.000000 0.020640 
#    y 0.000000 2.367840 0.000000 
#    z 0.020640 0.000000 1.926480 
# 
# From -- ./inp_files/68542.got.cif
#   From: 2010.05.17/outbox.cif.g08.bks.cpg/sg5_35_cif.got.tgz:68542.got - 2010.06.03 18:56:24.
