data_PCOD9129516
_publ_section_title
;
Structure prediction by ZEFSAII (Michael W. Deem and Ramdas Pophale) SiO2 
 PCOD9129516
Probable space group: C 2
;
_chemical_formula_sum "Si O2"
_cell_formula_units_Z 22
_cell_length_a 11.927726
_cell_length_b 10.077449
_cell_length_c 11.719042
_cell_angle_alpha 90.000000
_cell_angle_beta 144.550695
_cell_angle_gamma 90.000000
_cell_volume 816.987085
_symmetry_space_group_name_H-M "C 2"
_symmetry_group_IT_number 5
_symmetry_cell_setting 'monoclinic'
loop_
_space_group_symop_operation_xyz
x,y,z
-x,y,-z
1/2+x,1/2+y,z
1/2-x,1/2+y,-z
loop_
_atom_site_type_symbol
_atom_site_label
_atom_site_fract_x
_atom_site_fract_y
_atom_site_fract_z
Si Si1 0.317095 0.890390 0.707695
Si Si2 0.905942 0.531702 0.223678
Si Si3 0.098527 0.823913 0.203913
Si Si4 0.500000 0.825534 0.500000
Si Si5 0.519455 0.607258 0.151434
Si Si6 0.912557 0.817578 0.279067
O O1 0.408025 0.747825 0.745562
O O2 0.103199 0.893625 0.476996
O O3 0.447823 0.001987 0.758760
O O4 0.730909 0.879021 0.195885
O O5 0.925887 0.409817 0.328724
O O6 0.935254 0.662027 0.326237
O O7 0.694650 0.558445 0.993017
O O8 0.935200 0.799389 0.162527
O O9 0.304370 0.750347 0.376557
O O10 0.153291 0.978866 0.276613
O O11 0.000000 0.813038 0.000000
O O12 0.500000 0.623972 0.000000
#
# Coordination Sequence:
#
# PCOD9129516 Si02
#       6
#     4   4   4   2   4   4
#     4  11  25  45  73 109 144 199 247 307 379 444
#     4  12  24  42  75 105 141 198 247 303 379 441
#     4  11  23  43  72 104 140 196 245 304 376 440
#     4  12  20  44  68  98 138 188 250 294 360 450
#     4  11  22  41  69 101 142 190 251 300 362 443
#     4  11  24  45  73 106 153 189 249 311 376 447
#
# _framework density 26.928208999999999
#
# number of rings (size 3 to 8) (size 9 to 14) (size 15 to 20)
#    0.000    0.727    7.273    2.182    2.545    0.000 
#    0.000    6.364    0.000    0.000    0.000    0.000 
#    0.000    0.000    0.000    0.000    0.000    0.000 
#
# Total GULP energy -61456.857023 kJ/mol
# GULP energy per Si atom -5586.987002 kJ/mol
# Density = 2.686692 g / cm^3
# Si number density = 26.928209 Si / 1000 Ang^3
#
#
#
# Elastic Constant Matrix: (Units=GPa)
#
#
# Indices 1 2 3 4 5 6 
#
# 1 236.3805 30.6737 64.2012 0.0001 26.5194 0.0000
# 2 30.6737 26.7378 5.7310 0.0000 21.4235 0.0000
# 3 64.2012 5.7310 104.1372 0.0002 43.6996 0.0002
# 4 0.0001 0.0000 0.0002 23.9270 0.0001 11.4785
# 5 26.5194 21.4235 43.6996 0.0001 61.5532 0.0000
# 6 0.0000 0.0000 0.0002 11.4785 0.0000 40.0043
#
#
#
# Elastic Compliance Matrix: (Units=1/GPa)
#
#
# Indices 1 2 3 4 5 6 
#
# 1 0.006434 -0.009739 -0.005255 0.000000 0.004349 0.000000
# 2 -0.009739 0.070135 0.015136 0.000000 -0.030961 0.000000
# 3 -0.005255 0.015136 0.018901 0.000000 -0.016423 0.000000
# 4 0.000000 0.000000 0.000000 0.048465 0.000000 -0.013906
# 5 0.004349 -0.030961 -0.016423 0.000000 0.036808 0.000000
# 6 0.000000 0.000000 0.000000 -0.013906 0.000000 0.028987
#
#
# Mechanical properties :
#
#
# Convention : Reuss Voigt Hill
#
# Bulk Modulus (GPa) = 10.44334 63.16305 36.80319
# Shear Modulus (GPa) = 20.71564 42.87353 31.79458
#
# Velocity S-wave (km/s) = 2.77662 3.99449 3.43988
# Velocity P-wave (km/s) = 3.76379 6.69191 5.42899
#
# Compressibility (1/GPa) = 0.09575479
#
# Stress axis : x y z
#
# Youngs Moduli (GPa) = 155.43263 14.25821 52.90657
#
# Poissons Ratio (x) = 0.13885 0.27804
# Poissons Ratio (y) = 1.51369 -0.80081
# Poissons Ratio (z) = 0.81684 -0.21582
#
# Static dielectric constant tensor:
#      x y z
#    x 2.240400 0.000000 -0.003110 
#    y 0.000000 2.240670 0.000000 
#    z -0.003110 0.000000 2.137500 
# 
# From -- ./inp_files/62394.got.cif
#   From: 2010.05.17/outbox.cif.g08.bks.cpg/sg5_32_cif.got.tgz:62394.got - 2010.06.03 18:56:24.
