data_PCOD9129790
_publ_section_title
;
Structure prediction by ZEFSAII (Michael W. Deem and Ramdas Pophale) SiO2 
 PCOD9129790
Probable space group: C 2
;
_chemical_formula_sum "Si O2"
_cell_formula_units_Z 28
_cell_length_a 13.250742
_cell_length_b 6.779975
_cell_length_c 18.965212
_cell_angle_alpha 90.000000
_cell_angle_beta 58.077611
_cell_angle_gamma 90.000000
_cell_volume 1446.150596
_symmetry_space_group_name_H-M "C 2"
_symmetry_group_IT_number 5
_symmetry_cell_setting 'monoclinic'
loop_
_space_group_symop_operation_xyz
x,y,z
-x,y,-z
1/2+x,1/2+y,z
1/2-x,1/2+y,-z
loop_
_atom_site_type_symbol
_atom_site_label
_atom_site_fract_x
_atom_site_fract_y
_atom_site_fract_z
Si Si1 0.597731 0.133170 0.518607
Si Si2 0.329628 0.908762 0.891486
Si Si3 0.074452 0.621460 0.761657
Si Si4 0.660882 0.819611 0.612592
Si Si5 0.504543 0.429831 0.671377
Si Si6 0.360737 0.746138 0.037826
Si Si7 0.256721 0.563602 0.814339
O O1 0.500000 0.059796 0.500000
O O2 0.707635 0.230789 0.437374
O O3 0.538826 0.295399 0.592009
O O4 0.645438 0.957793 0.549914
O O5 0.446758 0.037280 0.832274
O O6 0.315208 0.730376 0.841964
O O7 0.214717 0.047159 0.927081
O O8 0.340607 0.826155 0.966335
O O9 0.133260 0.455612 0.689807
O O10 0.053068 0.814350 0.722271
O O11 0.160875 0.652919 0.795711
O O12 0.568441 0.640128 0.642796
O O13 0.364113 0.460279 0.732607
O O14 0.309621 0.905529 0.111795
O O15 0.500000 0.715381 0.000000
#
# Coordination Sequence:
#
# PCOD9129790 Si02
#       7
#     4   4   4   4   4   4   4
#     4  11  24  43  68  97 137 176 219 266 326 381
#     4  12  25  43  67  98 130 168 219 270 324 398
#     4  11  25  43  68  97 132 171 219 271 329 384
#     4  11  23  44  67  99 134 174 222 269 317 393
#     4  11  24  44  68  99 134 171 222 273 318 391
#     4  12  26  43  69  96 129 172 216 267 332 392
#     4  12  25  43  70  96 131 175 217 267 333 387
#
# _framework density 19.361747000000001
#
# number of rings (size 3 to 8) (size 9 to 14) (size 15 to 20)
#    0.000    0.571    7.143    0.857    0.000    5.714 
#    0.000    0.000    0.000    0.000    0.000    0.000 
#    0.000    0.000    0.000    0.000    0.000    0.000 
#
# Total GULP energy -78327.904705 kJ/mol
# GULP energy per Si atom -5594.850336 kJ/mol
# Density = 1.931768 g / cm^3
# Si number density = 19.361747 Si / 1000 Ang^3
#
#
#
# Elastic Constant Matrix: (Units=GPa)
#
#
# Indices 1 2 3 4 5 6 
#
# 1 88.1045 -4.6772 8.5751 0.0000 -21.0040 0.0000
# 2 -4.6772 51.1854 0.4186 0.0000 -14.5420 0.0000
# 3 8.5751 0.4186 60.2615 0.0000 -30.1421 0.0000
# 4 0.0000 0.0000 0.0000 26.1136 0.0000 -11.7467
# 5 -21.0040 -14.5420 -30.1421 0.0000 34.5983 0.0000
# 6 0.0000 0.0000 0.0000 -11.7467 0.0000 22.5981
#
#
#
# Elastic Compliance Matrix: (Units=1/GPa)
#
#
# Indices 1 2 3 4 5 6 
#
# 1 0.015277 0.006391 0.006671 0.000000 0.017772 0.000000
# 2 0.006391 0.027268 0.011652 0.000000 0.025491 0.000000
# 3 0.006671 0.011652 0.035516 0.000000 0.039889 0.000000
# 4 0.000000 0.000000 0.000000 0.049981 0.000000 0.025981
# 5 0.017772 0.025491 0.039889 0.000000 0.085158 0.000000
# 6 0.000000 0.000000 0.000000 0.025981 0.000000 0.057757
#
#
# Mechanical properties :
#
#
# Convention : Reuss Voigt Hill
#
# Bulk Modulus (GPa) = 7.84388 23.13163 15.48775
# Shear Modulus (GPa) = 18.93757 29.67766 24.30761
#
# Velocity S-wave (km/s) = 3.13084 3.91934 3.54707
# Velocity P-wave (km/s) = 4.13879 5.69690 4.97917
#
# Compressibility (1/GPa) = 0.12748798
#
# Stress axis : x y z
#
# Youngs Moduli (GPa) = 65.45778 36.67347 28.15625
#
# Poissons Ratio (x) = -0.23437 -0.18784
# Poissons Ratio (y) = -0.41832 -0.32807
# Poissons Ratio (z) = -0.43669 -0.42731
#
# Static dielectric constant tensor:
#      x y z
#    x 1.635480 0.000000 0.001470 
#    y 0.000000 1.639600 0.000000 
#    z 0.001470 0.000000 1.665660 
# 
# From -- ./inp_files/61261.got.cif
#   From: 2010.05.17/outbox.cif.g08.bks.cpg/sg5_31_cif.got.tgz:61261.got - 2010.06.03 18:56:24.
