data_PCOD9129958
_publ_section_title
;
Structure prediction by ZEFSAII (Michael W. Deem and Ramdas Pophale) SiO2 
 PCOD9129958
Probable space group: C 2
;
_chemical_formula_sum "Si O2"
_cell_formula_units_Z 22
_cell_length_a 13.643408
_cell_length_b 5.278135
_cell_length_c 24.036510
_cell_angle_alpha 90.000000
_cell_angle_beta 145.717818
_cell_angle_gamma 90.000000
_cell_volume 974.968789
_symmetry_space_group_name_H-M "C 2"
_symmetry_group_IT_number 5
_symmetry_cell_setting 'monoclinic'
loop_
_space_group_symop_operation_xyz
x,y,z
-x,y,-z
1/2+x,1/2+y,z
1/2-x,1/2+y,-z
loop_
_atom_site_type_symbol
_atom_site_label
_atom_site_fract_x
_atom_site_fract_y
_atom_site_fract_z
Si Si1 0.857366 0.503520 0.561016
Si Si2 0.000302 0.094071 0.099619
Si Si3 0.724119 0.798816 0.906878
Si Si4 0.000000 0.486771 0.000000
Si Si5 0.270618 0.058738 0.313380
Si Si6 0.898989 0.560758 0.711696
O O1 0.780723 0.221706 0.519187
O O2 0.900722 0.547918 0.646162
O O3 0.023754 0.535886 0.598846
O O4 0.891061 0.148670 0.103669
O O5 0.983196 0.315235 0.046916
O O6 0.189875 0.052078 0.212995
O O7 0.898730 0.872957 0.021510
O O8 0.597902 0.019719 0.826543
O O9 0.814885 0.628262 0.903551
O O10 0.209820 0.320616 0.314282
O O11 0.187315 0.819689 0.306801
#
# Coordination Sequence:
#
# PCOD9129958 Si02
#       6
#     4   4   4   2   4   4
#     4  12  28  49  77 110 143 180 245 308 368 432
#     4  11  24  43  67 101 147 190 241 286 347 429
#     4  11  24  43  67 101 147 190 241 286 347 429
#     4  12  26  38  68 100 144 208 232 292 350 398
#     4  11  27  47  75 106 145 191 239 294 359 430
#     4  11  27  47  75 106 145 191 239 294 359 430
#
# _framework density 22.564824999999999
#
# number of rings (size 3 to 8) (size 9 to 14) (size 15 to 20)
#    0.000    0.727    1.818    3.818   10.182    5.818 
#    0.000    0.000    0.000    0.000    0.000    0.000 
#    0.000    0.000    0.000    0.000    0.000    0.000 
#
# Total GULP energy -61489.213481 kJ/mol
# GULP energy per Si atom -5589.928498 kJ/mol
# Density = 2.251347 g / cm^3
# Si number density = 22.564825 Si / 1000 Ang^3
#
#
#
# Elastic Constant Matrix: (Units=GPa)
#
#
# Indices 1 2 3 4 5 6 
#
# 1 96.7993 13.9237 22.0653 0.0000 14.8490 0.0007
# 2 13.9237 77.5926 -9.0993 -0.0002 5.4950 0.0021
# 3 22.0653 -9.0993 26.8220 -0.0001 2.2248 0.0002
# 4 0.0000 -0.0002 -0.0001 34.5965 -0.0002 1.6716
# 5 14.8490 5.4950 2.2248 -0.0002 40.8172 -0.0001
# 6 0.0007 0.0021 0.0002 1.6716 -0.0001 23.2814
#
#
#
# Elastic Compliance Matrix: (Units=1/GPa)
#
#
# Indices 1 2 3 4 5 6 
#
# 1 0.014419 -0.003805 -0.012818 0.000000 -0.004035 0.000000
# 2 -0.003805 0.014601 0.008169 0.000000 -0.001027 -0.000001
# 3 -0.012818 0.008169 0.050532 0.000000 0.000809 -0.000001
# 4 0.000000 0.000000 0.000000 0.029005 0.000000 -0.002083
# 5 -0.004035 -0.001027 0.000809 0.000000 0.026061 0.000000
# 6 0.000000 -0.000001 -0.000001 -0.002083 0.000000 0.043102
#
#
# Mechanical properties :
#
#
# Convention : Reuss Voigt Hill
#
# Bulk Modulus (GPa) = 15.96328 28.33258 22.14793
# Shear Modulus (GPa) = 23.20087 31.36065 27.28076
#
# Velocity S-wave (km/s) = 3.21002 3.73205 3.48083
# Velocity P-wave (km/s) = 4.56385 5.58160 5.09818
#
# Compressibility (1/GPa) = 0.06264376
#
# Stress axis : x y z
#
# Youngs Moduli (GPa) = 69.35480 68.48734 19.78961
#
# Poissons Ratio (x) = 0.26058 0.25366
# Poissons Ratio (y) = 0.26388 -0.16165
# Poissons Ratio (z) = 0.88897 -0.55945
#
# Static dielectric constant tensor:
#      x y z
#    x 1.785000 0.000000 -0.028510 
#    y 0.000000 1.917460 0.000000 
#    z -0.028510 0.000000 1.860200 
# 
# From -- ./inp_files/57911.got.cif
#   From: 2010.05.17/outbox.cif.g08.bks.cpg/sg5_29_cif.got.tgz:57911.got - 2010.06.03 18:56:24.
