data_PCOD9129487
_publ_section_title
;
Structure prediction by ZEFSAII (Michael W. Deem and Ramdas Pophale) SiO2 
 PCOD9129487
Probable space group: C 2
;
_chemical_formula_sum "Si O2"
_cell_formula_units_Z 24
_cell_length_a 11.628718
_cell_length_b 21.765855
_cell_length_c 10.827589
_cell_angle_alpha 90.000000
_cell_angle_beta 25.572649
_cell_angle_gamma 90.000000
_cell_volume 1182.977014
_symmetry_space_group_name_H-M "C 2"
_symmetry_group_IT_number 5
_symmetry_cell_setting 'monoclinic'
loop_
_space_group_symop_operation_xyz
x,y,z
-x,y,-z
1/2+x,1/2+y,z
1/2-x,1/2+y,-z
loop_
_atom_site_type_symbol
_atom_site_label
_atom_site_fract_x
_atom_site_fract_y
_atom_site_fract_z
Si Si1 0.436324 0.163600 0.337621
Si Si2 0.500000 0.838307 0.000000
Si Si3 0.000000 0.753764 0.500000
Si Si4 0.628254 0.450381 0.011042
Si Si5 0.267585 0.264989 0.316330
Si Si6 0.957601 0.093512 0.895000
Si Si7 0.652046 0.883928 0.588981
O O1 0.401651 0.210512 0.485263
O O2 0.371341 0.203297 0.280760
O O3 0.232077 0.108149 0.559751
O O4 0.734140 0.138285 0.057095
O O5 0.572353 0.876488 0.808389
O O6 0.755449 0.795683 0.780899
O O7 0.637333 0.523404 0.022830
O O8 0.424414 0.420616 0.305359
O O9 0.500000 0.440448 0.000000
O O10 0.914009 0.418599 0.748138
O O11 0.200032 0.316999 0.482621
O O12 0.000000 0.253150 0.500000
O O13 0.500000 0.288107 0.000000
O O14 0.000000 0.105956 0.000000
#
# Coordination Sequence:
#
# PCOD9129487 Si02
#       7
#     4   2   2   4   4   4   4
#     4  12  23  40  68  95 130 164 208 268 322 378
#     4  12  26  40  66  98 126 170 208 258 322 380
#     4  12  22  40  64 102 128 160 200 266 330 376
#     4  11  24  42  67  96 127 167 213 265 316 371
#     4  12  26  42  65  97 132 172 208 257 324 391
#     4  11  22  40  67  98 126 164 216 269 317 363
#     4  12  24  43  66  93 131 165 213 262 316 382
#
# _framework density 20.287797999999999
#
# number of rings (size 3 to 8) (size 9 to 14) (size 15 to 20)
#    0.000    0.333    3.333    7.000    2.333    2.667 
#    0.000    0.000   18.333    0.000    0.000    0.000 
#    0.000    0.000    0.000    0.000    0.000    0.000 
#
# Total GULP energy -67194.789230 kJ/mol
# GULP energy per Si atom -5599.565769 kJ/mol
# Density = 2.024162 g / cm^3
# Si number density = 20.287798 Si / 1000 Ang^3
#
#
#
# Elastic Constant Matrix: (Units=GPa)
#
#
# Indices 1 2 3 4 5 6 
#
# 1 80.4056 30.7911 13.7299 -0.0012 5.4663 -0.0041
# 2 30.7911 73.2134 7.6173 -0.0109 -9.1824 -0.0025
# 3 13.7299 7.6173 91.0409 -0.0141 -8.7761 -0.0064
# 4 -0.0012 -0.0109 -0.0141 25.8933 -0.0055 -10.9627
# 5 5.4663 -9.1824 -8.7761 -0.0055 37.8185 0.0037
# 6 -0.0041 -0.0025 -0.0064 -10.9627 0.0037 16.3804
#
#
#
# Elastic Compliance Matrix: (Units=1/GPa)
#
#
# Indices 1 2 3 4 5 6 
#
# 1 0.015794 -0.006974 -0.002232 -0.000004 -0.004494 0.000000
# 2 -0.006974 0.017235 0.000113 0.000011 0.005219 0.000007
# 3 -0.002232 0.000113 0.011605 0.000012 0.003043 0.000011
# 4 -0.000004 0.000011 0.000012 0.053890 0.000010 0.036066
# 5 -0.004494 0.005219 0.003043 0.000010 0.029065 0.000001
# 6 0.000000 0.000007 0.000011 0.036066 0.000001 0.085186
#
#
# Mechanical properties :
#
#
# Convention : Reuss Voigt Hill
#
# Bulk Modulus (GPa) = 37.81049 38.77071 38.29060
# Shear Modulus (GPa) = 20.85281 28.85321 24.85301
#
# Velocity S-wave (km/s) = 3.20949 3.77529 3.50383
# Velocity P-wave (km/s) = 5.69315 6.17702 5.94001
#
# Compressibility (1/GPa) = 0.02644769
#
# Stress axis : x y z
#
# Youngs Moduli (GPa) = 63.31438 58.02304 86.17335
#
# Poissons Ratio (x) = 0.40465 0.19231
# Poissons Ratio (y) = 0.44155 -0.00972
# Poissons Ratio (z) = 0.14129 -0.00655
#
# Static dielectric constant tensor:
#      x y z
#    x 1.709540 0.000000 0.003040 
#    y 0.000000 1.700290 0.000000 
#    z 0.003040 0.000000 1.699170 
# 
# From -- ./inp_files/40768.got.cif
#   From: 2010.05.17/outbox.cif.g08.bks.cpg/sg5_21_cif.got.tgz:40768.got - 2010.06.03 18:56:24.
