data_PCOD9129936
_publ_section_title
;
Structure prediction by ZEFSAII (Michael W. Deem and Ramdas Pophale) SiO2 
 PCOD9129936
Probable space group: C 2
;
_chemical_formula_sum "Si O2"
_cell_formula_units_Z 24
_cell_length_a 25.627304
_cell_length_b 6.877579
_cell_length_c 24.847248
_cell_angle_alpha 90.000000
_cell_angle_beta 15.632963
_cell_angle_gamma 90.000000
_cell_volume 1180.139928
_symmetry_space_group_name_H-M "C 2"
_symmetry_group_IT_number 5
_symmetry_cell_setting 'monoclinic'
loop_
_space_group_symop_operation_xyz
x,y,z
-x,y,-z
1/2+x,1/2+y,z
1/2-x,1/2+y,-z
loop_
_atom_site_type_symbol
_atom_site_label
_atom_site_fract_x
_atom_site_fract_y
_atom_site_fract_z
Si Si1 0.298083 0.093790 0.639324
Si Si2 0.130569 0.256974 0.301362
Si Si3 0.294568 0.883949 0.892079
Si Si4 0.610653 0.212703 0.569604
Si Si5 0.500000 0.412571 0.500000
Si Si6 0.466821 0.565112 0.284069
Si Si7 0.500000 0.379424 0.000000
O O1 0.303960 0.185210 0.574500
O O2 0.334166 0.262759 0.647068
O O3 0.095915 0.999119 0.856109
O O4 0.470152 0.929237 0.469432
O O5 0.199684 0.278834 0.171414
O O6 0.316262 0.274670 0.155999
O O7 0.039800 0.052742 0.409913
O O8 0.404526 0.747150 0.825460
O O9 0.418902 0.081065 0.762905
O O10 0.085441 0.938142 0.122827
O O11 0.567614 0.431455 0.629712
O O12 0.766374 0.132405 0.457544
#
# Coordination Sequence:
#
# PCOD9129936 Si02
#       7
#     4   4   4   4   2   4   2
#     4  11  24  43  64  94 131 168 209 271 322 367
#     4  11  24  43  64  94 131 168 209 271 322 367
#     4  11  24  41  66  94 131 166 213 267 318 375
#     4  11  24  41  66  94 131 166 213 267 318 375
#     4  12  20  46  64  92 126 168 212 254 328 372
#     4  12  22  44  64  98 124 172 214 256 324 378
#     4  12  20  46  64  92 126 168 212 254 328 372
#
# _framework density 20.336572
#
# number of rings (size 3 to 8) (size 9 to 14) (size 15 to 20)
#    0.000    0.667    6.667    2.000    0.000    0.667 
#    0.000    3.333    0.000    0.000    0.000    0.000 
#    0.000    0.000    0.000    0.000    0.000    0.000 
#
# Total GULP energy -67023.505308 kJ/mol
# GULP energy per Si atom -5585.292109 kJ/mol
# Density = 2.029028 g / cm^3
# Si number density = 20.336572 Si / 1000 Ang^3
#
#
#
# Elastic Constant Matrix: (Units=GPa)
#
#
# Indices 1 2 3 4 5 6 
#
# 1 48.3074 -13.9503 -10.0946 -0.0017 11.0104 -0.0006
# 2 -13.9503 49.7153 -4.9317 -0.0103 -6.7333 0.0033
# 3 -10.0946 -4.9317 63.3887 -0.0132 5.3031 0.0017
# 4 -0.0017 -0.0103 -0.0132 16.9529 0.0027 3.5089
# 5 11.0104 -6.7333 5.3031 0.0027 34.0900 0.0004
# 6 -0.0006 0.0033 0.0017 3.5089 0.0004 35.2019
#
#
#
# Elastic Compliance Matrix: (Units=1/GPa)
#
#
# Indices 1 2 3 4 5 6 
#
# 1 0.025463 0.006616 0.005216 0.000012 -0.007729 -0.000002
# 2 0.006616 0.022490 0.002645 0.000017 0.001894 -0.000004
# 3 0.005216 0.002645 0.017132 0.000017 -0.003827 -0.000003
# 4 0.000012 0.000017 0.000017 0.060230 -0.000008 -0.006004
# 5 -0.007729 0.001894 -0.003827 -0.000008 0.032800 0.000000
# 6 -0.000002 -0.000004 -0.000003 -0.006004 0.000000 0.029006
#
#
# Mechanical properties :
#
#
# Convention : Reuss Voigt Hill
#
# Bulk Modulus (GPa) = 10.63395 11.49535 11.06465
# Shear Modulus (GPa) = 26.38339 29.94147 28.16243
#
# Velocity S-wave (km/s) = 3.60576 3.84121 3.72535
# Velocity P-wave (km/s) = 4.75139 5.03369 4.89458
#
# Compressibility (1/GPa) = 0.09403846
#
# Stress axis : x y z
#
# Youngs Moduli (GPa) = 39.27289 44.46461 58.36914
#
# Poissons Ratio (x) = -0.29416 -0.30447
# Poissons Ratio (y) = -0.25982 -0.15438
# Poissons Ratio (z) = -0.20486 -0.11760
#
# Static dielectric constant tensor:
#      x y z
#    x 1.728870 0.000000 0.017290 
#    y 0.000000 1.705710 0.000000 
#    z 0.017290 0.000000 1.679360 
# 
# From -- ./inp_files/69562.got.cif
#   From: 2010.05.17/outbox.cif.g08.bks.cpg/sg5_35_cif.got.tgz:69562.got - 2010.06.03 18:56:24.
