data_PCOD9129575
_publ_section_title
;
Structure prediction by ZEFSAII (Michael W. Deem and Ramdas Pophale) SiO2 
 PCOD9129575
Probable space group: C 2
;
_chemical_formula_sum "Si O2"
_cell_formula_units_Z 32
_cell_length_a 17.085542
_cell_length_b 10.200857
_cell_length_c 25.839742
_cell_angle_alpha 90.000000
_cell_angle_beta 18.973323
_cell_angle_gamma 90.000000
_cell_volume 1464.224977
_symmetry_space_group_name_H-M "C 2"
_symmetry_group_IT_number 5
_symmetry_cell_setting 'monoclinic'
loop_
_space_group_symop_operation_xyz
x,y,z
-x,y,-z
1/2+x,1/2+y,z
1/2-x,1/2+y,-z
loop_
_atom_site_type_symbol
_atom_site_label
_atom_site_fract_x
_atom_site_fract_y
_atom_site_fract_z
Si Si1 0.214546 0.796590 0.723040
Si Si2 0.516331 0.659095 0.064746
Si Si3 0.548963 0.235212 0.711714
Si Si4 0.545462 0.309543 0.336642
Si Si5 0.632925 0.355030 0.969955
Si Si6 0.240205 0.087181 0.674645
Si Si7 0.973033 0.091081 0.409070
Si Si8 0.921387 0.183010 0.326932
O O1 0.162085 0.762671 0.696655
O O2 0.397739 0.696980 0.635356
O O3 0.295914 0.948124 0.667638
O O4 0.986396 0.794028 0.904028
O O5 0.290434 0.726842 0.177571
O O6 0.426186 0.660954 0.180343
O O7 0.577384 0.509833 0.010174
O O8 0.767509 0.729455 0.899769
O O9 0.568884 0.330315 0.649260
O O10 0.690284 0.106773 0.600972
O O11 0.574682 0.445146 0.348736
O O12 0.347711 0.228190 0.491374
O O13 0.905608 0.304543 0.795861
O O14 0.500000 0.312470 0.000000
O O15 0.500000 0.148144 0.500000
O O16 0.097624 0.084124 0.709558
O O17 0.013058 0.128511 0.324219
#
# Coordination Sequence:
#
# PCOD9129575 Si02
#       8
#     4   4   4   4   4   4   4   4
#     4  11  24  44  68 101 139 190 228 295 362 415
#     4  11  24  44  68 101 139 190 228 295 362 415
#     4  11  23  44  66 102 139 183 238 284 354 419
#     4  11  24  44  70 102 142 188 240 292 355 433
#     4  11  22  43  72  99 138 179 242 290 350 434
#     4  11  22  43  72  99 138 179 242 290 350 434
#     4  11  24  44  70 102 142 188 240 292 355 433
#     4  11  23  44  70 106 135 191 238 292 358 423
#
# _framework density 21.854565000000001
#
# number of rings (size 3 to 8) (size 9 to 14) (size 15 to 20)
#    0.000    1.000    2.500    4.500    0.000    2.000 
#   18.000    0.000    0.000    0.000    0.000    0.000 
#    0.000    0.000    0.000    0.000    0.000    0.000 
#
# Total GULP energy -89257.118328 kJ/mol
# GULP energy per Si atom -5578.569895 kJ/mol
# Density = 2.180482 g / cm^3
# Si number density = 21.854565 Si / 1000 Ang^3
#
#
#
# Elastic Constant Matrix: (Units=GPa)
#
#
# Indices 1 2 3 4 5 6 
#
# 1 134.0667 10.5943 -9.4184 -0.0157 18.0363 0.0117
# 2 10.5943 61.0709 -0.6741 -0.0351 -6.8656 0.0026
# 3 -9.4184 -0.6741 81.9699 -0.1232 9.4956 0.0339
# 4 -0.0157 -0.0351 -0.1232 18.2364 0.0065 -5.6120
# 5 18.0363 -6.8656 9.4956 0.0065 39.8436 -0.0143
# 6 0.0117 0.0026 0.0339 -5.6120 -0.0143 24.9610
#
#
#
# Elastic Compliance Matrix: (Units=1/GPa)
#
#
# Indices 1 2 3 4 5 6 
#
# 1 0.008311 -0.001925 0.001453 0.000013 -0.004440 -0.000005
# 2 -0.001925 0.017147 -0.000538 0.000029 0.003954 0.000009
# 3 0.001453 -0.000538 0.012803 0.000088 -0.003802 0.000000
# 4 0.000013 0.000029 0.000088 0.058912 -0.000027 0.013245
# 5 -0.004440 0.003954 -0.003802 -0.000027 0.028695 0.000017
# 6 -0.000005 0.000009 0.000000 0.013245 0.000017 0.043040
#
#
# Mechanical properties :
#
#
# Convention : Reuss Voigt Hill
#
# Bulk Modulus (GPa) = 27.59297 30.90123 29.24710
# Shear Modulus (GPa) = 27.32129 35.04858 31.18493
#
# Velocity S-wave (km/s) = 3.53957 4.00899 3.78157
# Velocity P-wave (km/s) = 5.41829 5.96653 5.69901
#
# Compressibility (1/GPa) = 0.03624112
#
# Stress axis : x y z
#
# Youngs Moduli (GPa) = 120.32955 58.31958 78.10837
#
# Poissons Ratio (x) = 0.11225 -0.11352
# Poissons Ratio (y) = 0.23161 0.04204
# Poissons Ratio (z) = -0.17489 0.03139
#
# Static dielectric constant tensor:
#      x y z
#    x 1.838630 0.000000 -0.023230 
#    y 0.000000 1.837410 0.000050 
#    z -0.023230 0.000050 1.794370 
# 
# From -- ./inp_files/70950.got.cif
#   From: 2010.05.17/outbox.cif.g08.bks.cpg/sg5_36_cif.got.tgz:70950.got - 2010.06.03 18:56:24.
