data_PCOD9129768
_publ_section_title
;
Structure prediction by ZEFSAII (Michael W. Deem and Ramdas Pophale) SiO2 
 PCOD9129768
Probable space group: C 2
;
_chemical_formula_sum "Si O2"
_cell_formula_units_Z 24
_cell_length_a 11.472581
_cell_length_b 8.957151
_cell_length_c 9.956124
_cell_angle_alpha 90.000000
_cell_angle_beta 91.309069
_cell_angle_gamma 90.000000
_cell_volume 1022.840609
_symmetry_space_group_name_H-M "C 2"
_symmetry_group_IT_number 5
_symmetry_cell_setting 'monoclinic'
loop_
_space_group_symop_operation_xyz
x,y,z
-x,y,-z
1/2+x,1/2+y,z
1/2-x,1/2+y,-z
loop_
_atom_site_type_symbol
_atom_site_label
_atom_site_fract_x
_atom_site_fract_y
_atom_site_fract_z
Si Si1 0.877313 0.594250 0.544122
Si Si2 0.497712 0.376609 0.151630
Si Si3 0.767427 0.988569 0.868265
Si Si4 0.159272 0.320375 0.119984
Si Si5 0.021772 0.548351 0.800218
Si Si6 0.817966 0.887740 0.373680
O O1 0.920822 0.605456 0.698046
O O2 0.865026 0.749722 0.463641
O O3 0.753835 0.508962 0.541897
O O4 0.000000 0.514968 0.500000
O O5 0.631598 0.393660 0.196469
O O6 0.419037 0.440512 0.271584
O O7 0.453669 0.206715 0.127404
O O8 0.500000 0.441779 0.000000
O O9 0.654058 0.003058 0.769434
O O10 0.824893 0.146837 0.907905
O O11 0.723842 0.911901 0.004529
O O12 0.035852 0.402960 0.135182
O O13 0.220797 0.332041 0.266366
#
# Coordination Sequence:
#
# PCOD9129768 Si02
#       6
#     4   4   4   4   4   4
#     4  11  24  50  75  99 146 191 254 304 350 434
#     4  12  23  46  74 106 153 189 237 309 374 438
#     4  12  23  43  70 105 153 187 232 304 372 445
#     4  11  23  43  70 105 147 190 241 295 368 441
#     4  11  24  44  69 105 143 195 242 295 365 434
#     4  11  25  50  73 106 141 198 250 299 365 428
#
# _framework density 23.464064
#
# number of rings (size 3 to 8) (size 9 to 14) (size 15 to 20)
#    0.000    0.667    5.000    2.500    0.000    4.000 
#   12.000    0.000    0.000    0.000    0.000    0.000 
#    0.000    0.000    0.000    0.000    0.000    0.000 
#
# Total GULP energy -66821.915365 kJ/mol
# GULP energy per Si atom -5568.492947 kJ/mol
# Density = 2.341066 g / cm^3
# Si number density = 23.464064 Si / 1000 Ang^3
#
#
#
# Elastic Constant Matrix: (Units=GPa)
#
#
# Indices 1 2 3 4 5 6 
#
# 1 198.4497 63.1794 38.6886 0.0000 -26.2342 0.0000
# 2 63.1794 97.0184 30.2092 0.0000 -17.3833 0.0000
# 3 38.6886 30.2092 84.7563 0.0000 -4.3907 0.0000
# 4 0.0000 0.0000 0.0000 11.7228 0.0000 -10.5643
# 5 -26.2342 -17.3833 -4.3907 0.0000 54.5600 0.0000
# 6 0.0000 0.0000 0.0000 -10.5643 0.0000 25.4993
#
#
#
# Elastic Compliance Matrix: (Units=1/GPa)
#
#
# Indices 1 2 3 4 5 6 
#
# 1 0.006755 -0.003503 -0.001732 0.000000 0.001993 0.000000
# 2 -0.003503 0.014064 -0.003283 0.000000 0.002533 0.000000
# 3 -0.001732 -0.003283 0.013719 0.000000 -0.000775 0.000000
# 4 0.000000 0.000000 0.000000 0.136127 0.000000 0.056397
# 5 0.001993 0.002533 -0.000775 0.000000 0.020031 0.000000
# 6 0.000000 0.000000 0.000000 0.056397 0.000000 0.062582
#
#
# Mechanical properties :
#
#
# Convention : Reuss Voigt Hill
#
# Bulk Modulus (GPa) = 57.13046 71.59764 64.36405
# Shear Modulus (GPa) = 18.10621 34.89957 26.50289
#
# Velocity S-wave (km/s) = 2.78089 3.86082 3.36446
# Velocity P-wave (km/s) = 5.89169 7.10314 6.52559
#
# Compressibility (1/GPa) = 0.01750380
#
# Stress axis : x y z
#
# Youngs Moduli (GPa) = 148.03189 71.10178 72.89161
#
# Poissons Ratio (x) = 0.24906 0.12624
# Poissons Ratio (y) = 0.51853 0.23928
# Poissons Ratio (z) = 0.25637 0.23341
#
# Static dielectric constant tensor:
#      x y z
#    x 1.954690 0.000000 -0.004870 
#    y 0.000000 1.892720 0.000000 
#    z -0.004870 0.000000 2.139430 
# 
# From -- ./inp_files/38361.got.cif
#   From: 2010.05.17/outbox.cif.g08.bks.cpg/sg5_20_cif.got.tgz:38361.got - 2010.06.03 18:56:24.
