data_PCOD9129279
_publ_section_title
;
Structure prediction by ZEFSAII (Michael W. Deem and Ramdas Pophale) SiO2 
 PCOD9129279
Probable space group: C 2
;
_chemical_formula_sum "Si O2"
_cell_formula_units_Z 28
_cell_length_a 21.088668
_cell_length_b 9.396519
_cell_length_c 9.636645
_cell_angle_alpha 90.000000
_cell_angle_beta 46.255536
_cell_angle_gamma 90.000000
_cell_volume 1379.552536
_symmetry_space_group_name_H-M "C 2"
_symmetry_group_IT_number 5
_symmetry_cell_setting 'monoclinic'
loop_
_space_group_symop_operation_xyz
x,y,z
-x,y,-z
1/2+x,1/2+y,z
1/2-x,1/2+y,-z
loop_
_atom_site_type_symbol
_atom_site_label
_atom_site_fract_x
_atom_site_fract_y
_atom_site_fract_z
Si Si1 0.445230 0.755210 0.221425
Si Si2 0.692737 0.063391 0.190008
Si Si3 0.818783 0.121796 0.759686
Si Si4 0.937506 0.351465 0.700500
Si Si5 0.912186 0.834674 0.546732
Si Si6 0.765670 0.345876 0.626199
Si Si7 0.421740 0.414616 0.225613
O O1 0.510579 0.800151 0.245730
O O2 0.350513 0.827966 0.396681
O O3 0.428037 0.584920 0.245023
O O4 0.500000 0.791613 0.000000
O O5 0.634152 0.193613 0.328290
O O6 0.643276 0.957257 0.157947
O O7 0.718323 0.971400 0.285971
O O8 0.773428 0.119011 0.978173
O O9 0.903200 0.220203 0.660041
O O10 0.764051 0.203468 0.724115
O O11 0.847069 0.966921 0.669694
O O12 0.000000 0.435928 0.500000
O O13 0.934140 0.832431 0.351028
O O14 0.000000 0.861428 0.500000
O O15 0.674128 0.375507 0.688925
O O16 0.500000 0.380983 0.000000
#
# Coordination Sequence:
#
# PCOD9129279 Si02
#       7
#     4   4   4   4   4   4   4
#     4  11  24  45  74 102 136 195 230 279 355 430
#     4  11  26  40  72 103 144 175 233 298 347 402
#     4  11  23  42  71 101 134 189 232 284 342 422
#     4  11  20  45  69  96 137 179 235 285 335 411
#     4  12  25  42  70 103 138 185 231 285 351 414
#     4  11  25  47  69 106 144 180 239 296 344 419
#     4  11  27  46  72 103 143 188 234 292 352 423
#
# _framework density 20.296436
#
# number of rings (size 3 to 8) (size 9 to 14) (size 15 to 20)
#    0.000    0.857    4.286    3.429   10.000    1.143 
#    0.000    0.714    0.000    0.000    0.000    0.000 
#    0.000    0.000    0.000    0.000    0.000    0.000 
#
# Total GULP energy -78210.993850 kJ/mol
# GULP energy per Si atom -5586.499561 kJ/mol
# Density = 2.025024 g / cm^3
# Si number density = 20.296436 Si / 1000 Ang^3
#
#
#
# Elastic Constant Matrix: (Units=GPa)
#
#
# Indices 1 2 3 4 5 6 
#
# 1 145.6511 37.2435 35.4909 0.0000 8.3239 0.0000
# 2 37.2435 93.3628 24.3652 0.0000 5.7920 0.0000
# 3 35.4909 24.3652 145.4181 0.0000 13.3940 0.0000
# 4 0.0000 0.0000 0.0000 17.7870 0.0000 10.0544
# 5 8.3239 5.7920 13.3940 0.0000 26.0390 0.0000
# 6 0.0000 0.0000 0.0000 10.0544 0.0000 8.4139
#
#
#
# Elastic Compliance Matrix: (Units=1/GPa)
#
#
# Indices 1 2 3 4 5 6 
#
# 1 0.007973 -0.002746 -0.001372 0.000000 -0.001232 0.000000
# 2 -0.002746 0.012210 -0.001266 0.000000 -0.001187 0.000000
# 3 -0.001372 -0.001266 0.007723 0.000000 -0.003252 0.000000
# 4 0.000000 0.000000 0.000000 0.173245 0.000000 -0.207025
# 5 -0.001232 -0.001187 -0.003252 0.000000 0.040735 0.000000
# 6 0.000000 0.000000 0.000000 -0.207025 0.000000 0.366241
#
#
# Mechanical properties :
#
#
# Convention : Reuss Voigt Hill
#
# Bulk Modulus (GPa) = 58.35190 64.29234 61.32212
# Shear Modulus (GPa) = 8.00500 29.60345 18.80423
#
# Velocity S-wave (km/s) = 1.98812 3.82325 3.04711
# Velocity P-wave (km/s) = 5.83801 7.15787 6.53136
#
# Compressibility (1/GPa) = 0.01713740
#
# Stress axis : x y z
#
# Youngs Moduli (GPa) = 125.42913 81.89755 129.47661
#
# Poissons Ratio (x) = 0.22488 0.17768
# Poissons Ratio (y) = 0.34441 0.16397
# Poissons Ratio (z) = 0.17212 0.10372
#
# Static dielectric constant tensor:
#      x y z
#    x 1.708600 0.000000 0.000790 
#    y 0.000000 1.691720 0.000000 
#    z 0.000790 0.000000 1.715400 
# 
# From -- ./inp_files/29113.got.cif
#   From: 2010.05.17/outbox.cif.g08.bks.cpg/sg5_15_cif.got.tgz:29113.got - 2010.06.03 18:56:24.
