data_PCOD9129017
_publ_section_title
;
Structure prediction by ZEFSAII (Michael W. Deem and Ramdas Pophale) SiO2 
 PCOD9129017
Probable space group: C 2
;
_chemical_formula_sum "Si O2"
_cell_formula_units_Z 30
_cell_length_a 23.243073
_cell_length_b 6.302712
_cell_length_c 26.959325
_cell_angle_alpha 90.000000
_cell_angle_beta 158.817179
_cell_angle_gamma 90.000000
_cell_volume 1427.092392
_symmetry_space_group_name_H-M "C 2"
_symmetry_group_IT_number 5
_symmetry_cell_setting 'monoclinic'
loop_
_space_group_symop_operation_xyz
x,y,z
-x,y,-z
1/2+x,1/2+y,z
1/2-x,1/2+y,-z
loop_
_atom_site_type_symbol
_atom_site_label
_atom_site_fract_x
_atom_site_fract_y
_atom_site_fract_z
Si Si1 0.281771 0.804680 0.571151
Si Si2 0.589647 0.923984 0.432821
Si Si3 0.773647 0.845107 0.876643
Si Si4 0.985262 0.471715 0.900738
Si Si5 0.000000 0.161258 0.000000
Si Si6 0.182722 0.681265 0.320292
Si Si7 0.554150 0.479658 0.818508
Si Si8 0.277761 0.675634 0.964338
O O1 0.308035 0.858284 0.534322
O O2 0.119642 0.677815 0.454173
O O3 0.426660 0.645241 0.698116
O O4 0.305204 0.998131 0.628055
O O5 0.669469 0.831368 0.546748
O O6 0.411852 0.832404 0.286884
O O7 0.864965 0.007405 0.913488
O O8 0.766734 0.968164 0.923006
O O9 0.882832 0.637067 0.971803
O O10 0.073060 0.316439 0.932372
O O11 0.934856 0.316887 0.904734
O O12 0.847521 0.589025 0.758762
O O13 0.031554 0.829931 0.210407
O O14 0.624738 0.322792 0.834691
O O15 0.698090 0.604279 0.959957
#
# Coordination Sequence:
#
# PCOD9129017 Si02
#       8
#     4   4   4   4   2   4   4   4
#     4  11  22  38  56  93 141 185 218 248 310 395
#     4  11  24  37  63  94 141 182 214 254 320 402
#     4  11  24  44  66  97 128 167 224 287 337 393
#     4  11  22  44  68  95 121 169 222 287 344 386
#     4  10  26  44  74  94 120 160 228 302 356 380
#     4  11  22  39  61  91 133 181 216 260 318 391
#     4  11  22  33  54  95 135 177 215 260 310 392
#     4  11  22  32  59  94 131 171 220 263 320 387
#
# _framework density 21.021766
#
# number of rings (size 3 to 8) (size 9 to 14) (size 15 to 20)
#    0.000    1.067    4.000    2.800    3.733    2.133 
#    0.000    0.000    0.000   12.000    0.000    0.000 
#    0.000    0.000    0.000    0.000    0.000    0.000 
#
# Total GULP energy -83737.584453 kJ/mol
# GULP energy per Si atom -5582.505630 kJ/mol
# Density = 2.097392 g / cm^3
# Si number density = 21.021766 Si / 1000 Ang^3
#
#
#
# Elastic Constant Matrix: (Units=GPa)
#
#
# Indices 1 2 3 4 5 6 
#
# 1 49.2102 8.7654 18.1767 0.0007 -9.2454 0.0012
# 2 8.7654 74.3361 22.9075 -0.0013 -6.4870 -0.0024
# 3 18.1767 22.9075 108.9120 0.0018 -11.7085 0.0020
# 4 0.0007 -0.0013 0.0018 26.7802 -0.0001 -4.2179
# 5 -9.2454 -6.4870 -11.7085 -0.0001 15.1971 0.0000
# 6 0.0012 -0.0024 0.0020 -4.2179 0.0000 28.5743
#
#
#
# Elastic Compliance Matrix: (Units=1/GPa)
#
#
# Indices 1 2 3 4 5 6 
#
# 1 0.023672 -0.000983 -0.002443 -0.000001 0.012099 -0.000001
# 2 -0.000983 0.014670 -0.002521 0.000001 0.003722 0.000002
# 3 -0.002443 -0.002521 0.010733 -0.000001 0.005707 -0.000001
# 4 -0.000001 0.000001 -0.000001 0.038230 0.000000 0.005643
# 5 0.012099 0.003722 0.005707 0.000000 0.079148 -0.000001
# 6 -0.000001 0.000002 -0.000001 0.005643 -0.000001 0.035829
#
#
# Mechanical properties :
#
#
# Convention : Reuss Voigt Hill
#
# Bulk Modulus (GPa) = 26.89585 36.90640 31.90112
# Shear Modulus (GPa) = 22.06819 26.28424 24.17621
#
# Velocity S-wave (km/s) = 3.24354 3.53984 3.39493
# Velocity P-wave (km/s) = 5.18165 5.85677 5.52952
#
# Compressibility (1/GPa) = 0.03718046
#
# Stress axis : x y z
#
# Youngs Moduli (GPa) = 42.24476 68.16606 93.16766
#
# Poissons Ratio (x) = 0.06697 0.22763
# Poissons Ratio (y) = 0.04151 0.23492
# Poissons Ratio (z) = 0.10321 0.17188
#
# Static dielectric constant tensor:
#      x y z
#    x 1.742710 0.000000 -0.012510 
#    y 0.000000 1.813810 0.000000 
#    z -0.012510 0.000000 1.769680 
# 
# From -- ./inp_files/72368.got.cif
#   From: 2010.05.17/outbox.cif.g08.bks.cpg/sg5_37_cif.got.tgz:72368.got - 2010.06.03 18:56:24.
