data_PCOD9129532
_publ_section_title
;
Structure prediction by ZEFSAII (Michael W. Deem and Ramdas Pophale) SiO2 
 PCOD9129532
Probable space group: C 2
;
_chemical_formula_sum "Si O2"
_cell_formula_units_Z 24
_cell_length_a 9.003124
_cell_length_b 12.479519
_cell_length_c 10.513962
_cell_angle_alpha 90.000000
_cell_angle_beta 91.944833
_cell_angle_gamma 90.000000
_cell_volume 1180.612130
_symmetry_space_group_name_H-M "C 2"
_symmetry_group_IT_number 5
_symmetry_cell_setting 'monoclinic'
loop_
_space_group_symop_operation_xyz
x,y,z
-x,y,-z
1/2+x,1/2+y,z
1/2-x,1/2+y,-z
loop_
_atom_site_type_symbol
_atom_site_label
_atom_site_fract_x
_atom_site_fract_y
_atom_site_fract_z
Si Si1 0.196345 0.330050 0.714714
Si Si2 0.775621 0.806476 0.280721
Si Si3 0.050851 0.698738 0.149972
Si Si4 0.657548 0.662166 0.485996
Si Si5 0.063092 0.446801 0.142129
Si Si6 0.821169 0.461147 0.500562
O O1 0.302812 0.268025 0.813792
O O2 0.258186 0.430097 0.635013
O O3 0.156936 0.251663 0.596270
O O4 0.054937 0.381319 0.777753
O O5 0.678795 0.713762 0.347422
O O6 0.708720 0.873812 0.161400
O O7 0.763786 0.896074 0.391716
O O8 0.925094 0.749980 0.237878
O O9 0.076857 0.572059 0.180358
O O10 0.000000 0.706361 0.000000
O O11 0.500000 0.604790 0.500000
O O12 0.794432 0.585770 0.517846
O O13 0.000000 0.447929 0.000000
O O14 0.000000 0.441084 0.500000
#
# Coordination Sequence:
#
# PCOD9129532 Si02
#       6
#     4   4   4   4   4   4
#     4  11  22  42  63  94 128 165 213 264 315 382
#     4  11  22  42  63  94 128 165 213 264 315 382
#     4  11  26  43  65  96 126 171 222 260 313 377
#     4  11  23  38  64  99 132 161 213 264 319 385
#     4  11  22  43  67  88 126 175 212 266 317 369
#     4  11  23  40  66  97 130 169 209 260 329 385
#
# _framework density 20.328436
#
# number of rings (size 3 to 8) (size 9 to 14) (size 15 to 20)
#    0.000    1.000    3.333    4.000    4.667    1.333 
#    0.000    0.000    0.000    8.000    0.000    0.000 
#    0.000    0.000    0.000    0.000    0.000    0.000 
#
# Total GULP energy -66855.058932 kJ/mol
# GULP energy per Si atom -5571.254911 kJ/mol
# Density = 2.028217 g / cm^3
# Si number density = 20.328436 Si / 1000 Ang^3
#
#
#
# Elastic Constant Matrix: (Units=GPa)
#
#
# Indices 1 2 3 4 5 6 
#
# 1 43.5557 28.2702 3.7329 0.0000 -3.5400 0.0000
# 2 28.2702 97.3824 19.7601 0.0000 -4.0118 0.0000
# 3 3.7329 19.7601 60.4521 0.0000 5.1739 0.0000
# 4 0.0000 0.0000 0.0000 30.1605 0.0000 -4.3798
# 5 -3.5400 -4.0118 5.1739 0.0000 30.4597 0.0000
# 6 0.0000 0.0000 0.0000 -4.3798 0.0000 34.9402
#
#
#
# Elastic Compliance Matrix: (Units=1/GPa)
#
#
# Indices 1 2 3 4 5 6 
#
# 1 0.028474 -0.008341 0.000790 0.000000 0.002076 0.000000
# 2 -0.008341 0.013574 -0.004051 0.000000 0.001507 0.000000
# 3 0.000790 -0.004051 0.018119 0.000000 -0.003519 0.000000
# 4 0.000000 0.000000 0.000000 0.033771 0.000000 0.004233
# 5 0.002076 0.001507 -0.003519 0.000000 0.033868 0.000000
# 6 0.000000 0.000000 0.000000 0.004233 0.000000 0.029151
#
#
# Mechanical properties :
#
#
# Convention : Reuss Voigt Hill
#
# Bulk Modulus (GPa) = 27.05340 33.87963 30.46652
# Shear Modulus (GPa) = 25.97672 29.08721 27.53196
#
# Velocity S-wave (km/s) = 3.57858 3.78678 3.68415
# Velocity P-wave (km/s) = 5.51471 5.98514 5.75474
#
# Compressibility (1/GPa) = 0.03696393
#
# Stress axis : x y z
#
# Youngs Moduli (GPa) = 35.11994 73.66915 55.19205
#
# Poissons Ratio (x) = 0.61446 -0.04363
# Poissons Ratio (y) = 0.29293 0.22358
# Poissons Ratio (z) = -0.02776 0.29843
#
# Static dielectric constant tensor:
#      x y z
#    x 1.733040 0.000000 0.017300 
#    y 0.000000 1.753880 0.000000 
#    z 0.017300 0.000000 1.763010 
# 
# From -- ./inp_files/35396.got.cif
#   From: 2010.05.17/outbox.cif.g08.bks.cpg/sg5_18_cif.got.tgz:35396.got - 2010.06.03 18:56:24.
