data_PCOD9129129
_publ_section_title
;
Structure prediction by ZEFSAII (Michael W. Deem and Ramdas Pophale) SiO2 
 PCOD9129129
Probable space group: C 2
;
_chemical_formula_sum "Si O2"
_cell_formula_units_Z 20
_cell_length_a 12.792640
_cell_length_b 4.976615
_cell_length_c 24.385486
_cell_angle_alpha 90.000000
_cell_angle_beta 152.813284
_cell_angle_gamma 90.000000
_cell_volume 709.314619
_symmetry_space_group_name_H-M "C 2"
_symmetry_group_IT_number 5
_symmetry_cell_setting 'monoclinic'
loop_
_space_group_symop_operation_xyz
x,y,z
-x,y,-z
1/2+x,1/2+y,z
1/2-x,1/2+y,-z
loop_
_atom_site_type_symbol
_atom_site_label
_atom_site_fract_x
_atom_site_fract_y
_atom_site_fract_z
Si Si1 0.539772 0.205770 0.188396
Si Si2 0.557028 0.910212 0.374758
Si Si3 0.027949 0.020506 0.952887
Si Si4 0.884544 0.902363 0.226658
Si Si5 0.562005 0.285278 0.592933
O O1 0.728065 0.980839 0.293781
O O2 0.475230 0.415028 0.207049
O O3 0.968192 0.154452 0.299891
O O4 0.563264 0.357061 0.141384
O O5 0.671394 0.403610 0.490366
O O6 0.515128 0.149932 0.313010
O O7 0.433139 0.997222 0.373790
O O8 0.295481 0.055332 0.069033
O O9 0.000000 0.887126 0.000000
O O10 0.877084 0.295900 0.888130
O O11 0.500000 0.258458 0.500000
#
# Coordination Sequence:
#
# PCOD9129129 Si02
#       5
#     4   4   4   4   4
#     4  11  27  57  99 137 186 248 315 385 476 561
#     4  12  29  55  90 133 185 246 302 383 461 557
#     4  10  27  53  94 138 185 243 309 387 467 554
#     4  11  28  58  89 129 186 242 309 381 461 555
#     4  12  29  60  91 137 193 251 312 387 477 565
#
# _framework density 28.196232999999999
#
# number of rings (size 3 to 8) (size 9 to 14) (size 15 to 20)
#    0.000    0.800    2.000    1.200    8.400    4.800 
#    3.600    7.000    4.400    0.000    0.000    0.000 
#    0.000    0.000    0.000    0.000    0.000    0.000 
#
# Total GULP energy -56127.065653 kJ/mol
# GULP energy per Si atom -5612.706565 kJ/mol
# Density = 2.813206 g / cm^3
# Si number density = 28.196233 Si / 1000 Ang^3
#
#
#
# Elastic Constant Matrix: (Units=GPa)
#
#
# Indices 1 2 3 4 5 6 
#
# 1 222.6302 95.3092 117.9788 -0.0021 -24.9912 0.0026
# 2 95.3092 213.0081 114.1620 -0.0118 -14.2566 0.0130
# 3 117.9788 114.1620 253.5276 0.0014 -10.3959 0.0036
# 4 -0.0021 -0.0118 0.0014 32.9659 0.0016 -17.2673
# 5 -24.9912 -14.2566 -10.3959 0.0016 83.9142 -0.0013
# 6 0.0026 0.0130 0.0036 -17.2673 -0.0013 37.9035
#
#
#
# Elastic Compliance Matrix: (Units=1/GPa)
#
#
# Indices 1 2 3 4 5 6 
#
# 1 0.006538 -0.001624 -0.002254 0.000000 0.001392 0.000000
# 2 -0.001624 0.006634 -0.002216 0.000002 0.000369 -0.000001
# 3 -0.002254 -0.002216 0.005979 -0.000001 -0.000307 0.000000
# 4 0.000000 0.000002 -0.000001 0.039841 0.000000 0.018150
# 5 0.001392 0.000369 -0.000307 0.000000 0.012356 0.000000
# 6 0.000000 -0.000001 0.000000 0.018150 0.000000 0.034651
#
#
# Mechanical properties :
#
#
# Convention : Reuss Voigt Hill
#
# Bulk Modulus (GPa) = 143.64652 149.34066 146.49359
# Shear Modulus (GPa) = 41.49108 55.07111 48.28109
#
# Velocity S-wave (km/s) = 3.84019 4.42423 4.14251
# Velocity P-wave (km/s) = 8.40944 8.89821 8.65727
#
# Compressibility (1/GPa) = 0.00696153
#
# Stress axis : x y z
#
# Youngs Moduli (GPa) = 152.95878 150.74166 167.26356
#
# Poissons Ratio (x) = 0.24482 0.37700
# Poissons Ratio (y) = 0.24842 0.37070
# Poissons Ratio (z) = 0.34476 0.33409
#
# Static dielectric constant tensor:
#      x y z
#    x 2.255170 0.000000 0.065110 
#    y 0.000000 2.274570 0.000000 
#    z 0.065110 0.000000 2.214210 
# 
# From -- ./inp_files/51875.got.cif
#   From: 2010.05.17/outbox.cif.g08.bks.cpg/sg5_26_cif.got.tgz:51875.got - 2010.06.03 18:56:24.
