data_PCOD9130915
_publ_section_title
;
Structure prediction by ZEFSAII (Michael W. Deem and Ramdas Pophale) SiO2 
 PCOD9130915
Probable space group: P M
;
_chemical_formula_sum "Si O2"
_cell_formula_units_Z 16
_cell_length_a 12.580088
_cell_length_b 8.693604
_cell_length_c 12.955187
_cell_angle_alpha 90.000000
_cell_angle_beta 34.843319
_cell_angle_gamma 90.000000
_cell_volume 809.501155
_symmetry_space_group_name_H-M "P M"
_symmetry_group_IT_number 6
_symmetry_cell_setting 'monoclinic'
loop_
_space_group_symop_operation_xyz
x,y,z
x,-y,z
loop_
_atom_site_type_symbol
_atom_site_label
_atom_site_fract_x
_atom_site_fract_y
_atom_site_fract_z
Si Si1 0.471340 0.684017 0.802700
Si Si2 0.359268 0.186828 0.319340
Si Si3 0.065090 0.683874 0.048166
Si Si4 0.733689 0.185014 0.424661
Si Si5 0.038806 0.179786 0.847961
Si Si6 0.475322 0.819012 0.445224
Si Si7 0.957162 0.682921 0.696443
Si Si8 0.568480 0.184528 0.942600
O O1 0.484725 0.500000 0.794654
O O2 0.640452 0.752878 0.602300
O O3 0.474355 0.749435 0.915329
O O4 0.279276 0.726395 0.898358
O O5 0.474507 0.241757 0.328791
O O6 0.150517 0.250079 0.497915
O O7 0.349536 0.000000 0.332421
O O8 0.457439 0.230529 0.134761
O O9 0.050414 0.500000 0.057563
O O10 0.938178 0.752999 0.239270
O O11 0.998620 0.752622 0.992065
O O12 0.608981 0.244818 0.426937
O O13 0.731415 0.000000 0.427980
O O14 0.261713 0.193127 0.652794
O O15 0.948534 0.266105 0.823453
O O16 0.987807 0.000000 0.884511
O O17 0.521417 0.000000 0.401408
O O18 0.958575 0.500000 0.687325
O O19 0.777800 0.752398 0.783742
O O20 0.572417 0.000000 0.935311
#
# Coordination Sequence:
#
# PCOD9130915 Si02
#       8
#     2   2   2   2   2   2   2   2
#     4  11  25  45  64  86 127 168 207 262 317 369
#     4   9  20  40  63  91 124 162 210 259 305 361
#     4  11  24  40  60  92 128 165 206 256 321 377
#     4  11  22  38  64  94 123 163 213 258 307 370
#     4  10  19  37  63  90 126 165 208 258 307 366
#     4   8  16  33  59  90 122 156 199 255 308 355
#     4  11  23  39  61  94 132 165 201 251 317 378
#     4  11  24  42  68  93 120 164 218 261 302 368
#
# _framework density 19.765256999999998
#
# number of rings (size 3 to 8) (size 9 to 14) (size 15 to 20)
#    0.000    1.750    1.250    3.750    1.750    3.500 
#    0.000    3.125    0.000    0.000    0.000    0.000 
#    0.000    0.000    0.000    0.000    0.000    0.000 
#
# Total GULP energy -89415.641689 kJ/mol
# GULP energy per Si atom -5588.477606 kJ/mol
# Density = 1.972027 g / cm^3
# Si number density = 19.765257 Si / 1000 Ang^3
#
#
#
# Elastic Constant Matrix: (Units=GPa)
#
#
# Indices 1 2 3 4 5 6 
#
# 1 45.4932 5.1467 6.9903 0.0000 15.5038 0.0000
# 2 5.1467 39.8603 19.9129 0.0000 3.4736 0.0000
# 3 6.9903 19.9129 88.9471 0.0000 23.5205 0.0000
# 4 0.0000 0.0000 0.0000 23.3354 0.0000 3.2473
# 5 15.5038 3.4736 23.5205 0.0000 29.6545 0.0000
# 6 0.0000 0.0000 0.0000 3.2473 0.0000 27.3549
#
#
#
# Elastic Compliance Matrix: (Units=1/GPa)
#
#
# Indices 1 2 3 4 5 6 
#
# 1 0.027488 -0.003606 0.002955 0.000000 -0.016292 0.000000
# 2 -0.003606 0.028829 -0.007309 0.000000 0.004306 0.000000
# 3 0.002955 -0.007309 0.016234 0.000000 -0.013565 0.000000
# 4 0.000000 0.000000 0.000000 0.043573 0.000000 -0.005173
# 5 -0.016292 0.004306 -0.013565 0.000000 0.052494 0.000000
# 6 0.000000 0.000000 0.000000 -0.005173 0.000000 0.037171
#
#
# Mechanical properties :
#
#
# Convention : Reuss Voigt Hill
#
# Bulk Modulus (GPa) = 17.65814 26.48893 22.07354
# Shear Modulus (GPa) = 20.78266 25.55233 23.16749
#
# Velocity S-wave (km/s) = 3.24616 3.59944 3.42736
# Velocity P-wave (km/s) = 4.79619 5.54125 5.18213
#
# Compressibility (1/GPa) = 0.05663112
#
# Stress axis : x y z
#
# Youngs Moduli (GPa) = 36.38013 34.68677 61.60029
#
# Poissons Ratio (x) = 0.12507 -0.18204
# Poissons Ratio (y) = 0.13118 0.45026
# Poissons Ratio (z) = -0.10751 0.25354
#
# Static dielectric constant tensor:
#      x y z
#    x 1.689900 0.000000 -0.000610 
#    y 0.000000 1.660440 0.000000 
#    z -0.000610 0.000000 1.691330 
# 
# From -- ./inp_files/5041.got.cif
#   From: 2010.05.17/outbox.cif.g08.bks.cpg/sg6_3_cif.got.tgz:5041.got - 2010.06.03 19:42:10.
