data_PCOD9130134
_publ_section_title
;
Structure prediction by ZEFSAII (Michael W. Deem and Ramdas Pophale) SiO2 
 PCOD9130134
Probable space group: C 2
;
_chemical_formula_sum "Si O2"
_cell_formula_units_Z 16
_cell_length_a 12.287859
_cell_length_b 7.418412
_cell_length_c 6.968111
_cell_angle_alpha 90.000000
_cell_angle_beta 87.278761
_cell_angle_gamma 90.000000
_cell_volume 634.471645
_symmetry_space_group_name_H-M "C 2"
_symmetry_group_IT_number 5
_symmetry_cell_setting 'monoclinic'
loop_
_space_group_symop_operation_xyz
x,y,z
-x,y,-z
1/2+x,1/2+y,z
1/2-x,1/2+y,-z
loop_
_atom_site_type_symbol
_atom_site_label
_atom_site_fract_x
_atom_site_fract_y
_atom_site_fract_z
Si Si1 0.827719 0.075690 0.884453
Si Si2 0.335745 0.270590 0.563056
Si Si3 0.888185 0.368475 0.623264
Si Si4 0.602926 0.272753 0.863260
O O1 0.891897 0.254466 0.818132
O O2 0.702422 0.137155 0.895389
O O3 0.848050 0.928561 0.715427
O O4 0.862511 0.973017 0.071914
O O5 0.212065 0.285627 0.491962
O O6 0.590976 0.279975 0.635526
O O7 0.357504 0.076369 0.651455
O O8 0.000000 0.353241 0.500000
O O9 0.500000 0.222223 0.000000
#
# Coordination Sequence:
#
# PCOD9130134 Si02
#       4
#     4   4   4   4
#     4  11  28  47  76 110 153 192 252 307 365 453
#     4  11  25  50  73 109 150 194 252 301 363 458
#     4  11  25  44  79 106 144 202 243 297 377 434
#     4  11  28  47  76 111 150 193 248 309 370 436
#
# _framework density 25.217832999999999
#
# number of rings (size 3 to 8) (size 9 to 14) (size 15 to 20)
#    0.000    1.000    5.000    0.000   14.000    0.000 
#    0.000    0.000    0.000    0.000    0.000    0.000 
#    0.000    0.000    0.000    0.000    0.000    0.000 
#
# Total GULP energy -44885.098318 kJ/mol
# GULP energy per Si atom -5610.637290 kJ/mol
# Density = 2.516044 g / cm^3
# Si number density = 25.217833 Si / 1000 Ang^3
#
#
#
# Elastic Constant Matrix: (Units=GPa)
#
#
# Indices 1 2 3 4 5 6 
#
# 1 155.3309 48.2138 31.5286 0.0000 -47.4913 0.0000
# 2 48.2138 204.7879 74.5017 0.0000 -18.6927 0.0000
# 3 31.5286 74.5017 129.5786 0.0000 -17.0867 0.0000
# 4 0.0000 0.0000 0.0000 36.6967 0.0000 -8.1349
# 5 -47.4913 -18.6927 -17.0867 0.0000 45.3656 0.0000
# 6 0.0000 0.0000 0.0000 -8.1349 0.0000 39.9445
#
#
#
# Elastic Compliance Matrix: (Units=1/GPa)
#
#
# Indices 1 2 3 4 5 6 
#
# 1 0.009871 -0.001305 -0.000378 0.000000 0.009653 0.000000
# 2 -0.001305 0.006418 -0.003371 0.000000 0.000008 0.000000
# 3 -0.000378 -0.003371 0.010009 0.000000 0.001985 0.000000
# 4 0.000000 0.000000 0.000000 0.028539 0.000000 0.005812
# 5 0.009653 0.000008 0.001985 0.000000 0.032900 0.000000
# 6 0.000000 0.000000 0.000000 0.005812 0.000000 0.026218
#
#
# Mechanical properties :
#
#
# Convention : Reuss Voigt Hill
#
# Bulk Modulus (GPa) = 61.77177 88.68731 75.22954
# Shear Modulus (GPa) = 38.62161 46.76491 42.69326
#
# Velocity S-wave (km/s) = 3.91771 4.31099 4.11905
# Velocity P-wave (km/s) = 6.70918 7.74754 7.24698
#
# Compressibility (1/GPa) = 0.01618863
#
# Stress axis : x y z
#
# Youngs Moduli (GPa) = 101.30375 155.82256 99.90638
#
# Poissons Ratio (x) = 0.20338 0.03781
# Poissons Ratio (y) = 0.13222 0.33680
# Poissons Ratio (z) = 0.03834 0.52530
#
# Static dielectric constant tensor:
#      x y z
#    x 2.026480 0.000000 0.025820 
#    y 0.000000 1.941750 0.000000 
#    z 0.025820 0.000000 1.999750 
# 
# From -- ./inp_files/18082.got.cif
#   From: 2010.05.17/outbox.cif.g08.bks.cpg/sg5_10_cif.got.tgz:18082.got - 2010.06.03 18:56:24.
