data_PCOD9130258
_publ_section_title
;
Structure prediction by ZEFSAII (Michael W. Deem and Ramdas Pophale) SiO2 
 PCOD9130258
Probable space group: C 2
;
_chemical_formula_sum "Si O2"
_cell_formula_units_Z 26
_cell_length_a 13.820012
_cell_length_b 5.875849
_cell_length_c 28.811281
_cell_angle_alpha 90.000000
_cell_angle_beta 152.878746
_cell_angle_gamma 90.000000
_cell_volume 1066.565395
_symmetry_space_group_name_H-M "C 2"
_symmetry_group_IT_number 5
_symmetry_cell_setting 'monoclinic'
loop_
_space_group_symop_operation_xyz
x,y,z
-x,y,-z
1/2+x,1/2+y,z
1/2-x,1/2+y,-z
loop_
_atom_site_type_symbol
_atom_site_label
_atom_site_fract_x
_atom_site_fract_y
_atom_site_fract_z
Si Si1 0.646795 0.208300 0.963283
Si Si2 0.140096 0.543603 0.799955
Si Si3 0.165180 0.810296 0.728613
Si Si4 0.500000 0.247849 0.000000
Si Si5 0.152716 0.157154 0.360073
Si Si6 0.458444 0.035323 0.406950
Si Si7 0.851308 0.679427 0.754604
O O1 0.573500 0.132676 0.983644
O O2 0.456672 0.272343 0.846347
O O3 0.758222 0.462202 0.014767
O O4 0.266677 0.672081 0.813773
O O5 0.299348 0.392465 0.897038
O O6 0.956185 0.400300 0.695283
O O7 0.015943 0.701378 0.783198
O O8 0.020756 0.659313 0.633413
O O9 0.317074 0.920404 0.755451
O O10 0.034902 0.998891 0.701030
O O11 0.266203 0.103291 0.359611
O O12 0.336217 0.104626 0.476002
O O13 0.376438 0.783072 0.357330
#
# Coordination Sequence:
#
# PCOD9130258 Si02
#       7
#     4   4   4   2   4   4   4
#     4  12  30  51  84 119 165 213 273 339 410 481
#     4  12  27  51  76 116 156 207 268 331 399 488
#     4  12  26  46  81 103 157 201 258 325 401 473
#     4  12  28  50  84 112 160 216 270 332 410 484
#     4  11  26  48  73 113 152 204 256 333 389 495
#     4  11  26  47  76 109 156 201 263 321 409 468
#     4  12  27  50  78 111 161 209 266 339 398 487
#
# _framework density 24.377313000000001
#
# number of rings (size 3 to 8) (size 9 to 14) (size 15 to 20)
#    0.000    0.308    4.615    2.769   10.769    1.846 
#    0.000    0.000    0.000    0.000    0.000    0.000 
#    0.000    0.000    0.000    0.000    0.000    0.000 
#
# Total GULP energy -72481.307532 kJ/mol
# GULP energy per Si atom -5575.485195 kJ/mol
# Density = 2.432183 g / cm^3
# Si number density = 24.377313 Si / 1000 Ang^3
#
#
#
# Elastic Constant Matrix: (Units=GPa)
#
#
# Indices 1 2 3 4 5 6 
#
# 1 120.7157 35.3816 26.1236 -0.0049 -42.0240 0.0013
# 2 35.3816 49.4560 25.9376 -0.0088 -9.0754 0.0022
# 3 26.1236 25.9376 117.5047 -0.0068 -18.7360 0.0013
# 4 -0.0049 -0.0088 -0.0068 -73.5153 0.0037 -32.1870
# 5 -42.0240 -9.0754 -18.7360 0.0037 42.9677 -0.0006
# 6 0.0013 0.0022 0.0013 -32.1870 -0.0006 35.8059
#
#
#
# Elastic Compliance Matrix: (Units=1/GPa)
#
#
# Indices 1 2 3 4 5 6 
#
# 1 0.015471 -0.008947 0.000695 0.000000 0.013545 0.000001
# 2 -0.008947 0.028365 -0.005064 -0.000001 -0.004968 -0.000003
# 3 0.000695 -0.005064 0.010115 0.000000 0.004021 0.000000
# 4 0.000000 -0.000001 0.000000 -0.009761 0.000001 -0.008774
# 5 0.013545 -0.004968 0.004021 0.000001 0.037224 0.000001
# 6 0.000001 -0.000003 0.000000 -0.008774 0.000001 0.020041
#
#
# Mechanical properties :
#
#
# Convention : Reuss Voigt Hill
#
# Bulk Modulus (GPa) = 36.60539 51.39577 44.00058
# Shear Modulus (GPa) = 36.44453 14.40058 25.42256
#
# Velocity S-wave (km/s) = 3.87074 2.43315 3.23287
# Velocity P-wave (km/s) = 5.91824 5.38728 5.65899
#
# Compressibility (1/GPa) = 0.02731838
#
# Stress axis : x y z
#
# Youngs Moduli (GPa) = 64.63630 35.25411 98.86573
#
# Poissons Ratio (x) = 0.31543 -0.06873
# Poissons Ratio (y) = 0.57833 0.50068
# Poissons Ratio (z) = -0.04493 0.17854
#
# Static dielectric constant tensor:
#      x y z
#    x 1.921570 0.000000 0.041990 
#    y 0.000000 2.063490 0.000000 
#    z 0.041990 0.000000 1.966310 
# 
# From -- ./inp_files/71857.got.cif
#   From: 2010.05.17/outbox.cif.g08.bks.cpg/sg5_36_cif.got.tgz:71857.got - 2010.06.03 18:56:24.
