data_PCOD9130910
_publ_section_title
;
Structure prediction by ZEFSAII (Michael W. Deem and Ramdas Pophale) SiO2 
 PCOD9130910
Probable space group: P M
;
_chemical_formula_sum "Si O2"
_cell_formula_units_Z 11
_cell_length_a 5.032748
_cell_length_b 11.577735
_cell_length_c 8.484265
_cell_angle_alpha 90.000000
_cell_angle_beta 86.999396
_cell_angle_gamma 90.000000
_cell_volume 493.681873
_symmetry_space_group_name_H-M "P M"
_symmetry_group_IT_number 6
_symmetry_cell_setting 'monoclinic'
loop_
_space_group_symop_operation_xyz
x,y,z
x,-y,z
loop_
_atom_site_type_symbol
_atom_site_label
_atom_site_fract_x
_atom_site_fract_y
_atom_site_fract_z
Si Si1 0.729220 0.500000 0.954720
Si Si2 0.643925 0.249984 0.841350
Si Si3 0.666260 0.866249 0.152487
Si Si4 0.155129 0.241419 0.291267
Si Si5 0.098864 0.500000 0.633344
Si Si6 0.185541 0.250705 0.642392
Si Si7 0.023112 0.500000 0.282769
O O1 0.592028 0.376317 0.923005
O O2 0.952321 0.500000 0.807506
O O3 0.836122 0.500000 0.132025
O O4 0.380842 0.201882 0.766815
O O5 0.880580 0.257083 0.706775
O O6 0.746775 0.165928 0.973524
O O7 0.362589 0.826098 0.178197
O O8 0.853832 0.790497 0.258485
O O9 0.698029 0.000000 0.187134
O O10 0.209443 0.201980 0.467933
O O11 0.182274 0.379356 0.268255
O O12 0.929943 0.500000 0.472411
O O13 0.271465 0.384896 0.623675
#
# Coordination Sequence:
#
# PCOD9130910 Si02
#       7
#     1   2   2   2   1   2   1
#     4  10  19  36  64  98 135 173 212 268 341 407
#     4  11  22  39  65  94 130 168 216 266 333 394
#     4  12  26  45  65  94 133 177 227 279 324 387
#     4  11  24  44  69  99 134 172 219 276 334 401
#     4   8  19  33  58  92 139 164 202 268 331 396
#     4  10  21  40  63  93 129 169 211 267 330 398
#     4  10  20  39  66 106 132 173 220 270 342 411
#
# _framework density 22.281555999999998
#
# number of rings (size 3 to 8) (size 9 to 14) (size 15 to 20)
#    0.000    1.455    1.818    3.273    2.545    1.455 
#    0.000   10.909    0.000    0.000    0.000    0.000 
#    0.000    0.000    0.000    0.000    0.000    0.000 
#
# Total GULP energy -61394.921330 kJ/mol
# GULP energy per Si atom -5581.356485 kJ/mol
# Density = 2.223084 g / cm^3
# Si number density = 22.281556 Si / 1000 Ang^3
#
#
#
# Elastic Constant Matrix: (Units=GPa)
#
#
# Indices 1 2 3 4 5 6 
#
# 1 53.8597 -2.4405 16.6187 0.0000 10.9339 0.0000
# 2 -2.4405 64.1594 3.6002 0.0000 -8.9065 0.0000
# 3 16.6187 3.6002 123.8317 0.0000 25.8805 0.0000
# 4 0.0000 0.0000 0.0000 -32.7462 0.0000 -11.4054
# 5 10.9339 -8.9065 25.8805 0.0000 38.9154 0.0000
# 6 0.0000 0.0000 0.0000 -11.4054 0.0000 9.9540
#
#
#
# Elastic Compliance Matrix: (Units=1/GPa)
#
#
# Indices 1 2 3 4 5 6 
#
# 1 0.020017 0.000253 -0.001777 0.000000 -0.004384 0.000000
# 2 0.000253 0.016324 -0.001480 0.000000 0.004650 0.000000
# 3 -0.001777 -0.001480 0.009667 0.000000 -0.006268 0.000000
# 4 0.000000 0.000000 0.000000 -0.021827 0.000000 -0.025010
# 5 -0.004384 0.004650 -0.006268 0.000000 0.032162 0.000000
# 6 0.000000 0.000000 0.000000 -0.025010 0.000000 0.071806
#
#
# Mechanical properties :
#
#
# Convention : Reuss Voigt Hill
#
# Bulk Modulus (GPa) = 25.00132 30.82307 27.91220
# Shear Modulus (GPa) = 33.90032 18.16279 26.03156
#
# Velocity S-wave (km/s) = 3.90481 2.85818 3.42175
# Velocity P-wave (km/s) = 5.61917 4.97551 5.30711
#
# Compressibility (1/GPa) = 0.03999788
#
# Stress axis : x y z
#
# Youngs Moduli (GPa) = 49.95839 61.25839 103.44327
#
# Poissons Ratio (x) = -0.01547 0.18386
# Poissons Ratio (y) = -0.01262 0.15312
# Poissons Ratio (z) = 0.08880 0.09068
#
# Static dielectric constant tensor:
#      x y z
#    x 1.786340 0.000000 0.019200 
#    y 0.000000 1.814050 0.000000 
#    z 0.019200 0.000000 1.834720 
# 
# From -- ./inp_files/873.got.cif
#   From: 2010.05.17/outbox.cif.g08.bks.cpg/sg6_1_cif.got.tgz:873.got - 2010.06.03 19:42:10.
