data_PCOD9130650
_publ_section_title
;
Structure prediction by ZEFSAII (Michael W. Deem and Ramdas Pophale) SiO2 
 PCOD9130650
Probable space group: C 2
;
_chemical_formula_sum "Si O2"
_cell_formula_units_Z 16
_cell_length_a 7.488440
_cell_length_b 12.103736
_cell_length_c 7.620787
_cell_angle_alpha 90.000000
_cell_angle_beta 64.115573
_cell_angle_gamma 90.000000
_cell_volume 621.436820
_symmetry_space_group_name_H-M "C 2"
_symmetry_group_IT_number 5
_symmetry_cell_setting 'monoclinic'
loop_
_space_group_symop_operation_xyz
x,y,z
-x,y,-z
1/2+x,1/2+y,z
1/2-x,1/2+y,-z
loop_
_atom_site_type_symbol
_atom_site_label
_atom_site_fract_x
_atom_site_fract_y
_atom_site_fract_z
Si Si1 0.368012 0.776950 0.724769
Si Si2 0.261870 0.078438 0.979294
Si Si3 0.098433 0.486890 0.652724
Si Si4 0.425926 0.463722 0.270229
O O1 0.500000 0.736320 0.500000
O O2 0.304791 0.687041 0.891818
O O3 0.173693 0.846336 0.742232
O O4 0.514936 0.868105 0.745664
O O5 0.493943 0.072295 0.826502
O O6 0.160674 0.978189 0.137155
O O7 0.162275 0.053447 0.831445
O O8 0.323902 0.489309 0.498881
O O9 0.000000 0.500051 0.500000
#
# Coordination Sequence:
#
# PCOD9130650 Si02
#       4
#     4   4   4   4
#     4   8  15  28  47  67  93 123 150 192 234 269
#     4   9  14  27  50  66  87 125 156 183 234 281
#     4   7  14  28  43  64  93 116 149 195 224 267
#     4   8  16  29  46  68  89 120 158 189 231 279
#
# _framework density 25.746783000000001
#
# number of rings (size 3 to 8) (size 9 to 14) (size 15 to 20)
#    0.000    5.000    0.000    0.000    0.000    0.000 
#    0.000   22.500    0.000   42.000    0.000    0.000 
#    0.000    0.000    0.000    0.000    0.000    0.000 
#
# Total GULP energy -44579.954230 kJ/mol
# GULP energy per Si atom -5572.494279 kJ/mol
# Density = 2.568818 g / cm^3
# Si number density = 25.746783 Si / 1000 Ang^3
#
#
#
# Elastic Constant Matrix: (Units=GPa)
#
#
# Indices 1 2 3 4 5 6 
#
# 1 107.1516 33.5862 56.4424 0.0000 -37.8416 0.0000
# 2 33.5862 140.8262 105.9581 0.0000 -12.4898 0.0000
# 3 56.4424 105.9581 247.8844 0.0000 -45.1996 0.0000
# 4 0.0000 0.0000 0.0000 69.1784 0.0000 -3.4268
# 5 -37.8416 -12.4898 -45.1996 0.0000 57.0189 0.0000
# 6 0.0000 0.0000 0.0000 -3.4268 0.0000 16.9728
#
#
#
# Elastic Compliance Matrix: (Units=1/GPa)
#
#
# Indices 1 2 3 4 5 6 
#
# 1 0.013010 -0.001832 -0.000793 0.000000 0.007605 0.000000
# 2 -0.001832 0.010831 -0.004678 0.000000 -0.002552 0.000000
# 3 -0.000793 -0.004678 0.006934 0.000000 0.003946 0.000000
# 4 0.000000 0.000000 0.000000 0.014601 0.000000 0.002948
# 5 0.007605 -0.002552 0.003946 0.000000 0.025154 0.000000
# 6 0.000000 0.000000 0.000000 0.002948 0.000000 0.059513
#
#
# Mechanical properties :
#
#
# Convention : Reuss Voigt Hill
#
# Bulk Modulus (GPa) = 61.84348 98.64840 80.24594
# Shear Modulus (GPa) = 33.32480 48.62572 40.97526
#
# Velocity S-wave (km/s) = 3.60158 4.35053 3.99365
# Velocity P-wave (km/s) = 6.43174 7.97710 7.24574
#
# Compressibility (1/GPa) = 0.01616985
#
# Stress axis : x y z
#
# Youngs Moduli (GPa) = 76.86413 92.32531 144.22419
#
# Poissons Ratio (x) = 0.16914 0.11431
# Poissons Ratio (y) = 0.14082 0.67467
# Poissons Ratio (z) = 0.06092 0.43189
#
# Static dielectric constant tensor:
#      x y z
#    x 2.596040 0.000000 0.073470 
#    y 0.000000 2.007070 0.000000 
#    z 0.073470 0.000000 2.083150 
# 
# From -- ./inp_files/18593.got.cif
#   From: 2010.05.17/outbox.cif.g08.bks.cpg/sg5_10_cif.got.tgz:18593.got - 2010.06.03 18:56:24.
