data_PCOD9130469
_publ_section_title
;
Structure prediction by ZEFSAII (Michael W. Deem and Ramdas Pophale) SiO2 
 PCOD9130469
Probable space group: C 2
;
_chemical_formula_sum "Si O2"
_cell_formula_units_Z 24
_cell_length_a 14.328493
_cell_length_b 5.721729
_cell_length_c 27.034285
_cell_angle_alpha 90.000000
_cell_angle_beta 154.672171
_cell_angle_gamma 90.000000
_cell_volume 948.157216
_symmetry_space_group_name_H-M "C 2"
_symmetry_group_IT_number 5
_symmetry_cell_setting 'monoclinic'
loop_
_space_group_symop_operation_xyz
x,y,z
-x,y,-z
1/2+x,1/2+y,z
1/2-x,1/2+y,-z
loop_
_atom_site_type_symbol
_atom_site_label
_atom_site_fract_x
_atom_site_fract_y
_atom_site_fract_z
Si Si1 0.614536 0.159790 0.775717
Si Si2 0.000000 0.482072 0.000000
Si Si3 0.000000 0.829781 0.500000
Si Si4 0.640714 0.030804 0.960351
Si Si5 0.665983 0.063591 0.271311
Si Si6 0.395102 0.881865 0.322377
Si Si7 0.197131 0.019844 0.418922
O O1 0.521905 0.023847 0.778555
O O2 0.397527 0.288662 0.651202
O O3 0.698549 0.014210 0.769483
O O4 0.798843 0.329221 0.883731
O O5 0.914002 0.599929 0.009160
O O6 0.805290 0.677423 0.428800
O O7 0.889337 0.971497 0.402325
O O8 0.428067 0.970645 0.825186
O O9 0.764883 0.776485 0.017781
O O10 0.725390 0.330705 0.284665
O O11 0.493597 0.643949 0.347034
O O12 0.609605 0.994180 0.449072
#
# Coordination Sequence:
#
# PCOD9130469 Si02
#       7
#     4   2   2   4   4   4   4
#     4  12  27  50  74 116 158 213 277 338 412 495
#     4  12  30  52  86 114 164 226 278 350 418 496
#     4  12  26  44  78 120 162 210 264 336 422 498
#     4  12  31  56  85 120 166 223 285 346 414 494
#     4  12  27  49  78 118 162 210 272 340 412 504
#     4  12  25  45  76 112 158 209 268 330 421 489
#     4  12  24  45  72 112 159 208 266 334 407 500
#
# _framework density 25.312256000000001
#
# number of rings (size 3 to 8) (size 9 to 14) (size 15 to 20)
#    0.000    0.000    5.000    4.000    7.000    2.000 
#    0.000    0.000    0.000    0.000    0.000    0.000 
#    0.000    0.000    0.000    0.000    0.000    0.000 
#
# Total GULP energy -67118.598931 kJ/mol
# GULP energy per Si atom -5593.216578 kJ/mol
# Density = 2.525464 g / cm^3
# Si number density = 25.312256 Si / 1000 Ang^3
#
#
#
# Elastic Constant Matrix: (Units=GPa)
#
#
# Indices 1 2 3 4 5 6 
#
# 1 131.2514 41.6691 29.6889 -0.0010 -25.3272 0.0023
# 2 41.6691 57.7675 22.1061 -0.0027 -7.8752 0.0064
# 3 29.6889 22.1061 135.3001 0.0007 -23.1823 0.0017
# 4 -0.0010 -0.0027 0.0007 29.3440 0.0005 -16.7302
# 5 -25.3272 -7.8752 -23.1823 0.0005 46.7613 -0.0021
# 6 0.0023 0.0064 0.0017 -16.7302 -0.0021 38.3062
#
#
#
# Elastic Compliance Matrix: (Units=1/GPa)
#
#
# Indices 1 2 3 4 5 6 
#
# 1 0.010808 -0.007012 -0.000465 0.000000 0.004442 0.000001
# 2 -0.007012 0.023149 -0.002433 0.000000 -0.001106 -0.000003
# 3 -0.000465 -0.002433 0.008499 0.000000 0.003552 0.000000
# 4 0.000000 0.000000 0.000000 0.045378 0.000000 0.019819
# 5 0.004442 -0.001106 0.003552 0.000000 0.025366 0.000001
# 6 0.000001 -0.000003 0.000000 0.019819 0.000001 0.034761
#
#
# Mechanical properties :
#
#
# Convention : Reuss Voigt Hill
#
# Bulk Modulus (GPa) = 44.17751 56.80523 50.49137
# Shear Modulus (GPa) = 28.51823 38.27262 33.39542
#
# Velocity S-wave (km/s) = 3.36021 3.89269 3.63621
# Velocity P-wave (km/s) = 5.70488 6.53411 6.13352
#
# Compressibility (1/GPa) = 0.02263595
#
# Stress axis : x y z
#
# Youngs Moduli (GPa) = 92.52802 43.19796 117.66006
#
# Poissons Ratio (x) = 0.30292 0.05467
# Poissons Ratio (y) = 0.64884 0.28626
# Poissons Ratio (z) = 0.04299 0.10510
#
# Static dielectric constant tensor:
#      x y z
#    x 2.090960 0.000000 -0.009360 
#    y 0.000000 2.095650 0.000000 
#    z -0.009360 0.000000 1.983460 
# 
# From -- ./inp_files/53777.got.cif
#   From: 2010.05.17/outbox.cif.g08.bks.cpg/sg5_27_cif.got.tgz:53777.got - 2010.06.03 18:56:24.
