data_PCOD9130197
_publ_section_title
;
Structure prediction by ZEFSAII (Michael W. Deem and Ramdas Pophale) SiO2 
 PCOD9130197
Probable space group: C 2
;
_chemical_formula_sum "Si O2"
_cell_formula_units_Z 28
_cell_length_a 17.060536
_cell_length_b 12.861360
_cell_length_c 5.974150
_cell_angle_alpha 90.000000
_cell_angle_beta 62.506876
_cell_angle_gamma 90.000000
_cell_volume 1162.817985
_symmetry_space_group_name_H-M "C 2"
_symmetry_group_IT_number 5
_symmetry_cell_setting 'monoclinic'
loop_
_space_group_symop_operation_xyz
x,y,z
-x,y,-z
1/2+x,1/2+y,z
1/2-x,1/2+y,-z
loop_
_atom_site_type_symbol
_atom_site_label
_atom_site_fract_x
_atom_site_fract_y
_atom_site_fract_z
Si Si1 0.086425 0.159570 0.248714
Si Si2 0.072719 0.608713 0.090353
Si Si3 0.082755 0.387893 0.063638
Si Si4 0.242768 0.145373 0.387113
Si Si5 0.848703 0.006541 0.169594
Si Si6 0.587637 0.331381 0.265085
Si Si7 0.231369 0.850567 0.407928
O O1 0.088120 0.282578 0.198883
O O2 0.167627 0.125587 0.300147
O O3 0.000000 0.134026 0.500000
O O4 0.089360 0.097234 0.010940
O O5 0.075114 0.496617 0.210225
O O6 0.053188 0.721870 0.214068
O O7 0.165739 0.621236 0.847011
O O8 0.000000 0.591035 0.000000
O O9 0.177528 0.393971 0.810862
O O10 0.000000 0.375398 0.000000
O O11 0.240429 0.267064 0.446588
O O12 0.230879 0.082664 0.637113
O O13 0.839283 0.932259 0.398126
O O14 0.130904 0.917389 0.043213
O O15 0.500000 0.376650 0.500000
O O16 0.671172 0.296400 0.302685
#
# Coordination Sequence:
#
# PCOD9130197 Si02
#       7
#     4   4   4   4   4   4   4
#     4  12  28  47  73 112 149 190 246 303 370 437
#     4  11  25  48  75 107 147 193 250 298 363 435
#     4  11  25  48  75 107 147 193 250 298 363 435
#     4  12  25  47  74 108 149 195 242 301 366 434
#     4  12  27  45  80 102 153 190 243 306 368 435
#     4  12  28  47  73 112 149 190 246 303 370 437
#     4  12  25  47  74 108 149 195 242 301 366 434
#
# _framework density 24.079436000000001
#
# number of rings (size 3 to 8) (size 9 to 14) (size 15 to 20)
#    0.000    0.286    4.286    3.857    0.000    1.714 
#    0.000    0.000    0.000    0.000    0.000    0.000 
#    0.000    0.000    0.000    0.000    0.000    0.000 
#
# Total GULP energy -78010.665401 kJ/mol
# GULP energy per Si atom -5572.190386 kJ/mol
# Density = 2.402463 g / cm^3
# Si number density = 24.079436 Si / 1000 Ang^3
#
#
#
# Elastic Constant Matrix: (Units=GPa)
#
#
# Indices 1 2 3 4 5 6 
#
# 1 97.8621 -8.4165 25.4000 0.0000 -23.7397 0.0000
# 2 -8.4165 145.2137 11.4033 0.0000 15.4459 0.0000
# 3 25.4000 11.4033 130.3330 0.0000 -27.2648 0.0000
# 4 0.0000 0.0000 0.0000 -28.5727 0.0000 63.2548
# 5 -23.7397 15.4459 -27.2648 0.0000 21.2411 0.0000
# 6 0.0000 0.0000 0.0000 63.2548 0.0000 -84.5813
#
#
#
# Elastic Compliance Matrix: (Units=1/GPa)
#
#
# Indices 1 2 3 4 5 6 
#
# 1 0.014252 -0.001210 0.001155 0.000000 0.018290 0.000000
# 2 -0.001210 0.008183 -0.002745 0.000000 -0.010827 0.000000
# 3 0.001155 -0.002745 0.011450 0.000000 0.017983 0.000000
# 4 0.000000 0.000000 0.000000 0.053382 0.000000 0.039922
# 5 0.018290 -0.010827 0.017983 0.000000 0.098476 0.000000
# 6 0.000000 0.000000 0.000000 0.039922 0.000000 0.018033
#
#
# Mechanical properties :
#
#
# Convention : Reuss Voigt Hill
#
# Bulk Modulus (GPa) = 35.35604 47.79804 41.57704
# Shear Modulus (GPa) = 22.85133 4.61887 13.73510
#
# Velocity S-wave (km/s) = 3.08392 1.38649 2.39091
# Velocity P-wave (km/s) = 5.23409 4.73882 4.99260
#
# Compressibility (1/GPa) = 0.02828371
#
# Stress axis : x y z
#
# Youngs Moduli (GPa) = 70.16777 122.19804 87.33755
#
# Poissons Ratio (x) = 0.14787 -0.10084
# Poissons Ratio (y) = 0.08491 0.23975
# Poissons Ratio (z) = -0.08102 0.33544
#
# Static dielectric constant tensor:
#      x y z
#    x 2.001210 0.000000 0.191240 
#    y 0.000000 1.979470 0.000000 
#    z 0.191240 0.000000 2.066980 
# 
# From -- ./inp_files/23782.got.cif
#   From: 2010.05.17/outbox.cif.g08.bks.cpg/sg5_12_cif.got.tgz:23782.got - 2010.06.03 18:56:24.
