data_PCOD9130762
_publ_section_title
;
Structure prediction by ZEFSAII (Michael W. Deem and Ramdas Pophale) SiO2 
 PCOD9130762
Probable space group: P M
;
_chemical_formula_sum "Si O2"
_cell_formula_units_Z 16
_cell_length_a 8.676964
_cell_length_b 19.652046
_cell_length_c 10.109681
_cell_angle_alpha 90.000000
_cell_angle_beta 30.413542
_cell_angle_gamma 90.000000
_cell_volume 872.704920
_symmetry_space_group_name_H-M "P M"
_symmetry_group_IT_number 6
_symmetry_cell_setting 'monoclinic'
loop_
_space_group_symop_operation_xyz
x,y,z
x,-y,z
loop_
_atom_site_type_symbol
_atom_site_label
_atom_site_fract_x
_atom_site_fract_y
_atom_site_fract_z
Si Si1 0.867330 0.580143 0.227050
Si Si2 0.574509 0.926924 0.321512
Si Si3 0.395464 0.365922 0.360231
Si Si4 0.300512 0.072826 0.818890
Si Si5 0.725303 0.581535 0.864015
Si Si6 0.527299 0.636616 0.726604
Si Si7 0.299611 0.221694 0.821922
Si Si8 0.571895 0.777603 0.325297
O O1 0.858602 0.500000 0.259916
O O2 0.628390 0.599880 0.290873
O O3 0.766650 0.619493 0.434229
O O4 0.203995 0.601458 0.932961
O O5 0.425428 0.926907 0.576949
O O6 0.506404 0.852525 0.312812
O O7 0.492158 0.000000 0.317678
O O8 0.936278 0.927371 0.076745
O O9 0.452545 0.285260 0.328572
O O10 0.054535 0.386383 0.651380
O O11 0.481489 0.393665 0.152271
O O12 0.381936 0.146634 0.816329
O O13 0.395502 0.000000 0.810269
O O14 0.744970 0.500000 0.852221
O O15 0.634328 0.606938 0.786265
O O16 0.455448 0.716757 0.783615
O O17 0.413993 0.226072 0.585763
O O18 0.933868 0.229303 0.084708
#
# Coordination Sequence:
#
# PCOD9130762 Si02
#       8
#     2   2   2   2   2   2   2   2
#     4  12  23  38  60  81 103 134 182 228 276 324
#     4   8  14  24  42  70 104 134 160 200 257 305
#     4  12  23  40  58  81 107 142 178 225 275 318
#     4   8  14  23  41  70 104 134 160 200 257 305
#     4  12  26  41  55  76 110 144 181 225 274 328
#     4  12  23  40  58  81 106 142 179 224 275 319
#     4  10  17  32  52  77 106 134 172 219 258 308
#     4  10  18  32  52  78 106 134 172 219 258 309
#
# _framework density 18.333801999999999
#
# number of rings (size 3 to 8) (size 9 to 14) (size 15 to 20)
#    0.000    1.500    2.500    4.500    0.000    0.000 
#    0.000    0.000    0.000    0.000    0.000    1.750 
#    0.000    0.000    0.000    0.000    0.000    0.000 
#
# Total GULP energy -89246.736081 kJ/mol
# GULP energy per Si atom -5577.921005 kJ/mol
# Density = 1.829207 g / cm^3
# Si number density = 18.333802 Si / 1000 Ang^3
#
#
#
# Elastic Constant Matrix: (Units=GPa)
#
#
# Indices 1 2 3 4 5 6 
#
# 1 15.5174 -3.0240 -12.8510 0.0000 -0.1920 0.0000
# 2 -3.0240 193.3418 -11.1887 0.0000 -6.5637 0.0000
# 3 -12.8510 -11.1887 85.7257 0.0000 -5.9963 0.0000
# 4 0.0000 0.0000 0.0000 26.8561 0.0000 -0.3080
# 5 -0.1920 -6.5637 -5.9963 0.0000 21.7784 0.0000
# 6 0.0000 0.0000 0.0000 -0.3080 0.0000 8.8880
#
#
#
# Elastic Compliance Matrix: (Units=1/GPa)
#
#
# Indices 1 2 3 4 5 6 
#
# 1 0.074632 0.002001 0.011764 0.000000 0.004500 0.000000
# 2 0.002001 0.005335 0.001132 0.000000 0.001937 0.000000
# 3 0.011764 0.001132 0.013875 0.000000 0.004265 0.000000
# 4 0.000000 0.000000 0.000000 0.037250 0.000000 0.001291
# 5 0.004500 0.001937 0.004265 0.000000 0.047715 0.000000
# 6 0.000000 0.000000 0.000000 0.001291 0.000000 0.112556
#
#
# Mechanical properties :
#
#
# Convention : Reuss Voigt Hill
#
# Bulk Modulus (GPa) = 8.08838 26.71749 17.40293
# Shear Modulus (GPa) = 16.51361 32.94775 24.73068
#
# Velocity S-wave (km/s) = 3.00445 4.24383 3.67674
# Velocity P-wave (km/s) = 4.05672 6.21433 5.24761
#
# Compressibility (1/GPa) = 0.12363411
#
# Stress axis : x y z
#
# Youngs Moduli (GPa) = 13.39911 187.45071 72.07385
#
# Poissons Ratio (x) = -0.37506 -0.84787
# Poissons Ratio (y) = -0.02681 -0.08157
# Poissons Ratio (z) = -0.15763 -0.21214
#
# Static dielectric constant tensor:
#      x y z
#    x 1.595600 0.000000 -0.010540 
#    y 0.000000 1.712580 0.000000 
#    z -0.010540 0.000000 1.619970 
# 
# From -- ./inp_files/2267.got.cif
#   From: 2010.05.17/outbox.cif.g08.bks.cpg/sg6_2_cif.got.tgz:2267.got - 2010.06.03 19:42:10.
