data_PCOD9130648
_publ_section_title
;
Structure prediction by ZEFSAII (Michael W. Deem and Ramdas Pophale) SiO2 
 PCOD9130648
Probable space group: C 2
;
_chemical_formula_sum "Si O2"
_cell_formula_units_Z 14
_cell_length_a 18.391853
_cell_length_b 4.921240
_cell_length_c 8.472347
_cell_angle_alpha 90.000000
_cell_angle_beta 45.690813
_cell_angle_gamma 90.000000
_cell_volume 548.734681
_symmetry_space_group_name_H-M "C 2"
_symmetry_group_IT_number 5
_symmetry_cell_setting 'monoclinic'
loop_
_space_group_symop_operation_xyz
x,y,z
-x,y,-z
1/2+x,1/2+y,z
1/2-x,1/2+y,-z
loop_
_atom_site_type_symbol
_atom_site_label
_atom_site_fract_x
_atom_site_fract_y
_atom_site_fract_z
Si Si1 0.000000 0.358270 0.500000
Si Si2 0.578560 0.567821 0.092212
Si Si3 0.619763 0.254180 0.554353
Si Si4 0.685576 0.064911 0.786933
O O1 0.929468 0.169104 0.715526
O O2 0.933885 0.549069 0.484954
O O3 0.468319 0.436193 0.233301
O O4 0.659525 0.337755 0.922363
O O5 0.604031 0.837926 0.958643
O O6 0.674804 0.108083 0.616324
O O7 0.704255 0.442303 0.346704
#
# Coordination Sequence:
#
# PCOD9130648 Si02
#       4
#     2   4   4   4
#     4  12  30  58  84 126 184 208 282 358 430 480
#     4  12  29  55  83 128 165 228 270 360 409 505
#     4  12  30  57  84 129 167 220 288 350 407 519
#     4  12  30  51  94 117 169 224 292 329 432 491
#
# _framework density 25.513241000000001
#
# number of rings (size 3 to 8) (size 9 to 14) (size 15 to 20)
#    0.000    0.000    2.857    3.429   16.000    0.000 
#   10.286    0.000    0.000    0.000    0.000    0.000 
#    0.000    0.000    0.000    0.000    0.000    0.000 
#
# Total GULP energy -39318.888615 kJ/mol
# GULP energy per Si atom -5616.984088 kJ/mol
# Density = 2.545517 g / cm^3
# Si number density = 25.513241 Si / 1000 Ang^3
#
#
#
# Elastic Constant Matrix: (Units=GPa)
#
#
# Indices 1 2 3 4 5 6 
#
# 1 140.8925 70.4022 59.7721 0.0001 10.8454 0.0003
# 2 70.4022 172.0793 64.1405 0.0001 22.2299 0.0009
# 3 59.7721 64.1405 124.6240 0.0003 9.1325 -0.0003
# 4 0.0001 0.0001 0.0003 37.6574 -0.0001 22.4859
# 5 10.8454 22.2299 9.1325 -0.0001 29.5032 0.0002
# 6 0.0003 0.0009 -0.0003 22.4859 0.0002 35.5860
#
#
#
# Elastic Compliance Matrix: (Units=1/GPa)
#
#
# Indices 1 2 3 4 5 6 
#
# 1 0.009916 -0.002758 -0.003297 0.000000 -0.000547 0.000000
# 2 -0.002758 0.008554 -0.002744 0.000000 -0.004582 0.000000
# 3 -0.003297 -0.002744 0.011028 0.000000 -0.000134 0.000000
# 4 0.000000 0.000000 0.000000 0.042645 0.000000 -0.026946
# 5 -0.000547 -0.004582 -0.000134 0.000000 0.037590 0.000000
# 6 0.000000 0.000000 0.000000 -0.026946 0.000000 0.045128
#
#
# Mechanical properties :
#
#
# Convention : Reuss Voigt Hill
#
# Bulk Modulus (GPa) = 84.02661 91.80280 87.91470
# Shear Modulus (GPa) = 28.34066 36.76806 32.55436
#
# Velocity S-wave (km/s) = 3.33652 3.80035 3.57596
# Velocity P-wave (km/s) = 6.91731 7.43757 7.18215
#
# Compressibility (1/GPa) = 0.01190099
#
# Stress axis : x y z
#
# Youngs Moduli (GPa) = 100.84509 116.90010 90.68209
#
# Poissons Ratio (x) = 0.32235 0.29895
# Poissons Ratio (y) = 0.27808 0.24886
# Poissons Ratio (z) = 0.33246 0.32081
#
# Static dielectric constant tensor:
#      x y z
#    x 1.973210 0.000000 0.006960 
#    y 0.000000 1.999670 0.000000 
#    z 0.006960 0.000000 1.982180 
# 
# From -- ./inp_files/28120.got.cif
#   From: 2010.05.17/outbox.cif.g08.bks.cpg/sg5_15_cif.got.tgz:28120.got - 2010.06.03 18:56:24.
