data_PCOD9130932
_publ_section_title
;
Structure prediction by ZEFSAII (Michael W. Deem and Ramdas Pophale) SiO2 
 PCOD9130932
Probable space group: P M
;
_chemical_formula_sum "Si O2"
_cell_formula_units_Z 16
_cell_length_a 9.562722
_cell_length_b 11.538749
_cell_length_c 11.983009
_cell_angle_alpha 90.000000
_cell_angle_beta 142.286998
_cell_angle_gamma 90.000000
_cell_volume 808.815175
_symmetry_space_group_name_H-M "P M"
_symmetry_group_IT_number 6
_symmetry_cell_setting 'monoclinic'
loop_
_space_group_symop_operation_xyz
x,y,z
x,-y,z
loop_
_atom_site_type_symbol
_atom_site_label
_atom_site_fract_x
_atom_site_fract_y
_atom_site_fract_z
Si Si1 0.599590 0.727530 0.009900
Si Si2 0.228429 0.135971 0.448603
Si Si3 0.447023 0.871802 0.120591
Si Si4 0.461223 0.132683 0.371314
Si Si5 0.730903 0.134260 0.875960
Si Si6 0.983525 0.370517 0.379229
Si Si7 0.093778 0.633371 0.694840
Si Si8 0.939212 0.191007 0.779707
O O1 0.571368 0.810725 0.098342
O O2 0.761970 0.628588 0.160721
O O3 0.714293 0.795627 0.980116
O O4 0.342750 0.685976 0.821433
O O5 0.288401 0.170726 0.358585
O O6 0.472118 0.129493 0.665369
O O7 0.101994 0.248125 0.419486
O O8 0.138571 0.000000 0.395884
O O9 0.462190 0.810106 0.250549
O O10 0.546551 0.000000 0.192886
O O11 0.178179 0.875725 0.922339
O O12 0.715446 0.134981 0.582816
O O13 0.393017 0.000000 0.307851
O O14 0.878800 0.196444 0.872815
O O15 0.807229 0.000000 0.937494
O O16 0.097751 0.500000 0.439209
O O17 0.944816 0.358147 0.487884
O O18 0.126618 0.500000 0.743079
O O19 0.987434 0.696329 0.734938
#
# Coordination Sequence:
#
# PCOD9130932 Si02
#       8
#     2   2   2   2   2   2   2   2
#     4  11  22  37  60  86 120 158 201 247 296 362
#     4   9  19  37  60  88 121 160 200 248 305 361
#     4  10  20  33  54  86 117 154 195 240 296 355
#     4   9  18  34  55  81 118 152 190 240 296 353
#     4  10  20  37  60  91 127 160 196 248 308 364
#     4  11  23  40  62  88 118 161 207 250 304 363
#     4  10  22  42  61  82 115 157 203 258 303 354
#     4  10  20  36  58  82 113 152 197 241 299 360
#
# _framework density 19.782022999999999
#
# number of rings (size 3 to 8) (size 9 to 14) (size 15 to 20)
#    0.000    2.000    1.250    3.375    1.750    1.000 
#    0.000    5.000    0.000    0.750    0.000    0.000 
#    0.000    0.000    0.000    0.000    0.000    0.000 
#
# Total GULP energy -89094.566636 kJ/mol
# GULP energy per Si atom -5568.410415 kJ/mol
# Density = 1.973700 g / cm^3
# Si number density = 19.782023 Si / 1000 Ang^3
#
#
#
# Elastic Constant Matrix: (Units=GPa)
#
#
# Indices 1 2 3 4 5 6 
#
# 1 142.3237 82.1902 29.1316 0.0000 -27.3309 0.0000
# 2 82.1902 113.8123 18.6365 0.0000 -15.7158 0.0000
# 3 29.1316 18.6365 60.2869 0.0000 -15.0220 0.0000
# 4 0.0000 0.0000 0.0000 27.5680 0.0000 -9.5885
# 5 -27.3309 -15.7158 -15.0220 0.0000 38.6287 0.0000
# 6 0.0000 0.0000 0.0000 -9.5885 0.0000 23.0077
#
#
#
# Elastic Compliance Matrix: (Units=1/GPa)
#
#
# Indices 1 2 3 4 5 6 
#
# 1 0.013515 -0.008638 -0.002606 0.000000 0.005034 0.000000
# 2 -0.008638 0.015087 -0.000535 0.000000 -0.000182 0.000000
# 3 -0.002606 -0.000535 0.019376 0.000000 0.005473 0.000000
# 4 0.000000 0.000000 0.000000 0.042423 0.000000 0.017680
# 5 0.005034 -0.000182 0.005473 0.000000 0.031504 0.000000
# 6 0.000000 0.000000 0.000000 0.017680 0.000000 0.050832
#
#
# Mechanical properties :
#
#
# Convention : Reuss Voigt Hill
#
# Bulk Modulus (GPa) = 40.95053 64.03772 52.49413
# Shear Modulus (GPa) = 24.45780 30.27185 27.36483
#
# Velocity S-wave (km/s) = 3.52001 3.91611 3.72333
# Velocity P-wave (km/s) = 6.10463 7.27254 6.71403
#
# Compressibility (1/GPa) = 0.02441971
#
# Stress axis : x y z
#
# Youngs Moduli (GPa) = 73.99411 66.28330 51.61076
#
# Poissons Ratio (x) = 0.57254 0.13449
# Poissons Ratio (y) = 0.63914 0.02762
# Poissons Ratio (z) = 0.19282 0.03547
#
# Static dielectric constant tensor:
#      x y z
#    x 1.712240 0.000000 0.000690 
#    y 0.000000 1.692460 0.000000 
#    z 0.000690 0.000000 1.758610 
# 
# From -- ./inp_files/3996.got.cif
#   From: 2010.05.17/outbox.cif.g08.bks.cpg/sg6_2_cif.got.tgz:3996.got - 2010.06.03 19:42:10.
