data_PCOD9130219
_publ_section_title
;
Structure prediction by ZEFSAII (Michael W. Deem and Ramdas Pophale) SiO2 
 PCOD9130219
Probable space group: C 2
;
_chemical_formula_sum "Si O2"
_cell_formula_units_Z 18
_cell_length_a 13.453075
_cell_length_b 11.357398
_cell_length_c 8.927928
_cell_angle_alpha 90.000000
_cell_angle_beta 29.756382
_cell_angle_gamma 90.000000
_cell_volume 677.028451
_symmetry_space_group_name_H-M "C 2"
_symmetry_group_IT_number 5
_symmetry_cell_setting 'monoclinic'
loop_
_space_group_symop_operation_xyz
x,y,z
-x,y,-z
1/2+x,1/2+y,z
1/2-x,1/2+y,-z
loop_
_atom_site_type_symbol
_atom_site_label
_atom_site_fract_x
_atom_site_fract_y
_atom_site_fract_z
Si Si1 0.276760 0.788290 0.720812
Si Si2 0.198732 0.307770 0.664445
Si Si3 0.751384 0.033493 0.734996
Si Si4 0.181690 0.004860 0.039137
Si Si5 0.000000 0.691533 0.500000
O O1 0.500000 0.793496 0.500000
O O2 0.283865 0.787071 0.532869
O O3 0.177276 0.661215 0.880780
O O4 0.168174 0.900872 0.935883
O O5 0.172531 0.449156 0.710190
O O6 0.389803 0.267232 0.514036
O O7 0.000000 0.252713 0.000000
O O8 0.262712 0.957437 0.093314
O O9 0.026978 0.055361 0.625235
O O10 0.327064 0.105062 0.787555
#
# Coordination Sequence:
#
# PCOD9130219 Si02
#       5
#     4   4   4   4   2
#     4  12  26  50  81 121 163 220 276 342 415 499
#     4  12  30  52  83 120 171 221 282 347 422 497
#     4  11  27  49  81 120 170 215 273 348 415 496
#     4  11  25  49  84 119 163 215 280 338 420 492
#     4  12  28  52  88 120 164 228 280 346 418 504
#
# _framework density 26.586770999999999
#
# number of rings (size 3 to 8) (size 9 to 14) (size 15 to 20)
#    0.000    0.444    3.333    4.000    9.333    0.889 
#    0.000    0.000    0.000    0.000    0.000    0.000 
#    0.000    0.000    0.000    0.000    0.000    0.000 
#
# Total GULP energy -50350.939317 kJ/mol
# GULP energy per Si atom -5594.548813 kJ/mol
# Density = 2.652626 g / cm^3
# Si number density = 26.586771 Si / 1000 Ang^3
#
#
#
# Elastic Constant Matrix: (Units=GPa)
#
#
# Indices 1 2 3 4 5 6 
#
# 1 174.0785 49.4673 70.8583 -0.0006 20.0311 0.0002
# 2 49.4673 145.9867 55.1703 -0.0006 28.8318 0.0003
# 3 70.8583 55.1703 157.3341 -0.0012 29.0968 0.0009
# 4 -0.0006 -0.0006 -0.0012 46.4619 0.0007 11.5952
# 5 20.0311 28.8318 29.0968 0.0007 64.2641 -0.0004
# 6 0.0002 0.0003 0.0009 11.5952 -0.0004 39.3693
#
#
#
# Elastic Compliance Matrix: (Units=1/GPa)
#
#
# Indices 1 2 3 4 5 6 
#
# 1 0.007289 -0.001354 -0.002729 0.000000 -0.000429 0.000000
# 2 -0.001354 0.008533 -0.001913 0.000000 -0.002540 0.000000
# 3 -0.002729 -0.001913 0.008665 0.000000 -0.002215 0.000000
# 4 0.000000 0.000000 0.000000 0.023231 0.000000 -0.006842
# 5 -0.000429 -0.002540 -0.002215 0.000000 0.017837 0.000000
# 6 0.000000 0.000000 0.000000 -0.006842 0.000000 0.027416
#
#
# Mechanical properties :
#
#
# Convention : Reuss Voigt Hill
#
# Bulk Modulus (GPa) = 80.01951 92.04345 86.03148
# Shear Modulus (GPa) = 45.81800 50.14596 47.98198
#
# Velocity S-wave (km/s) = 4.15581 4.34767 4.25282
# Velocity P-wave (km/s) = 7.29319 7.73939 7.51960
#
# Compressibility (1/GPa) = 0.01249695
#
# Stress axis : x y z
#
# Youngs Moduli (GPa) = 137.18517 117.18842 115.40561
#
# Poissons Ratio (x) = 0.15867 0.31491
# Poissons Ratio (y) = 0.18575 0.22073
# Poissons Ratio (z) = 0.37435 0.22414
#
# Static dielectric constant tensor:
#      x y z
#    x 2.263180 0.000000 -0.191230 
#    y 0.000000 2.023830 0.000000 
#    z -0.191230 0.000000 2.218130 
# 
# From -- ./inp_files/18647.got.cif
#   From: 2010.05.17/outbox.cif.g08.bks.cpg/sg5_10_cif.got.tgz:18647.got - 2010.06.03 18:56:24.
