data_PCOD9130535
_publ_section_title
;
Structure prediction by ZEFSAII (Michael W. Deem and Ramdas Pophale) SiO2 
 PCOD9130535
Probable space group: C 2
;
_chemical_formula_sum "Si O2"
_cell_formula_units_Z 28
_cell_length_a 20.713428
_cell_length_b 5.410478
_cell_length_c 11.629951
_cell_angle_alpha 90.000000
_cell_angle_beta 62.907426
_cell_angle_gamma 90.000000
_cell_volume 1160.347673
_symmetry_space_group_name_H-M "C 2"
_symmetry_group_IT_number 5
_symmetry_cell_setting 'monoclinic'
loop_
_space_group_symop_operation_xyz
x,y,z
-x,y,-z
1/2+x,1/2+y,z
1/2-x,1/2+y,-z
loop_
_atom_site_type_symbol
_atom_site_label
_atom_site_fract_x
_atom_site_fract_y
_atom_site_fract_z
Si Si1 0.361958 0.496320 0.159096
Si Si2 0.000000 0.060272 0.500000
Si Si3 0.088235 0.696962 0.274375
Si Si4 0.403360 0.934768 0.507313
Si Si5 0.757179 0.504475 0.928961
Si Si6 0.462088 0.138405 0.225693
Si Si7 0.000000 0.260178 0.000000
Si Si8 0.749589 0.616507 0.569863
O O1 0.299614 0.416479 0.121903
O O2 0.406119 0.300334 0.199111
O O3 0.317332 0.656742 0.289161
O O4 0.426400 0.616256 0.034272
O O5 0.943319 0.178017 0.453565
O O6 0.939682 0.922198 0.626333
O O7 0.068884 0.484317 0.384891
O O8 0.170561 0.637832 0.177668
O O9 0.042871 0.721503 0.194715
O O10 0.318340 0.990510 0.577581
O O11 0.428951 0.094067 0.378349
O O12 0.776865 0.244612 0.976480
O O13 0.477414 0.908872 0.131091
O O14 0.768360 0.887823 0.503140
#
# Coordination Sequence:
#
# PCOD9130535 Si02
#       8
#     4   2   4   4   4   4   2   4
#     4  12  29  50  81 117 161 222 275 350 419 502
#     4  12  26  44  84 120 158 216 272 348 428 486
#     4  12  27  49  80 116 165 211 280 343 419 495
#     4  12  25  48  78 119 162 210 271 347 419 496
#     4  12  32  55  83 119 167 223 285 347 416 500
#     4  12  26  50  74 116 163 211 277 339 420 499
#     4  12  30  48  80 110 164 220 284 340 416 506
#     4  12  28  48  79 119 161 208 267 346 417 497
#
# _framework density 24.130700999999998
#
# number of rings (size 3 to 8) (size 9 to 14) (size 15 to 20)
#    0.000    0.000    5.714    2.143   14.000    0.000 
#    0.000    0.000    0.000    0.000    0.000    0.000 
#    0.000    0.000    0.000    0.000    0.000    0.000 
#
# Total GULP energy -78000.543471 kJ/mol
# GULP energy per Si atom -5571.467391 kJ/mol
# Density = 2.407578 g / cm^3
# Si number density = 24.130701 Si / 1000 Ang^3
#
#
#
# Elastic Constant Matrix: (Units=GPa)
#
#
# Indices 1 2 3 4 5 6 
#
# 1 170.0779 18.4969 41.2058 0.0000 3.8344 0.0000
# 2 18.4969 44.3343 3.1893 0.0000 20.0971 0.0001
# 3 41.2058 3.1893 77.5153 -0.0001 -12.0245 0.0000
# 4 0.0000 0.0000 -0.0001 56.8859 0.0000 10.3210
# 5 3.8344 20.0971 -12.0245 0.0000 40.3337 0.0000
# 6 0.0000 0.0001 0.0000 10.3210 0.0000 15.6237
#
#
#
# Elastic Compliance Matrix: (Units=1/GPa)
#
#
# Indices 1 2 3 4 5 6 
#
# 1 0.007063 -0.002411 -0.003746 0.000000 -0.000587 0.000000
# 2 -0.002411 0.030961 -0.002464 0.000000 -0.015932 0.000000
# 3 -0.003746 -0.002464 0.015978 0.000000 0.006347 0.000000
# 4 0.000000 0.000000 0.000000 0.019973 0.000000 -0.013194
# 5 -0.000587 -0.015932 0.006347 0.000000 0.034680 0.000000
# 6 0.000000 0.000000 0.000000 -0.013194 0.000000 0.072721
#
#
# Mechanical properties :
#
#
# Convention : Reuss Voigt Hill
#
# Bulk Modulus (GPa) = 27.20341 46.41238 36.80789
# Shear Modulus (GPa) = 23.71111 37.83769 30.77440
#
# Velocity S-wave (km/s) = 3.13806 3.96413 3.57504
# Velocity P-wave (km/s) = 4.94245 6.34255 5.68576
#
# Compressibility (1/GPa) = 0.03676009
#
# Stress axis : x y z
#
# Youngs Moduli (GPa) = 141.58804 32.29833 62.58571
#
# Poissons Ratio (x) = 0.07788 0.23446
# Poissons Ratio (y) = 0.34139 0.15419
# Poissons Ratio (z) = 0.53043 0.07957
#
# Static dielectric constant tensor:
#      x y z
#    x 1.943130 0.000000 -0.031690 
#    y 0.000000 2.100590 0.000000 
#    z -0.031690 0.000000 1.915370 
# 
# From -- ./inp_files/45608.got.cif
#   From: 2010.05.17/outbox.cif.g08.bks.cpg/sg5_23_cif.got.tgz:45608.got - 2010.06.03 18:56:24.
