data_PCOD9130443
_publ_section_title
;
Structure prediction by ZEFSAII (Michael W. Deem and Ramdas Pophale) SiO2 
 PCOD9130443
Probable space group: C 2
;
_chemical_formula_sum "Si O2"
_cell_formula_units_Z 28
_cell_length_a 9.125602
_cell_length_b 5.114624
_cell_length_c 25.911649
_cell_angle_alpha 90.000000
_cell_angle_beta 100.374874
_cell_angle_gamma 90.000000
_cell_volume 1189.627849
_symmetry_space_group_name_H-M "C 2"
_symmetry_group_IT_number 5
_symmetry_cell_setting 'monoclinic'
loop_
_space_group_symop_operation_xyz
x,y,z
-x,y,-z
1/2+x,1/2+y,z
1/2-x,1/2+y,-z
loop_
_atom_site_type_symbol
_atom_site_label
_atom_site_fract_x
_atom_site_fract_y
_atom_site_fract_z
Si Si1 0.789885 0.743530 0.159051
Si Si2 0.517979 0.741182 0.801237
Si Si3 0.227200 0.344797 0.639492
Si Si4 0.417641 0.978207 0.044567
Si Si5 0.915319 0.347214 0.678840
Si Si6 0.823879 0.155796 0.480367
Si Si7 0.775773 0.569244 0.936679
O O1 0.627345 0.696834 0.172493
O O2 0.899052 0.511016 0.180390
O O3 0.863570 0.007236 0.185872
O O4 0.768965 0.806832 0.096304
O O5 0.458618 0.762902 0.739207
O O6 0.315904 0.616425 0.648253
O O7 0.205524 0.250377 0.579605
O O8 0.067318 0.378764 0.656291
O O9 0.322830 0.116611 0.673069
O O10 0.559553 0.138352 0.073911
O O11 0.353665 0.775039 0.080180
O O12 0.500000 0.828575 0.000000
O O13 0.300857 0.117773 0.999732
O O14 0.740041 0.885398 0.487224
O O15 0.000000 0.121138 0.500000
#
# Coordination Sequence:
#
# PCOD9130443 Si02
#       7
#     4   4   4   4   4   4   4
#     4  12  25  44  70  98 134 171 219 266 347 389
#     4  12  26  46  69 100 132 174 215 286 328 393
#     4  12  24  43  70  99 132 183 220 273 326 392
#     4   8  20  37  57  85 121 162 207 253 313 364
#     4  12  25  45  69  98 133 171 233 271 331 390
#     4  12  25  43  66  99 142 176 222 272 328 388
#     4   9  20  40  59  92 123 167 208 262 312 400
#
# _framework density 23.536774000000001
#
# number of rings (size 3 to 8) (size 9 to 14) (size 15 to 20)
#    0.857    0.000    0.000    8.143    0.000    3.429 
#    5.143    0.000    0.000    0.000    0.000    0.000 
#    0.000    0.000    0.000    0.000    0.000    0.000 
#
# Total GULP energy -78287.125779 kJ/mol
# GULP energy per Si atom -5591.937556 kJ/mol
# Density = 2.348320 g / cm^3
# Si number density = 23.536774 Si / 1000 Ang^3
#
#
#
# Elastic Constant Matrix: (Units=GPa)
#
#
# Indices 1 2 3 4 5 6 
#
# 1 143.1132 26.8105 -7.2351 0.0000 2.6703 0.0000
# 2 26.8105 81.6913 -31.5961 0.0000 5.3895 0.0000
# 3 -7.2351 -31.5961 83.4152 0.0000 7.5136 0.0000
# 4 0.0000 0.0000 0.0000 34.8248 0.0000 5.9299
# 5 2.6703 5.3895 7.5136 0.0000 25.9249 0.0000
# 6 0.0000 0.0000 0.0000 5.9299 0.0000 5.1475
#
#
#
# Elastic Compliance Matrix: (Units=1/GPa)
#
#
# Indices 1 2 3 4 5 6 
#
# 1 0.007453 -0.002556 -0.000308 0.000000 -0.000147 0.000000
# 2 -0.002556 0.015793 0.006194 0.000000 -0.004815 0.000000
# 3 -0.000308 0.006194 0.014807 0.000000 -0.005548 0.000000
# 4 0.000000 0.000000 0.000000 0.035723 0.000000 -0.041152
# 5 -0.000147 -0.004815 -0.005548 0.000000 0.041197 0.000000
# 6 0.000000 0.000000 0.000000 -0.041152 0.000000 0.241675
#
#
# Mechanical properties :
#
#
# Convention : Reuss Voigt Hill
#
# Bulk Modulus (GPa) = 22.36391 31.57538 26.96965
# Shear Modulus (GPa) = 13.70264 34.52879 24.11572
#
# Velocity S-wave (km/s) = 2.41546 3.83432 3.20441
# Velocity P-wave (km/s) = 4.15952 5.74866 5.01740
#
# Compressibility (1/GPa) = 0.04471489
#
# Stress axis : x y z
#
# Youngs Moduli (GPa) = 134.16675 63.31739 67.53350
#
# Poissons Ratio (x) = 0.16182 0.02082
# Poissons Ratio (y) = 0.34289 -0.41832
# Poissons Ratio (z) = 0.04137 -0.39221
#
# Static dielectric constant tensor:
#      x y z
#    x 2.053290 0.000000 -0.000350 
#    y 0.000000 1.919140 0.000000 
#    z -0.000350 0.000000 1.913010 
# 
# From -- ./inp_files/70081.got.cif
#   From: 2010.05.17/outbox.cif.g08.bks.cpg/sg5_36_cif.got.tgz:70081.got - 2010.06.03 18:56:24.
