data_PCOD9130348
_publ_section_title
;
Structure prediction by ZEFSAII (Michael W. Deem and Ramdas Pophale) SiO2 
 PCOD9130348
Probable space group: C 2
;
_chemical_formula_sum "Si O2"
_cell_formula_units_Z 24
_cell_length_a 16.248043
_cell_length_b 17.521367
_cell_length_c 9.515884
_cell_angle_alpha 90.000000
_cell_angle_beta 27.491429
_cell_angle_gamma 90.000000
_cell_volume 1250.543957
_symmetry_space_group_name_H-M "C 2"
_symmetry_group_IT_number 5
_symmetry_cell_setting 'monoclinic'
loop_
_space_group_symop_operation_xyz
x,y,z
-x,y,-z
1/2+x,1/2+y,z
1/2-x,1/2+y,-z
loop_
_atom_site_type_symbol
_atom_site_label
_atom_site_fract_x
_atom_site_fract_y
_atom_site_fract_z
Si Si1 0.701892 0.484070 0.658920
Si Si2 0.205250 0.577256 0.216873
Si Si3 0.491845 0.861305 0.843057
Si Si4 0.797900 0.587376 0.261296
Si Si5 0.004874 0.201745 0.322841
Si Si6 0.709893 0.478535 0.157814
O O1 0.760476 0.552192 0.675202
O O2 0.715054 0.521648 0.485438
O O3 0.839817 0.414190 0.455553
O O4 0.500000 0.461789 0.000000
O O5 0.000000 0.597773 0.500000
O O6 0.338079 0.643762 0.963782
O O7 0.249138 0.499406 0.064457
O O8 0.484334 0.781839 0.772727
O O9 0.500000 0.852182 0.000000
O O10 0.318640 0.908670 0.056459
O O11 0.677582 0.661454 0.449186
O O12 0.782651 0.552921 0.129392
O O13 0.000000 0.599241 0.000000
O O14 0.000000 0.209309 0.500000
O O15 0.500000 0.471645 0.500000
#
# Coordination Sequence:
#
# PCOD9130348 Si02
#       6
#     4   4   4   4   4   4
#     4  12  23  40  72 104 129 171 231 275 327 402
#     4  12  23  40  72 104 129 171 231 275 327 402
#     4  12  28  47  66 101 143 176 220 285 343 393
#     4  12  21  44  72  98 129 180 229 276 326 398
#     4  12  28  47  66 101 143 176 220 285 343 393
#     4  12  21  44  72  98 129 180 229 276 326 398
#
# _framework density 19.191649000000002
#
# number of rings (size 3 to 8) (size 9 to 14) (size 15 to 20)
#    0.000    0.000   10.000    0.000    4.667    1.333 
#    0.000    3.333    0.000    0.000    0.000    0.000 
#    0.000    0.000    0.000    0.000    0.000    0.000 
#
# Total GULP energy -67089.565477 kJ/mol
# GULP energy per Si atom -5590.797123 kJ/mol
# Density = 1.914797 g / cm^3
# Si number density = 19.191649 Si / 1000 Ang^3
#
#
#
# Elastic Constant Matrix: (Units=GPa)
#
#
# Indices 1 2 3 4 5 6 
#
# 1 69.7162 42.3541 46.4806 -0.0029 -15.3638 0.0037
# 2 42.3541 128.7785 51.7619 -0.0021 -11.5703 0.0018
# 3 46.4806 51.7619 137.2049 -0.0047 -32.9677 0.0037
# 4 -0.0029 -0.0021 -0.0047 30.3990 0.0030 4.7934
# 5 -15.3638 -11.5703 -32.9677 0.0030 46.9184 -0.0033
# 6 0.0037 0.0018 0.0037 4.7934 -0.0033 35.5789
#
#
#
# Elastic Compliance Matrix: (Units=1/GPa)
#
#
# Indices 1 2 3 4 5 6 
#
# 1 0.020904 -0.004768 -0.004717 0.000001 0.002355 -0.000001
# 2 -0.004768 0.010242 -0.002427 0.000000 -0.000741 0.000000
# 3 -0.004717 -0.002427 0.011173 0.000001 0.005708 0.000000
# 4 0.000001 0.000000 0.000001 0.033610 -0.000002 -0.004528
# 5 0.002355 -0.000741 0.005708 -0.000002 0.025913 0.000002
# 6 -0.000001 0.000000 0.000000 -0.004528 0.000002 0.028717
#
#
# Mechanical properties :
#
#
# Convention : Reuss Voigt Hill
#
# Bulk Modulus (GPa) = 54.06374 68.54364 61.30369
# Shear Modulus (GPa) = 31.14330 35.58612 33.36471
#
# Velocity S-wave (km/s) = 4.03271 4.31077 4.17406
# Velocity P-wave (km/s) = 7.06507 7.78267 7.43254
#
# Compressibility (1/GPa) = 0.01849668
#
# Stress axis : x y z
#
# Youngs Moduli (GPa) = 47.83703 97.63532 89.49766
#
# Poissons Ratio (x) = 0.46549 0.42218
# Poissons Ratio (y) = 0.22807 0.21720
# Poissons Ratio (z) = 0.22566 0.23694
#
# Static dielectric constant tensor:
#      x y z
#    x 1.653300 0.000000 0.002480 
#    y 0.000000 1.628100 0.000000 
#    z 0.002480 0.000000 1.692800 
# 
# From -- ./inp_files/25138.got.cif
#   From: 2010.05.17/outbox.cif.g08.bks.cpg/sg5_13_cif.got.tgz:25138.got - 2010.06.03 18:56:24.
