data_PCOD9130800
_publ_section_title
;
Structure prediction by ZEFSAII (Michael W. Deem and Ramdas Pophale) SiO2 
 PCOD9130800
Probable space group: P M
;
_chemical_formula_sum "Si O2"
_cell_formula_units_Z 16
_cell_length_a 21.800342
_cell_length_b 8.567323
_cell_length_c 9.464140
_cell_angle_alpha 90.000000
_cell_angle_beta 29.711707
_cell_angle_gamma 90.000000
_cell_volume 876.097763
_symmetry_space_group_name_H-M "P M"
_symmetry_group_IT_number 6
_symmetry_cell_setting 'monoclinic'
loop_
_space_group_symop_operation_xyz
x,y,z
x,-y,z
loop_
_atom_site_type_symbol
_atom_site_label
_atom_site_fract_x
_atom_site_fract_y
_atom_site_fract_z
Si Si1 0.044640 0.812851 0.335000
Si Si2 0.308395 0.679955 0.795672
Si Si3 0.808356 0.190058 0.625421
Si Si4 0.039750 0.688423 0.663204
Si Si5 0.576399 0.688423 0.590311
Si Si6 0.308053 0.680735 0.140135
Si Si7 0.572105 0.812860 0.280478
Si Si8 0.808090 0.812366 0.300863
O O1 0.025221 0.744055 0.530612
O O2 0.932162 0.760606 0.460137
O O3 0.042953 0.000000 0.348513
O O4 0.179746 0.759878 0.010663
O O5 0.308530 0.500000 0.751168
O O6 0.437066 0.760060 0.496235
O O7 0.308206 0.682919 0.968185
O O8 0.808222 0.240199 0.463378
O O9 0.808349 0.000000 0.626207
O O10 0.684672 0.239389 0.955517
O O11 0.041654 0.500000 0.659529
O O12 0.174577 0.747934 0.447330
O O13 0.928655 0.750301 0.979312
O O14 0.574554 0.500000 0.594287
O O15 0.591212 0.743892 0.398996
O O16 0.687327 0.750464 0.462404
O O17 0.441451 0.747937 0.913745
O O18 0.308019 0.500000 0.186015
O O19 0.573881 0.000000 0.287213
O O20 0.808169 0.000000 0.296293
#
# Coordination Sequence:
#
# PCOD9130800 Si02
#       8
#     2   2   2   2   2   2   2   2
#     4  10  18  33  57  82 104 136 176 216 261 313
#     4   9  17  31  50  79 112 138 166 212 262 309
#     4   9  21  37  52  72 104 139 178 223 262 302
#     4  10  19  34  55  81 107 134 168 215 267 316
#     4  10  19  34  55  81 107 134 168 215 267 316
#     4   7  14  29  50  73 102 130 158 200 254 305
#     4  10  18  33  57  82 104 136 176 216 261 313
#     4  11  22  37  52  72 104 143 180 217 258 312
#
# _framework density 18.262802000000001
#
# number of rings (size 3 to 8) (size 9 to 14) (size 15 to 20)
#    0.000    2.500    0.000    4.500    0.000    1.000 
#    0.000   10.000    0.000    4.500    0.000    0.000 
#    0.000    0.000    0.000    0.000    0.000    0.000 
#
# Total GULP energy -89209.751573 kJ/mol
# GULP energy per Si atom -5575.609473 kJ/mol
# Density = 1.822124 g / cm^3
# Si number density = 18.262802 Si / 1000 Ang^3
#
#
#
# Elastic Constant Matrix: (Units=GPa)
#
#
# Indices 1 2 3 4 5 6 
#
# 1 97.2703 31.6258 127.0930 0.0000 -15.2477 0.0000
# 2 31.6258 63.1368 40.0122 0.0000 -7.9776 0.0000
# 3 127.0930 40.0122 164.0787 0.0000 -47.5608 0.0000
# 4 0.0000 0.0000 0.0000 16.0313 0.0000 -12.4196
# 5 -15.2477 -7.9776 -47.5608 0.0000 22.3508 0.0000
# 6 0.0000 0.0000 0.0000 -12.4196 0.0000 2.3823
#
#
#
# Elastic Compliance Matrix: (Units=1/GPa)
#
#
# Indices 1 2 3 4 5 6 
#
# 1 -0.017543 -0.002874 0.027462 0.000000 0.045443 0.000000
# 2 -0.002874 0.018816 -0.002567 0.000000 -0.000708 0.000000
# 3 0.027462 -0.002567 -0.024495 0.000000 -0.034305 0.000000
# 4 0.000000 0.000000 0.000000 -0.020527 0.000000 -0.107015
# 5 0.045443 -0.000708 -0.034305 0.000000 0.002492 0.000000
# 6 0.000000 0.000000 0.000000 -0.107015 0.000000 -0.138135
#
#
# Mechanical properties :
#
#
# Convention : Reuss Voigt Hill
#
# Bulk Modulus (GPa) = 48.03308 80.21643 64.12475
# Shear Modulus (GPa) = -23.09537 16.53653 -3.27942
#
# Velocity S-wave (km/s) = -3.56000 3.01238 -1.34148
# Velocity P-wave (km/s) = 3.07572 7.49119 5.72617
#
# Compressibility (1/GPa) = 0.02081898
#
# Stress axis : x y z
#
# Youngs Moduli (GPa) = -57.00238 53.14651 -40.82503
#
# Poissons Ratio (x) = 0.15276 1.12114
# Poissons Ratio (y) = -0.16384 -0.10481
# Poissons Ratio (z) = 1.56540 0.13644
#
# Static dielectric constant tensor:
#      x y z
#    x 1.607330 0.000000 -0.029170 
#    y 0.000000 1.623740 0.000000 
#    z -0.029170 0.000000 1.639360 
# 
# From -- ./inp_files/3609.got.cif
#   From: 2010.05.17/outbox.cif.g08.bks.cpg/sg6_2_cif.got.tgz:3609.got - 2010.06.03 19:42:10.
