data_PCOD9130137
_publ_section_title
;
Structure prediction by ZEFSAII (Michael W. Deem and Ramdas Pophale) SiO2 
 PCOD9130137
Probable space group: C 2
;
_chemical_formula_sum "Si O2"
_cell_formula_units_Z 30
_cell_length_a 20.329374
_cell_length_b 11.129523
_cell_length_c 11.277661
_cell_angle_alpha 90.000000
_cell_angle_beta 148.474319
_cell_angle_gamma 90.000000
_cell_volume 1334.203848
_symmetry_space_group_name_H-M "C 2"
_symmetry_group_IT_number 5
_symmetry_cell_setting 'monoclinic'
loop_
_space_group_symop_operation_xyz
x,y,z
-x,y,-z
1/2+x,1/2+y,z
1/2-x,1/2+y,-z
loop_
_atom_site_type_symbol
_atom_site_label
_atom_site_fract_x
_atom_site_fract_y
_atom_site_fract_z
Si Si1 0.589237 0.549900 0.752063
Si Si2 0.842375 0.138386 0.647191
Si Si3 0.489745 0.403076 0.818196
Si Si4 0.876527 0.677285 0.878312
Si Si5 0.443011 0.787347 0.134035
Si Si6 0.202463 0.760814 0.621754
Si Si7 0.368025 0.026476 0.104726
Si Si8 0.000000 0.686170 0.500000
O O1 0.500000 0.561732 0.500000
O O2 0.544914 0.452833 0.779960
O O3 0.589586 0.676215 0.826879
O O4 0.723067 0.504233 0.911914
O O5 0.744515 0.146891 0.387202
O O6 0.765319 0.147055 0.651556
O O7 0.940398 0.245994 0.767805
O O8 0.927657 0.020178 0.780305
O O9 0.369522 0.323224 0.596883
O O10 0.590241 0.317729 0.039616
O O11 0.869874 0.607639 0.990781
O O12 0.000000 0.632821 0.000000
O O13 0.455558 0.909598 0.226249
O O14 0.324193 0.819094 0.867987
O O15 0.100015 0.749809 0.567694
O O16 0.418710 0.105645 0.288663
#
# Coordination Sequence:
#
# PCOD9130137 Si02
#       8
#     4   4   4   4   4   4   4   2
#     4  11  25  45  69 105 146 195 249 301 384 457
#     4  11  26  50  74 115 144 192 258 310 373 452
#     4  11  26  46  78 105 150 201 240 314 376 456
#     4  12  25  50  75 110 147 198 253 306 377 452
#     4  11  26  45  71 107 145 192 245 317 377 441
#     4  12  24  49  73 102 151 188 251 303 374 462
#     4  12  26  44  73 102 148 189 244 310 370 456
#     4  12  26  44  68 110 140 192 240 294 368 458
#
# _framework density 22.485319
#
# number of rings (size 3 to 8) (size 9 to 14) (size 15 to 20)
#    0.000    0.533    4.000    3.600    5.600    6.400 
#    0.000    0.000    0.000    0.000    0.000    0.000 
#    0.000    0.000    0.000    0.000    0.000    0.000 
#
# Total GULP energy -83833.681792 kJ/mol
# GULP energy per Si atom -5588.912119 kJ/mol
# Density = 2.243414 g / cm^3
# Si number density = 22.485319 Si / 1000 Ang^3
#
#
#
# Elastic Constant Matrix: (Units=GPa)
#
#
# Indices 1 2 3 4 5 6 
#
# 1 137.0149 34.1130 19.3926 0.0000 9.4338 0.0000
# 2 34.1130 69.5335 8.7008 0.0000 8.6660 0.0000
# 3 19.3926 8.7008 115.7492 0.0000 -0.4107 0.0000
# 4 0.0000 0.0000 0.0000 4.1025 0.0000 10.2334
# 5 9.4338 8.6660 -0.4107 0.0000 41.7377 0.0000
# 6 0.0000 0.0000 0.0000 10.2334 0.0000 55.1230
#
#
#
# Elastic Compliance Matrix: (Units=1/GPa)
#
#
# Indices 1 2 3 4 5 6 
#
# 1 0.008505 -0.003890 -0.001137 0.000000 -0.001126 0.000000
# 2 -0.003890 0.016690 -0.000612 0.000000 -0.002592 0.000000
# 3 -0.001137 -0.000612 0.008877 0.000000 0.000471 0.000000
# 4 0.000000 0.000000 0.000000 0.453991 0.000000 -0.084282
# 5 -0.001126 -0.002592 0.000471 0.000000 0.024756 0.000000
# 6 0.000000 0.000000 0.000000 -0.084282 0.000000 0.033788
#
#
# Mechanical properties :
#
#
# Convention : Reuss Voigt Hill
#
# Bulk Modulus (GPa) = 43.86910 49.63447 46.75178
# Shear Modulus (GPa) = 8.84199 37.53205 23.18702
#
# Velocity S-wave (km/s) = 1.98516 4.08999 3.21473
# Velocity P-wave (km/s) = 4.98066 6.66529 5.88358
#
# Compressibility (1/GPa) = 0.02279509
#
# Stress axis : x y z
#
# Youngs Moduli (GPa) = 117.57211 59.91716 112.64482
#
# Poissons Ratio (x) = 0.23309 0.12803
# Poissons Ratio (y) = 0.45738 0.06894
# Poissons Ratio (z) = 0.13363 0.03667
#
# Static dielectric constant tensor:
#      x y z
#    x 1.872440 0.000000 0.037770 
#    y 0.000000 1.872140 0.000000 
#    z 0.037770 0.000000 1.724570 
# 
# From -- ./inp_files/46496.got.cif
#   From: 2010.05.17/outbox.cif.g08.bks.cpg/sg5_24_cif.got.tgz:46496.got - 2010.06.03 18:56:24.
