data_PCOD9130098
_publ_section_title
;
Structure prediction by ZEFSAII (Michael W. Deem and Ramdas Pophale) SiO2 
 PCOD9130098
Probable space group: C 2
;
_chemical_formula_sum "Si O2"
_cell_formula_units_Z 22
_cell_length_a 21.410428
_cell_length_b 5.266454
_cell_length_c 7.574887
_cell_angle_alpha 90.000000
_cell_angle_beta 101.180685
_cell_angle_gamma 90.000000
_cell_volume 837.911054
_symmetry_space_group_name_H-M "C 2"
_symmetry_group_IT_number 5
_symmetry_cell_setting 'monoclinic'
loop_
_space_group_symop_operation_xyz
x,y,z
-x,y,-z
1/2+x,1/2+y,z
1/2-x,1/2+y,-z
loop_
_atom_site_type_symbol
_atom_site_label
_atom_site_fract_x
_atom_site_fract_y
_atom_site_fract_z
Si Si1 0.240658 0.684680 0.589093
Si Si2 0.000000 0.479762 0.500000
Si Si3 0.446651 0.589214 0.714313
Si Si4 0.285960 0.934196 0.959183
Si Si5 0.607725 0.263271 0.634490
Si Si6 0.905852 0.150986 0.081790
O O1 0.270924 0.417509 0.552737
O O2 0.280916 0.836329 0.756216
O O3 0.171457 0.615400 0.625589
O O4 0.946461 0.326829 0.579146
O O5 0.956011 0.624143 0.336060
O O6 0.421267 0.377907 0.564713
O O7 0.520897 0.625285 0.813223
O O8 0.409742 0.572785 0.878010
O O9 0.243846 0.713649 0.034035
O O10 0.360195 0.898830 0.051989
O O11 0.626647 0.471873 0.789436
#
# Coordination Sequence:
#
# PCOD9130098 Si02
#       6
#     4   2   4   4   4   4
#     4  12  29  50  79 114 151 207 258 320 388 461
#     4  12  24  44  76 110 142 200 250 322 380 450
#     4  11  25  47  73 107 148 195 251 314 383 455
#     4  12  27  48  74 109 151 199 253 315 384 456
#     4  12  25  50  75 104 157 194 257 316 384 460
#     4  11  24  49  70 105 150 196 250 313 384 458
#
# _framework density 26.255769000000001
#
# number of rings (size 3 to 8) (size 9 to 14) (size 15 to 20)
#    0.000    0.364    5.455    2.182    7.636    0.000 
#    6.545    0.000    0.000    0.000    0.000    0.000 
#    0.000    0.000    0.000    0.000    0.000    0.000 
#
# Total GULP energy -61371.657573 kJ/mol
# GULP energy per Si atom -5579.241598 kJ/mol
# Density = 2.619601 g / cm^3
# Si number density = 26.255769 Si / 1000 Ang^3
#
#
#
# Elastic Constant Matrix: (Units=GPa)
#
#
# Indices 1 2 3 4 5 6 
#
# 1 89.3363 0.5070 31.1810 0.0000 25.4694 0.0000
# 2 0.5070 63.1621 22.1449 0.0000 -6.7004 0.0000
# 3 31.1810 22.1449 114.9826 0.0000 -6.2445 0.0000
# 4 0.0000 0.0000 0.0000 28.3900 0.0000 9.9116
# 5 25.4694 -6.7004 -6.2445 0.0000 53.1248 0.0000
# 6 0.0000 0.0000 0.0000 9.9116 0.0000 41.7767
#
#
#
# Elastic Compliance Matrix: (Units=1/GPa)
#
#
# Indices 1 2 3 4 5 6 
#
# 1 0.014974 0.000685 -0.004607 0.000000 -0.007634 0.000000
# 2 0.000685 0.017177 -0.003416 0.000000 0.001436 0.000000
# 3 -0.004607 -0.003416 0.010770 0.000000 0.003044 0.000000
# 4 0.000000 0.000000 0.000000 0.038405 0.000000 -0.009112
# 5 -0.007634 0.001436 0.003044 0.000000 0.023023 0.000000
# 6 0.000000 0.000000 0.000000 -0.009112 0.000000 0.026099
#
#
# Mechanical properties :
#
#
# Convention : Reuss Voigt Hill
#
# Bulk Modulus (GPa) = 35.40484 41.68297 38.54391
# Shear Modulus (GPa) = 32.35459 38.90149 35.62804
#
# Velocity S-wave (km/s) = 3.51420 3.85338 3.68769
# Velocity P-wave (km/s) = 5.47540 5.97564 5.73098
#
# Compressibility (1/GPa) = 0.02824472
#
# Stress axis : x y z
#
# Youngs Moduli (GPa) = 66.78092 58.21803 92.85406
#
# Poissons Ratio (x) = -0.03990 0.42781
# Poissons Ratio (y) = -0.04576 0.31719
# Poissons Ratio (z) = 0.30768 0.19887
#
# Static dielectric constant tensor:
#      x y z
#    x 2.035620 0.000000 -0.014630 
#    y 0.000000 2.192920 0.000000 
#    z -0.014630 0.000000 2.121510 
# 
# From -- ./inp_files/30190.got.cif
#   From: 2010.05.17/outbox.cif.g08.bks.cpg/sg5_16_cif.got.tgz:30190.got - 2010.06.03 18:56:24.
