data_PCOD9130347
_publ_section_title
;
Structure prediction by ZEFSAII (Michael W. Deem and Ramdas Pophale) SiO2 
 PCOD9130347
Probable space group: C 2
;
_chemical_formula_sum "Si O2"
_cell_formula_units_Z 26
_cell_length_a 6.352943
_cell_length_b 18.146803
_cell_length_c 11.904459
_cell_angle_alpha 90.000000
_cell_angle_beta 123.097408
_cell_angle_gamma 90.000000
_cell_volume 1149.729760
_symmetry_space_group_name_H-M "C 2"
_symmetry_group_IT_number 5
_symmetry_cell_setting 'monoclinic'
loop_
_space_group_symop_operation_xyz
x,y,z
-x,y,-z
1/2+x,1/2+y,z
1/2-x,1/2+y,-z
loop_
_atom_site_type_symbol
_atom_site_label
_atom_site_fract_x
_atom_site_fract_y
_atom_site_fract_z
Si Si1 0.500000 0.528570 0.000000
Si Si2 0.461486 0.839836 0.357468
Si Si3 0.000000 0.701344 0.000000
Si Si4 0.537665 0.422322 0.826757
Si Si5 0.922047 0.618421 0.186826
Si Si6 0.938170 0.238836 0.811156
Si Si7 0.740015 0.482493 0.647608
Si Si8 0.500000 0.852643 0.000000
O O1 0.415646 0.486721 0.864540
O O2 0.263941 0.579312 0.957099
O O3 0.500000 0.827672 0.500000
O O4 0.552947 0.770097 0.311589
O O5 0.170164 0.859615 0.249245
O O6 0.612604 0.913122 0.363369
O O7 0.274853 0.735913 0.056362
O O8 0.075591 0.666706 0.143032
O O9 0.643955 0.455981 0.742449
O O10 0.772414 0.402302 0.977078
O O11 0.741225 0.669581 0.212732
O O12 0.093824 0.556659 0.293879
O O13 0.853804 0.308366 0.861834
O O14 0.500000 0.497392 0.500000
#
# Coordination Sequence:
#
# PCOD9130347 Si02
#       8
#     2   4   2   4   4   4   4   2
#     4  12  21  43  70 111 143 180 232 302 376 432
#     4  12  26  48  78 102 144 199 252 304 356 438
#     4  12  22  46  74 104 152 192 224 302 384 448
#     4  12  24  42  76 112 142 188 250 304 370 438
#     4  12  25  44  73 110 150 190 237 302 378 445
#     4  12  25  44  73 110 150 190 237 302 378 445
#     4  12  26  48  78 102 144 199 252 304 356 438
#     4  12  21  43  70 111 143 180 232 302 376 432
#
# _framework density 22.614011000000001
#
# number of rings (size 3 to 8) (size 9 to 14) (size 15 to 20)
#    0.000    0.000    7.692    3.692    0.000    0.000 
#    0.000    0.769    6.769    0.000    0.000    0.000 
#    0.000    0.000    0.000    0.000    0.000    0.000 
#
# Total GULP energy -72514.232956 kJ/mol
# GULP energy per Si atom -5578.017920 kJ/mol
# Density = 2.256254 g / cm^3
# Si number density = 22.614011 Si / 1000 Ang^3
#
#
#
# Elastic Constant Matrix: (Units=GPa)
#
#
# Indices 1 2 3 4 5 6 
#
# 1 109.1966 47.4368 58.4831 0.0000 -7.4985 0.0000
# 2 47.4368 98.7818 57.8304 0.0000 -5.7017 0.0000
# 3 58.4831 57.8304 117.8919 0.0000 -9.3712 0.0000
# 4 0.0000 0.0000 0.0000 25.4240 0.0000 1.2718
# 5 -7.4985 -5.7017 -9.3712 0.0000 58.3388 0.0000
# 6 0.0000 0.0000 0.0000 1.2718 0.0000 33.6111
#
#
#
# Elastic Compliance Matrix: (Units=1/GPa)
#
#
# Indices 1 2 3 4 5 6 
#
# 1 0.013319 -0.003537 -0.004825 0.000000 0.000591 0.000000
# 2 -0.003537 0.015145 -0.005666 0.000000 0.000116 0.000000
# 3 -0.004825 -0.005666 0.013737 0.000000 0.001033 0.000000
# 4 0.000000 0.000000 0.000000 0.039408 0.000000 -0.001491
# 5 0.000591 0.000116 0.001033 0.000000 0.017394 0.000000
# 6 0.000000 0.000000 0.000000 -0.001491 0.000000 0.029808
#
#
# Mechanical properties :
#
#
# Convention : Reuss Voigt Hill
#
# Bulk Modulus (GPa) = 70.69087 72.59679 71.64383
# Shear Modulus (GPa) = 30.94375 34.28278 32.61326
#
# Velocity S-wave (km/s) = 3.70313 3.89781 3.80171
# Velocity P-wave (km/s) = 7.04357 7.24082 7.14287
#
# Compressibility (1/GPa) = 0.01414610
#
# Stress axis : x y z
#
# Youngs Moduli (GPa) = 75.07918 66.02672 72.79466
#
# Poissons Ratio (x) = 0.23355 0.35125
# Poissons Ratio (y) = 0.26557 0.41242
# Poissons Ratio (z) = 0.36228 0.37408
#
# Static dielectric constant tensor:
#      x y z
#    x 1.824040 0.000000 0.023210 
#    y 0.000000 1.853260 0.000000 
#    z 0.023210 0.000000 1.784240 
# 
# From -- ./inp_files/34027.got.cif
#   From: 2010.05.17/outbox.cif.g08.bks.cpg/sg5_18_cif.got.tgz:34027.got - 2010.06.03 18:56:24.
