data_PCOD9130729
_publ_section_title
;
Structure prediction by ZEFSAII (Michael W. Deem and Ramdas Pophale) SiO2 
 PCOD9130729
Probable space group: C 2
;
_chemical_formula_sum "Si O2"
_cell_formula_units_Z 16
_cell_length_a 12.000000
_cell_length_b 15.000000
_cell_length_c 18.000000
_cell_angle_alpha 90.000000
_cell_angle_beta 30.000000
_cell_angle_gamma 90.000000
_cell_volume 1620.000000
_symmetry_space_group_name_H-M "C 2"
_symmetry_group_IT_number 5
_symmetry_cell_setting 'monoclinic'
loop_
_space_group_symop_operation_xyz
x,y,z
-x,y,-z
1/2+x,1/2+y,z
1/2-x,1/2+y,-z
loop_
_atom_site_type_symbol
_atom_site_label
_atom_site_fract_x
_atom_site_fract_y
_atom_site_fract_z
Si Si1 0.975516 0.108970 0.783382
Si Si2 0.246786 0.642504 0.168424
Si Si3 0.534476 0.155705 0.129677
Si Si4 0.299412 0.015876 0.174723
Si Si5 0.824986 0.283574 0.365779
Si Si6 0.701826 0.316378 0.823830
Si Si7 0.837152 0.823450 0.699922
Si Si8 0.310044 0.997128 0.674250
O O1 0.886699 0.077075 0.755646
O O2 0.170600 0.179784 0.658850
O O3 0.080615 0.028399 0.768067
O O4 0.767884 0.150567 0.948777
O O5 0.101198 0.656482 0.177668
O O6 0.259939 0.737964 0.201679
O O7 0.149750 0.569847 0.282819
O O8 0.500000 0.615014 0.000000
O O9 0.397845 0.065619 0.189550
O O10 0.390390 0.236903 0.176953
O O11 0.209787 0.917260 0.235458
O O12 0.500000 0.014208 0.000000
O O13 0.603271 0.307356 0.539356
O O14 0.783110 0.330730 0.310950
O O15 0.064675 0.297326 0.266884
O O16 0.762031 0.402499 0.740132
O O17 0.500000 0.331211 0.000000
O O18 0.500000 0.994269 0.500000
#
# Coordination Sequence:
#
# PCOD9130729 Si02
#       8
#     4   4   4   4   4   4   4   4
#     4  11  21  45  68  95 140 181 231 280 354 414
#     4  12  24  44  71 107 142 181 241 295 349 422
#     4  11  23  45  71 104 137 177 234 299 345 412
#     4  10  23  41  70 101 135 179 228 286 347 416
#     4  11  23  46  68  93 144 186 232 276 355 421
#     4  12  26  45  75 107 141 190 238 295 351 426
#     4  11  25  42  67 103 139 187 228 284 351 421
#     4  12  28  45  70 103 143 190 236 293 358 419
#
# _framework density 9.8765429999999999
#
# number of rings (size 3 to 8) (size 9 to 14) (size 15 to 20)
#    0.000    0.750    5.000    1.875    5.250    1.000 
#    0.000    0.000    2.750    0.000    0.000    0.000 
#    0.000    0.000    0.000    0.000    0.000    0.000 
#
# Total GULP energy -89354.195220 kJ/mol
# GULP energy per Si atom -5584.637201 kJ/mol
# Density = 0.985406 g / cm^3
# Si number density = 9.876543 Si / 1000 Ang^3
#
#
#
# Elastic Constant Matrix: (Units=GPa)
#
#
# Indices 1 2 3 4 5 6 
#
# 1 131.4343 28.9940 40.1886 0.0057 -7.6831 0.0075
# 2 28.9940 111.9445 41.3961 -0.0052 10.2329 0.0083
# 3 40.1886 41.3961 83.3097 0.0017 -0.5616 0.0221
# 4 0.0057 -0.0052 0.0017 27.2988 -0.0042 -2.0625
# 5 -7.6831 10.2329 -0.5616 -0.0042 32.9865 -0.0067
# 6 0.0075 0.0083 0.0221 -2.0625 -0.0067 36.0129
#
#
#
# Elastic Compliance Matrix: (Units=1/GPa)
#
#
# Indices 1 2 3 4 5 6 
#
# 1 0.009182 -0.001188 -0.003823 -0.000001 0.002442 0.000001
# 2 -0.001188 0.011514 -0.005175 0.000002 -0.003937 0.000000
# 3 -0.003823 -0.005175 0.016426 -0.000002 0.000995 -0.000008
# 4 -0.000001 0.000002 -0.000002 0.036791 0.000004 0.002107
# 5 0.002442 -0.003937 0.000995 0.000004 0.032122 0.000006
# 6 0.000001 0.000000 -0.000008 0.002107 0.000006 0.027888
#
#
# Mechanical properties :
#
#
# Convention : Reuss Voigt Hill
#
# Bulk Modulus (GPa) = 59.69813 60.87174 60.28494
# Shear Modulus (GPa) = 31.27391 33.66698 32.47045
#
# Velocity S-wave (km/s) = 3.98331 4.13291 4.05880
# Velocity P-wave (km/s) = 7.17241 7.32515 7.24918
#
# Compressibility (1/GPa) = 0.01675094
#
# Stress axis : x y z
#
# Youngs Moduli (GPa) = 108.90862 86.85008 60.88075
#
# Poissons Ratio (x) = 0.10316 0.23273
# Poissons Ratio (y) = 0.12936 0.31505
# Poissons Ratio (z) = 0.41633 0.44944
#
# Static dielectric constant tensor:
#      x y z
#    x 1.714710 -0.000010 0.007860 
#    y -0.000010 1.685860 0.000000 
#    z 0.007860 0.000000 1.678030 
# 
# From -- ./inp_files/60682.got.cif
#   From: 2010.05.17/outbox.ucp.g08.bks.cvg/sg5_31_cif.got.tgz:60682.got - 2010.06.11 12:53:14.
