data_PCOD9130875
_publ_section_title
;
Structure prediction by ZEFSAII (Michael W. Deem and Ramdas Pophale) SiO2 
 PCOD9130875
Probable space group: P M
;
_chemical_formula_sum "Si O2"
_cell_formula_units_Z 16
_cell_length_a 21.683037
_cell_length_b 7.759378
_cell_length_c 9.341627
_cell_angle_alpha 90.000000
_cell_angle_beta 149.622152
_cell_angle_gamma 90.000000
_cell_volume 794.808891
_symmetry_space_group_name_H-M "P M"
_symmetry_group_IT_number 6
_symmetry_cell_setting 'monoclinic'
loop_
_space_group_symop_operation_xyz
x,y,z
x,-y,z
loop_
_atom_site_type_symbol
_atom_site_label
_atom_site_fract_x
_atom_site_fract_y
_atom_site_fract_z
Si Si1 0.170600 0.698260 0.675780
Si Si2 0.672586 0.297518 0.823510
Si Si3 0.173565 0.205325 0.353067
Si Si4 0.908689 0.705764 0.799119
Si Si5 0.669524 0.203092 0.144040
Si Si6 0.908722 0.712090 0.130826
Si Si7 0.440903 0.207237 0.869000
Si Si8 0.434188 0.292184 0.190573
O O1 0.171344 0.500000 0.726355
O O2 0.167898 0.702862 0.496432
O O3 0.039330 0.773949 0.452810
O O4 0.301805 0.777634 0.974338
O O5 0.671553 0.500000 0.783997
O O6 0.548086 0.224151 0.508272
O O7 0.676478 0.281405 0.000829
O O8 0.794008 0.226828 0.992092
O O9 0.303521 0.258836 0.545920
O O10 0.179419 0.000000 0.390601
O O11 0.044752 0.243187 0.020417
O O12 0.902631 0.500000 0.786626
O O13 0.795761 0.771344 0.481082
O O14 0.896274 0.765035 0.939776
O O15 0.650335 0.000000 0.086455
O O16 0.554307 0.274085 0.003726
O O17 0.912985 0.500000 0.140453
O O18 0.445794 0.000000 0.872224
O O19 0.452767 0.256158 0.059584
O O20 0.427552 0.500000 0.192409
#
# Coordination Sequence:
#
# PCOD9130875 Si02
#       8
#     2   2   2   2   2   2   2   2
#     4   8  14  27  47  73 101 127 158 203 250 294
#     4  10  20  34  49  69  98 133 169 208 249 292
#     4   9  16  29  50  77 105 131 161 204 251 299
#     4  10  19  34  56  80 102 129 165 209 256 302
#     4  11  23  37  50  70 102 140 175 209 248 296
#     4   8  15  29  51  74  97 124 158 200 248 295
#     4   9  19  34  53  76 104 135 168 205 250 299
#     4   9  17  30  52  77  99 125 164 208 250 295
#
# _framework density 20.130625999999999
#
# number of rings (size 3 to 8) (size 9 to 14) (size 15 to 20)
#    0.000    2.750    0.000    2.625    0.000    3.000 
#    0.000    4.375    0.000    1.500    0.000    0.000 
#    0.000    0.000    0.000    0.000    0.000    0.000 
#
# Total GULP energy -89171.914972 kJ/mol
# GULP energy per Si atom -5573.244686 kJ/mol
# Density = 2.008481 g / cm^3
# Si number density = 20.130626 Si / 1000 Ang^3
#
#
#
# Elastic Constant Matrix: (Units=GPa)
#
#
# Indices 1 2 3 4 5 6 
#
# 1 64.4600 -7.2651 102.1383 0.0000 16.9847 0.0000
# 2 -7.2651 32.5924 -8.3561 0.0000 4.5994 0.0000
# 3 102.1383 -8.3561 159.1133 0.0000 54.3891 0.0000
# 4 0.0000 0.0000 0.0000 18.1136 0.0000 -13.9274
# 5 16.9847 4.5994 54.3891 0.0000 23.9388 0.0000
# 6 0.0000 0.0000 0.0000 -13.9274 0.0000 34.3841
#
#
#
# Elastic Compliance Matrix: (Units=1/GPa)
#
#
# Indices 1 2 3 4 5 6 
#
# 1 -0.011663 0.012382 0.027406 0.000000 -0.056370 0.000000
# 2 0.012382 0.032817 -0.004774 0.000000 -0.004243 0.000000
# 3 0.027406 -0.004774 -0.023393 0.000000 0.034621 0.000000
# 4 0.000000 0.000000 0.000000 0.080178 0.000000 0.032477
# 5 -0.056370 -0.004243 0.034621 0.000000 0.003923 0.000000
# 6 0.000000 0.000000 0.000000 0.032477 0.000000 0.042238
#
#
# Mechanical properties :
#
#
# Convention : Reuss Voigt Hill
#
# Bulk Modulus (GPa) = 14.75210 47.68887 31.22049
# Shear Modulus (GPa) = 65.21526 26.59721 45.90624
#
# Velocity S-wave (km/s) = 5.69793 3.63882 4.78055
# Velocity P-wave (km/s) = 7.11566 6.43396 6.78338
#
# Compressibility (1/GPa) = 0.06778695
#
# Stress axis : x y z
#
# Youngs Moduli (GPa) = -85.73857 30.47235 -42.74807
#
# Poissons Ratio (x) = -0.37729 1.17155
# Poissons Ratio (y) = 1.06157 -0.20409
# Poissons Ratio (z) = 2.34975 0.14548
#
# Static dielectric constant tensor:
#      x y z
#    x 1.691330 0.000000 0.063290 
#    y 0.000000 1.723890 0.000000 
#    z 0.063290 0.000000 1.744990 
# 
# From -- ./inp_files/3408.got.cif
#   From: 2010.05.17/outbox.cif.g08.bks.cpg/sg6_2_cif.got.tgz:3408.got - 2010.06.03 19:42:10.
