data_PCOD9130994
_publ_section_title
;
Structure prediction by ZEFSAII (Michael W. Deem and Ramdas Pophale) SiO2 
 PCOD9130994
Probable space group: P M
;
_chemical_formula_sum "Si O2"
_cell_formula_units_Z 16
_cell_length_a 12.869464
_cell_length_b 7.581969
_cell_length_c 8.468332
_cell_angle_alpha 90.000000
_cell_angle_beta 50.115445
_cell_angle_gamma 90.000000
_cell_volume 634.055197
_symmetry_space_group_name_H-M "P M"
_symmetry_group_IT_number 6
_symmetry_cell_setting 'monoclinic'
loop_
_space_group_symop_operation_xyz
x,y,z
x,-y,z
loop_
_atom_site_type_symbol
_atom_site_label
_atom_site_fract_x
_atom_site_fract_y
_atom_site_fract_z
Si Si1 0.601060 0.284605 0.528990
Si Si2 0.110749 0.211289 0.027405
Si Si3 0.508937 0.798053 0.135633
Si Si4 0.347447 0.795329 0.590410
Si Si5 0.748181 0.297545 0.696469
Si Si6 0.855439 0.293560 0.099988
Si Si7 0.995165 0.283060 0.647811
Si Si8 0.252397 0.292062 0.219872
O O1 0.592502 0.500000 0.540398
O O2 0.453503 0.216210 0.631268
O O3 0.667180 0.220926 0.627814
O O4 0.708255 0.225614 0.290477
O O5 0.178899 0.264181 0.125040
O O6 0.958763 0.274673 0.145579
O O7 0.110532 0.000000 0.020759
O O8 0.207210 0.281508 0.791349
O O9 0.428424 0.716857 0.362969
O O10 0.397588 0.793452 0.104607
O O11 0.544384 0.000000 0.136929
O O12 0.644946 0.706706 0.944706
O O13 0.323245 0.000000 0.574515
O O14 0.775628 0.500000 0.626983
O O15 0.890391 0.221854 0.614734
O O16 0.836418 0.500000 0.087410
O O17 0.932907 0.218771 0.873007
O O18 0.996270 0.500000 0.646850
O O19 0.146069 0.227609 0.456350
O O20 0.274446 0.500000 0.217045
#
# Coordination Sequence:
#
# PCOD9130994 Si02
#       8
#     2   2   2   2   2   2   2   2
#     4  10  21  36  59  87 114 145 187 233 278 328
#     4  11  23  39  58  83 114 150 187 229 278 332
#     4  11  23  39  57  82 114 149 187 231 279 332
#     4  10  23  40  57  79 113 151 189 231 278 330
#     4  10  20  37  59  85 114 147 186 231 279 331
#     4  10  20  37  60  86 113 146 186 231 279 331
#     4   9  19  36  60  86 113 144 186 235 280 326
#     4  11  22  38  60  86 113 146 186 231 279 332
#
# _framework density 25.234399
#
# number of rings (size 3 to 8) (size 9 to 14) (size 15 to 20)
#    0.000    1.750    0.000    4.125    0.000    8.000 
#    0.000    3.750    0.000    0.000    0.000    0.000 
#    0.000    0.000    0.000    0.000    0.000    0.000 
#
# Total GULP energy -89554.757006 kJ/mol
# GULP energy per Si atom -5597.172313 kJ/mol
# Density = 2.517696 g / cm^3
# Si number density = 25.234399 Si / 1000 Ang^3
#
#
#
# Elastic Constant Matrix: (Units=GPa)
#
#
# Indices 1 2 3 4 5 6 
#
# 1 85.1866 -8.9515 -5.0131 0.0000 -11.4425 0.0000
# 2 -8.9515 75.3151 2.8468 0.0000 -0.1493 0.0000
# 3 -5.0131 2.8468 83.7084 0.0000 -9.0477 0.0000
# 4 0.0000 0.0000 0.0000 9.7641 0.0000 3.2101
# 5 -11.4425 -0.1493 -9.0477 0.0000 49.6936 0.0000
# 6 0.0000 0.0000 0.0000 3.2101 0.0000 27.3183
#
#
#
# Elastic Compliance Matrix: (Units=1/GPa)
#
#
# Indices 1 2 3 4 5 6 
#
# 1 0.012358 0.001436 0.001019 0.000000 0.003035 0.000000
# 2 0.001436 0.013462 -0.000338 0.000000 0.000310 0.000000
# 3 0.001019 -0.000338 0.012286 0.000000 0.002471 0.000000
# 4 0.000000 0.000000 0.000000 0.106531 0.000000 -0.012518
# 5 0.003035 0.000310 0.002471 0.000000 0.021273 0.000000
# 6 0.000000 0.000000 0.000000 -0.012518 0.000000 0.038076
#
#
# Mechanical properties :
#
#
# Convention : Reuss Voigt Hill
#
# Bulk Modulus (GPa) = 23.61867 24.66385 24.14126
# Shear Modulus (GPa) = 23.37932 34.37707 28.87819
#
# Velocity S-wave (km/s) = 3.04713 3.69495 3.38656
# Velocity P-wave (km/s) = 4.66476 5.29138 4.98792
#
# Compressibility (1/GPa) = 0.04233939
#
# Stress axis : x y z
#
# Youngs Moduli (GPa) = 80.92214 74.28512 81.39466
#
# Poissons Ratio (x) = -0.10669 -0.08297
# Poissons Ratio (y) = -0.11622 0.02754
# Poissons Ratio (z) = -0.08248 0.02513
#
# Static dielectric constant tensor:
#      x y z
#    x 1.972700 0.000000 0.075810 
#    y 0.000000 1.938150 0.000000 
#    z 0.075810 0.000000 2.008170 
# 
# From -- ./inp_files/2688.got.cif
#   From: 2010.05.17/outbox.cif.g08.bks.cpg/sg6_2_cif.got.tgz:2688.got - 2010.06.03 19:42:10.
