data_PCOD9130971
_publ_section_title
;
Structure prediction by ZEFSAII (Michael W. Deem and Ramdas Pophale) SiO2 
 PCOD9130971
Probable space group: P M
;
_chemical_formula_sum "Si O2"
_cell_formula_units_Z 16
_cell_length_a 9.504621
_cell_length_b 8.647082
_cell_length_c 11.485127
_cell_angle_alpha 90.000000
_cell_angle_beta 114.348486
_cell_angle_gamma 90.000000
_cell_volume 859.972653
_symmetry_space_group_name_H-M "P M"
_symmetry_group_IT_number 6
_symmetry_cell_setting 'monoclinic'
loop_
_space_group_symop_operation_xyz
x,y,z
x,-y,z
loop_
_atom_site_type_symbol
_atom_site_label
_atom_site_fract_x
_atom_site_fract_y
_atom_site_fract_z
Si Si1 0.824300 0.316122 0.189860
Si Si2 0.452993 0.813153 0.441840
Si Si3 0.052669 0.187043 0.667502
Si Si4 0.881685 0.185754 0.955377
Si Si5 0.119569 0.186866 0.426159
Si Si6 0.745728 0.315932 0.674703
Si Si7 0.206680 0.812357 0.957121
Si Si8 0.512326 0.812757 0.193636
O O1 0.822221 0.500000 0.188449
O O2 0.672432 0.253402 0.202301
O O3 0.976067 0.256685 0.308248
O O4 0.830448 0.253352 0.060440
O O5 0.282742 0.766970 0.426198
O O6 0.585461 0.740910 0.566566
O O7 0.480966 0.770343 0.316964
O O8 0.463190 0.000000 0.453618
O O9 0.108806 0.230310 0.558513
O O10 0.167282 0.234695 0.811444
O O11 0.885886 0.256682 0.640901
O O12 0.038772 0.000000 0.667307
O O13 0.778909 0.244181 0.812847
O O14 0.058420 0.232424 0.984428
O O15 0.876236 0.000000 0.957720
O O16 0.108650 0.000000 0.415129
O O17 0.750367 0.500000 0.683427
O O18 0.210923 0.000000 0.959753
O O19 0.367788 0.758943 0.065559
O O20 0.519371 0.000000 0.190299
#
# Coordination Sequence:
#
# PCOD9130971 Si02
#       8
#     2   2   2   2   2   2   2   2
#     4  12  25  38  54  82 117 149 185 231 287 343
#     4  10  21  37  58  84 112 148 196 241 279 327
#     4   9  18  35  59  85 113 147 189 232 276 331
#     4  10  20  39  64  85 109 145 189 233 279 333
#     4  10  21  38  60  84 110 147 196 241 279 327
#     4  11  22  36  56  85 119 151 184 226 282 340
#     4   8  16  33  59  87 109 137 184 237 279 321
#     4  10  20  36  58  82 111 148 191 235 279 332
#
# _framework density 18.605243000000002
#
# number of rings (size 3 to 8) (size 9 to 14) (size 15 to 20)
#    0.000    2.000    0.000    4.875    0.000    7.500 
#    0.000    6.875    0.000    0.000    0.000    0.000 
#    0.000    0.000    0.000    0.000    0.000    0.000 
#
# Total GULP energy -89382.654660 kJ/mol
# GULP energy per Si atom -5586.415916 kJ/mol
# Density = 1.856290 g / cm^3
# Si number density = 18.605243 Si / 1000 Ang^3
#
#
#
# Elastic Constant Matrix: (Units=GPa)
#
#
# Indices 1 2 3 4 5 6 
#
# 1 185.7411 55.0286 138.3924 0.0000 -3.9895 0.0000
# 2 55.0286 38.8045 52.6326 0.0000 -2.2980 0.0000
# 3 138.3924 52.6326 157.7349 0.0000 5.2772 0.0000
# 4 0.0000 0.0000 0.0000 10.3797 0.0000 -10.1060
# 5 -3.9895 -2.2980 5.2772 0.0000 41.7428 0.0000
# 6 0.0000 0.0000 0.0000 -10.1060 0.0000 -13.0901
#
#
#
# Elastic Compliance Matrix: (Units=1/GPa)
#
#
# Indices 1 2 3 4 5 6 
#
# 1 0.016819 -0.006462 -0.012696 0.000000 0.002857 0.000000
# 2 -0.006462 0.050454 -0.011286 0.000000 0.003587 0.000000
# 3 -0.012696 -0.011286 0.021397 0.000000 -0.004540 0.000000
# 4 0.000000 0.000000 0.000000 0.055000 0.000000 -0.042462
# 5 0.002857 0.003587 -0.004540 0.000000 0.025001 0.000000
# 6 0.000000 0.000000 0.000000 -0.042462 0.000000 -0.043612
#
#
# Mechanical properties :
#
#
# Convention : Reuss Voigt Hill
#
# Bulk Modulus (GPa) = 35.99450 97.15419 66.57435
# Shear Modulus (GPa) = 25.61376 16.88826 21.25101
#
# Velocity S-wave (km/s) = 3.71441 3.01610 3.38332
# Velocity P-wave (km/s) = 6.14689 8.02877 7.15002
#
# Compressibility (1/GPa) = 0.02778202
#
# Stress axis : x y z
#
# Youngs Moduli (GPa) = 59.45522 19.82019 46.73549
#
# Poissons Ratio (x) = 0.12807 0.59337
# Poissons Ratio (y) = 0.38417 0.52746
# Poissons Ratio (z) = 0.75487 0.22369
#
# Static dielectric constant tensor:
#      x y z
#    x 1.613890 0.000000 -0.004260 
#    y 0.000000 1.621600 0.000000 
#    z -0.004260 0.000000 1.627390 
# 
# From -- ./inp_files/4653.got.cif
#   From: 2010.05.17/outbox.cif.g08.bks.cpg/sg6_3_cif.got.tgz:4653.got - 2010.06.03 19:42:10.
