data_PCOD9130474
_publ_section_title
;
Structure prediction by ZEFSAII (Michael W. Deem and Ramdas Pophale) SiO2 
 PCOD9130474
Probable space group: C 2
;
_chemical_formula_sum "Si O2"
_cell_formula_units_Z 24
_cell_length_a 7.309447
_cell_length_b 11.921003
_cell_length_c 11.896546
_cell_angle_alpha 90.000000
_cell_angle_beta 115.184924
_cell_angle_gamma 90.000000
_cell_volume 938.074949
_symmetry_space_group_name_H-M "C 2"
_symmetry_group_IT_number 5
_symmetry_cell_setting 'monoclinic'
loop_
_space_group_symop_operation_xyz
x,y,z
-x,y,-z
1/2+x,1/2+y,z
1/2-x,1/2+y,-z
loop_
_atom_site_type_symbol
_atom_site_label
_atom_site_fract_x
_atom_site_fract_y
_atom_site_fract_z
Si Si1 0.204636 0.427210 0.979303
Si Si2 0.670497 0.926761 0.701515
Si Si3 0.205404 0.772813 0.814824
Si Si4 0.022525 0.099807 0.830013
Si Si5 0.792268 0.943285 0.392921
Si Si6 0.785779 0.681003 0.695380
O O1 0.314248 0.321514 0.065781
O O2 0.350731 0.529214 0.048117
O O3 0.311786 0.647448 0.212032
O O4 0.000000 0.439915 0.000000
O O5 0.844602 0.021744 0.725483
O O6 0.675111 0.919359 0.839370
O O7 0.430992 0.930148 0.612318
O O8 0.737774 0.810436 0.662921
O O9 0.409349 0.705814 0.850667
O O10 0.209147 0.877225 0.727723
O O11 0.027348 0.683124 0.750481
O O12 0.000000 0.899291 0.500000
O O13 0.800481 0.078616 0.397750
#
# Coordination Sequence:
#
# PCOD9130474 Si02
#       6
#     4   4   4   4   4   4
#     4  12  24  46  72 111 156 194 243 304 377 459
#     4  12  25  47  71 113 151 194 251 310 379 449
#     4  12  26  49  75 111 151 198 253 308 377 454
#     4  12  25  46  75 110 156 194 242 305 378 455
#     4  12  27  52  78 108 147 199 263 317 372 442
#     4  12  24  49  77 107 152 196 250 308 372 446
#
# _framework density 25.584311
#
# number of rings (size 3 to 8) (size 9 to 14) (size 15 to 20)
#    0.000    0.000    8.333    0.500    0.000    5.333 
#    3.000    2.500    0.000    0.000    0.000    0.000 
#    0.000    0.000    0.000    0.000    0.000    0.000 
#
# Total GULP energy -67144.280278 kJ/mol
# GULP energy per Si atom -5595.356690 kJ/mol
# Density = 2.552608 g / cm^3
# Si number density = 25.584311 Si / 1000 Ang^3
#
#
#
# Elastic Constant Matrix: (Units=GPa)
#
#
# Indices 1 2 3 4 5 6 
#
# 1 109.8617 12.3666 23.5576 0.0000 21.6633 0.0000
# 2 12.3666 116.6901 25.9494 0.0000 10.3782 0.0000
# 3 23.5576 25.9494 94.1981 0.0000 32.8008 0.0000
# 4 0.0000 0.0000 0.0000 21.7291 0.0000 11.4425
# 5 21.6633 10.3782 32.8008 0.0000 27.8200 0.0000
# 6 0.0000 0.0000 0.0000 11.4425 0.0000 45.2544
#
#
#
# Elastic Compliance Matrix: (Units=1/GPa)
#
#
# Indices 1 2 3 4 5 6 
#
# 1 0.010786 -0.000471 0.000502 0.000000 -0.008815 0.000000
# 2 -0.000471 0.009159 -0.002279 0.000000 -0.000363 0.000000
# 3 0.000502 -0.002279 0.018591 0.000000 -0.021460 0.000000
# 4 0.000000 0.000000 0.000000 0.053090 0.000000 -0.013424
# 5 -0.008815 -0.000363 -0.021460 0.000000 0.068247 0.000000
# 6 0.000000 0.000000 0.000000 -0.013424 0.000000 0.025491
#
#
# Mechanical properties :
#
#
# Convention : Reuss Voigt Hill
#
# Bulk Modulus (GPa) = 29.37739 49.38859 39.38299
# Shear Modulus (GPa) = 24.85018 36.21912 30.53465
#
# Velocity S-wave (km/s) = 3.11996 3.76663 3.45844
# Velocity P-wave (km/s) = 4.94837 6.18570 5.60130
#
# Compressibility (1/GPa) = 0.03403978
#
# Stress axis : x y z
#
# Youngs Moduli (GPa) = 92.71332 109.18639 53.79037
#
# Poissons Ratio (x) = 0.05139 -0.02699
# Poissons Ratio (y) = 0.04364 0.12258
# Poissons Ratio (z) = -0.04651 0.24881
#
# Static dielectric constant tensor:
#      x y z
#    x 2.166850 0.000000 0.114160 
#    y 0.000000 2.019230 0.000000 
#    z 0.114160 0.000000 2.103570 
# 
# From -- ./inp_files/50168.got.cif
#   From: 2010.05.17/outbox.cif.g08.bks.cpg/sg5_26_cif.got.tgz:50168.got - 2010.06.03 18:56:24.
