data_PCOD9130286
_publ_section_title
;
Structure prediction by ZEFSAII (Michael W. Deem and Ramdas Pophale) SiO2 
 PCOD9130286
Probable space group: C 2
;
_chemical_formula_sum "Si O2"
_cell_formula_units_Z 20
_cell_length_a 7.437982
_cell_length_b 7.055226
_cell_length_c 15.172421
_cell_angle_alpha 90.000000
_cell_angle_beta 106.306800
_cell_angle_gamma 90.000000
_cell_volume 764.168273
_symmetry_space_group_name_H-M "C 2"
_symmetry_group_IT_number 5
_symmetry_cell_setting 'monoclinic'
loop_
_space_group_symop_operation_xyz
x,y,z
-x,y,-z
1/2+x,1/2+y,z
1/2-x,1/2+y,-z
loop_
_atom_site_type_symbol
_atom_site_label
_atom_site_fract_x
_atom_site_fract_y
_atom_site_fract_z
Si Si1 0.574718 0.342870 0.599991
Si Si2 0.980708 0.269470 0.598435
Si Si3 0.640358 0.005393 0.099762
Si Si4 0.536013 0.585991 0.102472
Si Si5 0.619871 0.261097 0.253028
O O1 0.500000 0.248001 0.500000
O O2 0.797347 0.357906 0.617702
O O3 0.461836 0.540994 0.589703
O O4 0.673616 0.783783 0.677752
O O5 0.000000 0.333475 0.500000
O O6 0.522380 0.250827 0.684858
O O7 0.097881 0.939165 0.184593
O O8 0.657117 0.776652 0.108695
O O9 0.824586 0.127851 0.104399
O O10 0.500000 0.036060 0.000000
O O11 0.082901 0.580041 0.186794
O O12 0.500000 0.501134 0.000000
#
# Coordination Sequence:
#
# PCOD9130286 Si02
#       5
#     4   4   4   4   4
#     4  11  26  51  78 117 165 219 277 347 412 494
#     4  11  26  51  78 117 165 219 277 347 412 494
#     4  11  29  52  80 119 165 213 275 351 421 499
#     4  11  29  52  80 119 165 213 275 351 421 499
#     4  12  27  50  88 120 162 224 287 334 430 500
#
# _framework density 26.172248
#
# number of rings (size 3 to 8) (size 9 to 14) (size 15 to 20)
#    0.000    0.800    2.000    1.800   11.200   11.200 
#    0.000    0.000    0.000    0.000    0.000    0.000 
#    0.000    0.000    0.000    0.000    0.000    0.000 
#
# Total GULP energy -56062.990268 kJ/mol
# GULP energy per Si atom -5606.299027 kJ/mol
# Density = 2.611268 g / cm^3
# Si number density = 26.172248 Si / 1000 Ang^3
#
#
#
# Elastic Constant Matrix: (Units=GPa)
#
#
# Indices 1 2 3 4 5 6 
#
# 1 112.4871 2.8045 59.1669 0.0000 -10.0215 0.0000
# 2 2.8045 82.1966 38.1397 0.0000 -0.9156 0.0000
# 3 59.1669 38.1397 259.6459 0.0000 -9.1612 0.0000
# 4 0.0000 0.0000 0.0000 12.1942 0.0000 -15.7231
# 5 -10.0215 -0.9156 -9.1612 0.0000 59.0478 0.0000
# 6 0.0000 0.0000 0.0000 -15.7231 0.0000 24.9307
#
#
#
# Elastic Compliance Matrix: (Units=1/GPa)
#
#
# Indices 1 2 3 4 5 6 
#
# 1 0.010258 0.000781 -0.002403 0.000000 0.001380 0.000000
# 2 0.000781 0.013116 -0.002104 0.000000 0.000009 0.000000
# 3 -0.002403 -0.002104 0.004718 0.000000 0.000292 0.000000
# 4 0.000000 0.000000 0.000000 0.438962 0.000000 0.276841
# 5 0.001380 0.000009 0.000292 0.000000 0.017215 0.000000
# 6 0.000000 0.000000 0.000000 0.276841 0.000000 0.214707
#
#
# Mechanical properties :
#
#
# Convention : Reuss Voigt Hill
#
# Bulk Modulus (GPa) = 48.45466 72.72796 60.59131
# Shear Modulus (GPa) = 7.00959 42.84912 24.92935
#
# Velocity S-wave (km/s) = 1.63831 4.05062 3.08963
# Velocity P-wave (km/s) = 4.70454 7.05161 5.99408
#
# Compressibility (1/GPa) = 0.02063785
#
# Stress axis : x y z
#
# Youngs Moduli (GPa) = 97.48898 76.24421 211.93442
#
# Poissons Ratio (x) = -0.05952 0.50937
# Poissons Ratio (y) = -0.07610 0.44594
# Poissons Ratio (z) = 0.23431 0.16043
#
# Static dielectric constant tensor:
#      x y z
#    x 2.060410 0.000000 -0.020830 
#    y 0.000000 2.064640 0.000000 
#    z -0.020830 0.000000 2.028340 
# 
# From -- ./inp_files/48657.got.cif
#   From: 2010.05.17/outbox.cif.g08.bks.cpg/sg5_25_cif.got.tgz:48657.got - 2010.06.03 18:56:24.
