data_PCOD9130003
_publ_section_title
;
Structure prediction by ZEFSAII (Michael W. Deem and Ramdas Pophale) SiO2 
 PCOD9130003
Probable space group: C 2
;
_chemical_formula_sum "Si O2"
_cell_formula_units_Z 26
_cell_length_a 5.543107
_cell_length_b 18.584051
_cell_length_c 11.707653
_cell_angle_alpha 90.000000
_cell_angle_beta 61.188978
_cell_angle_gamma 90.000000
_cell_volume 1056.753452
_symmetry_space_group_name_H-M "C 2"
_symmetry_group_IT_number 5
_symmetry_cell_setting 'monoclinic'
loop_
_space_group_symop_operation_xyz
x,y,z
-x,y,-z
1/2+x,1/2+y,z
1/2-x,1/2+y,-z
loop_
_atom_site_type_symbol
_atom_site_label
_atom_site_fract_x
_atom_site_fract_y
_atom_site_fract_z
Si Si1 0.208547 0.679740 0.603513
Si Si2 0.000000 0.314246 0.000000
Si Si3 0.278097 0.831667 0.464744
Si Si4 0.932812 0.983442 0.248914
Si Si5 0.426132 0.197321 0.887880
Si Si6 0.000000 0.070639 0.000000
Si Si7 0.975460 0.396105 0.213075
Si Si8 0.000000 0.561821 0.500000
O O1 0.500000 0.650363 0.500000
O O2 0.193444 0.756999 0.544253
O O3 0.010544 0.618525 0.603091
O O4 0.175738 0.691282 0.744326
O O5 0.772746 0.261946 0.105736
O O6 0.121856 0.365545 0.068219
O O7 0.500000 0.864271 0.500000
O O8 0.408996 0.828446 0.310510
O O9 0.000000 0.873994 0.500000
O O10 0.682967 0.941801 0.242126
O O11 0.198488 0.937834 0.233601
O O12 0.771756 0.017862 0.396183
O O13 0.035751 0.030532 0.114734
O O14 0.500000 0.213519 0.000000
O O15 0.260312 0.123058 0.924315
#
# Coordination Sequence:
#
# PCOD9130003 Si02
#       8
#     4   2   4   4   4   2   4   2
#     4  11  26  46  77 115 155 199 250 331 400 457
#     4  11  28  48  80 110 160 193 270 320 400 463
#     4  11  24  44  76 106 151 193 250 306 393 445
#     4  12  30  49  80 109 159 208 268 309 385 464
#     4  11  27  46  80 115 148 199 261 331 389 461
#     4  11  26  50  76 112 152 209 258 326 382 461
#     4  12  29  50  76 114 154 212 254 320 381 470
#     4  12  28  48  74 114 152 204 266 320 386 468
#
# _framework density 24.603657999999999
#
# number of rings (size 3 to 8) (size 9 to 14) (size 15 to 20)
#    0.000    0.615    2.308    2.769   16.154    0.000 
#    0.000    0.000    0.000    0.000    0.000    0.000 
#    0.000    0.000    0.000    0.000    0.000    0.000 
#
# Total GULP energy -72559.535530 kJ/mol
# GULP energy per Si atom -5581.502733 kJ/mol
# Density = 2.454766 g / cm^3
# Si number density = 24.603658 Si / 1000 Ang^3
#
#
#
# Elastic Constant Matrix: (Units=GPa)
#
#
# Indices 1 2 3 4 5 6 
#
# 1 142.9618 44.3160 24.1597 0.0000 10.9469 0.0000
# 2 44.3160 97.5733 60.1837 0.0000 6.1561 0.0000
# 3 24.1597 60.1837 144.0334 0.0000 13.2843 0.0000
# 4 0.0000 0.0000 0.0000 -31.3131 0.0000 24.0122
# 5 10.9469 6.1561 13.2843 0.0000 38.3247 0.0000
# 6 0.0000 0.0000 0.0000 24.0122 0.0000 59.8564
#
#
#
# Elastic Compliance Matrix: (Units=1/GPa)
#
#
# Indices 1 2 3 4 5 6 
#
# 1 0.008277 -0.003895 0.000413 0.000000 -0.001881 0.000000
# 2 -0.003895 0.015642 -0.005944 0.000000 0.000660 0.000000
# 3 0.000413 -0.005944 0.009586 0.000000 -0.002486 0.000000
# 4 0.000000 0.000000 0.000000 -0.024422 0.000000 0.009797
# 5 -0.001881 0.000660 -0.002486 0.000000 0.027386 0.000000
# 6 0.000000 0.000000 0.000000 0.009797 0.000000 0.012776
#
#
# Mechanical properties :
#
#
# Convention : Reuss Voigt Hill
#
# Bulk Modulus (GPa) = 68.24286 71.32080 69.78183
# Shear Modulus (GPa) = 68.51124 30.43421 49.47272
#
# Velocity S-wave (km/s) = 5.28265 3.52089 4.48905
# Velocity P-wave (km/s) = 8.06261 6.75127 7.43590
#
# Compressibility (1/GPa) = 0.01465355
#
# Stress axis : x y z
#
# Youngs Moduli (GPa) = 120.82309 63.93021 104.31478
#
# Poissons Ratio (x) = 0.24900 -0.04305
# Poissons Ratio (y) = 0.47060 0.62000
# Poissons Ratio (z) = -0.04987 0.37997
#
# Static dielectric constant tensor:
#      x y z
#    x 1.913450 0.000000 0.093990 
#    y 0.000000 1.948800 0.000000 
#    z 0.093990 0.000000 1.983060 
# 
# From -- ./inp_files/33904.got.cif
#   From: 2010.05.17/outbox.cif.g08.bks.cpg/sg5_17_cif.got.tgz:33904.got - 2010.06.03 18:56:24.
