data_PCOD9130896
_publ_section_title
;
Structure prediction by ZEFSAII (Michael W. Deem and Ramdas Pophale) SiO2 
 PCOD9130896
Probable space group: P M
;
_chemical_formula_sum "Si O2"
_cell_formula_units_Z 16
_cell_length_a 8.034695
_cell_length_b 8.681731
_cell_length_c 16.112553
_cell_angle_alpha 90.000000
_cell_angle_beta 36.428317
_cell_angle_gamma 90.000000
_cell_volume 667.409560
_symmetry_space_group_name_H-M "P M"
_symmetry_group_IT_number 6
_symmetry_cell_setting 'monoclinic'
loop_
_space_group_symop_operation_xyz
x,y,z
x,-y,z
loop_
_atom_site_type_symbol
_atom_site_label
_atom_site_fract_x
_atom_site_fract_y
_atom_site_fract_z
Si Si1 0.440820 0.821789 0.008690
Si Si2 0.034977 0.321715 0.760567
Si Si3 0.631739 0.817373 0.503663
Si Si4 0.791916 0.814573 0.092757
Si Si5 0.963218 0.675253 0.587542
Si Si6 0.383378 0.821531 0.832094
Si Si7 0.578845 0.686290 0.340904
Si Si8 0.219977 0.680865 0.251774
O O1 0.241272 0.715038 0.144269
O O2 0.390218 0.000000 0.051776
O O3 0.401930 0.807850 0.925353
O O4 0.765121 0.776462 0.895904
O O5 0.013299 0.500000 0.795746
O O6 0.342828 0.253477 0.655534
O O7 0.004240 0.321800 0.671635
O O8 0.616954 0.772370 0.412032
O O9 0.933699 0.746474 0.405207
O O10 0.631990 0.000000 0.514820
O O11 0.784300 0.744199 0.187852
O O12 0.502743 0.761813 0.168849
O O13 0.803271 0.000000 0.092239
O O14 0.076918 0.755464 0.934545
O O15 0.929324 0.500000 0.574983
O O16 0.675436 0.757920 0.682260
O O17 0.264744 0.729999 0.435751
O O18 0.378701 0.000000 0.811560
O O19 0.588168 0.500000 0.348820
O O20 0.234977 0.500000 0.261330
#
# Coordination Sequence:
#
# PCOD9130896 Si02
#       8
#     2   2   2   2   2   2   2   2
#     4  10  19  35  59  87 114 144 183 228 277 335
#     4   9  17  32  54  84 116 145 179 225 277 331
#     4  11  21  36  59  86 113 146 186 232 282 335
#     4  11  23  39  56  79 111 148 188 232 279 333
#     4   8  16  30  52  81 112 140 173 217 266 319
#     4   9  19  34  56  83 110 139 177 222 270 323
#     4  10  20  36  58  86 114 144 183 228 276 332
#     4  12  25  40  56  78 110 150 191 236 285 336
#
# _framework density 23.973286999999999
#
# number of rings (size 3 to 8) (size 9 to 14) (size 15 to 20)
#    0.000    2.000    0.000    5.250    0.000    6.000 
#    0.000    1.250    0.000    3.000    0.000    0.000 
#    0.000    0.000    0.000    0.000    0.000    0.000 
#
# Total GULP energy -89528.891467 kJ/mol
# GULP energy per Si atom -5595.555717 kJ/mol
# Density = 2.391872 g / cm^3
# Si number density = 23.973287 Si / 1000 Ang^3
#
#
#
# Elastic Constant Matrix: (Units=GPa)
#
#
# Indices 1 2 3 4 5 6 
#
# 1 70.3945 2.8755 19.9605 0.0000 -17.0790 0.0000
# 2 2.8755 75.4045 32.2784 0.0000 -15.9663 0.0000
# 3 19.9605 32.2784 176.3822 0.0000 -24.8614 0.0000
# 4 0.0000 0.0000 0.0000 38.4818 0.0000 -17.1974
# 5 -17.0790 -15.9663 -24.8614 0.0000 56.3723 0.0000
# 6 0.0000 0.0000 0.0000 -17.1974 0.0000 115.3416
#
#
#
# Elastic Compliance Matrix: (Units=1/GPa)
#
#
# Indices 1 2 3 4 5 6 
#
# 1 0.015609 0.000898 -0.001310 0.000000 0.004406 0.000000
# 2 0.000898 0.014970 -0.002351 0.000000 0.003475 0.000000
# 3 -0.001310 -0.002351 0.006502 0.000000 0.001805 0.000000
# 4 0.000000 0.000000 0.000000 0.027841 0.000000 0.004151
# 5 0.004406 0.003475 0.001805 0.000000 0.020854 0.000000
# 6 0.000000 0.000000 0.000000 0.004151 0.000000 0.009289
#
#
# Mechanical properties :
#
#
# Convention : Reuss Voigt Hill
#
# Bulk Modulus (GPa) = 31.68968 48.04554 39.86761
# Shear Modulus (GPa) = 45.00019 59.84359 52.42189
#
# Velocity S-wave (km/s) = 4.33725 5.00168 4.68127
# Velocity P-wave (km/s) = 6.19110 7.31030 6.77386
#
# Compressibility (1/GPa) = 0.03155601
#
# Stress axis : x y z
#
# Youngs Moduli (GPa) = 64.06431 66.80056 153.78819
#
# Poissons Ratio (x) = -0.06001 0.20144
# Poissons Ratio (y) = -0.05755 0.36162
# Poissons Ratio (z) = 0.08391 0.15707
#
# Static dielectric constant tensor:
#      x y z
#    x 2.114750 0.000000 0.044100 
#    y 0.000000 1.775930 0.000000 
#    z 0.044100 0.000000 1.940880 
# 
# From -- ./inp_files/4288.got.cif
#   From: 2010.05.17/outbox.cif.g08.bks.cpg/sg6_3_cif.got.tgz:4288.got - 2010.06.03 19:42:10.
