data_PCOD9130653
_publ_section_title
;
Structure prediction by ZEFSAII (Michael W. Deem and Ramdas Pophale) SiO2 
 PCOD9130653
Probable space group: C 2
;
_chemical_formula_sum "Si O2"
_cell_formula_units_Z 26
_cell_length_a 20.140357
_cell_length_b 14.160547
_cell_length_c 10.179422
_cell_angle_alpha 90.000000
_cell_angle_beta 20.937806
_cell_angle_gamma 90.000000
_cell_volume 1037.455271
_symmetry_space_group_name_H-M "C 2"
_symmetry_group_IT_number 5
_symmetry_cell_setting 'monoclinic'
loop_
_space_group_symop_operation_xyz
x,y,z
-x,y,-z
1/2+x,1/2+y,z
1/2-x,1/2+y,-z
loop_
_atom_site_type_symbol
_atom_site_label
_atom_site_fract_x
_atom_site_fract_y
_atom_site_fract_z
Si Si1 0.282091 0.202020 0.872243
Si Si2 0.722332 0.748635 0.565586
Si Si3 0.736758 0.378440 0.275883
Si Si4 0.675895 0.086886 0.461385
Si Si5 0.335244 0.877885 0.546235
Si Si6 0.271187 0.062131 0.104192
Si Si7 0.500000 0.919948 0.500000
O O1 0.500000 0.191904 0.500000
O O2 0.266153 0.308838 0.845978
O O3 0.235223 0.141384 0.828125
O O4 0.196239 0.151398 0.160589
O O5 0.820728 0.817367 0.491549
O O6 0.783262 0.643222 0.482605
O O7 0.753741 0.791763 0.364810
O O8 0.500000 0.747522 0.000000
O O9 0.654462 0.482843 0.400730
O O10 0.956304 0.392623 0.895651
O O11 0.453615 0.091697 0.848573
O O12 0.749239 0.980320 0.322770
O O13 0.376500 0.863902 0.623328
O O14 0.361114 0.991651 0.829322
#
# Coordination Sequence:
#
# PCOD9130653 Si02
#       7
#     4   4   4   4   4   4   2
#     4   9  13  24  44  66  85 109 146 181 205 246
#     4   9  16  26  42  67  86 111 141 183 213 243
#     4   8  16  24  41  67  88 108 146 176 213 253
#     4   8  14  25  43  64  82 112 148 172 201 259
#     4   9  15  26  45  65  88 107 146 181 208 249
#     4   9  13  25  45  67  84 109 147 180 207 244
#     4   8  12  24  42  68  76 106 144 174 206 242
#
# _framework density 25.061321
#
# number of rings (size 3 to 8) (size 9 to 14) (size 15 to 20)
#    0.000    3.692    3.846    0.000    0.000    0.000 
#    0.000    0.000    6.769   16.615    2.000    0.000 
#    0.000    0.000    0.000    0.000    0.000    0.000 
#
# Total GULP energy -72432.997622 kJ/mol
# GULP energy per Si atom -5571.769048 kJ/mol
# Density = 2.500428 g / cm^3
# Si number density = 25.061321 Si / 1000 Ang^3
#
#
#
# Elastic Constant Matrix: (Units=GPa)
#
#
# Indices 1 2 3 4 5 6 
#
# 1 149.4945 79.3690 1.8024 -0.0016 -0.3030 0.0014
# 2 79.3690 148.1860 5.3393 -0.0012 -12.7836 0.0014
# 3 1.8024 5.3393 49.2231 -0.0029 -7.2860 0.0017
# 4 -0.0016 -0.0012 -0.0029 11.9616 0.0012 -3.5523
# 5 -0.3030 -12.7836 -7.2860 0.0012 7.2640 -0.0011
# 6 0.0014 0.0014 0.0017 -3.5523 -0.0011 66.0644
#
#
#
# Elastic Compliance Matrix: (Units=1/GPa)
#
#
# Indices 1 2 3 4 5 6 
#
# 1 0.010090 -0.006418 -0.001507 0.000001 -0.012386 0.000000
# 2 -0.006418 0.012124 0.002394 -0.000001 0.023471 0.000000
# 3 -0.001507 0.002394 0.024339 0.000003 0.028563 0.000000
# 4 0.000001 -0.000001 0.000003 0.084958 -0.000012 0.004568
# 5 -0.012386 0.023471 0.028563 -0.000012 0.207105 0.000002
# 6 0.000000 0.000000 0.000000 0.004568 0.000002 0.015382
#
#
# Mechanical properties :
#
#
# Convention : Reuss Voigt Hill
#
# Bulk Modulus (GPa) = 28.17564 57.76946 42.97255
# Shear Modulus (GPa) = 13.26645 34.41751 23.84198
#
# Velocity S-wave (km/s) = 2.30328 3.70987 3.08774
# Velocity P-wave (km/s) = 4.28259 6.43833 5.46775
#
# Compressibility (1/GPa) = 0.03549165
#
# Stress axis : x y z
#
# Youngs Moduli (GPa) = 99.10911 82.47765 41.08614
#
# Poissons Ratio (x) = 0.52937 0.06190
# Poissons Ratio (y) = 0.63612 -0.09836
# Poissons Ratio (z) = 0.14932 -0.19746
#
# Static dielectric constant tensor:
#      x y z
#    x 2.027940 0.000000 0.058200 
#    y 0.000000 2.057080 0.000000 
#    z 0.058200 0.000000 2.044870 
# 
# From -- ./inp_files/38890.got.cif
#   From: 2010.05.17/outbox.cif.g08.bks.cpg/sg5_20_cif.got.tgz:38890.got - 2010.06.03 18:56:24.
