data_PCOD9130005
_publ_section_title
;
Structure prediction by ZEFSAII (Michael W. Deem and Ramdas Pophale) SiO2 
 PCOD9130005
Probable space group: C 2
;
_chemical_formula_sum "Si O2"
_cell_formula_units_Z 22
_cell_length_a 7.621890
_cell_length_b 21.271716
_cell_length_c 5.572260
_cell_angle_alpha 90.000000
_cell_angle_beta 89.686117
_cell_angle_gamma 90.000000
_cell_volume 903.420743
_symmetry_space_group_name_H-M "C 2"
_symmetry_group_IT_number 5
_symmetry_cell_setting 'monoclinic'
loop_
_space_group_symop_operation_xyz
x,y,z
-x,y,-z
1/2+x,1/2+y,z
1/2-x,1/2+y,-z
loop_
_atom_site_type_symbol
_atom_site_label
_atom_site_fract_x
_atom_site_fract_y
_atom_site_fract_z
Si Si1 0.500000 0.656870 0.000000
Si Si2 0.000000 0.936234 0.000000
Si Si3 0.180120 0.044860 0.759536
Si Si4 0.169766 0.242346 0.654263
Si Si5 0.000000 0.669060 0.500000
Si Si6 0.000000 0.594022 0.000000
Si Si7 0.000000 0.487541 0.500000
Si Si8 0.147669 0.377184 0.819703
O O1 0.449446 0.604931 0.210921
O O2 0.351803 0.708182 0.084031
O O3 0.169806 0.896653 0.063860
O O4 0.938448 0.983771 0.209219
O O5 0.319244 0.055146 0.977647
O O6 0.326524 0.028999 0.557553
O O7 0.330642 0.211411 0.521481
O O8 0.186833 0.317400 0.654917
O O9 0.000000 0.226672 0.500000
O O10 0.009030 0.632504 0.753314
O O11 0.058636 0.438668 0.704643
O O12 0.000000 0.352292 0.000000
#
# Coordination Sequence:
#
# PCOD9130005 Si02
#       8
#     2   2   4   4   2   2   2   4
#     4  11  24  48  69 113 156 203 258 316 418 471
#     4  11  26  47  76 112 151 205 270 334 400 495
#     4  11  24  44  77 111 158 203 262 333 398 493
#     4  12  27  49  80 112 160 209 269 348 395 499
#     4  12  29  48  84 118 164 211 276 326 418 490
#     4  12  24  51  75 119 165 212 260 330 414 494
#     4  12  25  50  80 112 156 215 272 336 412 480
#     4  12  26  51  79 112 157 212 275 337 415 476
#
# _framework density 24.351887999999999
#
# number of rings (size 3 to 8) (size 9 to 14) (size 15 to 20)
#    0.000    0.364    5.455    2.727    0.000    4.364 
#    6.545    0.000    0.000    0.000    0.000    0.000 
#    0.000    0.000    0.000    0.000    0.000    0.000 
#
# Total GULP energy -61358.326365 kJ/mol
# GULP energy per Si atom -5578.029670 kJ/mol
# Density = 2.429646 g / cm^3
# Si number density = 24.351888 Si / 1000 Ang^3
#
#
#
# Elastic Constant Matrix: (Units=GPa)
#
#
# Indices 1 2 3 4 5 6 
#
# 1 146.8665 34.5910 27.9333 0.0000 -9.7185 0.0000
# 2 34.5910 127.7127 42.0333 0.0000 -7.0858 0.0000
# 3 27.9333 42.0333 89.1567 0.0000 -11.8675 0.0000
# 4 0.0000 0.0000 0.0000 30.1976 0.0000 -22.1563
# 5 -9.7185 -7.0858 -11.8675 0.0000 49.8178 0.0000
# 6 0.0000 0.0000 0.0000 -22.1563 0.0000 16.5049
#
#
#
# Elastic Compliance Matrix: (Units=1/GPa)
#
#
# Indices 1 2 3 4 5 6 
#
# 1 0.007508 -0.001478 -0.001537 0.000000 0.000888 0.000000
# 2 -0.001478 0.009563 -0.004031 0.000000 0.000112 0.000000
# 3 -0.001537 -0.004031 0.013923 0.000000 0.002444 0.000000
# 4 0.000000 0.000000 0.000000 2.198872 0.000000 2.951780
# 5 0.000888 0.000112 0.002444 0.000000 0.020844 0.000000
# 6 0.000000 0.000000 0.000000 2.951780 0.000000 4.023076
#
#
# Mechanical properties :
#
#
# Convention : Reuss Voigt Hill
#
# Bulk Modulus (GPa) = 59.16270 63.65012 61.40641
# Shear Modulus (GPa) = 0.79447 36.58260 18.68854
#
# Velocity S-wave (km/s) = 0.57180 3.88009 2.77327
# Velocity P-wave (km/s) = 4.97831 6.80205 5.96035
#
# Compressibility (1/GPa) = 0.01690254
#
# Stress axis : x y z
#
# Youngs Moduli (GPa) = 133.18687 104.56685 71.82198
#
# Poissons Ratio (x) = 0.15459 0.11040
# Poissons Ratio (y) = 0.19691 0.28948
# Poissons Ratio (z) = 0.20473 0.42147
#
# Static dielectric constant tensor:
#      x y z
#    x 1.910030 0.000000 0.036520 
#    y 0.000000 1.927230 0.000000 
#    z 0.036520 0.000000 2.006730 
# 
# From -- ./inp_files/2986.got.cif
#   From: 2010.05.17/outbox.cif.g08.bks.cpg/sg5_2_cif.got.tgz:2986.got - 2010.06.03 18:56:24.
