data_PCOD9131217
_publ_section_title
;
Structure prediction by ZEFSAII (Michael W. Deem and Ramdas Pophale) SiO2 
 PCOD9131217
Probable space group: P C
;
_chemical_formula_sum "Si O2"
_cell_formula_units_Z 14
_cell_length_a 6.758228
_cell_length_b 15.656034
_cell_length_c 5.427071
_cell_angle_alpha 90.000000
_cell_angle_beta 76.196554
_cell_angle_gamma 90.000000
_cell_volume 557.638777
_symmetry_space_group_name_H-M "P C"
_symmetry_group_IT_number 7
_symmetry_cell_setting 'monoclinic'
loop_
_space_group_symop_operation_xyz
x,y,z
x,-y,1/2+z
loop_
_atom_site_type_symbol
_atom_site_label
_atom_site_fract_x
_atom_site_fract_y
_atom_site_fract_z
Si Si1 0.024240 0.710370 0.023000
Si Si2 0.556471 0.968678 0.065359
Si Si3 0.095819 0.964293 0.687373
Si Si4 0.578150 0.707685 0.559410
Si Si5 0.555479 0.229620 0.571128
Si Si6 0.040864 0.773782 0.511528
Si Si7 0.826738 0.445265 0.822690
O O1 0.120784 0.770541 0.204567
O O2 0.792043 0.742960 0.045034
O O3 0.001080 0.621890 0.182659
O O4 0.102987 0.709764 0.718460
O O5 0.545204 0.869129 0.005921
O O6 0.649122 0.982741 0.306498
O O7 0.332217 0.010192 0.150614
O O8 0.068766 0.867382 0.612256
O O9 0.016434 0.021279 0.484991
O O10 0.468175 0.758530 0.373536
O O11 0.628134 0.615199 0.426313
O O12 0.799570 0.752207 0.540780
O O13 0.485677 0.712006 0.861111
O O14 0.833901 0.509009 0.586999
#
# Coordination Sequence:
#
# PCOD9131217 Si02
#       7
#     2   2   2   2   2   2   2
#     4   9  18  29  44  66  91 129 150 176 233 280
#     4  10  20  32  46  64  85 117 156 207 244 259
#     4  10  20  32  46  64  85 117 156 207 244 259
#     4   9  18  29  44  66  91 129 150 176 233 280
#     4   9  16  31  44  59  90 122 157 187 222 287
#     4   9  16  31  44  59  90 122 157 187 222 287
#     4  10  16  26  44  68  96 124 152 182 216 274
#
# _framework density 25.10586
#
# number of rings (size 3 to 8) (size 9 to 14) (size 15 to 20)
#    0.000    2.857    0.000    5.143    0.000    0.000 
#    0.000   17.143    0.000    0.000    0.000    0.000 
#    0.000    0.000    0.000 1882.286    0.000    0.000 
#
# Total GULP energy -78094.924736 kJ/mol
# GULP energy per Si atom -5578.208910 kJ/mol
# Density = 2.504872 g / cm^3
# Si number density = 25.105860 Si / 1000 Ang^3
#
#
#
# Elastic Constant Matrix: (Units=GPa)
#
#
# Indices 1 2 3 4 5 6 
#
# 1 64.6658 -6.7099 36.7024 0.0000 2.0378 0.0000
# 2 -6.7099 77.4521 10.1558 0.0000 -5.9614 0.0000
# 3 36.7024 10.1558 249.7085 0.0000 -3.7592 0.0000
# 4 0.0000 0.0000 0.0000 96.9724 0.0000 6.8205
# 5 2.0378 -5.9614 -3.7592 0.0000 58.8554 0.0000
# 6 0.0000 0.0000 0.0000 6.8205 0.0000 20.2138
#
#
#
# Elastic Compliance Matrix: (Units=1/GPa)
#
#
# Indices 1 2 3 4 5 6 
#
# 1 0.017143 0.001782 -0.002601 0.000000 -0.000579 0.000000
# 2 0.001782 0.013263 -0.000783 0.000000 0.001232 0.000000
# 3 -0.002601 -0.000783 0.004423 0.000000 0.000293 0.000000
# 4 0.000000 0.000000 0.000000 0.010563 0.000000 -0.003564
# 5 -0.000579 0.001232 0.000293 0.000000 0.017154 0.000000
# 6 0.000000 0.000000 0.000000 -0.003564 0.000000 0.050674
#
#
# Mechanical properties :
#
#
# Convention : Reuss Voigt Hill
#
# Bulk Modulus (GPa) = 31.61998 52.45812 42.03905
# Shear Modulus (GPa) = 39.38045 58.65354 49.01699
#
# Velocity S-wave (km/s) = 3.96482 4.83872 4.42340
# Velocity P-wave (km/s) = 5.79498 7.22203 6.54750
#
# Compressibility (1/GPa) = 0.03162557
#
# Stress axis : x y z
#
# Youngs Moduli (GPa) = 58.33132 75.39780 226.08031
#
# Poissons Ratio (x) = -0.13433 0.58802
# Poissons Ratio (y) = -0.10393 0.17696
# Poissons Ratio (z) = 0.15172 0.05902
#
# Static dielectric constant tensor:
#      x y z
#    x 2.242530 0.000000 -0.231220 
#    y 0.000000 1.938680 0.000000 
#    z -0.231220 0.000000 2.253230 
# 
# From -- ./inp_files/661.got.cif
#   From: 2010.05.17/outbox.cif.g08.bks.cpg/sg7_cif.got.tgz:661.got - 2010.06.03 19:44:50.
