data_PCOD9131738
_publ_section_title
;
Structure prediction by ZEFSAII (Michael W. Deem and Ramdas Pophale) SiO2 
 PCOD9131738
Probable space group: C M
;
_chemical_formula_sum "Si O2"
_cell_formula_units_Z 32
_cell_length_a 20.893559
_cell_length_b 8.721360
_cell_length_c 16.582202
_cell_angle_alpha 90.000000
_cell_angle_beta 36.896504
_cell_angle_gamma 90.000000
_cell_volume 1814.090112
_symmetry_space_group_name_H-M "C M"
_symmetry_group_IT_number 8
_symmetry_cell_setting 'monoclinic'
loop_
_space_group_symop_operation_xyz
x,y,z
x,-y,z
1/2+x,1/2+y,z
1/2+x,1/2-y,z
loop_
_atom_site_type_symbol
_atom_site_label
_atom_site_fract_x
_atom_site_fract_y
_atom_site_fract_z
Si Si1 0.768140 0.816650 0.082730
Si Si2 0.980940 0.318244 0.944614
Si Si3 0.738647 0.315197 0.935316
Si Si4 0.032567 0.685442 0.363488
Si Si5 0.378907 0.316190 0.381027
Si Si6 0.504586 0.683716 0.098451
Si Si7 0.698164 0.683830 0.668485
Si Si8 0.851527 0.685768 0.661895
O O1 0.655775 0.770229 0.236937
O O2 0.777556 0.000000 0.078547
O O3 0.759938 0.765615 0.998109
O O4 0.869404 0.740879 0.022311
O O5 0.986801 0.500000 0.933116
O O6 0.079516 0.246330 0.795903
O O7 0.992609 0.265672 0.025496
O O8 0.747478 0.500000 0.936998
O O9 0.818578 0.262960 0.783791
O O10 0.619448 0.283963 0.022891
O O11 0.026407 0.500000 0.363046
O O12 0.969403 0.754862 0.351162
O O13 0.965230 0.731921 0.510377
O O14 0.375884 0.500000 0.389273
O O15 0.414960 0.274191 0.254486
O O16 0.267918 0.247798 0.524414
O O17 0.500275 0.500000 0.088913
O O18 0.697453 0.500000 0.666326
O O19 0.762877 0.730837 0.684702
O O20 0.849295 0.500000 0.666547
#
# Coordination Sequence:
#
# PCOD9131738 Si02
#       8
#     4   4   4   4   4   4   4   4
#     4  11  23  38  56  80 115 153 191 234 289 344
#     4  12  25  39  58  83 113 151 198 242 288 344
#     4  10  18  34  58  84 113 146 187 233 284 338
#     4   9  18  33  54  81 110 148 191 232 280 334
#     4  10  19  32  55  87 118 148 187 234 282 334
#     4  10  20  36  58  85 118 153 189 234 286 337
#     4  10  19  36  58  82 115 151 187 231 291 345
#     4   8  15  30  55  82 108 140 180 226 278 332
#
# _framework density 17.639697000000002
#
# number of rings (size 3 to 8) (size 9 to 14) (size 15 to 20)
#    0.000    2.000    2.500    3.000    0.000    2.000 
#    0.000    1.875    0.000    6.000    0.000    0.000 
#    0.000    0.000    0.000    0.000    0.000    0.000 
#
# Total GULP energy -89297.783585 kJ/mol
# GULP energy per Si atom -5581.111474 kJ/mol
# Density = 1.759955 g / cm^3
# Si number density = 17.639697 Si / 1000 Ang^3
#
#
#
# Elastic Constant Matrix: (Units=GPa)
#
#
# Indices 1 2 3 4 5 6 
#
# 1 67.9911 30.4124 52.4666 0.0000 -14.9300 0.0000
# 2 30.4124 48.2961 46.9006 -0.0001 -6.7656 0.0001
# 3 52.4666 46.9006 164.7134 0.0000 -16.5463 0.0000
# 4 0.0000 -0.0001 0.0000 27.2433 0.0000 2.2314
# 5 -14.9300 -6.7656 -16.5463 0.0000 25.3438 0.0000
# 6 0.0000 0.0001 0.0000 2.2314 0.0000 27.3843
#
#
#
# Elastic Compliance Matrix: (Units=1/GPa)
#
#
# Indices 1 2 3 4 5 6 
#
# 1 0.024285 -0.010224 -0.003918 0.000000 0.009019 0.000000
# 2 -0.010224 0.033070 -0.006290 0.000000 -0.001302 0.000000
# 3 -0.003918 -0.006290 0.009321 0.000000 0.002098 0.000000
# 4 0.000000 0.000000 0.000000 0.036953 0.000000 -0.003011
# 5 0.009019 -0.001302 0.002098 0.000000 0.045793 0.000000
# 6 0.000000 0.000000 0.000000 -0.003011 0.000000 0.036763
#
#
# Mechanical properties :
#
#
# Convention : Reuss Voigt Hill
#
# Bulk Modulus (GPa) = 38.74359 60.06218 49.40288
# Shear Modulus (GPa) = 21.21758 26.07568 23.64663
#
# Velocity S-wave (km/s) = 3.47195 3.84896 3.66530
# Velocity P-wave (km/s) = 6.17123 7.34003 6.78086
#
# Compressibility (1/GPa) = 0.02581072
#
# Stress axis : x y z
#
# Youngs Moduli (GPa) = 41.17753 30.23883 107.28208
#
# Poissons Ratio (x) = 0.30916 0.42038
# Poissons Ratio (y) = 0.42099 0.67486
# Poissons Ratio (z) = 0.16135 0.19022
#
# Static dielectric constant tensor:
#      x y z
#    x 1.560710 0.000000 -0.005030 
#    y 0.000000 1.594090 0.000000 
#    z -0.005030 0.000000 1.625610 
# 
# From -- ./inp_files/27757.got.cif
#   From: 2010.05.17/outbox.cif.g08.bks.cpg/sg8_14_cif.got.tgz:27757.got - 2010.06.03 19:46:02.
