data_PCOD9131835
_publ_section_title
;
Structure prediction by ZEFSAII (Michael W. Deem and Ramdas Pophale) SiO2 
 PCOD9131835
Probable space group: C M
;
_chemical_formula_sum "Si O2"
_cell_formula_units_Z 28
_cell_length_a 9.183302
_cell_length_b 25.188742
_cell_length_c 11.722993
_cell_angle_alpha 90.000000
_cell_angle_beta 38.430684
_cell_angle_gamma 90.000000
_cell_volume 1685.512860
_symmetry_space_group_name_H-M "C M"
_symmetry_group_IT_number 8
_symmetry_cell_setting 'monoclinic'
loop_
_space_group_symop_operation_xyz
x,y,z
x,-y,z
1/2+x,1/2+y,z
1/2+x,1/2-y,z
loop_
_atom_site_type_symbol
_atom_site_label
_atom_site_fract_x
_atom_site_fract_y
_atom_site_fract_z
Si Si1 0.962690 0.661507 0.056080
Si Si2 0.191924 0.561271 0.339271
Si Si3 0.429655 0.650172 0.338206
Si Si4 0.287677 0.377045 0.056085
Si Si5 0.258302 0.061270 0.772898
Si Si6 0.023221 0.213623 0.056082
Si Si7 0.493907 0.849827 0.773955
O O1 0.687254 0.647827 0.233627
O O2 0.990672 0.724616 0.056083
O O3 0.117110 0.632654 0.056079
O O4 0.042351 0.647829 0.878532
O O5 0.263504 0.500000 0.284964
O O6 0.370441 0.596164 0.305562
O O7 0.946659 0.563338 0.556085
O O8 0.173586 0.589725 0.229116
O O9 0.440746 0.695191 0.232840
O O10 0.223491 0.659196 0.556080
O O11 0.519650 0.410276 0.883058
O O12 0.375778 0.321272 0.056084
O O13 0.369404 0.096164 0.806603
O O14 0.221272 0.000000 0.827204
O O15 0.294265 0.195191 0.879320
#
# Coordination Sequence:
#
# PCOD9131835 Si02
#       7
#     4   4   4   4   4   4   4
#     4  11  21  33  49  76 111 132 155 207 258 293
#     4   9  18  35  56  73  94 130 173 209 241 290
#     4   9  19  35  54  75  98 131 172 205 242 295
#     4  10  19  31  51  77 102 129 162 202 251 300
#     4   9  18  35  56  73  94 130 173 209 241 290
#     4   9  19  36  52  69  99 137 172 201 235 291
#     4   9  19  35  54  75  98 131 172 205 242 295
#
# _framework density 16.612154
#
# number of rings (size 3 to 8) (size 9 to 14) (size 15 to 20)
#    0.000    2.571    0.000    3.000    0.000    2.286 
#    0.000    8.571    0.000    3.429    0.000    0.000 
#    0.000    0.000    0.000    0.000    0.000    0.000 
#
# Total GULP energy -78068.515870 kJ/mol
# GULP energy per Si atom -5576.322562 kJ/mol
# Density = 1.657434 g / cm^3
# Si number density = 16.612154 Si / 1000 Ang^3
#
#
#
# Elastic Constant Matrix: (Units=GPa)
#
#
# Indices 1 2 3 4 5 6 
#
# 1 162.7554 70.3366 79.5638 0.0000 -0.7787 0.0000
# 2 70.3366 132.3636 60.2254 0.0000 -0.1258 0.0000
# 3 79.5638 60.2254 127.1682 0.0000 0.3294 0.0000
# 4 0.0000 0.0000 0.0000 18.1332 0.0000 0.1300
# 5 -0.7787 -0.1258 0.3294 0.0000 11.3079 0.0000
# 6 0.0000 0.0000 0.0000 0.1300 0.0000 8.1288
#
#
#
# Elastic Compliance Matrix: (Units=1/GPa)
#
#
# Indices 1 2 3 4 5 6 
#
# 1 0.009743 -0.003062 -0.004648 0.000000 0.000772 0.000000
# 2 -0.003062 0.010593 -0.003101 0.000000 -0.000003 0.000000
# 3 -0.004648 -0.003101 0.012242 0.000000 -0.000711 0.000000
# 4 0.000000 0.000000 0.000000 0.055154 0.000000 -0.000882
# 5 0.000772 -0.000003 -0.000711 0.000000 0.088508 0.000000
# 6 0.000000 0.000000 0.000000 -0.000882 0.000000 0.123033
#
#
# Mechanical properties :
#
#
# Convention : Reuss Voigt Hill
#
# Bulk Modulus (GPa) = 91.26847 93.61543 92.44195
# Shear Modulus (GPa) = 15.40610 21.65808 18.53209
#
# Velocity S-wave (km/s) = 3.04863 3.61466 3.34364
# Velocity P-wave (km/s) = 8.21293 8.59633 8.40682
#
# Compressibility (1/GPa) = 0.01095669
#
# Stress axis : x y z
#
# Youngs Moduli (GPa) = 102.63500 94.40215 81.68606
#
# Poissons Ratio (x) = 0.28906 0.37966
# Poissons Ratio (y) = 0.31426 0.25331
# Poissons Ratio (z) = 0.47703 0.29274
#
# Static dielectric constant tensor:
#      x y z
#    x 1.537450 0.000000 0.000480 
#    y 0.000000 1.549810 0.000000 
#    z 0.000480 0.000000 1.574820 
# 
# From -- ./inp_files/19331.got.cif
#   From: 2010.05.17/outbox.cif.g08.bks.cpg/sg8_10_cif.got.tgz:19331.got - 2010.06.03 19:46:02.
