data_PCOD9131428
_publ_section_title
;
Structure prediction by ZEFSAII (Michael W. Deem and Ramdas Pophale) SiO2 
 PCOD9131428
Probable space group: P C
;
_chemical_formula_sum "Si O2"
_cell_formula_units_Z 16
_cell_length_a 7.604723
_cell_length_b 16.628522
_cell_length_c 5.583364
_cell_angle_alpha 90.000000
_cell_angle_beta 56.860367
_cell_angle_gamma 90.000000
_cell_volume 591.201088
_symmetry_space_group_name_H-M "P C"
_symmetry_group_IT_number 7
_symmetry_cell_setting 'monoclinic'
loop_
_space_group_symop_operation_xyz
x,y,z
x,-y,1/2+z
loop_
_atom_site_type_symbol
_atom_site_label
_atom_site_fract_x
_atom_site_fract_y
_atom_site_fract_z
Si Si1 0.457060 0.533154 0.713900
Si Si2 0.864028 0.308678 0.248547
Si Si3 0.631901 0.790958 0.238237
Si Si4 0.290157 0.018321 0.600594
Si Si5 0.450338 0.294056 0.267121
Si Si6 0.834909 0.958454 0.953824
Si Si7 0.958567 0.531786 0.413617
Si Si8 0.194639 0.800073 0.271741
O O1 0.380727 0.478033 0.548352
O O2 0.421260 0.624042 0.644605
O O3 0.707294 0.517586 0.559076
O O4 0.981873 0.385724 0.052416
O O5 0.992416 0.231311 0.059782
O O6 0.791843 0.283236 0.568528
O O7 0.630782 0.319053 0.316223
O O8 0.558562 0.781932 0.562003
O O9 0.408368 0.789135 0.266731
O O10 0.743871 0.872446 0.087737
O O11 0.200797 0.108727 0.677340
O O12 0.402828 0.000885 0.767765
O O13 0.090629 0.958623 0.757677
O O14 0.233981 0.261842 0.527291
O O15 0.785928 0.984603 0.718605
O O16 0.026043 0.469415 0.578771
#
# Coordination Sequence:
#
# PCOD9131428 Si02
#       8
#     2   2   2   2   2   2   2   2
#     4   9  19  36  67  96 134 184 233 284 343 412
#     4  10  23  43  70  95 137 190 227 285 357 417
#     4  11  26  43  70 102 140 179 234 293 349 419
#     4  10  23  42  68  96 131 178 232 277 344 415
#     4  10  25  42  68 102 139 183 235 288 351 415
#     4  10  23  43  70  97 133 178 230 279 344 414
#     4   9  19  36  62  99 133 176 236 287 337 412
#     4  11  26  45  67 103 141 180 233 293 349 420
#
# _framework density 27.063547
#
# number of rings (size 3 to 8) (size 9 to 14) (size 15 to 20)
#    0.000    2.000    0.000    1.500   19.250    2.000 
#    0.000    1.250    0.000    0.000    0.000    0.000 
#    0.000    0.000    0.000    0.000    0.000    0.000 
#
# Total GULP energy -89347.990722 kJ/mol
# GULP energy per Si atom -5584.249420 kJ/mol
# Density = 2.700195 g / cm^3
# Si number density = 27.063547 Si / 1000 Ang^3
#
#
#
# Elastic Constant Matrix: (Units=GPa)
#
#
# Indices 1 2 3 4 5 6 
#
# 1 99.4606 11.9128 13.8752 0.0000 24.1451 0.0000
# 2 11.9128 91.7471 16.1877 0.0000 5.5125 0.0000
# 3 13.8752 16.1877 124.2530 0.0000 -0.2417 0.0000
# 4 0.0000 0.0000 0.0000 44.8394 0.0000 -7.2519
# 5 24.1451 5.5125 -0.2417 0.0000 22.4815 0.0000
# 6 0.0000 0.0000 0.0000 -7.2519 0.0000 26.8725
#
#
#
# Elastic Compliance Matrix: (Units=1/GPa)
#
#
# Indices 1 2 3 4 5 6 
#
# 1 0.013942 -0.000655 -0.001500 0.000000 -0.014829 0.000000
# 2 -0.000655 0.011359 -0.001411 0.000000 -0.002098 0.000000
# 3 -0.001500 -0.001411 0.008403 0.000000 0.002048 0.000000
# 4 0.000000 0.000000 0.000000 0.023320 0.000000 0.006293
# 5 -0.014829 -0.002098 0.002048 0.000000 0.060944 0.000000
# 6 0.000000 0.000000 0.000000 0.006293 0.000000 0.038911
#
#
# Mechanical properties :
#
#
# Convention : Reuss Voigt Hill
#
# Bulk Modulus (GPa) = 37.63212 44.37912 41.00562
# Shear Modulus (GPa) = 28.92366 37.07102 32.99734
#
# Velocity S-wave (km/s) = 3.27269 3.70506 3.49557
# Velocity P-wave (km/s) = 5.31187 5.89381 5.61039
#
# Compressibility (1/GPa) = 0.02657304
#
# Stress axis : x y z
#
# Youngs Moduli (GPa) = 71.72623 88.03216 118.99885
#
# Poissons Ratio (x) = 0.05762 0.17855
# Poissons Ratio (y) = 0.04695 0.16790
# Poissons Ratio (z) = 0.10762 0.12420
#
# Static dielectric constant tensor:
#      x y z
#    x 2.139780 0.000000 0.025600 
#    y 0.000000 2.108830 0.000000 
#    z 0.025600 0.000000 2.164130 
# 
# From -- ./inp_files/788.got.cif
#   From: 2010.05.17/outbox.cif.g08.bks.cpg/sg7_cif.got.tgz:788.got - 2010.06.03 19:44:50.
