data_PCOD9131011
_publ_section_title
;
Structure prediction by ZEFSAII (Michael W. Deem and Ramdas Pophale) SiO2 
 PCOD9131011
Probable space group: P M
;
_chemical_formula_sum "Si O2"
_cell_formula_units_Z 13
_cell_length_a 14.700636
_cell_length_b 7.506003
_cell_length_c 5.067664
_cell_angle_alpha 90.000000
_cell_angle_beta 111.131605
_cell_angle_gamma 90.000000
_cell_volume 521.579087
_symmetry_space_group_name_H-M "P M"
_symmetry_group_IT_number 6
_symmetry_cell_setting 'monoclinic'
loop_
_space_group_symop_operation_xyz
x,y,z
x,-y,z
loop_
_atom_site_type_symbol
_atom_site_label
_atom_site_fract_x
_atom_site_fract_y
_atom_site_fract_z
Si Si1 0.134620 0.804373 0.425030
Si Si2 0.325599 0.206475 0.993650
Si Si3 0.947151 0.284052 0.567259
Si Si4 0.519932 0.216927 0.887943
Si Si5 0.837993 0.712884 0.953304
Si Si6 0.626507 0.787482 0.497947
Si Si7 0.222668 0.500000 0.208253
O O1 0.232085 0.783828 0.703419
O O2 0.143509 0.653328 0.217863
O O3 0.045762 0.779133 0.533365
O O4 0.132488 0.000000 0.303236
O O5 0.339668 0.000000 0.095062
O O6 0.418102 0.264363 0.916564
O O7 0.299224 0.342498 0.195491
O O8 0.951298 0.500000 0.578418
O O9 0.918185 0.219975 0.827010
O O10 0.862215 0.225887 0.273004
O O11 0.603427 0.277925 0.180754
O O12 0.519341 0.000000 0.872800
O O13 0.546625 0.280341 0.624710
O O14 0.846472 0.500000 0.968578
O O15 0.732219 0.753083 0.727607
O O16 0.615489 0.000000 0.471437
#
# Coordination Sequence:
#
# PCOD9131011 Si02
#       7
#     2   2   2   2   2   2   1
#     4  11  25  42  67  99 133 176 225 277 334 402
#     4  10  24  44  66  95 136 180 223 274 336 403
#     4  10  22  40  63  88 128 174 214 270 337 393
#     4   9  20  39  63  89 124 169 215 267 329 391
#     4  10  22  39  61  90 126 167 213 269 331 393
#     4  10  20  38  63  89 122 164 212 272 331 387
#     4  12  24  42  68  96 134 176 224 284 328 404
#
# _framework density 24.924313999999999
#
# number of rings (size 3 to 8) (size 9 to 14) (size 15 to 20)
#    0.000    1.846    0.769    1.846    4.308    1.231 
#    2.769    0.000    0.000    0.000    0.000    0.000 
#    0.000    0.000    0.000    0.000    0.000    0.000 
#
# Total GULP energy -72529.445465 kJ/mol
# GULP energy per Si atom -5579.188113 kJ/mol
# Density = 2.486759 g / cm^3
# Si number density = 24.924314 Si / 1000 Ang^3
#
#
#
# Elastic Constant Matrix: (Units=GPa)
#
#
# Indices 1 2 3 4 5 6 
#
# 1 93.5523 5.5690 -9.2331 0.0000 -5.5597 0.0000
# 2 5.5690 109.3378 12.3073 0.0000 -10.6626 0.0000
# 3 -9.2331 12.3073 62.3307 0.0000 -7.1911 0.0000
# 4 0.0000 0.0000 0.0000 -27.1330 0.0000 4.1189
# 5 -5.5597 -10.6626 -7.1911 0.0000 42.5927 0.0000
# 6 0.0000 0.0000 0.0000 4.1189 0.0000 33.0082
#
#
#
# Elastic Compliance Matrix: (Units=1/GPa)
#
#
# Indices 1 2 3 4 5 6 
#
# 1 0.011013 -0.000622 0.001940 0.000000 0.001609 0.000000
# 2 -0.000622 0.009572 -0.001749 0.000000 0.002020 0.000000
# 3 0.001940 -0.001749 0.016986 0.000000 0.002683 0.000000
# 4 0.000000 0.000000 0.000000 -0.036170 0.000000 0.004513
# 5 0.001609 0.002020 0.002683 0.000000 0.024647 0.000000
# 6 0.000000 0.000000 0.000000 0.004513 0.000000 0.029732
#
#
# Mechanical properties :
#
#
# Convention : Reuss Voigt Hill
#
# Bulk Modulus (GPa) = 27.24232 31.38968 29.31600
# Shear Modulus (GPa) = 72.59192 26.79878 49.69535
#
# Velocity S-wave (km/s) = 5.40261 3.28259 4.47010
# Velocity P-wave (km/s) = 7.06196 5.19505 6.19919
#
# Compressibility (1/GPa) = 0.03670760
#
# Stress axis : x y z
#
# Youngs Moduli (GPa) = 90.79873 104.47683 58.87293
#
# Poissons Ratio (x) = 0.06502 -0.11421
# Poissons Ratio (y) = 0.05651 0.10297
# Poissons Ratio (z) = -0.17615 0.18274
#
# Static dielectric constant tensor:
#      x y z
#    x 1.942260 0.000000 0.036100 
#    y 0.000000 1.975480 0.000000 
#    z 0.036100 0.000000 2.048420 
# 
# From -- ./inp_files/1471.got.cif
#   From: 2010.05.17/outbox.cif.g08.bks.cpg/sg6_1_cif.got.tgz:1471.got - 2010.06.03 19:42:10.
