data_PCOD9131236
_publ_section_title
;
Structure prediction by ZEFSAII (Michael W. Deem and Ramdas Pophale) SiO2 
 PCOD9131236
Probable space group: P C
;
_chemical_formula_sum "Si O2"
_cell_formula_units_Z 16
_cell_length_a 9.075788
_cell_length_b 15.716838
_cell_length_c 5.456055
_cell_angle_alpha 90.000000
_cell_angle_beta 127.180990
_cell_angle_gamma 90.000000
_cell_volume 620.068525
_symmetry_space_group_name_H-M "P C"
_symmetry_group_IT_number 7
_symmetry_cell_setting 'monoclinic'
loop_
_space_group_symop_operation_xyz
x,y,z
x,-y,1/2+z
loop_
_atom_site_type_symbol
_atom_site_label
_atom_site_fract_x
_atom_site_fract_y
_atom_site_fract_z
Si Si1 0.246310 0.706513 0.856860
Si Si2 0.644473 0.390933 0.240988
Si Si3 0.677255 0.098431 0.200897
Si Si4 0.305556 0.523323 0.907986
Si Si5 0.026362 0.028309 0.082224
Si Si6 0.389378 0.222800 0.998527
Si Si7 0.832508 0.637580 0.427837
Si Si8 0.789324 0.829783 0.320451
O O1 0.372746 0.620753 0.981028
O O2 0.286654 0.758104 0.650219
O O3 0.049333 0.659547 0.648971
O O4 0.273853 0.756407 0.137729
O O5 0.478325 0.458558 0.077283
O O6 0.766762 0.402718 0.607668
O O7 0.549663 0.296418 0.147917
O O8 0.764983 0.399538 0.116532
O O9 0.819668 0.017710 0.338782
O O10 0.776793 0.151100 0.519815
O O11 0.470640 0.126467 0.077111
O O12 0.665460 0.126062 0.905383
O O13 0.201954 0.501181 0.552860
O O14 0.117046 0.009996 0.913754
O O15 0.986118 0.127514 0.084245
O O16 0.753199 0.733160 0.333923
#
# Coordination Sequence:
#
# PCOD9131236 Si02
#       8
#     2   2   2   2   2   2   2   2
#     4  12  26  42  62  89 132 163 199 250 330 384
#     4  12  23  41  69  87 119 154 217 262 297 362
#     4  10  18  30  56  90 117 152 209 249 282 352
#     4  12  23  42  66  83 117 171 204 249 313 384
#     4   8  16  27  46  84 121 151 185 249 302 331
#     4  12  21  39  67  88 123 169 203 248 304 378
#     4  12  24  41  63 100 123 153 209 268 306 367
#     4  10  17  32  55  87 126 149 194 263 302 334
#
# _framework density 25.803598999999998
#
# number of rings (size 3 to 8) (size 9 to 14) (size 15 to 20)
#    0.000    1.000    5.000    3.000    0.000    0.000 
#    0.000    3.750    0.000    0.000    0.000   47.250 
#    0.000    0.000    0.000    0.000    0.000    0.000 
#
# Total GULP energy -89262.276422 kJ/mol
# GULP energy per Si atom -5578.892276 kJ/mol
# Density = 2.574487 g / cm^3
# Si number density = 25.803599 Si / 1000 Ang^3
#
#
#
# Elastic Constant Matrix: (Units=GPa)
#
#
# Indices 1 2 3 4 5 6 
#
# 1 98.6770 12.6107 73.1094 0.0000 -17.0331 0.0000
# 2 12.6107 62.0624 9.1905 0.0000 0.5814 0.0000
# 3 73.1094 9.1905 138.9146 0.0000 -39.1157 0.0000
# 4 0.0000 0.0000 0.0000 21.6172 0.0000 -10.0861
# 5 -17.0331 0.5814 -39.1157 0.0000 48.2800 0.0000
# 6 0.0000 0.0000 0.0000 -10.0861 0.0000 13.9839
#
#
#
# Elastic Compliance Matrix: (Units=1/GPa)
#
#
# Indices 1 2 3 4 5 6 
#
# 1 0.016964 -0.002072 -0.009197 0.000000 -0.001441 0.000000
# 2 -0.002072 0.016597 -0.000350 0.000000 -0.001214 0.000000
# 3 -0.009197 -0.000350 0.014445 0.000000 0.008463 0.000000
# 4 0.000000 0.000000 0.000000 0.069723 0.000000 0.050289
# 5 -0.001441 -0.001214 0.008463 0.000000 0.027075 0.000000
# 6 0.000000 0.000000 0.000000 0.050289 0.000000 0.107783
#
#
# Mechanical properties :
#
#
# Convention : Reuss Voigt Hill
#
# Bulk Modulus (GPa) = 40.37168 54.38614 47.37891
# Shear Modulus (GPa) = 17.60078 30.42579 24.01329
#
# Velocity S-wave (km/s) = 2.61455 3.43757 3.05391
# Velocity P-wave (km/s) = 4.97938 6.07277 5.55305
#
# Compressibility (1/GPa) = 0.02476984
#
# Stress axis : x y z
#
# Youngs Moduli (GPa) = 58.94907 60.25223 69.22901
#
# Poissons Ratio (x) = 0.12482 0.63667
# Poissons Ratio (y) = 0.12212 0.02420
# Poissons Ratio (z) = 0.54213 0.02107
#
# Static dielectric constant tensor:
#      x y z
#    x 2.117920 0.000000 0.073750 
#    y 0.000000 2.152230 0.000000 
#    z 0.073750 0.000000 2.113150 
# 
# From -- ./inp_files/895.got.cif
#   From: 2010.05.17/outbox.cif.g08.bks.cpg/sg7_cif.got.tgz:895.got - 2010.06.03 19:44:50.
