data_PCOD9131578
_publ_section_title
;
Structure prediction by ZEFSAII (Michael W. Deem and Ramdas Pophale) SiO2 
 PCOD9131578
Probable space group: C M
;
_chemical_formula_sum "Si O2"
_cell_formula_units_Z 32
_cell_length_a 12.922710
_cell_length_b 23.546037
_cell_length_c 13.710677
_cell_angle_alpha 90.000000
_cell_angle_beta 30.418719
_cell_angle_gamma 90.000000
_cell_volume 2112.280387
_symmetry_space_group_name_H-M "C M"
_symmetry_group_IT_number 8
_symmetry_cell_setting 'monoclinic'
loop_
_space_group_symop_operation_xyz
x,y,z
x,-y,z
1/2+x,1/2+y,z
1/2+x,1/2-y,z
loop_
_atom_site_type_symbol
_atom_site_label
_atom_site_fract_x
_atom_site_fract_y
_atom_site_fract_z
Si Si1 0.442910 0.380529 0.082500
Si Si2 0.861427 0.564638 0.815139
Si Si3 0.146275 0.772865 0.544169
Si Si4 0.253993 0.273361 0.759094
Si Si5 0.677114 0.342878 0.712889
Si Si6 0.547463 0.730919 0.118470
Si Si7 0.967182 0.320674 0.827884
Si Si8 0.013333 0.434809 0.475416
O O1 0.448739 0.323596 0.143765
O O2 0.233147 0.413096 0.264493
O O3 0.633375 0.418223 0.965401
O O4 0.489817 0.363874 0.932257
O O5 0.866343 0.500000 0.847861
O O6 0.935025 0.613735 0.827905
O O7 0.994725 0.568028 0.608087
O O8 0.131533 0.817426 0.644518
O O9 0.374219 0.762667 0.320345
O O10 0.986485 0.790920 0.590668
O O11 0.065785 0.713253 0.655941
O O12 0.264136 0.210151 0.704761
O O13 0.116789 0.309378 0.796492
O O14 0.141565 0.268621 0.954726
O O15 0.840895 0.392884 0.574997
O O16 0.742581 0.708209 0.021504
O O17 0.978198 0.500000 0.475421
#
# Coordination Sequence:
#
# PCOD9131578 Si02
#       8
#     4   4   4   4   4   4   4   4
#     4   9  16  29  45  65  92 118 143 178 225 272
#     4   9  17  29  45  67  93 118 147 183 221 265
#     4  10  18  30  47  66  91 121 149 182 224 267
#     4   9  18  30  44  66  92 118 150 184 219 267
#     4   9  19  30  44  66  92 117 147 184 221 264
#     4   9  17  28  45  66  89 117 146 181 225 268
#     4   9  18  30  44  67  94 118 149 184 221 268
#     4  10  18  28  45  67  90 117 148 182 222 267
#
# _framework density 15.149504
#
# number of rings (size 3 to 8) (size 9 to 14) (size 15 to 20)
#    0.000    2.750    0.000    4.125    0.000    6.500 
#    0.000    0.000    0.000    0.750    0.000    0.875 
#    0.000    0.000    0.000    0.000    0.000    0.000 
#
# Total GULP energy -89127.544519 kJ/mol
# GULP energy per Si atom -5570.471532 kJ/mol
# Density = 1.511502 g / cm^3
# Si number density = 15.149504 Si / 1000 Ang^3
#
#
#
# Elastic Constant Matrix: (Units=GPa)
#
#
# Indices 1 2 3 4 5 6 
#
# 1 68.4240 24.6532 21.4323 0.0023 -3.3665 -0.0020
# 2 24.6532 73.6978 20.5190 0.0011 -3.2599 -0.0014
# 3 21.4323 20.5190 72.4122 0.0082 -8.2609 -0.0015
# 4 0.0023 0.0011 0.0082 14.1219 0.0005 -3.8692
# 5 -3.3665 -3.2599 -8.2609 0.0005 9.6812 0.0008
# 6 -0.0020 -0.0014 -0.0015 -3.8692 0.0008 13.8332
#
#
#
# Elastic Compliance Matrix: (Units=1/GPa)
#
#
# Indices 1 2 3 4 5 6 
#
# 1 0.017561 -0.004788 -0.003687 0.000000 0.001348 0.000002
# 2 -0.004788 0.016058 -0.002998 0.000001 0.001184 0.000001
# 3 -0.003687 -0.002998 0.017160 -0.000010 0.012350 -0.000003
# 4 0.000000 0.000001 -0.000010 0.076689 -0.000014 0.021450
# 5 0.001348 0.001184 0.012350 -0.000014 0.114699 -0.000009
# 6 0.000002 0.000001 -0.000003 0.021450 -0.000009 0.078289
#
#
# Mechanical properties :
#
#
# Convention : Reuss Voigt Hill
#
# Bulk Modulus (GPa) = 35.92994 38.63811 37.28403
# Shear Modulus (GPa) = 14.17719 17.38924 15.78321
#
# Velocity S-wave (km/s) = 3.06243 3.39166 3.23124
# Velocity P-wave (km/s) = 6.02271 6.39513 6.21171
#
# Compressibility (1/GPa) = 0.02783194
#
# Stress axis : x y z
#
# Youngs Moduli (GPa) = 56.94361 62.27519 58.27663
#
# Poissons Ratio (x) = 0.29820 0.21487
# Poissons Ratio (y) = 0.27267 0.17471
# Poissons Ratio (z) = 0.20995 0.18669
#
# Static dielectric constant tensor:
#      x y z
#    x 1.501820 0.000000 -0.001960 
#    y 0.000000 1.499590 0.000000 
#    z -0.001960 0.000000 1.511740 
# 
# From -- ./inp_files/3120.got.cif
#   From: 2010.05.17/outbox.cif.g08.bks.cpg/sg8_2_cif.got.tgz:3120.got - 2010.06.03 19:46:02.
