data_PCOD9131959
_publ_section_title
;
Structure prediction by ZEFSAII (Michael W. Deem and Ramdas Pophale) SiO2 
 PCOD9131959
Probable space group: C M
;
_chemical_formula_sum "Si O2"
_cell_formula_units_Z 28
_cell_length_a 9.207660
_cell_length_b 25.841095
_cell_length_c 5.303280
_cell_angle_alpha 90.000000
_cell_angle_beta 89.724823
_cell_angle_gamma 90.000000
_cell_volume 1261.826766
_symmetry_space_group_name_H-M "C M"
_symmetry_group_IT_number 8
_symmetry_cell_setting 'monoclinic'
loop_
_space_group_symop_operation_xyz
x,y,z
x,-y,z
1/2+x,1/2+y,z
1/2+x,1/2-y,z
loop_
_atom_site_type_symbol
_atom_site_label
_atom_site_fract_x
_atom_site_fract_y
_atom_site_fract_z
Si Si1 0.212750 0.788871 0.816230
Si Si2 0.364366 0.891952 0.960292
Si Si3 0.015580 0.787572 0.322577
Si Si4 0.003056 0.326435 0.310133
Si Si5 0.369499 0.000000 0.922626
Si Si6 0.066332 0.500000 0.427822
Si Si7 0.658391 0.101462 0.672670
Si Si8 0.781977 0.821688 0.981029
O O1 0.309170 0.841054 0.816211
O O2 0.106133 0.793425 0.577712
O O3 0.297478 0.733491 0.834842
O O4 0.123601 0.790482 0.080671
O O5 0.523837 0.909246 0.861882
O O6 0.281527 0.946033 0.949560
O O7 0.387002 0.869806 0.240243
O O8 0.944427 0.730409 0.348047
O O9 0.885129 0.823070 0.224423
O O10 0.101852 0.348321 0.526198
O O11 0.116067 0.320501 0.078738
O O12 0.439938 0.000000 0.642024
O O13 0.486258 0.000000 0.157766
O O14 0.160636 0.551806 0.489298
O O15 0.794266 0.125336 0.821495
#
# Coordination Sequence:
#
# PCOD9131959 Si02
#       8
#     4   4   4   4   2   2   4   4
#     4  11  24  36  57  82 115 155 183 231 276 334
#     4  10  21  36  56  87 116 143 189 231 289 334
#     4  11  24  37  54  84 115 152 190 220 276 339
#     4  10  19  33  57  81 114 149 180 233 278 336
#     4  10  20  34  58  84 113 147 176 240 285 332
#     4  10  20  34  56  88 113 139 188 230 293 330
#     4  10  20  35  59  84 116 147 182 239 284 332
#     4  10  22  36  54  82 116 151 188 227 281 332
#
# _framework density 22.190049999999999
#
# number of rings (size 3 to 8) (size 9 to 14) (size 15 to 20)
#    0.000    1.714    4.286    0.000    4.000    0.000 
#    0.000    0.000    0.000    1.714    0.000    0.000 
#    0.000    0.000    0.000    0.000    0.000    0.000 
#
# Total GULP energy -77992.029297 kJ/mol
# GULP energy per Si atom -5570.859236 kJ/mol
# Density = 2.213954 g / cm^3
# Si number density = 22.190050 Si / 1000 Ang^3
#
#
#
# Elastic Constant Matrix: (Units=GPa)
#
#
# Indices 1 2 3 4 5 6 
#
# 1 34.5640 13.7375 19.3759 0.0000 4.1836 0.0000
# 2 13.7375 103.0674 31.0351 0.0000 3.3702 0.0000
# 3 19.3759 31.0351 136.0438 0.0000 14.4802 0.0000
# 4 0.0000 0.0000 0.0000 37.1597 0.0000 8.0741
# 5 4.1836 3.3702 14.4802 0.0000 35.1074 0.0000
# 6 0.0000 0.0000 0.0000 8.0741 0.0000 16.2746
#
#
#
# Elastic Compliance Matrix: (Units=1/GPa)
#
#
# Indices 1 2 3 4 5 6 
#
# 1 0.032503 -0.003154 -0.003692 0.000000 -0.002048 0.000000
# 2 -0.003154 0.010724 -0.002016 0.000000 0.000178 0.000000
# 3 -0.003692 -0.002016 0.008649 0.000000 -0.002934 0.000000
# 4 0.000000 0.000000 0.000000 0.030162 0.000000 -0.014964
# 5 -0.002048 0.000178 -0.002934 0.000000 0.029921 0.000000
# 6 0.000000 0.000000 0.000000 -0.014964 0.000000 0.068869
#
#
# Mechanical properties :
#
#
# Convention : Reuss Voigt Hill
#
# Bulk Modulus (GPa) = 29.28077 44.66358 36.97218
# Shear Modulus (GPa) = 23.81692 31.67679 27.74685
#
# Velocity S-wave (km/s) = 3.27970 3.78236 3.53996
# Velocity P-wave (km/s) = 5.25034 6.26469 5.77981
#
# Compressibility (1/GPa) = 0.03415210
#
# Stress axis : x y z
#
# Youngs Moduli (GPa) = 30.76673 93.24877 115.62592
#
# Poissons Ratio (x) = 0.29406 0.42687
# Poissons Ratio (y) = 0.09702 0.23313
# Poissons Ratio (z) = 0.11358 0.18801
#
# Static dielectric constant tensor:
#      x y z
#    x 1.884550 0.000000 -0.032330 
#    y 0.000000 1.931340 0.000000 
#    z -0.032330 0.000000 1.888730 
# 
# From -- ./inp_files/1762.got.cif
#   From: 2010.05.17/outbox.cif.g08.bks.cpg/sg8_1_cif.got.tgz:1762.got - 2010.06.03 19:46:02.
