data_PCOD9131155
_publ_section_title
;
Structure prediction by ZEFSAII (Michael W. Deem and Ramdas Pophale) SiO2 
 PCOD9131155
Probable space group: P M
;
_chemical_formula_sum "Si O2"
_cell_formula_units_Z 14
_cell_length_a 15.735878
_cell_length_b 8.853742
_cell_length_c 7.912351
_cell_angle_alpha 90.000000
_cell_angle_beta 146.203358
_cell_angle_gamma 90.000000
_cell_volume 613.184263
_symmetry_space_group_name_H-M "P M"
_symmetry_group_IT_number 6
_symmetry_cell_setting 'monoclinic'
loop_
_space_group_symop_operation_xyz
x,y,z
x,-y,z
loop_
_atom_site_type_symbol
_atom_site_label
_atom_site_fract_x
_atom_site_fract_y
_atom_site_fract_z
Si Si1 0.135210 0.820250 0.259090
Si Si2 0.329735 0.165498 0.077835
Si Si3 0.408907 0.676188 0.888295
Si Si4 0.944148 0.667834 0.223987
Si Si5 0.016106 0.759809 0.720013
Si Si6 0.595256 0.324272 0.710265
Si Si7 0.669059 0.828925 0.180779
O O1 0.306190 0.765879 0.583529
O O2 0.035519 0.787551 0.262691
O O3 0.128751 0.000000 0.209075
O O4 0.070451 0.716934 0.998956
O O5 0.468044 0.214629 0.425562
O O6 0.357041 0.000000 0.045586
O O7 0.326028 0.292641 0.928390
O O8 0.170273 0.159344 0.912005
O O9 0.417556 0.500000 0.865776
O O10 0.576114 0.751641 0.178454
O O11 0.985565 0.500000 0.231802
O O12 0.976541 0.672088 0.479889
O O13 0.762521 0.692336 0.902870
O O14 0.851851 0.832277 0.490429
O O15 0.549017 0.500000 0.619241
O O16 0.623019 0.277147 0.948831
O O17 0.616112 0.000000 0.068858
#
# Coordination Sequence:
#
# PCOD9131155 Si02
#       7
#     2   2   2   2   2   2   2
#     4  12  25  43  72 107 142 184 237 295 355 423
#     4  12  24  43  71 102 139 186 237 293 353 420
#     4  12  27  46  67 100 143 186 235 293 356 423
#     4  10  24  46  70 103 144 189 236 289 352 421
#     4  11  26  45  73 106 143 182 237 292 355 419
#     4  10  23  43  67  99 140 184 231 286 353 419
#     4  11  23  44  70 101 137 181 235 292 350 417
#
# _framework density 22.831634000000001
#
# number of rings (size 3 to 8) (size 9 to 14) (size 15 to 20)
#    0.000    0.857    1.429    5.143    2.000    5.714 
#    0.000    0.000    0.000    0.000    0.000    0.000 
#    0.000    0.000    0.000    0.000    0.000    0.000 
#
# Total GULP energy -78116.517825 kJ/mol
# GULP energy per Si atom -5579.751273 kJ/mol
# Density = 2.277967 g / cm^3
# Si number density = 22.831634 Si / 1000 Ang^3
#
#
#
# Elastic Constant Matrix: (Units=GPa)
#
#
# Indices 1 2 3 4 5 6 
#
# 1 99.0575 30.4157 27.0898 0.0000 14.5270 0.0000
# 2 30.4157 103.7504 25.8355 0.0000 28.3136 0.0000
# 3 27.0898 25.8355 114.8875 0.0000 9.4415 0.0000
# 4 0.0000 0.0000 0.0000 6.1449 0.0000 -6.1981
# 5 14.5270 28.3136 9.4415 0.0000 39.8642 0.0000
# 6 0.0000 0.0000 0.0000 -6.1981 0.0000 7.0946
#
#
#
# Elastic Compliance Matrix: (Units=1/GPa)
#
#
# Indices 1 2 3 4 5 6 
#
# 1 0.011685 -0.002337 -0.002056 0.000000 -0.002111 0.000000
# 2 -0.002337 0.012907 -0.001701 0.000000 -0.007912 0.000000
# 3 -0.002056 -0.001701 0.009597 0.000000 -0.000316 0.000000
# 4 0.000000 0.000000 0.000000 1.369877 0.000000 1.196773
# 5 -0.002111 -0.007912 -0.000316 0.000000 0.031549 0.000000
# 6 0.000000 0.000000 0.000000 1.196773 0.000000 1.186495
#
#
# Mechanical properties :
#
#
# Convention : Reuss Voigt Hill
#
# Bulk Modulus (GPa) = 45.45514 53.81971 49.63742
# Shear Modulus (GPa) = 1.89277 26.24437 14.06857
#
# Velocity S-wave (km/s) = 0.91149 3.39407 2.48501
# Velocity P-wave (km/s) = 4.58910 6.24365 5.47919
#
# Compressibility (1/GPa) = 0.02199971
#
# Stress axis : x y z
#
# Youngs Moduli (GPa) = 85.58183 77.47962 104.19446
#
# Poissons Ratio (x) = 0.18110 0.21423
# Poissons Ratio (y) = 0.20004 0.17724
# Poissons Ratio (z) = 0.17596 0.13179
#
# Static dielectric constant tensor:
#      x y z
#    x 1.865000 0.000000 0.010530 
#    y 0.000000 1.794420 0.000000 
#    z 0.010530 0.000000 1.862150 
# 
# From -- ./inp_files/4222.got.cif
#   From: 2010.05.17/outbox.cif.g08.bks.cpg/sg6_3_cif.got.tgz:4222.got - 2010.06.03 19:42:10.
