data_PCOD9131909
_publ_section_title
;
Structure prediction by ZEFSAII (Michael W. Deem and Ramdas Pophale) SiO2 
 PCOD9131909
Probable space group: C M
;
_chemical_formula_sum "Si O2"
_cell_formula_units_Z 24
_cell_length_a 19.360862
_cell_length_b 8.719149
_cell_length_c 25.505660
_cell_angle_alpha 90.000000
_cell_angle_beta 18.636683
_cell_angle_gamma 90.000000
_cell_volume 1375.928857
_symmetry_space_group_name_H-M "C M"
_symmetry_group_IT_number 8
_symmetry_cell_setting 'monoclinic'
loop_
_space_group_symop_operation_xyz
x,y,z
x,-y,z
1/2+x,1/2+y,z
1/2+x,1/2-y,z
loop_
_atom_site_type_symbol
_atom_site_label
_atom_site_fract_x
_atom_site_fract_y
_atom_site_fract_z
Si Si1 0.190220 0.677592 0.877010
Si Si2 0.890534 0.686140 0.246592
Si Si3 0.343497 0.677637 0.888723
Si Si4 0.736060 0.314631 0.240687
Si Si5 0.280389 0.815060 0.532679
Si Si6 0.623713 0.818283 0.534855
O O1 0.197409 0.500000 0.854680
O O2 0.262361 0.678462 0.886473
O O3 0.370677 0.771755 0.716592
O O4 0.942795 0.732749 0.056605
O O5 0.893745 0.500000 0.247578
O O6 0.790149 0.725728 0.262067
O O7 0.749556 0.753739 0.394396
O O8 0.140833 0.742871 0.066597
O O9 0.364330 0.500000 0.890011
O O10 0.585224 0.742773 0.711160
O O11 0.725286 0.500000 0.245562
O O12 0.512570 0.242791 0.383504
O O13 0.224692 0.755728 0.514693
O O14 0.273003 0.000000 0.537484
O O15 0.644177 0.000000 0.522995
#
# Coordination Sequence:
#
# PCOD9131909 Si02
#       6
#     4   4   4   4   4   4
#     4   8  15  31  52  71  95 129 165 200 245 297
#     4   9  17  33  54  72  96 131 166 202 250 298
#     4   7  13  28  50  71  90 123 167 200 234 291
#     4   9  18  33  54  78 101 127 163 205 247 295
#     4  10  19  33  53  75 101 132 165 202 248 296
#     4  11  21  32  49  75 103 130 168 209 242 287
#
# _framework density 17.442761999999998
#
# number of rings (size 3 to 8) (size 9 to 14) (size 15 to 20)
#    0.000    3.000    0.000    5.000    0.000    1.333 
#    0.000    9.167    0.000    4.000    0.000    0.000 
#    0.000    0.000    0.000    0.000    0.000    0.000 
#
# Total GULP energy -66814.705668 kJ/mol
# GULP energy per Si atom -5567.892139 kJ/mol
# Density = 1.740306 g / cm^3
# Si number density = 17.442762 Si / 1000 Ang^3
#
#
#
# Elastic Constant Matrix: (Units=GPa)
#
#
# Indices 1 2 3 4 5 6 
#
# 1 44.8422 25.9245 71.3749 0.0068 0.4640 0.0011
# 2 25.9245 40.2987 51.6338 0.0138 0.8780 0.0072
# 3 71.3749 51.6338 215.8844 0.0073 -2.7366 0.0067
# 4 0.0068 0.0138 0.0073 21.8530 0.0026 -7.7920
# 5 0.4640 0.8780 -2.7366 0.0026 33.3455 0.0015
# 6 0.0011 0.0072 0.0067 -7.7920 0.0015 17.9556
#
#
#
# Elastic Compliance Matrix: (Units=1/GPa)
#
#
# Indices 1 2 3 4 5 6 
#
# 1 0.054299 -0.017121 -0.013876 0.000002 -0.001444 0.000010
# 2 -0.017121 0.041268 -0.004225 -0.000029 -0.001195 -0.000026
# 3 -0.013876 -0.004225 0.010245 0.000003 0.001145 0.000000
# 4 0.000002 -0.000029 0.000003 0.054137 -0.000004 0.023493
# 5 -0.001444 -0.001195 0.001145 -0.000004 0.030135 -0.000004
# 6 0.000010 -0.000026 0.000000 0.023493 -0.000004 0.065888
#
#
# Mechanical properties :
#
#
# Convention : Reuss Voigt Hill
#
# Bulk Modulus (GPa) = 28.27365 66.54353 47.40859
# Shear Modulus (GPa) = 14.78395 24.77031 19.77713
#
# Velocity S-wave (km/s) = 2.91446 3.77250 3.37089
# Velocity P-wave (km/s) = 5.25072 7.56361 6.51069
#
# Compressibility (1/GPa) = 0.03536862
#
# Stress axis : x y z
#
# Youngs Moduli (GPa) = 18.41649 24.23166 97.61281
#
# Poissons Ratio (x) = 0.41488 1.35443
# Poissons Ratio (y) = 0.31532 0.41240
# Poissons Ratio (z) = 0.25554 0.10237
#
# Static dielectric constant tensor:
#      x y z
#    x 1.562810 0.000000 -0.006450 
#    y 0.000000 1.584050 0.000010 
#    z -0.006450 0.000010 1.639550 
# 
# From -- ./inp_files/14199.got.cif
#   From: 2010.05.17/outbox.cif.g08.bks.cpg/sg8_8_cif.got.tgz:14199.got - 2010.06.03 19:46:02.
