data_PCOD9131886
_publ_section_title
;
Structure prediction by ZEFSAII (Michael W. Deem and Ramdas Pophale) SiO2 
 PCOD9131886
Probable space group: C M
;
_chemical_formula_sum "Si O2"
_cell_formula_units_Z 32
_cell_length_a 20.517784
_cell_length_b 7.786807
_cell_length_c 14.969583
_cell_angle_alpha 90.000000
_cell_angle_beta 149.341785
_cell_angle_gamma 90.000000
_cell_volume 1219.545348
_symmetry_space_group_name_H-M "C M"
_symmetry_group_IT_number 8
_symmetry_cell_setting 'monoclinic'
loop_
_space_group_symop_operation_xyz
x,y,z
x,-y,z
1/2+x,1/2+y,z
1/2+x,1/2-y,z
loop_
_atom_site_type_symbol
_atom_site_label
_atom_site_fract_x
_atom_site_fract_y
_atom_site_fract_z
Si Si1 0.844670 0.797202 0.798860
Si Si2 0.727477 0.200952 0.126608
Si Si3 0.489734 0.801224 0.404403
Si Si4 0.997420 0.303192 0.609793
Si Si5 0.054670 0.289508 0.293664
Si Si6 0.444437 0.298040 0.736869
Si Si7 0.268388 0.800471 0.898729
Si Si8 0.633118 0.791613 0.200014
O O1 0.846846 0.733507 0.698428
O O2 0.765030 0.719194 0.786647
O O3 0.817296 0.000000 0.767197
O O4 0.991535 0.763944 0.001631
O O5 0.838111 0.296900 0.203797
O O6 0.722507 0.266204 0.224087
O O7 0.757879 0.000000 0.160645
O O8 0.584124 0.221932 0.921896
O O9 0.490102 0.718510 0.503021
O O10 0.565710 0.730342 0.408944
O O11 0.528807 0.000000 0.461703
O O12 0.957343 0.500000 0.558433
O O13 0.150992 0.296341 0.805078
O O14 0.924931 0.223463 0.608365
O O15 0.062450 0.500000 0.305478
O O16 0.142059 0.233677 0.313422
O O17 0.909654 0.242753 0.094000
O O18 0.452647 0.500000 0.763346
O O19 0.255281 0.000000 0.905507
O O20 0.637079 0.000000 0.204523
#
# Coordination Sequence:
#
# PCOD9131886 Si02
#       8
#     4   4   4   4   4   4   4   4
#     4   9  17  30  51  79 106 131 166 214 263 313
#     4  10  19  32  54  81 106 133 170 216 261 313
#     4  10  21  36  52  72 104 142 175 213 261 311
#     4  11  23  36  51  74 106 143 183 225 263 306
#     4   8  15  31  54  75  95 127 168 204 248 307
#     4  10  20  35  56  79 105 139 177 219 267 315
#     4  10  19  33  56  80 104 136 172 214 265 321
#     4   8  15  29  50  76 102 129 165 209 256 306
#
# _framework density 26.239288999999999
#
# number of rings (size 3 to 8) (size 9 to 14) (size 15 to 20)
#    0.000    2.500    0.000    3.375    0.000    4.000 
#    0.000    3.750    0.000    3.000    0.000    0.000 
#    0.000    0.000    0.000    0.000    0.000    0.000 
#
# Total GULP energy -89446.748027 kJ/mol
# GULP energy per Si atom -5590.421752 kJ/mol
# Density = 2.617957 g / cm^3
# Si number density = 26.239289 Si / 1000 Ang^3
#
#
#
# Elastic Constant Matrix: (Units=GPa)
#
#
# Indices 1 2 3 4 5 6 
#
# 1 239.2994 13.8184 48.6697 0.0000 -18.8619 0.0000
# 2 13.8184 62.3693 1.4017 0.0000 -0.4516 0.0000
# 3 48.6697 1.4017 77.3862 0.0000 -21.9650 0.0000
# 4 0.0000 0.0000 0.0000 12.9396 0.0000 -6.4244
# 5 -18.8619 -0.4516 -21.9650 0.0000 58.1351 0.0000
# 6 0.0000 0.0000 0.0000 -6.4244 0.0000 23.3527
#
#
#
# Elastic Compliance Matrix: (Units=1/GPa)
#
#
# Indices 1 2 3 4 5 6 
#
# 1 0.004866 -0.001009 -0.002908 0.000000 0.000472 0.000000
# 2 -0.001009 0.016249 0.000317 0.000000 -0.000081 0.000000
# 3 -0.002908 0.000317 0.016217 0.000000 0.005186 0.000000
# 4 0.000000 0.000000 0.000000 0.089508 0.000000 0.024624
# 5 0.000472 -0.000081 0.005186 0.000000 0.019313 0.000000
# 6 0.000000 0.000000 0.000000 0.024624 0.000000 0.049596
#
#
# Mechanical properties :
#
#
# Convention : Reuss Voigt Hill
#
# Bulk Modulus (GPa) = 33.18627 56.31494 44.75060
# Shear Modulus (GPa) = 23.47490 39.89648 31.68569
#
# Velocity S-wave (km/s) = 2.99431 3.90357 3.47878
# Velocity P-wave (km/s) = 4.96281 6.46729 5.76435
#
# Compressibility (1/GPa) = 0.03013295
#
# Stress axis : x y z
#
# Youngs Moduli (GPa) = 205.51681 61.54066 61.66231
#
# Poissons Ratio (x) = 0.06211 0.17931
# Poissons Ratio (y) = 0.20742 -0.01957
# Poissons Ratio (z) = 0.59762 -0.01953
#
# Static dielectric constant tensor:
#      x y z
#    x 2.055360 0.000000 -0.044850 
#    y 0.000000 1.922780 0.000000 
#    z -0.044850 0.000000 2.212160 
# 
# From -- ./inp_files/23906.got.cif
#   From: 2010.05.17/outbox.cif.g08.bks.cpg/sg8_12_cif.got.tgz:23906.got - 2010.06.03 19:46:02.
