data_PCOD9131224
_publ_section_title
;
Structure prediction by ZEFSAII (Michael W. Deem and Ramdas Pophale) SiO2 
 PCOD9131224
Probable space group: P C
;
_chemical_formula_sum "Si O2"
_cell_formula_units_Z 12
_cell_length_a 11.740716
_cell_length_b 7.493499
_cell_length_c 5.506268
_cell_angle_alpha 90.000000
_cell_angle_beta 89.039605
_cell_angle_gamma 90.000000
_cell_volume 484.368139
_symmetry_space_group_name_H-M "P C"
_symmetry_group_IT_number 7
_symmetry_cell_setting 'monoclinic'
loop_
_space_group_symop_operation_xyz
x,y,z
x,-y,1/2+z
loop_
_atom_site_type_symbol
_atom_site_label
_atom_site_fract_x
_atom_site_fract_y
_atom_site_fract_z
Si Si1 0.650780 0.104753 0.919960
Si Si2 0.445422 0.307621 0.816206
Si Si3 0.356606 0.721279 0.817228
Si Si4 0.887923 0.980260 0.915940
Si Si5 0.851337 0.599025 0.920936
Si Si6 0.122544 0.398663 0.437774
O O1 0.578007 0.284036 0.879510
O O2 0.622753 0.982372 0.683689
O O3 0.787964 0.127533 0.916606
O O4 0.398266 0.510547 0.801360
O O5 0.420776 0.218661 0.557370
O O6 0.383424 0.214132 0.046307
O O7 0.222577 0.738505 0.876359
O O8 0.811620 0.801771 0.922327
O O9 0.954075 0.997813 0.663235
O O10 0.823911 0.501988 0.670407
O O11 0.988711 0.638258 0.919819
O O12 0.141045 0.461289 0.714553
#
# Coordination Sequence:
#
# PCOD9131224 Si02
#       6
#     2   2   2   2   2   2
#     4  10  21  37  58  73 107 157 200 223 289 350
#     4  10  18  30  54  79 109 147 185 231 279 344
#     4  10  17  30  53  85 114 138 184 237 289 327
#     4  10  21  40  65  81 118 167 193 243 314 360
#     4  10  21  35  63  94 118 150 203 253 296 353
#     4  10  16  30  51  88 114 149 175 239 297 346
#
# _framework density 24.774543000000001
#
# number of rings (size 3 to 8) (size 9 to 14) (size 15 to 20)
#    0.000    2.000    3.333    2.000    0.000    0.000 
#    0.000    0.000   88.000    6.000    0.000    0.000 
#    0.000    0.000    0.000    0.000    0.000    0.000 
#
# Total GULP energy -66876.309287 kJ/mol
# GULP energy per Si atom -5573.025774 kJ/mol
# Density = 2.471815 g / cm^3
# Si number density = 24.774543 Si / 1000 Ang^3
#
#
#
# Elastic Constant Matrix: (Units=GPa)
#
#
# Indices 1 2 3 4 5 6 
#
# 1 53.9367 -16.7001 -10.5837 0.0000 1.2963 0.0000
# 2 -16.7001 61.4067 36.6875 0.0000 1.0880 0.0000
# 3 -10.5837 36.6875 238.2616 0.0000 -0.4237 0.0000
# 4 0.0000 0.0000 0.0000 23.9794 0.0000 6.0203
# 5 1.2963 1.0880 -0.4237 0.0000 26.1371 0.0000
# 6 0.0000 0.0000 0.0000 6.0203 0.0000 -12.5002
#
#
#
# Elastic Compliance Matrix: (Units=1/GPa)
#
#
# Indices 1 2 3 4 5 6 
#
# 1 0.020285 0.005508 0.000051 0.000000 -0.001235 0.000000
# 2 0.005508 0.019447 -0.002752 0.000000 -0.001127 0.000000
# 3 0.000051 -0.002752 0.004623 0.000000 0.000187 0.000000
# 4 0.000000 0.000000 0.000000 0.037204 0.000000 0.017918
# 5 -0.001235 -0.001127 0.000187 0.000000 0.038371 0.000000
# 6 0.000000 0.000000 0.000000 0.017918 0.000000 -0.071369
#
#
# Mechanical properties :
#
#
# Convention : Reuss Voigt Hill
#
# Bulk Modulus (GPa) = 20.01188 41.37917 30.69552
# Shear Modulus (GPa) = 83.88756 30.47002 57.17879
#
# Velocity S-wave (km/s) = 5.82528 3.51079 4.80934
# Velocity P-wave (km/s) = 7.30345 5.75958 6.57697
#
# Compressibility (1/GPa) = 0.04997033
#
# Stress axis : x y z
#
# Youngs Moduli (GPa) = 49.29654 51.42204 216.29258
#
# Poissons Ratio (x) = -0.28325 -0.01097
# Poissons Ratio (y) = -0.27154 0.59518
# Poissons Ratio (z) = -0.00250 0.14150
#
# Static dielectric constant tensor:
#      x y z
#    x 2.000200 0.000000 -0.003820 
#    y 0.000000 2.053390 0.000000 
#    z -0.003820 0.000000 2.043810 
# 
# From -- ./inp_files/1015.got.cif
#   From: 2010.05.17/outbox.cif.g08.bks.cpg/sg7_cif.got.tgz:1015.got - 2010.06.03 19:44:50.
