data_PCOD9131858
_publ_section_title
;
Structure prediction by ZEFSAII (Michael W. Deem and Ramdas Pophale) SiO2 
 PCOD9131858
Probable space group: C M
;
_chemical_formula_sum "Si O2"
_cell_formula_units_Z 32
_cell_length_a 14.180463
_cell_length_b 7.488721
_cell_length_c 13.940180
_cell_angle_alpha 90.000000
_cell_angle_beta 116.534005
_cell_angle_gamma 90.000000
_cell_volume 1324.430033
_symmetry_space_group_name_H-M "C M"
_symmetry_group_IT_number 8
_symmetry_cell_setting 'monoclinic'
loop_
_space_group_symop_operation_xyz
x,y,z
x,-y,z
1/2+x,1/2+y,z
1/2+x,1/2-y,z
loop_
_atom_site_type_symbol
_atom_site_label
_atom_site_fract_x
_atom_site_fract_y
_atom_site_fract_z
Si Si1 0.957760 0.210182 0.593760
Si Si2 0.767619 0.291649 0.868527
Si Si3 0.202125 0.786581 0.639888
Si Si4 0.036043 0.707184 0.828516
Si Si5 0.980690 0.716876 0.017634
Si Si6 0.401957 0.281074 0.365535
Si Si7 0.185324 0.703877 0.215529
Si Si8 0.138119 0.782933 0.409949
O O1 0.895086 0.283230 0.473498
O O2 0.079574 0.235695 0.615358
O O3 0.956391 0.276268 0.702332
O O4 0.938981 0.000000 0.590871
O O5 0.793094 0.500000 0.864790
O O6 0.763912 0.210976 0.759295
O O7 0.649594 0.287498 0.854749
O O8 0.860023 0.222770 0.979748
O O9 0.207265 0.720542 0.533084
O O10 0.220852 0.000000 0.643400
O O11 0.057687 0.500000 0.849684
O O12 0.996996 0.767807 0.913792
O O13 0.983929 0.500000 0.032532
O O14 0.080915 0.786857 0.121713
O O15 0.399055 0.500000 0.367243
O O16 0.302468 0.216989 0.258721
O O17 0.516208 0.234301 0.376403
O O18 0.192324 0.500000 0.182874
O O19 0.168777 0.705125 0.322278
O O20 0.143340 0.000000 0.408086
#
# Coordination Sequence:
#
# PCOD9131858 Si02
#       8
#     4   4   4   4   4   4   4   4
#     4   8  14  29  51  74  98 130 163 191 235 304
#     4   9  17  34  55  72  95 134 168 193 237 303
#     4   7  12  25  48  71  92 119 156 192 231 289
#     4  10  19  32  51  78 103 125 158 207 251 284
#     4   9  20  35  50  69  99 135 169 199 242 297
#     4   8  16  32  54  73  97 133 166 193 240 302
#     4  10  20  35  51  71  98 131 169 208 242 283
#     4   9  17  32  52  74  96 125 163 203 244 294
#
# _framework density 24.161335999999999
#
# number of rings (size 3 to 8) (size 9 to 14) (size 15 to 20)
#    0.000    3.250    0.000    2.625    0.000    2.000 
#    0.000   12.500    0.000    0.000    0.000    0.000 
#    0.000    0.000    0.000    0.000    0.000    0.000 
#
# Total GULP energy -89240.837110 kJ/mol
# GULP energy per Si atom -5577.552319 kJ/mol
# Density = 2.410634 g / cm^3
# Si number density = 24.161336 Si / 1000 Ang^3
#
#
#
# Elastic Constant Matrix: (Units=GPa)
#
#
# Indices 1 2 3 4 5 6 
#
# 1 43.9646 -10.7820 13.2324 0.0000 25.9818 0.0000
# 2 -10.7820 55.9203 8.7283 0.0000 6.7085 0.0000
# 3 13.2324 8.7283 83.8717 0.0000 48.6011 0.0000
# 4 0.0000 0.0000 0.0000 4.1417 0.0000 -14.1652
# 5 25.9818 6.7085 48.6011 0.0000 47.6397 0.0000
# 6 0.0000 0.0000 0.0000 -14.1652 0.0000 0.6092
#
#
#
# Elastic Compliance Matrix: (Units=1/GPa)
#
#
# Indices 1 2 3 4 5 6 
#
# 1 0.047103 0.011770 0.017587 0.000000 -0.045288 0.000000
# 2 0.011770 0.021165 0.003393 0.000000 -0.012861 0.000000
# 3 0.017587 0.003393 0.035785 0.000000 -0.046576 0.000000
# 4 0.000000 0.000000 0.000000 -0.003075 0.000000 -0.071495
# 5 -0.045288 -0.012861 -0.046576 0.000000 0.095017 0.000000
# 6 0.000000 0.000000 0.000000 -0.071495 0.000000 -0.020904
#
#
# Mechanical properties :
#
#
# Convention : Reuss Voigt Hill
#
# Bulk Modulus (GPa) = 5.89789 22.90154 14.39971
# Shear Modulus (GPa) = 30.10066 21.98331 26.04199
#
# Velocity S-wave (km/s) = 3.53345 3.01965 3.28660
# Velocity P-wave (km/s) = 4.36959 4.65370 4.51388
#
# Compressibility (1/GPa) = 0.16955224
#
# Stress axis : x y z
#
# Youngs Moduli (GPa) = 21.23020 47.24730 27.94488
#
# Poissons Ratio (x) = -0.55610 -0.49146
# Poissons Ratio (y) = -0.24988 -0.09482
# Poissons Ratio (z) = -0.37337 -0.16031
#
# Static dielectric constant tensor:
#      x y z
#    x 1.988590 0.000000 0.039910 
#    y 0.000000 1.889090 0.000000 
#    z 0.039910 0.000000 1.952750 
# 
# From -- ./inp_files/26556.got.cif
#   From: 2010.05.17/outbox.cif.g08.bks.cpg/sg8_14_cif.got.tgz:26556.got - 2010.06.03 19:46:02.
