data_PCOD9131052
_publ_section_title
;
Structure prediction by ZEFSAII (Michael W. Deem and Ramdas Pophale) SiO2 
 PCOD9131052
Probable space group: P M
;
_chemical_formula_sum "Si O2"
_cell_formula_units_Z 16
_cell_length_a 7.521516
_cell_length_b 18.495773
_cell_length_c 4.952344
_cell_angle_alpha 90.000000
_cell_angle_beta 67.335632
_cell_angle_gamma 90.000000
_cell_volume 635.749257
_symmetry_space_group_name_H-M "P M"
_symmetry_group_IT_number 6
_symmetry_cell_setting 'monoclinic'
loop_
_space_group_symop_operation_xyz
x,y,z
x,-y,z
loop_
_atom_site_type_symbol
_atom_site_label
_atom_site_fract_x
_atom_site_fract_y
_atom_site_fract_z
Si Si1 0.751150 0.267740 0.158940
Si Si2 0.684729 0.826890 0.693080
Si Si3 0.154782 0.294115 0.662987
Si Si4 0.620734 0.579606 0.028409
Si Si5 0.062884 0.916662 0.318169
Si Si6 0.959435 0.580879 0.440343
Si Si7 0.272097 0.422319 0.880774
Si Si8 0.284487 0.861531 0.668985
O O1 0.720669 0.241506 0.477931
O O2 0.667351 0.207171 0.001417
O O3 0.671077 0.347625 0.152780
O O4 0.976860 0.272000 0.957013
O O5 0.494106 0.864720 0.685303
O O6 0.873327 0.876803 0.547285
O O7 0.058976 0.346937 0.498927
O O8 0.255407 0.218228 0.553020
O O9 0.305377 0.348180 0.711978
O O10 0.664911 0.500000 0.123307
O O11 0.742709 0.583725 0.675787
O O12 0.398448 0.580267 0.075737
O O13 0.226913 0.912469 0.454147
O O14 0.019585 0.000000 0.281825
O O15 0.138417 0.878092 0.002004
O O16 0.022429 0.500000 0.500659
O O17 0.044285 0.578982 0.087867
O O18 0.320814 0.500000 0.728545
#
# Coordination Sequence:
#
# PCOD9131052 Si02
#       8
#     2   2   2   2   2   2   2   2
#     4  11  24  42  72  98 144 188 240 289 357 407
#     4  12  25  49  72 111 142 189 231 289 347 426
#     4  11  22  37  65  92 137 177 233 294 344 404
#     4   9  20  39  57  89 131 177 238 297 345 406
#     4  12  27  51  76 110 148 182 226 285 352 432
#     4   9  20  36  56  84 124 177 229 286 350 401
#     4  10  21  37  59  87 128 182 237 292 352 407
#     4  12  27  45  79 111 144 188 234 286 351 423
#
# _framework density 25.167154
#
# number of rings (size 3 to 8) (size 9 to 14) (size 15 to 20)
#    0.000    1.250    2.500    2.250    7.000    1.500 
#    0.000    0.625    0.000    0.000    0.000    0.000 
#    0.000    0.000    0.000    0.000    0.000    0.000 
#
# Total GULP energy -89475.106800 kJ/mol
# GULP energy per Si atom -5592.194175 kJ/mol
# Density = 2.510987 g / cm^3
# Si number density = 25.167154 Si / 1000 Ang^3
#
#
#
# Elastic Constant Matrix: (Units=GPa)
#
#
# Indices 1 2 3 4 5 6 
#
# 1 91.3348 37.1380 10.3928 0.0000 -11.1102 0.0000
# 2 37.1380 162.7620 22.0601 0.0000 3.6697 0.0000
# 3 10.3928 22.0601 93.8788 0.0000 -11.3618 0.0000
# 4 0.0000 0.0000 0.0000 17.0151 0.0000 13.6195
# 5 -11.1102 3.6697 -11.3618 0.0000 40.5822 0.0000
# 6 0.0000 0.0000 0.0000 13.6195 0.0000 34.5590
#
#
#
# Elastic Compliance Matrix: (Units=1/GPa)
#
#
# Indices 1 2 3 4 5 6 
#
# 1 0.012611 -0.002923 -0.000268 0.000000 0.003642 0.000000
# 2 -0.002923 0.007065 -0.001564 0.000000 -0.001877 0.000000
# 3 -0.000268 -0.001564 0.011445 0.000000 0.003272 0.000000
# 4 0.000000 0.000000 0.000000 0.085854 0.000000 -0.033835
# 5 0.003642 -0.001877 0.003272 0.000000 0.026724 0.000000
# 6 0.000000 0.000000 0.000000 -0.033835 0.000000 0.042270
#
#
# Mechanical properties :
#
#
# Convention : Reuss Voigt Hill
#
# Bulk Modulus (GPa) = 46.27379 54.12863 50.20121
# Shear Modulus (GPa) = 24.66894 36.99022 30.82958
#
# Velocity S-wave (km/s) = 3.13422 3.83793 3.50379
# Velocity P-wave (km/s) = 5.61465 6.41825 6.02985
#
# Compressibility (1/GPa) = 0.02161050
#
# Stress axis : x y z
#
# Youngs Moduli (GPa) = 79.29670 141.53881 87.37258
#
# Poissons Ratio (x) = 0.41375 0.02345
# Poissons Ratio (y) = 0.23180 0.13663
# Poissons Ratio (z) = 0.02129 0.22133
#
# Static dielectric constant tensor:
#      x y z
#    x 2.016650 0.000000 0.020160 
#    y 0.000000 1.947610 0.000000 
#    z 0.020160 0.000000 2.005430 
# 
# From -- ./inp_files/1358.got.cif
#   From: 2010.05.17/outbox.cif.g08.bks.cpg/sg6_1_cif.got.tgz:1358.got - 2010.06.03 19:42:10.
