data_PCOD9131424
_publ_section_title
;
Structure prediction by ZEFSAII (Michael W. Deem and Ramdas Pophale) SiO2 
 PCOD9131424
Probable space group: P C
;
_chemical_formula_sum "Si O2"
_cell_formula_units_Z 16
_cell_length_a 7.874283
_cell_length_b 19.609240
_cell_length_c 5.514976
_cell_angle_alpha 90.000000
_cell_angle_beta 123.423848
_cell_angle_gamma 90.000000
_cell_volume 710.728125
_symmetry_space_group_name_H-M "P C"
_symmetry_group_IT_number 7
_symmetry_cell_setting 'monoclinic'
loop_
_space_group_symop_operation_xyz
x,y,z
x,-y,1/2+z
loop_
_atom_site_type_symbol
_atom_site_label
_atom_site_fract_x
_atom_site_fract_y
_atom_site_fract_z
Si Si1 0.402380 0.539610 0.207620
Si Si2 0.111100 0.340281 0.422341
Si Si3 0.780209 0.039595 0.455091
Si Si4 0.857127 0.249224 0.529351
Si Si5 0.886483 0.460843 0.041876
Si Si6 0.492643 0.166374 0.112887
Si Si7 0.129194 0.123695 0.556400
Si Si8 0.106631 0.206475 0.128854
O O1 0.350121 0.495468 0.406644
O O2 0.644454 0.547947 0.375293
O O3 0.295431 0.612641 0.152102
O O4 0.177080 0.270068 0.349897
O O5 0.955454 0.319063 0.514077
O O6 0.992582 0.387963 0.140635
O O7 0.633902 0.105725 0.323910
O O8 0.016988 0.062888 0.604957
O O9 0.741482 0.004146 0.681306
O O10 0.644018 0.231167 0.237813
O O11 0.007973 0.189874 0.555726
O O12 0.897374 0.235119 0.844835
O O13 0.939284 0.500945 0.333472
O O14 0.302812 0.189932 0.123445
O O15 0.368894 0.135585 0.785201
O O16 0.070677 0.133339 0.229794
#
# Coordination Sequence:
#
# PCOD9131424 Si02
#       8
#     2   2   2   2   2   2   2   2
#     4  10  23  42  65  93 131 173 219 279 336 393
#     4  11  23  38  66  93 127 171 226 272 334 401
#     4  11  27  44  72 104 136 174 225 274 329 397
#     4   9  22  40  61  96 128 171 217 272 330 391
#     4  10  23  41  62  92 128 171 218 281 338 394
#     4  10  23  44  68  96 138 176 218 272 337 392
#     4   9  22  43  65  90 134 171 216 272 327 387
#     4  10  23  40  67  96 130 177 219 278 335 391
#
# _framework density 22.512128000000001
#
# number of rings (size 3 to 8) (size 9 to 14) (size 15 to 20)
#    0.000    2.000    0.000    0.750   10.500    7.000 
#    2.250    0.000    0.000    0.000    0.000    0.000 
#    0.000    0.000    0.000    0.000    0.000    0.000 
#
# Total GULP energy -89100.499439 kJ/mol
# GULP energy per Si atom -5568.781215 kJ/mol
# Density = 2.246089 g / cm^3
# Si number density = 22.512128 Si / 1000 Ang^3
#
#
#
# Elastic Constant Matrix: (Units=GPa)
#
#
# Indices 1 2 3 4 5 6 
#
# 1 68.9457 19.5892 27.5075 0.0000 2.3578 0.0000
# 2 19.5892 62.6655 16.7253 0.0000 -10.9816 0.0000
# 3 27.5075 16.7253 91.8756 0.0000 3.7655 0.0000
# 4 0.0000 0.0000 0.0000 24.7442 0.0000 -2.6701
# 5 2.3578 -10.9816 3.7655 0.0000 34.1355 0.0000
# 6 0.0000 0.0000 0.0000 -2.6701 0.0000 42.7388
#
#
#
# Elastic Compliance Matrix: (Units=1/GPa)
#
#
# Indices 1 2 3 4 5 6 
#
# 1 0.017662 -0.004765 -0.004327 0.000000 -0.002276 0.000000
# 2 -0.004765 0.019266 -0.002359 0.000000 0.006787 0.000000
# 3 -0.004327 -0.002359 0.012686 0.000000 -0.001859 0.000000
# 4 0.000000 0.000000 0.000000 0.040688 0.000000 0.002542
# 5 -0.002276 0.006787 -0.001859 0.000000 0.031841 0.000000
# 6 0.000000 0.000000 0.000000 0.002542 0.000000 0.023557
#
#
# Mechanical properties :
#
#
# Convention : Reuss Voigt Hill
#
# Bulk Modulus (GPa) = 37.43685 39.01453 38.22569
# Shear Modulus (GPa) = 28.16806 30.96802 29.56804
#
# Velocity S-wave (km/s) = 3.54112 3.71295 3.62806
# Velocity P-wave (km/s) = 5.77799 5.97908 5.87940
#
# Compressibility (1/GPa) = 0.02671165
#
# Stress axis : x y z
#
# Youngs Moduli (GPa) = 56.61754 51.90404 78.83010
#
# Poissons Ratio (x) = 0.24733 0.34113
# Poissons Ratio (y) = 0.26979 0.18595
# Poissons Ratio (z) = 0.24501 0.12243
#
# Static dielectric constant tensor:
#      x y z
#    x 1.943230 0.000000 -0.220180 
#    y 0.000000 1.850440 0.000000 
#    z -0.220180 0.000000 2.331140 
# 
# From -- ./inp_files/909.got.cif
#   From: 2010.05.17/outbox.cif.g08.bks.cpg/sg7_cif.got.tgz:909.got - 2010.06.03 19:44:50.
