data_PCOD9131474
_publ_section_title
;
Structure prediction by ZEFSAII (Michael W. Deem and Ramdas Pophale) SiO2 
 PCOD9131474
Probable space group: P C
;
_chemical_formula_sum "Si O2"
_cell_formula_units_Z 14
_cell_length_a 5.361979
_cell_length_b 16.784710
_cell_length_c 6.125177
_cell_angle_alpha 90.000000
_cell_angle_beta 105.242976
_cell_angle_gamma 90.000000
_cell_volume 531.867795
_symmetry_space_group_name_H-M "P C"
_symmetry_group_IT_number 7
_symmetry_cell_setting 'monoclinic'
loop_
_space_group_symop_operation_xyz
x,y,z
x,-y,1/2+z
loop_
_atom_site_type_symbol
_atom_site_label
_atom_site_fract_x
_atom_site_fract_y
_atom_site_fract_z
Si Si1 0.654900 0.037578 0.777580
Si Si2 0.203250 0.124870 0.885105
Si Si3 0.199795 0.361218 0.329436
Si Si4 0.586241 0.493951 0.990513
Si Si5 0.528172 0.790924 0.750984
Si Si6 0.695134 0.666553 0.463144
Si Si7 0.926649 0.265266 0.630385
O O1 0.399924 0.093298 0.747355
O O2 0.939453 0.077576 0.851120
O O3 0.643003 0.004052 0.522279
O O4 0.130137 0.216722 0.817104
O O5 0.363218 0.133301 0.147636
O O6 0.366179 0.439330 0.415482
O O7 0.357644 0.282152 0.298187
O O8 0.053430 0.331335 0.511212
O O9 0.966524 0.371049 0.103838
O O10 0.706882 0.495764 0.766355
O O11 0.492757 0.401641 0.975628
O O12 0.661882 0.750792 0.571615
O O13 0.769964 0.802323 0.963734
O O14 0.716106 0.687945 0.219740
#
# Coordination Sequence:
#
# PCOD9131474 Si02
#       7
#     2   2   2   2   2   2   2
#     4  12  31  59  89 130 184 224 276 334 410 513
#     4  12  28  52  91 129 167 231 276 343 421 504
#     4  11  26  46  73 106 154 211 275 361 414 509
#     4  12  28  47  70 100 147 214 273 340 436 495
#     4  11  25  49  74 119 159 204 280 348 417 492
#     4  11  25  50  67 108 155 211 279 358 419 503
#     4  11  27  47  82 114 162 207 285 356 419 492
#
# _framework density 26.322327999999999
#
# number of rings (size 3 to 8) (size 9 to 14) (size 15 to 20)
#    0.000    0.571    2.857    2.571   14.000    1.143 
#    0.000    0.000    0.000    0.000    0.000    0.000 
#    0.000    0.000    0.000    0.000    0.000    0.000 
#
# Total GULP energy -78182.425867 kJ/mol
# GULP energy per Si atom -5584.458990 kJ/mol
# Density = 2.626242 g / cm^3
# Si number density = 26.322328 Si / 1000 Ang^3
#
#
#
# Elastic Constant Matrix: (Units=GPa)
#
#
# Indices 1 2 3 4 5 6 
#
# 1 104.4746 23.4224 41.4102 0.0000 -4.0895 0.0000
# 2 23.4224 68.8400 46.6310 0.0000 -0.3542 0.0000
# 3 41.4102 46.6310 167.5985 0.0000 -8.9039 0.0000
# 4 0.0000 0.0000 0.0000 31.5170 0.0000 5.8784
# 5 -4.0895 -0.3542 -8.9039 0.0000 41.1329 0.0000
# 6 0.0000 0.0000 0.0000 5.8784 0.0000 45.3399
#
#
#
# Elastic Compliance Matrix: (Units=1/GPa)
#
#
# Indices 1 2 3 4 5 6 
#
# 1 0.010920 -0.002350 -0.002011 0.000000 0.000630 0.000000
# 2 -0.002350 0.018441 -0.004607 0.000000 -0.001072 0.000000
# 3 -0.002011 -0.004607 0.007823 0.000000 0.001454 0.000000
# 4 0.000000 0.000000 0.000000 0.032515 0.000000 -0.004216
# 5 0.000630 -0.001072 0.001454 0.000000 0.024680 0.000000
# 6 0.000000 0.000000 0.000000 -0.004216 0.000000 0.022602
#
#
# Mechanical properties :
#
#
# Convention : Reuss Voigt Hill
#
# Bulk Modulus (GPa) = 51.95406 62.64889 57.30148
# Shear Modulus (GPa) = 35.37728 38.89461 37.13595
#
# Velocity S-wave (km/s) = 3.67004 3.84816 3.76016
# Velocity P-wave (km/s) = 6.14324 6.60279 6.37716
#
# Compressibility (1/GPa) = 0.01924777
#
# Stress axis : x y z
#
# Youngs Moduli (GPa) = 91.57267 54.22569 127.83527
#
# Poissons Ratio (x) = 0.12744 0.25705
# Poissons Ratio (y) = 0.21522 0.58897
# Poissons Ratio (z) = 0.18413 0.24983
#
# Static dielectric constant tensor:
#      x y z
#    x 2.084640 0.000000 -0.050790 
#    y 0.000000 2.046800 0.000000 
#    z -0.050790 0.000000 2.147240 
# 
# From -- ./inp_files/227.got.cif
#   From: 2010.05.17/outbox.cif.g08.bks.cpg/sg7_cif.got.tgz:227.got - 2010.06.03 19:44:50.
