data_PCOD9131719
_publ_section_title
;
Structure prediction by ZEFSAII (Michael W. Deem and Ramdas Pophale) SiO2 
 PCOD9131719
Probable space group: C M
;
_chemical_formula_sum "Si O2"
_cell_formula_units_Z 32
_cell_length_a 9.990207
_cell_length_b 16.126987
_cell_length_c 16.132387
_cell_angle_alpha 90.000000
_cell_angle_beta 151.923519
_cell_angle_gamma 90.000000
_cell_volume 1223.275225
_symmetry_space_group_name_H-M "C M"
_symmetry_group_IT_number 8
_symmetry_cell_setting 'monoclinic'
loop_
_space_group_symop_operation_xyz
x,y,z
x,-y,z
1/2+x,1/2+y,z
1/2+x,1/2-y,z
loop_
_atom_site_type_symbol
_atom_site_label
_atom_site_fract_x
_atom_site_fract_y
_atom_site_fract_z
Si Si1 0.511790 0.641755 0.736060
Si Si2 0.307588 0.317432 0.282926
Si Si3 0.613093 0.908970 0.031390
Si Si4 0.821685 0.100722 0.859563
Si Si5 0.931050 0.593288 0.503315
Si Si6 0.259521 0.856280 0.231016
Si Si7 0.321082 0.405818 0.459731
Si Si8 0.662056 0.255383 0.950811
O O1 0.245705 0.596769 0.632126
O O2 0.472711 0.640299 0.617458
O O3 0.535538 0.732545 0.789683
O O4 0.806014 0.593616 0.909371
O O5 0.424782 0.232496 0.309793
O O6 0.384051 0.356458 0.411090
O O7 0.325045 0.386691 0.222120
O O8 0.990731 0.279153 0.122812
O O9 0.605489 0.828510 0.968619
O O10 0.656824 0.000000 0.018677
O O11 0.025375 0.166138 0.923508
O O12 0.517621 0.119396 0.645443
O O13 0.855082 0.000000 0.868247
O O14 0.950556 0.122058 0.022173
O O15 0.830531 0.500000 0.453653
O O16 0.759980 0.632117 0.331316
O O17 0.488518 0.910716 0.304955
O O18 0.428608 0.500000 0.512427
#
# Coordination Sequence:
#
# PCOD9131719 Si02
#       8
#     4   4   4   4   4   4   4   4
#     4   9  20  34  57  83 115 148 189 241 297 347
#     4  11  22  36  56  85 117 152 197 236 291 353
#     4  11  21  38  60  84 116 156 195 244 291 346
#     4  10  18  33  59  83 112 150 188 237 296 344
#     4   9  18  32  53  87 115 143 187 237 291 349
#     4  11  20  35  55  83 123 152 188 241 296 340
#     4  11  21  36  57  89 117 148 193 244 297 354
#     4  10  21  38  56  84 119 149 198 244 288 355
#
# _framework density 26.159281
#
# number of rings (size 3 to 8) (size 9 to 14) (size 15 to 20)
#    0.000    1.750    2.500    3.375    0.000    6.500 
#    0.000    1.875    0.000    0.000    0.000    0.000 
#    0.000    0.000    0.000    0.000    0.000    0.000 
#
# Total GULP energy -89226.309825 kJ/mol
# GULP energy per Si atom -5576.644364 kJ/mol
# Density = 2.609974 g / cm^3
# Si number density = 26.159281 Si / 1000 Ang^3
#
#
#
# Elastic Constant Matrix: (Units=GPa)
#
#
# Indices 1 2 3 4 5 6 
#
# 1 76.7403 51.0170 24.8297 -0.0032 -27.1010 0.0003
# 2 51.0170 179.1559 60.2775 -0.0369 -36.5606 -0.0083
# 3 24.8297 60.2775 117.8408 -0.0314 -57.8566 -0.0035
# 4 -0.0032 -0.0369 -0.0314 23.1180 -0.0165 -5.5450
# 5 -27.1010 -36.5606 -57.8566 -0.0165 54.0207 0.0002
# 6 0.0003 -0.0083 -0.0035 -5.5450 0.0002 31.2146
#
#
#
# Elastic Compliance Matrix: (Units=1/GPa)
#
#
# Indices 1 2 3 4 5 6 
#
# 1 0.018244 -0.004269 0.002983 0.000007 0.009459 0.000000
# 2 -0.004269 0.007828 -0.003279 0.000008 -0.000356 0.000003
# 3 0.002983 -0.003279 0.019360 0.000038 0.020012 0.000008
# 4 0.000007 0.000008 0.000038 0.045182 0.000063 0.008026
# 5 0.009459 -0.000356 0.020012 0.000063 0.044449 0.000013
# 6 0.000000 0.000003 0.000008 0.008026 0.000013 0.033462
#
#
# Mechanical properties :
#
#
# Convention : Reuss Voigt Hill
#
# Bulk Modulus (GPa) = 27.54595 71.77616 49.66106
# Shear Modulus (GPa) = 26.34962 37.51149 31.93056
#
# Velocity S-wave (km/s) = 3.17720 3.79088 3.49753
# Velocity P-wave (km/s) = 4.90025 6.83072 5.94437
#
# Compressibility (1/GPa) = 0.03630298
#
# Stress axis : x y z
#
# Youngs Moduli (GPa) = 54.81286 127.74557 51.65162
#
# Poissons Ratio (x) = 0.54531 -0.15410
# Poissons Ratio (y) = 0.23398 0.16939
# Poissons Ratio (z) = -0.16353 0.41894
#
# Static dielectric constant tensor:
#      x y z
#    x 2.087260 0.000000 0.001140 
#    y 0.000000 2.136730 -0.000010 
#    z 0.001140 -0.000010 2.265180 
# 
# From -- ./inp_files/28897.got.cif
#   From: 2010.05.17/outbox.cif.g08.bks.cpg/sg8_15_cif.got.tgz:28897.got - 2010.06.03 19:46:02.
