data_PCOD9131798
_publ_section_title
;
Structure prediction by ZEFSAII (Michael W. Deem and Ramdas Pophale) SiO2 
 PCOD9131798
Probable space group: C M
;
_chemical_formula_sum "Si O2"
_cell_formula_units_Z 22
_cell_length_a 15.037523
_cell_length_b 11.855009
_cell_length_c 7.450169
_cell_angle_alpha 90.000000
_cell_angle_beta 122.677775
_cell_angle_gamma 90.000000
_cell_volume 1117.923554
_symmetry_space_group_name_H-M "C M"
_symmetry_group_IT_number 8
_symmetry_cell_setting 'monoclinic'
loop_
_space_group_symop_operation_xyz
x,y,z
x,-y,z
1/2+x,1/2+y,z
1/2+x,1/2-y,z
loop_
_atom_site_type_symbol
_atom_site_label
_atom_site_fract_x
_atom_site_fract_y
_atom_site_fract_z
Si Si1 0.039360 0.133763 0.814990
Si Si2 0.548226 0.000000 0.605826
Si Si3 0.317844 0.252048 0.552983
Si Si4 0.097133 0.727473 0.216806
Si Si5 0.662556 0.765797 0.671780
Si Si6 0.468239 0.000000 0.123088
Si Si7 0.861275 0.500000 0.660350
O O1 0.135299 0.179450 0.797477
O O2 0.930739 0.195389 0.635304
O O3 0.029364 0.000000 0.797271
O O4 0.059707 0.181296 0.035554
O O5 0.619427 0.888764 0.675239
O O6 0.471637 0.000000 0.344800
O O7 0.479655 0.000000 0.709964
O O8 0.222057 0.299853 0.329394
O O9 0.280187 0.275348 0.718173
O O10 0.314791 0.116513 0.537123
O O11 0.096531 0.770108 0.421657
O O12 0.030422 0.613481 0.136342
O O13 0.365980 0.000000 0.882602
#
# Coordination Sequence:
#
# PCOD9131798 Si02
#       7
#     4   2   4   4   4   2   2
#     4  12  24  42  63  89 126 164 200 252 310 357
#     4  10  18  38  68  84 116 164 202 252 294 356
#     4  10  24  40  63  91 124 158 205 252 303 355
#     4   9  22  41  62  89 125 158 202 250 303 360
#     4   9  22  41  62  89 125 158 202 250 303 360
#     4  10  18  38  68  84 116 164 202 252 294 356
#     4  12  20  40  64  88 122 156 210 256 290 352
#
# _framework density 19.679342999999999
#
# number of rings (size 3 to 8) (size 9 to 14) (size 15 to 20)
#    1.091    0.727    3.636    0.000    5.091    0.727 
#    6.545    0.000    0.000    0.000    0.000    0.000 
#    0.000    0.000    0.000    0.000    0.000    0.000 
#
# Total GULP energy -61250.679300 kJ/mol
# GULP energy per Si atom -5568.243573 kJ/mol
# Density = 1.963455 g / cm^3
# Si number density = 19.679343 Si / 1000 Ang^3
#
#
#
# Elastic Constant Matrix: (Units=GPa)
#
#
# Indices 1 2 3 4 5 6 
#
# 1 53.5460 7.0258 -18.7132 0.0000 -3.0743 0.0000
# 2 7.0258 88.7761 3.0790 0.0000 -17.6504 0.0000
# 3 -18.7132 3.0790 30.7881 0.0000 -8.0669 0.0000
# 4 0.0000 0.0000 0.0000 4.0240 0.0000 6.4219
# 5 -3.0743 -17.6504 -8.0669 0.0000 24.3495 0.0000
# 6 0.0000 0.0000 0.0000 6.4219 0.0000 20.2126
#
#
#
# Elastic Compliance Matrix: (Units=1/GPa)
#
#
# Indices 1 2 3 4 5 6 
#
# 1 0.025509 -0.000962 0.017808 0.000000 0.008423 0.000000
# 2 -0.000962 0.013245 0.000629 0.000000 0.009688 0.000000
# 3 0.017808 0.000629 0.048127 0.000000 0.018649 0.000000
# 4 0.000000 0.000000 0.000000 0.504112 0.000000 -0.160165
# 5 0.008423 0.009688 0.018649 0.000000 0.055333 0.000000
# 6 0.000000 0.000000 0.000000 -0.160165 0.000000 0.100361
#
#
# Mechanical properties :
#
#
# Convention : Reuss Voigt Hill
#
# Bulk Modulus (GPa) = 8.20811 17.32150 12.76481
# Shear Modulus (GPa) = 6.64587 21.83177 14.23882
#
# Velocity S-wave (km/s) = 1.83968 3.33434 2.69279
# Velocity P-wave (km/s) = 2.94831 4.86259 4.02103
#
# Compressibility (1/GPa) = 0.12183065
#
# Stress axis : x y z
#
# Youngs Moduli (GPa) = 39.20231 75.50183 20.77834
#
# Poissons Ratio (x) = 0.07261 -0.37001
# Poissons Ratio (y) = 0.03770 -0.01308
# Poissons Ratio (z) = -0.69810 -0.04751
#
# Static dielectric constant tensor:
#      x y z
#    x 1.707110 0.000000 -0.000270 
#    y 0.000000 1.697680 0.000000 
#    z -0.000270 0.000000 1.715060 
# 
# From -- ./inp_files/12576.got.cif
#   From: 2010.05.17/outbox.cif.g08.bks.cpg/sg8_7_cif.got.tgz:12576.got - 2010.06.03 19:46:02.
