data_PCOD9131976
_publ_section_title
;
Structure prediction by ZEFSAII (Michael W. Deem and Ramdas Pophale) SiO2 
 PCOD9131976
Probable space group: C M
;
_chemical_formula_sum "Si O2"
_cell_formula_units_Z 24
_cell_length_a 24.655849
_cell_length_b 7.670671
_cell_length_c 18.224157
_cell_angle_alpha 90.000000
_cell_angle_beta 19.881839
_cell_angle_gamma 90.000000
_cell_volume 1172.151537
_symmetry_space_group_name_H-M "C M"
_symmetry_group_IT_number 8
_symmetry_cell_setting 'monoclinic'
loop_
_space_group_symop_operation_xyz
x,y,z
x,-y,z
1/2+x,1/2+y,z
1/2+x,1/2-y,z
loop_
_atom_site_type_symbol
_atom_site_label
_atom_site_fract_x
_atom_site_fract_y
_atom_site_fract_z
Si Si1 0.371530 0.298227 0.483730
Si Si2 0.024902 0.213917 0.688433
Si Si3 0.181397 0.705723 0.178447
Si Si4 0.850446 0.297599 0.344411
Si Si5 0.187650 0.713990 0.859927
Si Si6 0.994479 0.789681 0.559522
O O1 0.333208 0.500000 0.519832
O O2 0.546490 0.286300 0.297550
O O3 0.362249 0.209470 0.417110
O O4 0.251110 0.229807 0.699456
O O5 0.025683 0.268358 0.602381
O O6 0.183660 0.276224 0.527572
O O7 0.023676 0.000000 0.692200
O O8 0.858859 0.270929 0.936330
O O9 0.177936 0.500000 0.167222
O O10 0.124550 0.734505 0.334028
O O11 0.850203 0.500000 0.322020
O O12 0.012911 0.222131 0.103722
O O13 0.188270 0.500000 0.859306
O O14 0.322184 0.767818 0.747633
O O15 0.992902 0.000000 0.562003
#
# Coordination Sequence:
#
# PCOD9131976 Si02
#       6
#     4   4   4   4   4   4
#     4  10  20  35  53  77 103 131 168 213 255 297
#     4   9  19  33  52  76 105 137 169 201 248 308
#     4  10  19  34  54  77 102 133 169 209 251 298
#     4  10  19  34  54  76 101 136 172 205 247 302
#     4   8  16  31  52  72  96 130 169 206 248 296
#     4   9  17  33  53  74  99 133 173 212 247 293
#
# _framework density 20.475168
#
# number of rings (size 3 to 8) (size 9 to 14) (size 15 to 20)
#    0.000    2.667    0.000    3.000    0.000    4.000 
#    0.000   13.333    0.000    0.000    0.000    0.000 
#    0.000    0.000    0.000    0.000    0.000    0.000 
#
# Total GULP energy -66977.148735 kJ/mol
# GULP energy per Si atom -5581.429061 kJ/mol
# Density = 2.042857 g / cm^3
# Si number density = 20.475168 Si / 1000 Ang^3
#
#
#
# Elastic Constant Matrix: (Units=GPa)
#
#
# Indices 1 2 3 4 5 6 
#
# 1 81.3289 -3.5869 144.7283 0.0003 -1.3365 -0.0001
# 2 -3.5869 34.0677 -7.7529 -0.0005 -0.7882 0.0000
# 3 144.7283 -7.7529 180.3117 -0.0005 0.0990 0.0001
# 4 0.0003 -0.0005 -0.0005 15.4084 0.0000 5.3607
# 5 -1.3365 -0.7882 0.0990 0.0000 11.6521 0.0000
# 6 -0.0001 0.0000 0.0001 5.3607 0.0000 17.7903
#
#
#
# Elastic Compliance Matrix: (Units=1/GPa)
#
#
# Indices 1 2 3 4 5 6 
#
# 1 -0.028408 0.002143 0.022895 0.000002 -0.003308 -0.000001
# 2 0.002143 0.029528 -0.000452 0.000001 0.002247 0.000000
# 3 0.022895 -0.000452 -0.012852 -0.000001 0.002705 0.000000
# 4 0.000002 0.000001 -0.000001 0.072500 0.000000 -0.021846
# 5 -0.003308 0.002247 0.002705 0.000000 0.085571 0.000000
# 6 -0.000001 0.000000 0.000000 -0.021846 0.000000 0.062793
#
#
# Mechanical properties :
#
#
# Convention : Reuss Voigt Hill
#
# Bulk Modulus (GPa) = 26.70802 62.49836 44.60319
# Shear Modulus (GPa) = 28.99554 19.79149 24.39352
#
# Velocity S-wave (km/s) = 3.76724 3.11241 3.45537
# Velocity P-wave (km/s) = 5.65643 6.59593 6.14416
#
# Compressibility (1/GPa) = 0.03744194
#
# Stress axis : x y z
#
# Youngs Moduli (GPa) = -35.20185 33.86599 -77.80796
#
# Poissons Ratio (x) = -0.07257 1.78145
# Poissons Ratio (y) = 0.07543 -0.03514
# Poissons Ratio (z) = 0.80596 0.01529
#
# Static dielectric constant tensor:
#      x y z
#    x 1.682830 0.000000 -0.001750 
#    y 0.000000 1.764680 0.000000 
#    z -0.001750 0.000000 1.724870 
# 
# From -- ./inp_files/12059.got.cif
#   From: 2010.05.17/outbox.cif.g08.bks.cpg/sg8_7_cif.got.tgz:12059.got - 2010.06.03 19:46:02.
