data_PCOD9131918
_publ_section_title
;
Structure prediction by ZEFSAII (Michael W. Deem and Ramdas Pophale) SiO2 
 PCOD9131918
Probable space group: C M
;
_chemical_formula_sum "Si O2"
_cell_formula_units_Z 32
_cell_length_a 29.079562
_cell_length_b 8.654975
_cell_length_c 22.955471
_cell_angle_alpha 90.000000
_cell_angle_beta 18.450631
_cell_angle_gamma 90.000000
_cell_volume 1828.505751
_symmetry_space_group_name_H-M "C M"
_symmetry_group_IT_number 8
_symmetry_cell_setting 'monoclinic'
loop_
_space_group_symop_operation_xyz
x,y,z
x,-y,z
1/2+x,1/2+y,z
1/2+x,1/2-y,z
loop_
_atom_site_type_symbol
_atom_site_label
_atom_site_fract_x
_atom_site_fract_y
_atom_site_fract_z
Si Si1 0.279210 0.183670 0.798280
Si Si2 0.253979 0.185129 0.069738
Si Si3 0.382551 0.186538 0.092187
Si Si4 0.992509 0.312982 0.086908
Si Si5 0.848758 0.687547 0.379443
Si Si6 0.651815 0.814340 0.069358
Si Si7 0.531780 0.685632 0.799689
Si Si8 0.084255 0.185810 0.390096
O O1 0.435047 0.235624 0.587300
O O2 0.270900 0.000000 0.812067
O O3 0.150585 0.245561 0.911200
O O4 0.247029 0.255304 0.900578
O O5 0.205242 0.249043 0.066297
O O6 0.140751 0.227166 0.257450
O O7 0.262591 0.000000 0.057847
O O8 0.409205 0.251136 0.903282
O O9 0.429431 0.234160 0.100388
O O10 0.217435 0.227955 0.273133
O O11 0.391942 0.000000 0.077005
O O12 0.486002 0.257154 0.918614
O O13 0.003222 0.500000 0.074914
O O14 0.888799 0.266384 0.265347
O O15 0.845561 0.500000 0.384100
O O16 0.692303 0.741191 0.589065
O O17 0.985679 0.734457 0.254636
O O18 0.657224 0.000000 0.063729
O O19 0.529142 0.500000 0.801439
O O20 0.065909 0.000000 0.414370
#
# Coordination Sequence:
#
# PCOD9131918 Si02
#       8
#     4   4   4   4   4   4   4   4
#     4  11  22  35  53  80 110 138 176 222 263 310
#     4  10  21  37  55  79 109 139 177 220 261 311
#     4   9  19  35  55  78 104 136 175 218 262 311
#     4   9  18  36  57  75 101 138 177 215 261 313
#     4   8  17  33  53  77 102 133 175 215 252 307
#     4  10  20  37  58  78 105 141 178 216 264 316
#     4  10  19  33  54  79 107 138 172 213 263 314
#     4   9  19  36  55  76 106 143 178 215 262 314
#
# _framework density 17.500629
#
# number of rings (size 3 to 8) (size 9 to 14) (size 15 to 20)
#    0.000    2.500    0.000    3.750    0.000    5.000 
#    0.000   11.250    0.000    0.000    0.000    0.000 
#    0.000    0.000    0.000    0.000    0.000    0.000 
#
# Total GULP energy -89268.068826 kJ/mol
# GULP energy per Si atom -5579.254302 kJ/mol
# Density = 1.746080 g / cm^3
# Si number density = 17.500629 Si / 1000 Ang^3
#
#
#
# Elastic Constant Matrix: (Units=GPa)
#
#
# Indices 1 2 3 4 5 6 
#
# 1 30187.244512035.555928954.2840 -0.1704 -416.9823 0.1032
# 2 12035.5559 4834.178311578.0540 -0.0696 -167.0951 0.0414
# 3 28954.284011578.054027939.4098 -0.1646 -407.0160 0.0994
# 4 -0.1704 -0.0696 -0.1646 24.7409 0.0025 3.9016
# 5 -416.9823 -167.0951 -407.0160 0.0025 11.1931 -0.0015
# 6 0.1032 0.0414 0.0994 3.9016 -0.0015 28.4604
#
#
#
# Elastic Compliance Matrix: (Units=1/GPa)
#
#
# Indices 1 2 3 4 5 6 
#
# 1 0.007063 -0.007008 -0.004479 0.000000 -0.004372 0.000000
# 2 -0.007008 0.034903 -0.007260 0.000002 -0.004007 0.000000
# 3 -0.004479 -0.007260 0.007817 0.000000 0.009035 0.000000
# 4 0.000000 0.000002 0.000000 0.041312 -0.000001 -0.005663
# 5 -0.004372 -0.004007 0.009035 -0.000001 0.195178 0.000000
# 6 0.000000 0.000000 0.000000 -0.005663 0.000000 0.035913
#
#
# Mechanical properties :
#
#
# Convention : Reuss Voigt Hill
#
# Bulk Modulus (GPa) = 81.36632 18677.40226 9379.38429
# Shear Modulus (GPa) = 13.74474 705.74146 359.74310
#
# Velocity S-wave (km/s) = 2.80551 20.10328 14.35292
# Velocity P-wave (km/s) = 7.55572 105.99265 75.13831
#
# Compressibility (1/GPa) = 0.01229010
#
# Stress axis : x y z
#
# Youngs Moduli (GPa) = 141.58691 28.65101 127.91858
#
# Poissons Ratio (x) = 0.20078 0.57295
# Poissons Ratio (y) = 0.99222 0.92864
# Poissons Ratio (z) = 0.63417 0.20800
#
# Static dielectric constant tensor:
#      x y z
#    x 1.572240 0.000000 -0.002290 
#    y 0.000000 1.592470 0.000000 
#    z -0.002290 0.000000 1.576040 
# 
# From -- ./inp_files/17349.got.cif
#   From: 2010.05.17/outbox.cif.g08.bks.cpg/sg8_9_cif.got.tgz:17349.got - 2010.06.03 19:46:02.
