data_PCOD9131452
_publ_section_title
;
Structure prediction by ZEFSAII (Michael W. Deem and Ramdas Pophale) SiO2 
 PCOD9131452
Probable space group: P C
;
_chemical_formula_sum "Si O2"
_cell_formula_units_Z 16
_cell_length_a 7.627948
_cell_length_b 13.236659
_cell_length_c 5.895793
_cell_angle_alpha 90.000000
_cell_angle_beta 88.898651
_cell_angle_gamma 90.000000
_cell_volume 595.179676
_symmetry_space_group_name_H-M "P C"
_symmetry_group_IT_number 7
_symmetry_cell_setting 'monoclinic'
loop_
_space_group_symop_operation_xyz
x,y,z
x,-y,1/2+z
loop_
_atom_site_type_symbol
_atom_site_label
_atom_site_fract_x
_atom_site_fract_y
_atom_site_fract_z
Si Si1 0.703740 0.915681 0.655330
Si Si2 0.161638 0.730655 0.612798
Si Si3 0.312786 0.921012 0.795007
Si Si4 0.653900 0.530255 0.672761
Si Si5 0.818631 0.847217 0.130834
Si Si6 0.776397 0.716978 0.455959
Si Si7 0.230111 0.854228 0.240997
Si Si8 0.254880 0.529036 0.760090
O O1 0.494229 0.923373 0.657448
O O2 0.752003 0.841385 0.444896
O O3 0.775807 0.027672 0.653892
O O4 0.768726 0.849886 0.862736
O O5 0.167212 0.845218 0.703075
O O6 0.273709 0.755112 0.384043
O O7 0.243964 0.650257 0.775048
O O8 0.968598 0.698595 0.546842
O O9 0.240612 0.032233 0.846124
O O10 0.361170 0.867764 0.030994
O O11 0.732704 0.490188 0.425176
O O12 0.650069 0.649119 0.604580
O O13 0.454963 0.492926 0.719396
O O14 0.766028 0.723231 0.186967
O O15 0.030571 0.842934 0.166473
O O16 0.180069 0.490652 0.004049
#
# Coordination Sequence:
#
# PCOD9131452 Si02
#       8
#     2   2   2   2   2   2   2   2
#     4  12  24  38  62  94 131 175 224 275 330 406
#     4  11  25  43  67  95 130 176 222 276 341 410
#     4  12  24  38  62  94 131 175 224 275 330 406
#     4  10  24  47  72 101 136 176 228 292 354 414
#     4  11  23  40  61  90 133 177 220 273 333 404
#     4  11  25  43  67  95 130 176 222 276 341 410
#     4  11  23  40  61  90 133 177 220 273 333 404
#     4  10  24  47  72 101 136 176 228 292 354 414
#
# _framework density 26.882639999999999
#
# number of rings (size 3 to 8) (size 9 to 14) (size 15 to 20)
#    0.000    1.000    2.500    3.750    3.500    4.000 
#    0.000    0.000    0.000    0.000    0.000    0.000 
#    0.000    0.000    0.000    0.000    0.000    0.000 
#
# Total GULP energy -89094.235250 kJ/mol
# GULP energy per Si atom -5568.389703 kJ/mol
# Density = 2.682145 g / cm^3
# Si number density = 26.882640 Si / 1000 Ang^3
#
#
#
# Elastic Constant Matrix: (Units=GPa)
#
#
# Indices 1 2 3 4 5 6 
#
# 1 65.0475 10.9601 7.7523 0.0000 0.4318 0.0000
# 2 10.9601 87.9473 35.7469 0.0000 0.4600 0.0000
# 3 7.7523 35.7469 116.7520 0.0000 3.1259 0.0000
# 4 0.0000 0.0000 0.0000 48.6951 0.0000 -0.1038
# 5 0.4318 0.4600 3.1259 0.0000 25.5210 0.0000
# 6 0.0000 0.0000 0.0000 -0.1038 0.0000 28.5542
#
#
#
# Elastic Compliance Matrix: (Units=1/GPa)
#
#
# Indices 1 2 3 4 5 6 
#
# 1 0.015730 -0.001755 -0.000502 0.000000 -0.000173 0.000000
# 2 -0.001755 0.013184 -0.003927 0.000000 0.000273 0.000000
# 3 -0.000502 -0.003927 0.009831 0.000000 -0.001125 0.000000
# 4 0.000000 0.000000 0.000000 0.020536 0.000000 0.000075
# 5 -0.000173 0.000273 -0.001125 0.000000 0.039319 0.000000
# 6 0.000000 0.000000 0.000000 0.000075 0.000000 0.035021
#
#
# Mechanical properties :
#
#
# Convention : Reuss Voigt Hill
#
# Bulk Modulus (GPa) = 37.91436 42.07393 39.99414
# Shear Modulus (GPa) = 32.30308 34.90656 33.60482
#
# Velocity S-wave (km/s) = 3.47022 3.60735 3.53945
# Velocity P-wave (km/s) = 5.49462 5.74766 5.62256
#
# Compressibility (1/GPa) = 0.02637523
#
# Stress axis : x y z
#
# Youngs Moduli (GPa) = 63.57226 75.84892 101.71756
#
# Poissons Ratio (x) = 0.13313 0.05111
# Poissons Ratio (y) = 0.11158 0.39949
# Poissons Ratio (z) = 0.03194 0.29789
#
# Static dielectric constant tensor:
#      x y z
#    x 2.040700 0.000000 -0.019560 
#    y 0.000000 2.182580 0.000000 
#    z -0.019560 0.000000 2.530480 
# 
# From -- ./inp_files/579.got.cif
#   From: 2010.05.17/outbox.cif.g08.bks.cpg/sg7_cif.got.tgz:579.got - 2010.06.03 19:44:50.
