data_PCOD9132150
_publ_section_title
;
Structure prediction by ZEFSAII (Michael W. Deem and Ramdas Pophale) SiO2 
 PCOD9132150
Probable space group: C M
;
_chemical_formula_sum "Si O2"
_cell_formula_units_Z 32
_cell_length_a 33.952163
_cell_length_b 8.340336
_cell_length_c 12.930310
_cell_angle_alpha 90.000000
_cell_angle_beta 26.147985
_cell_angle_gamma 90.000000
_cell_volume 1613.593817
_symmetry_space_group_name_H-M "C M"
_symmetry_group_IT_number 8
_symmetry_cell_setting 'monoclinic'
loop_
_space_group_symop_operation_xyz
x,y,z
x,-y,z
1/2+x,1/2+y,z
1/2+x,1/2-y,z
loop_
_atom_site_type_symbol
_atom_site_label
_atom_site_fract_x
_atom_site_fract_y
_atom_site_fract_z
Si Si1 0.909040 0.303003 0.236290
Si Si2 0.411801 0.812296 0.460531
Si Si3 0.599617 0.809630 0.707904
Si Si4 0.223420 0.187778 0.594987
Si Si5 0.184297 0.692061 0.295006
Si Si6 0.620408 0.813748 0.029425
Si Si7 0.569933 0.690706 0.370683
Si Si8 0.374193 0.807358 0.773935
O O1 0.911808 0.500000 0.235244
O O2 0.893583 0.243548 0.390234
O O3 0.825877 0.259301 0.361153
O O4 0.002952 0.245292 0.969777
O O5 0.369605 0.745096 0.665377
O O6 0.385592 0.000000 0.518269
O O7 0.518515 0.804762 0.227479
O O8 0.666769 0.780424 0.643800
O O9 0.639994 0.746374 0.505796
O O10 0.588217 0.000000 0.720832
O O11 0.181234 0.215759 0.807540
O O12 0.219734 0.000000 0.578629
O O13 0.192184 0.500000 0.281499
O O14 0.120753 0.737279 0.349053
O O15 0.283276 0.761556 0.044812
O O16 0.647038 0.000000 0.965070
O O17 0.616778 0.750577 0.154596
O O18 0.575446 0.500000 0.362069
O O19 0.465771 0.741938 0.607833
O O20 0.383382 0.000000 0.748321
#
# Coordination Sequence:
#
# PCOD9132150 Si02
#       8
#     4   4   4   4   4   4   4   4
#     4   9  18  35  58  85 115 154 197 240 296 362
#     4   8  15  31  58  84 113 153 195 235 293 363
#     4  10  22  43  64  81 116 164 206 249 302 365
#     4  11  22  34  58  93 122 152 200 255 308 364
#     4  11  24  41  63  91 120 164 217 259 307 372
#     4  10  19  36  61  87 122 163 201 246 304 371
#     4  11  23  40  62  91 126 162 203 259 316 369
#     4  10  21  38  62  92 124 164 203 251 312 372
#
# _framework density 19.831507999999999
#
# number of rings (size 3 to 8) (size 9 to 14) (size 15 to 20)
#    0.000    2.000    1.250    3.375    1.750    2.000 
#    0.000    2.500    0.000    0.000    0.000    0.000 
#    0.000    0.000    0.000    0.000    0.000    0.000 
#
# Total GULP energy -89346.678193 kJ/mol
# GULP energy per Si atom -5584.167387 kJ/mol
# Density = 1.978637 g / cm^3
# Si number density = 19.831508 Si / 1000 Ang^3
#
#
#
# Elastic Constant Matrix: (Units=GPa)
#
#
# Indices 1 2 3 4 5 6 
#
# 1 71.9491 -23.1696 49.3947 0.0000 7.6870 0.0000
# 2 -23.1696 15.4690 -17.6919 0.0000 0.0274 0.0000
# 3 49.3947 -17.6919 40.7171 0.0000 4.2891 0.0000
# 4 0.0000 0.0000 0.0000 24.2462 0.0000 -0.0446
# 5 7.6870 0.0274 4.2891 0.0000 19.9058 0.0000
# 6 0.0000 0.0000 0.0000 -0.0446 0.0000 18.3719
#
#
#
# Elastic Compliance Matrix: (Units=1/GPa)
#
#
# Indices 1 2 3 4 5 6 
#
# 1 0.089200 0.022879 -0.096836 0.000000 -0.013612 0.000000
# 2 0.022879 0.137482 0.033698 0.000000 -0.016285 0.000000
# 3 -0.096836 0.033698 0.156288 0.000000 0.003673 0.000000
# 4 0.000000 0.000000 0.000000 0.041244 0.000000 0.000100
# 5 -0.013612 -0.016285 0.003673 0.000000 0.054724 0.000000
# 6 0.000000 0.000000 0.000000 0.000100 0.000000 0.054431
#
#
# Mechanical properties :
#
#
# Convention : Reuss Voigt Hill
#
# Bulk Modulus (GPa) = 3.30631 16.13352 9.71991
# Shear Modulus (GPa) = 6.99589 20.47824 13.73706
#
# Velocity S-wave (km/s) = 1.88024 3.21691 2.63475
# Velocity P-wave (km/s) = 2.52677 4.68519 3.76401
#
# Compressibility (1/GPa) = 0.30245193
#
# Stress axis : x y z
#
# Youngs Moduli (GPa) = 11.21071 7.27367 6.39845
#
# Poissons Ratio (x) = -0.16641 0.61960
# Poissons Ratio (y) = -0.25648 -0.21561
# Poissons Ratio (z) = 1.08560 -0.24511
#
# Static dielectric constant tensor:
#      x y z
#    x 1.682320 0.000000 0.009600 
#    y 0.000000 1.691050 0.000000 
#    z 0.009600 0.000000 1.698910 
# 
# From -- ./inp_files/24814.got.cif
#   From: 2010.05.17/outbox.cif.g08.bks.cpg/sg8_13_cif.got.tgz:24814.got - 2010.06.03 19:46:02.
