data_PCOD9132657
_publ_section_title
;
Structure prediction by ZEFSAII (Michael W. Deem and Ramdas Pophale) SiO2 
 PCOD9132657
Probable space group: C M
;
_chemical_formula_sum "Si O2"
_cell_formula_units_Z 32
_cell_length_a 14.962979
_cell_length_b 18.009908
_cell_length_c 5.396881
_cell_angle_alpha 90.000000
_cell_angle_beta 78.469858
_cell_angle_gamma 90.000000
_cell_volume 1425.012138
_symmetry_space_group_name_H-M "C M"
_symmetry_group_IT_number 8
_symmetry_cell_setting 'monoclinic'
loop_
_space_group_symop_operation_xyz
x,y,z
x,-y,z
1/2+x,1/2+y,z
1/2+x,1/2-y,z
loop_
_atom_site_type_symbol
_atom_site_label
_atom_site_fract_x
_atom_site_fract_y
_atom_site_fract_z
Si Si1 0.511590 0.337302 0.840430
Si Si2 0.122866 0.416434 0.890798
Si Si3 0.853920 0.701097 0.612345
Si Si4 0.407356 0.626372 0.495729
Si Si5 0.723968 0.877539 0.325443
Si Si6 0.673819 0.711506 0.455880
Si Si7 0.950754 0.686280 0.066478
Si Si8 0.106126 0.084325 0.170478
O O1 0.432373 0.388753 0.770724
O O2 0.570224 0.286121 0.614906
O O3 0.472508 0.275132 0.047143
O O4 0.589348 0.391449 0.898839
O O5 0.086608 0.500000 0.920397
O O6 0.160910 0.401867 0.593569
O O7 0.044537 0.357521 0.992001
O O8 0.196933 0.408470 0.071655
O O9 0.882469 0.787103 0.561402
O O10 0.746107 0.698454 0.633958
O O11 0.889958 0.673757 0.855379
O O12 0.900881 0.664171 0.346961
O O13 0.323582 0.600912 0.374757
O O14 0.502310 0.598347 0.326580
O O15 0.707491 0.788342 0.315802
O O16 0.670690 0.643225 0.268654
O O17 0.133374 0.000000 0.189298
#
# Coordination Sequence:
#
# PCOD9132657 Si02
#       8
#     4   4   4   4   4   4   4   4
#     4  10  20  38  64  92 125 167 214 262 313 388
#     4  12  26  42  64  96 130 170 210 264 333 386
#     4  10  22  38  70  97 121 158 224 274 311 366
#     4   9  22  38  60  94 125 164 218 260 316 381
#     4  11  24  42  69  96 129 169 218 269 314 384
#     4  10  23  40  66  97 123 170 220 268 315 380
#     4  11  21  41  65  93 124 167 208 274 317 378
#     4  11  23  39  62  93 136 175 210 263 330 395
#
# _framework density 22.455950000000001
#
# number of rings (size 3 to 8) (size 9 to 14) (size 15 to 20)
#    0.000    1.500    2.500    1.875    5.250    5.000 
#    0.000    1.250    0.000    0.000    0.000    0.000 
#    0.000    0.000    0.000    0.000    0.000    0.000 
#
# Total GULP energy -89220.036954 kJ/mol
# GULP energy per Si atom -5576.252310 kJ/mol
# Density = 2.240484 g / cm^3
# Si number density = 22.455950 Si / 1000 Ang^3
#
#
#
# Elastic Constant Matrix: (Units=GPa)
#
#
# Indices 1 2 3 4 5 6 
#
# 1 70.9434 0.9810 8.9612 0.0000 24.4180 0.0000
# 2 0.9810 76.8339 22.1552 0.0000 19.3695 0.0000
# 3 8.9612 22.1552 74.6098 0.0000 21.8338 0.0000
# 4 0.0000 0.0000 0.0000 11.4365 0.0000 5.0616
# 5 24.4180 19.3695 21.8338 0.0000 43.9430 0.0000
# 6 0.0000 0.0000 0.0000 5.0616 0.0000 1.2818
#
#
#
# Elastic Compliance Matrix: (Units=1/GPa)
#
#
# Indices 1 2 3 4 5 6 
#
# 1 0.017875 0.002487 0.000400 0.000000 -0.011228 0.000000
# 2 0.002487 0.015536 -0.002930 0.000000 -0.006774 0.000000
# 3 0.000400 -0.002930 0.016279 0.000000 -0.007020 0.000000
# 4 0.000000 0.000000 0.000000 -0.116940 0.000000 0.461789
# 5 -0.011228 -0.006774 -0.007020 0.000000 0.035470 0.000000
# 6 0.000000 0.000000 0.000000 0.461789 0.000000 -1.043400
#
#
# Mechanical properties :
#
#
# Convention : Reuss Voigt Hill
#
# Bulk Modulus (GPa) = 20.15905 31.84242 26.00073
# Shear Modulus (GPa) = -4.72340 24.01824 9.64742
#
# Velocity S-wave (km/s) = -1.45189 3.27398 2.07496
# Velocity P-wave (km/s) = 2.48717 5.33879 4.16465
#
# Compressibility (1/GPa) = 0.04960552
#
# Stress axis : x y z
#
# Youngs Moduli (GPa) = 55.94298 64.36722 61.42821
#
# Poissons Ratio (x) = -0.16007 -0.02459
# Poissons Ratio (y) = -0.13912 0.17996
# Poissons Ratio (z) = -0.02239 0.18857
#
# Static dielectric constant tensor:
#      x y z
#    x 1.862630 0.000000 0.036500 
#    y 0.000000 1.834570 0.000000 
#    z 0.036500 0.000000 2.038440 
# 
# From -- ./inp_files/4125.got.cif
#   From: 2010.05.17/outbox.cif.g08.bks.cpg/sg8_3_cif.got.tgz:4125.got - 2010.06.03 19:46:02.
