data_PCOD9132904
_publ_section_title
;
Structure prediction by ZEFSAII (Michael W. Deem and Ramdas Pophale) SiO2 
 PCOD9132904
Probable space group: C M
;
_chemical_formula_sum "Si O2"
_cell_formula_units_Z 32
_cell_length_a 17.679512
_cell_length_b 14.326135
_cell_length_c 5.273534
_cell_angle_alpha 90.000000
_cell_angle_beta 98.879442
_cell_angle_gamma 90.000000
_cell_volume 1319.668160
_symmetry_space_group_name_H-M "C M"
_symmetry_group_IT_number 8
_symmetry_cell_setting 'monoclinic'
loop_
_space_group_symop_operation_xyz
x,y,z
x,-y,z
1/2+x,1/2+y,z
1/2+x,1/2-y,z
loop_
_atom_site_type_symbol
_atom_site_label
_atom_site_fract_x
_atom_site_fract_y
_atom_site_fract_z
Si Si1 0.308830 0.105573 0.800290
Si Si2 0.679561 0.394314 0.093855
Si Si3 0.902766 0.105498 0.566055
Si Si4 0.143248 0.323879 0.564948
Si Si5 0.930493 0.265905 0.984815
Si Si6 0.284970 0.744894 0.394899
Si Si7 0.045971 0.161428 0.374885
Si Si8 0.565417 0.894525 0.002034
O O1 0.358553 0.169196 0.018684
O O2 0.321281 0.165779 0.555608
O O3 0.336443 0.000000 0.800062
O O4 0.219731 0.100481 0.837314
O O5 0.701985 0.500000 0.207055
O O6 0.719518 0.297355 0.200708
O O7 0.594006 0.381372 0.163263
O O8 0.908769 0.175445 0.809002
O O9 0.845150 0.164629 0.351419
O O10 0.989584 0.097541 0.505702
O O11 0.875490 0.000000 0.600719
O O12 0.233022 0.309661 0.575614
O O13 0.103845 0.221759 0.573484
O O14 0.123771 0.383089 0.800325
O O15 0.106928 0.364373 0.285588
O O16 0.991676 0.333894 0.880453
O O17 0.983590 0.233657 0.239305
O O18 0.540031 0.000000 0.021599
#
# Coordination Sequence:
#
# PCOD9132904 Si02
#       8
#     4   4   4   4   4   4   4   4
#     4  10  21  38  63  93 125 165 214 267 329 397
#     4  10  21  37  62  94 122 160 214 272 332 396
#     4  11  23  40  61  88 123 168 220 266 324 395
#     4  10  23  40  67  94 135 172 219 270 328 392
#     4  10  22  40  61  90 129 166 209 270 330 387
#     4  10  23  39  62  86 129 168 212 268 331 383
#     4  10  21  39  62  90 127 166 211 266 330 386
#     4  11  22  41  68  99 130 173 221 271 330 396
#
# _framework density 24.248521
#
# number of rings (size 3 to 8) (size 9 to 14) (size 15 to 20)
#    0.000    1.750    1.250    2.250    5.250    2.000 
#    0.000    2.500    0.000    0.000    0.000    0.000 
#    0.000    0.000    0.000    0.000    0.000    0.000 
#
# Total GULP energy -89124.682181 kJ/mol
# GULP energy per Si atom -5570.292636 kJ/mol
# Density = 2.419333 g / cm^3
# Si number density = 24.248521 Si / 1000 Ang^3
#
#
#
# Elastic Constant Matrix: (Units=GPa)
#
#
# Indices 1 2 3 4 5 6 
#
# 1 122.2662 48.2397 13.2978 0.0000 -21.1557 0.0000
# 2 48.2397 181.5916 28.3289 0.0000 4.7750 0.0000
# 3 13.2978 28.3289 67.1873 0.0000 -5.9231 0.0000
# 4 0.0000 0.0000 0.0000 14.1615 0.0000 -0.0184
# 5 -21.1557 4.7750 -5.9231 0.0000 37.2897 0.0000
# 6 0.0000 0.0000 0.0000 -0.0184 0.0000 24.0397
#
#
#
# Elastic Compliance Matrix: (Units=1/GPa)
#
#
# Indices 1 2 3 4 5 6 
#
# 1 0.010431 -0.002889 -0.000296 0.000000 0.006240 0.000000
# 2 -0.002889 0.006745 -0.002528 0.000000 -0.002904 0.000000
# 3 -0.000296 -0.002528 0.016250 0.000000 0.002737 0.000000
# 4 0.000000 0.000000 0.000000 0.070614 0.000000 0.000054
# 5 0.006240 -0.002904 0.002737 0.000000 0.031164 0.000000
# 6 0.000000 0.000000 0.000000 0.000054 0.000000 0.041598
#
#
# Mechanical properties :
#
#
# Convention : Reuss Voigt Hill
#
# Bulk Modulus (GPa) = 45.45707 61.19753 53.32730
# Shear Modulus (GPa) = 25.56747 33.84343 29.70545
#
# Velocity S-wave (km/s) = 3.25066 3.73995 3.50386
# Velocity P-wave (km/s) = 5.73377 6.62888 6.19751
#
# Compressibility (1/GPa) = 0.02199878
#
# Stress axis : x y z
#
# Youngs Moduli (GPa) = 95.87137 148.25696 61.53959
#
# Poissons Ratio (x) = 0.42828 0.01823
# Poissons Ratio (y) = 0.27695 0.15559
# Poissons Ratio (z) = 0.02840 0.37483
#
# Static dielectric constant tensor:
#      x y z
#    x 2.034090 0.000000 -0.008430 
#    y 0.000000 1.939730 0.000000 
#    z -0.008430 0.000000 2.172490 
# 
# From -- ./inp_files/4971.got.cif
#   From: 2010.05.17/outbox.cif.g08.bks.cpg/sg8_3_cif.got.tgz:4971.got - 2010.06.03 19:46:02.
