data_PCOD9132035
_publ_section_title
;
Structure prediction by ZEFSAII (Michael W. Deem and Ramdas Pophale) SiO2 
 PCOD9132035
Probable space group: C M
;
_chemical_formula_sum "Si O2"
_cell_formula_units_Z 32
_cell_length_a 24.966791
_cell_length_b 8.894607
_cell_length_c 24.023097
_cell_angle_alpha 90.000000
_cell_angle_beta 17.980606
_cell_angle_gamma 90.000000
_cell_volume 1646.827673
_symmetry_space_group_name_H-M "C M"
_symmetry_group_IT_number 8
_symmetry_cell_setting 'monoclinic'
loop_
_space_group_symop_operation_xyz
x,y,z
x,-y,z
1/2+x,1/2+y,z
1/2+x,1/2-y,z
loop_
_atom_site_type_symbol
_atom_site_label
_atom_site_fract_x
_atom_site_fract_y
_atom_site_fract_z
Si Si1 0.987250 0.180160 0.974730
Si Si2 0.320581 0.322812 0.436917
Si Si3 0.766208 0.178893 0.616072
Si Si4 0.158439 0.322280 0.477184
Si Si5 0.692399 0.177203 0.074972
Si Si6 0.479723 0.821840 0.102120
Si Si7 0.146216 0.680571 0.246360
Si Si8 0.279872 0.821131 0.878104
O O1 0.127330 0.240312 0.792249
O O2 0.998206 0.000000 0.966708
O O3 0.018925 0.250475 0.003588
O O4 0.793051 0.219968 0.145802
O O5 0.373480 0.500000 0.385577
O O6 0.232970 0.291346 0.583090
O O7 0.208671 0.300270 0.492396
O O8 0.490960 0.220638 0.264953
O O9 0.961714 0.237806 0.434632
O O10 0.758879 0.000000 0.632099
O O11 0.181528 0.500000 0.442211
O O12 0.289757 0.229488 0.309951
O O13 0.956795 0.283629 0.670942
O O14 0.723815 0.216345 0.108374
O O15 0.719848 0.000000 0.040045
O O16 0.794787 0.268186 0.927142
O O17 0.491618 0.000000 0.088029
O O18 0.616813 0.757998 0.011063
O O19 0.116484 0.500000 0.277140
O O20 0.255352 0.000000 0.901101
#
# Coordination Sequence:
#
# PCOD9132035 Si02
#       8
#     4   4   4   4   4   4   4   4
#     4  11  24  43  66  88 119 167 210 251 301 367
#     4   9  18  35  59  88 125 163 199 245 303 362
#     4  10  21  37  61  94 127 160 201 254 304 355
#     4  10  22  40  63  90 121 162 206 247 301 369
#     4  10  19  34  58  91 127 161 199 250 305 357
#     4  12  26  44  64  89 122 160 205 263 310 356
#     4   9  21  40  61  89 124 163 205 248 303 364
#     4  11  23  39  62  91 123 164 205 246 303 370
#
# _framework density 19.431298000000002
#
# number of rings (size 3 to 8) (size 9 to 14) (size 15 to 20)
#    0.000    1.750    1.250    2.625    1.750    4.000 
#    0.000    1.250    0.000    0.000    0.000    0.000 
#    0.000    0.000    0.000    0.000    0.000    0.000 
#
# Total GULP energy -89399.404342 kJ/mol
# GULP energy per Si atom -5587.462771 kJ/mol
# Density = 1.938707 g / cm^3
# Si number density = 19.431298 Si / 1000 Ang^3
#
#
#
# Elastic Constant Matrix: (Units=GPa)
#
#
# Indices 1 2 3 4 5 6 
#
# 1 48.3220 21.4946 9.4562 0.0008 13.4173 -0.0005
# 2 21.4946 59.7950 35.3015 -0.0020 12.1622 0.0005
# 3 9.4562 35.3015 70.0761 -0.0001 19.6063 0.0007
# 4 0.0008 -0.0020 -0.0001 28.8053 0.0011 11.8164
# 5 13.4173 12.1622 19.6063 0.0011 24.2063 -0.0005
# 6 -0.0005 0.0005 0.0007 11.8164 -0.0005 22.7725
#
#
#
# Elastic Compliance Matrix: (Units=1/GPa)
#
#
# Indices 1 2 3 4 5 6 
#
# 1 0.028447 -0.010508 0.005675 -0.000001 -0.015085 0.000001
# 2 -0.010508 0.027844 -0.013349 0.000003 0.002647 -0.000002
# 3 0.005675 -0.013349 0.024868 0.000000 -0.016581 -0.000001
# 4 -0.000001 0.000003 0.000000 0.044104 -0.000003 -0.022885
# 5 -0.015085 0.002647 -0.016581 -0.000003 0.061773 0.000003
# 6 0.000001 -0.000002 -0.000001 -0.022885 0.000003 0.055787
#
#
# Mechanical properties :
#
#
# Convention : Reuss Voigt Hill
#
# Bulk Modulus (GPa) = 22.32396 34.52197 28.42297
# Shear Modulus (GPa) = 16.99994 22.61952 19.80973
#
# Velocity S-wave (km/s) = 2.96104 3.41556 3.19639
# Velocity P-wave (km/s) = 4.81704 5.77576 5.31805
#
# Compressibility (1/GPa) = 0.04479492
#
# Stress axis : x y z
#
# Youngs Moduli (GPa) = 35.15345 35.91454 40.21183
#
# Poissons Ratio (x) = 0.37740 -0.22822
# Poissons Ratio (y) = 0.36940 0.53680
# Poissons Ratio (z) = -0.19951 0.47943
#
# Static dielectric constant tensor:
#      x y z
#    x 1.676990 0.000000 0.000920 
#    y 0.000000 1.647270 0.000000 
#    z 0.000920 0.000000 1.662540 
# 
# From -- ./inp_files/32409.got.cif
#   From: 2010.05.17/outbox.cif.g08.bks.cpg/sg8_17_cif.got.tgz:32409.got - 2010.06.03 19:46:02.
