data_PCOD9132303
_publ_section_title
;
Structure prediction by ZEFSAII (Michael W. Deem and Ramdas Pophale) SiO2 
 PCOD9132303
Probable space group: C M
;
_chemical_formula_sum "Si O2"
_cell_formula_units_Z 32
_cell_length_a 23.220317
_cell_length_b 8.288525
_cell_length_c 11.604597
_cell_angle_alpha 90.000000
_cell_angle_beta 131.656309
_cell_angle_gamma 90.000000
_cell_volume 1668.708552
_symmetry_space_group_name_H-M "C M"
_symmetry_group_IT_number 8
_symmetry_cell_setting 'monoclinic'
loop_
_space_group_symop_operation_xyz
x,y,z
x,-y,z
1/2+x,1/2+y,z
1/2+x,1/2-y,z
loop_
_atom_site_type_symbol
_atom_site_label
_atom_site_fract_x
_atom_site_fract_y
_atom_site_fract_z
Si Si1 0.370940 0.194794 0.363520
Si Si2 0.603206 0.194643 0.547353
Si Si3 0.752030 0.804882 0.606221
Si Si4 0.722879 0.306762 0.307702
Si Si5 0.412941 0.695235 0.928528
Si Si6 0.532208 0.803335 0.689120
Si Si7 0.443460 0.306921 0.228445
Si Si8 0.062494 0.306608 0.987960
O O1 0.292028 0.251637 0.316519
O O2 0.445346 0.245547 0.538317
O O3 0.386676 0.252956 0.255068
O O4 0.370860 0.000000 0.361821
O O5 0.681502 0.253061 0.592638
O O6 0.587092 0.249721 0.656951
O O7 0.528310 0.243391 0.374177
O O8 0.605729 0.000000 0.553116
O O9 0.737713 0.753391 0.456471
O O10 0.752046 0.000000 0.610234
O O11 0.834452 0.748003 0.763364
O O12 0.725038 0.500000 0.311803
O O13 0.640409 0.252141 0.151328
O O14 0.411983 0.500000 0.927564
O O15 0.418651 0.749676 0.068891
O O16 0.487852 0.750610 0.958948
O O17 0.533114 0.000000 0.691665
O O18 0.555876 0.747274 0.846994
O O19 0.446359 0.500000 0.231436
O O20 0.063251 0.500000 0.987246
#
# Coordination Sequence:
#
# PCOD9132303 Si02
#       8
#     4   4   4   4   4   4   4   4
#     4   9  19  37  58  78 105 143 181 219 269 325
#     4   9  18  35  57  79 108 145 181 219 266 321
#     4  10  21  37  58  82 108 144 186 225 270 325
#     4  11  23  38  56  80 112 145 179 227 280 323
#     4  10  22  38  55  80 114 145 178 227 279 320
#     4   8  16  33  56  79 103 136 179 221 261 313
#     4  10  20  34  55  82 110 141 177 221 271 320
#     4  11  22  36  57  82 108 145 189 225 266 325
#
# _framework density 19.176504999999999
#
# number of rings (size 3 to 8) (size 9 to 14) (size 15 to 20)
#    0.000    2.250    0.000    3.375    0.000    7.000 
#    0.000    8.750    0.000    0.000    0.000    0.000 
#    0.000    0.000    0.000    0.000    0.000    0.000 
#
# Total GULP energy -89340.753750 kJ/mol
# GULP energy per Si atom -5583.797109 kJ/mol
# Density = 1.913286 g / cm^3
# Si number density = 19.176505 Si / 1000 Ang^3
#
#
#
# Elastic Constant Matrix: (Units=GPa)
#
#
# Indices 1 2 3 4 5 6 
#
# 1 207.0320 20.8945 133.2211 0.0000 9.1993 0.0000
# 2 20.8945 12.6199 16.6834 0.0000 -0.4948 0.0000
# 3 133.2211 16.6834 184.6536 0.0000 -15.4085 0.0000
# 4 0.0000 0.0000 0.0000 16.5962 0.0000 -6.0630
# 5 9.1993 -0.4948 -15.4085 0.0000 32.6714 0.0000
# 6 0.0000 0.0000 0.0000 -6.0630 0.0000 18.4547
#
#
#
# Elastic Compliance Matrix: (Units=1/GPa)
#
#
# Indices 1 2 3 4 5 6 
#
# 1 0.010919 -0.008151 -0.007711 0.000000 -0.006835 0.000000
# 2 -0.008151 0.096282 -0.002608 0.000000 0.002524 0.000000
# 3 -0.007711 -0.002608 0.011859 0.000000 0.007725 0.000000
# 4 0.000000 0.000000 0.000000 0.068473 0.000000 0.022496
# 5 -0.006835 0.002524 0.007725 0.000000 0.036214 0.000000
# 6 0.000000 0.000000 0.000000 0.022496 0.000000 0.061577
#
#
# Mechanical properties :
#
#
# Convention : Reuss Voigt Hill
#
# Bulk Modulus (GPa) = 12.17735 82.87816 47.52775
# Shear Modulus (GPa) = 14.30052 29.11154 21.70603
#
# Velocity S-wave (km/s) = 2.73377 3.90049 3.36803
# Velocity P-wave (km/s) = 4.04087 7.97480 6.32163
#
# Compressibility (1/GPa) = 0.08211968
#
# Stress axis : x y z
#
# Youngs Moduli (GPa) = 91.58760 10.38612 84.32376
#
# Poissons Ratio (x) = 0.08466 0.65023
# Poissons Ratio (y) = 0.74657 0.21988
# Poissons Ratio (z) = 0.70625 0.02708
#
# Static dielectric constant tensor:
#      x y z
#    x 1.658750 0.000000 -0.004570 
#    y 0.000000 1.668670 0.000000 
#    z -0.004570 0.000000 1.644490 
# 
# From -- ./inp_files/23903.got.cif
#   From: 2010.05.17/outbox.cif.g08.bks.cpg/sg8_12_cif.got.tgz:23903.got - 2010.06.03 19:46:02.
