data_PCOD9132779
_publ_section_title
;
Structure prediction by ZEFSAII (Michael W. Deem and Ramdas Pophale) SiO2 
 PCOD9132779
Probable space group: C M
;
_chemical_formula_sum "Si O2"
_cell_formula_units_Z 30
_cell_length_a 10.061639
_cell_length_b 24.858052
_cell_length_c 8.513618
_cell_angle_alpha 90.000000
_cell_angle_beta 139.608960
_cell_angle_gamma 90.000000
_cell_volume 1379.829822
_symmetry_space_group_name_H-M "C M"
_symmetry_group_IT_number 8
_symmetry_cell_setting 'monoclinic'
loop_
_space_group_symop_operation_xyz
x,y,z
x,-y,z
1/2+x,1/2+y,z
1/2+x,1/2-y,z
loop_
_atom_site_type_symbol
_atom_site_label
_atom_site_fract_x
_atom_site_fract_y
_atom_site_fract_z
Si Si1 0.382470 0.500000 0.841861
Si Si2 0.742692 0.188555 0.805297
Si Si3 0.309962 0.938295 0.705216
Si Si4 0.043134 0.097734 0.169617
Si Si5 0.883955 0.648898 0.273119
Si Si6 0.600066 0.750923 0.973467
Si Si7 0.602217 0.863502 0.142793
Si Si8 0.424159 0.443253 0.553161
O O1 0.380947 0.453844 0.697065
O O2 0.410445 0.547130 0.998591
O O3 0.577990 0.154060 0.562197
O O4 0.628342 0.227705 0.823046
O O5 0.882454 0.222994 0.811952
O O6 0.899600 0.150285 0.042217
O O7 0.167382 0.914692 0.439573
O O8 0.496676 0.899144 0.912138
O O9 0.162687 0.939987 0.725783
O O10 0.369059 0.000000 0.720669
O O11 0.219678 0.107952 0.197540
O O12 0.771928 0.706553 0.163702
O O13 0.960614 0.634571 0.169712
O O14 0.623307 0.802618 0.105856
O O15 0.810403 0.892274 0.382058
O O16 0.349420 0.500000 0.408106
#
# Coordination Sequence:
#
# PCOD9132779 Si02
#       8
#     2   4   4   4   4   4   4   4
#     4  10  20  42  66  96 140 178 216 282 332 404
#     4  11  25  45  69 101 139 177 230 278 341 404
#     4  11  23  42  70  97 136 175 220 279 336 408
#     4  11  23  44  67 101 139 176 224 273 347 396
#     4  11  26  43  69 102 132 179 225 283 336 408
#     4  11  25  45  67 103 136 178 225 283 338 406
#     4  12  23  43  71 100 131 180 224 275 340 402
#     4   9  22  40  65  97 132 172 224 271 326 400
#
# _framework density 21.741811999999999
#
# number of rings (size 3 to 8) (size 9 to 14) (size 15 to 20)
#    0.400    0.800    2.000    3.600    1.867    3.200 
#    1.200    0.667    0.000    0.000    0.000    0.000 
#    0.000    0.000    0.000    0.000    0.000    0.000 
#
# Total GULP energy -83602.687684 kJ/mol
# GULP energy per Si atom -5573.512512 kJ/mol
# Density = 2.169233 g / cm^3
# Si number density = 21.741812 Si / 1000 Ang^3
#
#
#
# Elastic Constant Matrix: (Units=GPa)
#
#
# Indices 1 2 3 4 5 6 
#
# 1 64.1279 8.0941 -5.7074 0.0000 -1.1047 0.0000
# 2 8.0941 79.3217 9.0124 0.0000 11.6222 0.0000
# 3 -5.7074 9.0124 65.6309 0.0000 -11.0593 0.0000
# 4 0.0000 0.0000 0.0000 40.8947 0.0000 -3.9646
# 5 -1.1047 11.6222 -11.0593 0.0000 21.7900 0.0000
# 6 0.0000 0.0000 0.0000 -3.9646 0.0000 20.2041
#
#
#
# Elastic Compliance Matrix: (Units=1/GPa)
#
#
# Indices 1 2 3 4 5 6 
#
# 1 0.016153 -0.002383 0.002279 0.000000 0.003247 0.000000
# 2 -0.002383 0.014757 -0.003915 0.000000 -0.009979 0.000000
# 3 0.002279 -0.003915 0.017872 0.000000 0.011275 0.000000
# 4 0.000000 0.000000 0.000000 0.024927 0.000000 0.004891
# 5 0.003247 -0.009979 0.011275 0.000000 0.057102 0.000000
# 6 0.000000 0.000000 0.000000 0.004891 0.000000 0.050455
#
#
# Mechanical properties :
#
#
# Convention : Reuss Voigt Hill
#
# Bulk Modulus (GPa) = 24.54311 25.76429 25.15370
# Shear Modulus (GPa) = 24.64431 29.75652 27.20041
#
# Velocity S-wave (km/s) = 3.37040 3.70351 3.54088
# Velocity P-wave (km/s) = 5.14384 5.49216 5.32085
#
# Compressibility (1/GPa) = 0.04074464
#
# Stress axis : x y z
#
# Youngs Moduli (GPa) = 61.90654 67.76446 55.95216
#
# Poissons Ratio (x) = 0.16148 -0.12752
# Poissons Ratio (y) = 0.14752 0.21906
# Poissons Ratio (z) = -0.14109 0.26531
#
# Static dielectric constant tensor:
#      x y z
#    x 1.825320 0.000000 -0.002920 
#    y 0.000000 1.743620 0.000000 
#    z -0.002920 0.000000 1.756700 
# 
# From -- ./inp_files/11610.got.cif
#   From: 2010.05.17/outbox.cif.g08.bks.cpg/sg8_6_cif.got.tgz:11610.got - 2010.06.03 19:46:02.
