data_PCOD9132788
_publ_section_title
;
Structure prediction by ZEFSAII (Michael W. Deem and Ramdas Pophale) SiO2 
 PCOD9132788
Probable space group: C M
;
_chemical_formula_sum "Si O2"
_cell_formula_units_Z 28
_cell_length_a 9.051854
_cell_length_b 27.151324
_cell_length_c 8.476864
_cell_angle_alpha 90.000000
_cell_angle_beta 33.196349
_cell_angle_gamma 90.000000
_cell_volume 1140.658776
_symmetry_space_group_name_H-M "C M"
_symmetry_group_IT_number 8
_symmetry_cell_setting 'monoclinic'
loop_
_space_group_symop_operation_xyz
x,y,z
x,-y,z
1/2+x,1/2+y,z
1/2+x,1/2-y,z
loop_
_atom_site_type_symbol
_atom_site_label
_atom_site_fract_x
_atom_site_fract_y
_atom_site_fract_z
Si Si1 0.041020 0.355636 0.880900
Si Si2 0.776272 0.287164 0.382780
Si Si3 0.877234 0.943931 0.121756
Si Si4 0.007481 0.556262 0.137502
Si Si5 0.647545 0.799997 0.315629
Si Si6 0.718224 0.377575 0.604281
Si Si7 0.968424 0.140231 0.241685
O O1 0.290977 0.340777 0.547859
O O2 0.924795 0.314249 0.104379
O O3 0.116270 0.404715 0.913877
O O4 0.777342 0.366441 0.010617
O O5 0.599752 0.241055 0.490696
O O6 0.593317 0.328001 0.638363
O O7 0.030873 0.272788 0.266134
O O8 0.671853 0.944982 0.156572
O O9 0.828521 0.912031 0.320987
O O10 0.943643 0.000000 0.099593
O O11 0.114071 0.911937 0.833719
O O12 0.975437 0.500000 0.112801
O O13 0.743231 0.584706 0.435561
O O14 0.486015 0.850806 0.431342
O O15 0.929923 0.822216 0.127261
#
# Coordination Sequence:
#
# PCOD9132788 Si02
#       7
#     4   4   4   4   4   4   4
#     4  11  26  44  68 101 150 179 240 293 367 424
#     4   9  21  43  69 105 134 200 234 306 357 444
#     4  11  23  43  73 101 140 197 252 302 371 438
#     4  10  22  43  69  99 136 194 243 301 368 440
#     4  10  20  44  71 104 145 188 250 296 370 436
#     4   9  20  40  70 102 140 181 248 307 351 445
#     4  12  25  45  68 104 145 187 230 307 352 431
#
# _framework density 24.547218000000001
#
# number of rings (size 3 to 8) (size 9 to 14) (size 15 to 20)
#    0.857    0.857    1.429    2.143    4.000    1.143 
#    2.571    2.857    0.000    0.000    0.000    0.000 
#    0.000    0.000    0.000    0.000    0.000    0.000 
#
# Total GULP energy -77934.705238 kJ/mol
# GULP energy per Si atom -5566.764660 kJ/mol
# Density = 2.449135 g / cm^3
# Si number density = 24.547218 Si / 1000 Ang^3
#
#
#
# Elastic Constant Matrix: (Units=GPa)
#
#
# Indices 1 2 3 4 5 6 
#
# 1 99.1319 29.9477 11.9508 0.0000 -3.0366 0.0000
# 2 29.9477 106.8807 -5.3819 0.0000 4.2375 0.0000
# 3 11.9508 -5.3819 58.5262 0.0000 8.8182 0.0000
# 4 0.0000 0.0000 0.0000 18.1226 0.0000 14.4600
# 5 -3.0366 4.2375 8.8182 0.0000 36.5375 0.0000
# 6 0.0000 0.0000 0.0000 14.4600 0.0000 44.0767
#
#
#
# Elastic Compliance Matrix: (Units=1/GPa)
#
#
# Indices 1 2 3 4 5 6 
#
# 1 0.011562 -0.003473 -0.002995 0.000000 0.002086 0.000000
# 2 -0.003473 0.010507 0.001974 0.000000 -0.001984 0.000000
# 3 -0.002995 0.001974 0.018629 0.000000 -0.004974 0.000000
# 4 0.000000 0.000000 0.000000 0.074746 0.000000 -0.024521
# 5 0.002086 -0.001984 -0.004974 0.000000 0.028973 0.000000
# 6 0.000000 0.000000 0.000000 -0.024521 0.000000 0.030732
#
#
# Mechanical properties :
#
#
# Convention : Reuss Voigt Hill
#
# Bulk Modulus (GPa) = 31.53450 37.50798 34.52124
# Shear Modulus (GPa) = 25.67975 34.94883 30.31429
#
# Velocity S-wave (km/s) = 3.23791 3.77734 3.51798
# Velocity P-wave (km/s) = 5.18200 5.85982 5.53130
#
# Compressibility (1/GPa) = 0.03171130
#
# Stress axis : x y z
#
# Youngs Moduli (GPa) = 86.49253 95.17070 53.68026
#
# Poissons Ratio (x) = 0.33053 0.16075
# Poissons Ratio (y) = 0.30039 -0.10598
# Poissons Ratio (z) = 0.25901 -0.18790
#
# Static dielectric constant tensor:
#      x y z
#    x 2.043810 0.000000 0.025150 
#    y 0.000000 1.957530 0.000000 
#    z 0.025150 0.000000 2.086070 
# 
# From -- ./inp_files/9323.got.cif
#   From: 2010.05.17/outbox.cif.g08.bks.cpg/sg8_5_cif.got.tgz:9323.got - 2010.06.03 19:46:02.
