data_PCOD9132795
_publ_section_title
;
Structure prediction by ZEFSAII (Michael W. Deem and Ramdas Pophale) SiO2 
 PCOD9132795
Probable space group: C M
;
_chemical_formula_sum "Si O2"
_cell_formula_units_Z 24
_cell_length_a 9.299559
_cell_length_b 16.056622
_cell_length_c 13.223873
_cell_angle_alpha 90.000000
_cell_angle_beta 30.565891
_cell_angle_gamma 90.000000
_cell_volume 1004.132117
_symmetry_space_group_name_H-M "C M"
_symmetry_group_IT_number 8
_symmetry_cell_setting 'monoclinic'
loop_
_space_group_symop_operation_xyz
x,y,z
x,-y,z
1/2+x,1/2+y,z
1/2+x,1/2-y,z
loop_
_atom_site_type_symbol
_atom_site_label
_atom_site_fract_x
_atom_site_fract_y
_atom_site_fract_z
Si Si1 0.966880 0.167308 0.350780
Si Si2 0.171794 0.000000 0.649434
Si Si3 0.375505 0.172195 0.288088
Si Si4 0.753834 0.500000 0.901818
Si Si5 0.630322 0.000000 0.191223
Si Si6 0.197738 0.500000 0.478593
Si Si7 0.371945 0.337543 0.761592
Si Si8 0.960142 0.676369 0.825541
O O1 0.002023 0.239770 0.247389
O O2 0.702168 0.175497 0.589671
O O3 0.228308 0.169678 0.268541
O O4 0.885694 0.080670 0.346691
O O5 0.407192 0.000000 0.418793
O O6 0.390942 0.000000 0.610300
O O7 0.967586 0.921077 0.761293
O O8 0.128959 0.168120 0.523964
O O9 0.558321 0.088491 0.184197
O O10 0.082790 0.500000 0.662348
O O11 0.763219 0.595236 0.937075
O O12 0.455565 0.500000 0.024744
O O13 0.109243 0.331931 0.843952
O O14 0.336840 0.265744 0.866860
#
# Coordination Sequence:
#
# PCOD9132795 Si02
#       8
#     4   2   4   2   2   2   4   4
#     4   9  18  31  54  84 107 134 184 231 273 307
#     4  10  21  33  59  85 110 138 182 235 270 312
#     4   9  18  32  55  79 109 142 179 227 269 321
#     4  10  21  37  55  79 114 151 179 212 275 339
#     4  10  21  37  55  79 114 151 179 212 275 339
#     4  10  21  33  59  85 110 138 182 235 270 312
#     4   9  18  31  54  84 107 134 184 231 273 307
#     4   9  18  32  55  79 109 142 179 227 269 321
#
# _framework density 23.901236000000001
#
# number of rings (size 3 to 8) (size 9 to 14) (size 15 to 20)
#    0.000    2.667    0.000    1.000   14.000    4.000 
#    0.000    1.667    0.000    2.000    0.000    0.000 
#    0.000    0.000    0.000    0.000    0.000    0.000 
#
# Total GULP energy -66879.434682 kJ/mol
# GULP energy per Si atom -5573.286223 kJ/mol
# Density = 2.384684 g / cm^3
# Si number density = 23.901236 Si / 1000 Ang^3
#
#
#
# Elastic Constant Matrix: (Units=GPa)
#
#
# Indices 1 2 3 4 5 6 
#
# 1 110.2368 123.5223 72.8431 0.0540 -34.0392 -0.0010
# 2 123.5223 277.0767 80.6128 -0.0007 -59.6816 0.0055
# 3 72.8431 80.6128 119.2262 -0.1183 -3.9364 -0.0146
# 4 0.0540 -0.0007 -0.1183 -7.2150 -0.0018 -20.2604
# 5 -34.0392 -59.6816 -3.9364 -0.0018 67.7146 0.0017
# 6 -0.0010 0.0055 -0.0146 -20.2604 0.0017 25.6587
#
#
#
# Elastic Compliance Matrix: (Units=1/GPa)
#
#
# Indices 1 2 3 4 5 6 
#
# 1 0.026351 -0.007187 -0.011033 0.000121 0.006271 0.000091
# 2 -0.007187 0.007692 -0.000707 -0.000011 0.003126 -0.000012
# 3 -0.011033 -0.000707 0.015432 -0.000112 -0.005272 -0.000079
# 4 0.000121 -0.000011 -0.000112 -0.043079 0.000044 -0.034015
# 5 0.006271 0.003126 -0.005272 0.000044 0.020368 0.000030
# 6 0.000091 -0.000012 -0.000079 -0.034015 0.000030 0.012114
#
#
# Mechanical properties :
#
#
# Convention : Reuss Voigt Hill
#
# Bulk Modulus (GPa) = 86.04668 117.83290 101.93979
# Shear Modulus (GPa) = 62.02996 32.53574 47.28285
#
# Velocity S-wave (km/s) = 5.09990 3.69353 4.45259
# Velocity P-wave (km/s) = 8.41176 8.22171 8.31728
#
# Compressibility (1/GPa) = 0.01162160
#
# Stress axis : x y z
#
# Youngs Moduli (GPa) = 37.94901 130.00766 64.80052
#
# Poissons Ratio (x) = 0.93433 0.71496
# Poissons Ratio (y) = 0.27273 0.04579
# Poissons Ratio (z) = 0.41870 0.09187
#
# Static dielectric constant tensor:
#      x y z
#    x 1.954210 0.000020 0.120660 
#    y 0.000020 1.958910 0.000050 
#    z 0.120660 0.000050 1.967050 
# 
# From -- ./inp_files/28612.got.cif
#   From: 2010.05.17/outbox.cif.g08.bks.cpg/sg8_15_cif.got.tgz:28612.got - 2010.06.03 19:46:02.
