data_PCOD9132719
_publ_section_title
;
Structure prediction by ZEFSAII (Michael W. Deem and Ramdas Pophale) SiO2 
 PCOD9132719
Probable space group: C M
;
_chemical_formula_sum "Si O2"
_cell_formula_units_Z 28
_cell_length_a 8.419274
_cell_length_b 25.220580
_cell_length_c 6.402481
_cell_angle_alpha 90.000000
_cell_angle_beta 77.648298
_cell_angle_gamma 90.000000
_cell_volume 1328.027908
_symmetry_space_group_name_H-M "C M"
_symmetry_group_IT_number 8
_symmetry_cell_setting 'monoclinic'
loop_
_space_group_symop_operation_xyz
x,y,z
x,-y,z
1/2+x,1/2+y,z
1/2+x,1/2-y,z
loop_
_atom_site_type_symbol
_atom_site_label
_atom_site_fract_x
_atom_site_fract_y
_atom_site_fract_z
Si Si1 0.998570 0.604361 0.422470
Si Si2 0.448907 0.058596 0.840659
Si Si3 0.918099 0.755622 0.790190
Si Si4 0.948549 0.162962 0.117763
Si Si5 0.805414 0.657513 0.119305
Si Si6 0.688330 0.802209 0.522308
Si Si7 0.752083 0.059879 0.029849
O O1 0.910549 0.566032 0.607229
O O2 0.897891 0.646445 0.311478
O O3 0.108555 0.640348 0.542544
O O4 0.113311 0.569995 0.242752
O O5 0.399818 0.000000 0.925097
O O6 0.352100 0.104902 0.979788
O O7 0.640951 0.063036 0.851932
O O8 0.772969 0.785744 0.713908
O O9 0.035863 0.737270 0.569777
O O10 0.998459 0.799526 0.913123
O O11 0.866904 0.707050 0.959017
O O12 0.809859 0.193504 0.291822
O O13 0.876709 0.107935 0.044114
O O14 0.112066 0.157546 0.205063
O O15 0.819546 0.000000 0.025557
#
# Coordination Sequence:
#
# PCOD9132719 Si02
#       7
#     4   4   4   4   4   4   4
#     4  10  21  40  66  94 128 170 221 265 323 394
#     4  10  20  39  67  95 126 172 222 268 323 393
#     4  12  25  43  62  94 133 171 220 272 321 396
#     4  11  26  41  66  98 132 175 217 272 329 386
#     4  11  25  41  64  94 139 167 213 274 334 381
#     4  11  26  40  66  90 128 173 221 260 330 385
#     4   9  20  40  66  95 129 170 219 269 324 385
#
# _framework density 21.083893
#
# number of rings (size 3 to 8) (size 9 to 14) (size 15 to 20)
#    0.000    1.429    2.857    1.286    8.000    2.286 
#    0.000    0.000    0.000    0.000    0.000    0.000 
#    0.000    0.000    0.000    0.000    0.000    0.000 
#
# Total GULP energy -78011.261048 kJ/mol
# GULP energy per Si atom -5572.232932 kJ/mol
# Density = 2.103590 g / cm^3
# Si number density = 21.083893 Si / 1000 Ang^3
#
#
#
# Elastic Constant Matrix: (Units=GPa)
#
#
# Indices 1 2 3 4 5 6 
#
# 1 57.9528 39.7694 23.2087 0.0000 -7.0428 0.0000
# 2 39.7694 139.0329 57.5446 0.0000 9.6082 0.0000
# 3 23.2087 57.5446 65.8576 0.0000 12.9429 0.0000
# 4 0.0000 0.0000 0.0000 18.7092 0.0000 3.4932
# 5 -7.0428 9.6082 12.9429 0.0000 24.3805 0.0000
# 6 0.0000 0.0000 0.0000 3.4932 0.0000 -0.3476
#
#
#
# Elastic Compliance Matrix: (Units=1/GPa)
#
#
# Indices 1 2 3 4 5 6 
#
# 1 0.025183 -0.005282 -0.006809 0.000000 0.012971 0.000000
# 2 -0.005282 0.012392 -0.008605 0.000000 -0.001841 0.000000
# 3 -0.006809 -0.008605 0.027714 0.000000 -0.013288 0.000000
# 4 0.000000 0.000000 0.000000 0.018584 0.000000 0.186739
# 5 0.012971 -0.001841 -0.013288 0.000000 0.052543 0.000000
# 6 0.000000 0.000000 0.000000 0.186739 0.000000 -1.000160
#
#
# Mechanical properties :
#
#
# Convention : Reuss Voigt Hill
#
# Bulk Modulus (GPa) = 41.84353 55.98762 48.91557
# Shear Modulus (GPa) = -6.13958 18.03645 5.94843
#
# Velocity S-wave (km/s) = -1.70830 2.92800 1.68150
# Velocity P-wave (km/s) = 3.99978 6.16792 5.19815
#
# Compressibility (1/GPa) = 0.02389856
#
# Stress axis : x y z
#
# Youngs Moduli (GPa) = 39.70936 80.69774 36.08320
#
# Poissons Ratio (x) = 0.42622 0.24568
# Poissons Ratio (y) = 0.20973 0.31048
# Poissons Ratio (z) = 0.27037 0.69437
#
# Static dielectric constant tensor:
#      x y z
#    x 1.823860 0.000000 0.028460 
#    y 0.000000 1.757010 0.000000 
#    z 0.028460 0.000000 1.816960 
# 
# From -- ./inp_files/1715.got.cif
#   From: 2010.05.17/outbox.cif.g08.bks.cpg/sg8_1_cif.got.tgz:1715.got - 2010.06.03 19:46:02.
