data_PCOD9132720
_publ_section_title
;
Structure prediction by ZEFSAII (Michael W. Deem and Ramdas Pophale) SiO2 
 PCOD9132720
Probable space group: C M
;
_chemical_formula_sum "Si O2"
_cell_formula_units_Z 32
_cell_length_a 30.279744
_cell_length_b 12.396771
_cell_length_c 8.940082
_cell_angle_alpha 90.000000
_cell_angle_beta 23.826533
_cell_angle_gamma 90.000000
_cell_volume 1355.658422
_symmetry_space_group_name_H-M "C M"
_symmetry_group_IT_number 8
_symmetry_cell_setting 'monoclinic'
loop_
_space_group_symop_operation_xyz
x,y,z
x,-y,z
1/2+x,1/2+y,z
1/2+x,1/2-y,z
loop_
_atom_site_type_symbol
_atom_site_label
_atom_site_fract_x
_atom_site_fract_y
_atom_site_fract_z
Si Si1 0.660820 0.307357 0.079410
Si Si2 0.126962 0.125228 0.513599
Si Si3 0.370233 0.882247 0.242252
Si Si4 0.280011 0.247275 0.261129
Si Si5 0.448969 0.384865 0.582879
Si Si6 0.414170 0.129294 0.405586
Si Si7 0.419020 0.623426 0.349428
Si Si8 0.623038 0.875345 0.962921
O O1 0.657555 0.311688 0.268345
O O2 0.551640 0.369990 0.369287
O O3 0.761123 0.368264 0.684494
O O4 0.645621 0.193356 0.042191
O O5 0.202543 0.163153 0.416786
O O6 0.147369 0.000000 0.419854
O O7 0.001289 0.134304 0.956009
O O8 0.359670 0.800456 0.141301
O O9 0.461517 0.875875 0.088578
O O10 0.372261 0.000000 0.167582
O O11 0.204473 0.330697 0.584206
O O12 0.356701 0.299290 0.901000
O O13 0.396175 0.500000 0.776179
O O14 0.486529 0.383580 0.294969
O O15 0.364962 0.256423 0.541170
O O16 0.373092 0.000000 0.553166
O O17 0.502741 0.138677 0.262959
O O18 0.367103 0.500000 0.498662
O O19 0.641336 0.000000 0.935221
#
# Coordination Sequence:
#
# PCOD9132720 Si02
#       8
#     4   4   4   4   4   4   4   4
#     4  11  23  41  63  92 126 164 221 263 320 374
#     4  11  23  40  66  95 126 169 216 269 321 375
#     4  10  22  41  67  94 125 167 212 268 323 379
#     4  11  23  39  63  94 134 161 214 257 324 386
#     4  11  23  40  62  90 126 169 213 264 321 380
#     4  10  20  39  67  96 127 169 214 260 328 390
#     4  10  21  41  65  92 126 166 215 264 318 375
#     4  10  21  43  67  91 128 169 209 265 327 389
#
# _framework density 23.604766000000001
#
# number of rings (size 3 to 8) (size 9 to 14) (size 15 to 20)
#    0.000    1.500    2.500    2.625    3.500    1.000 
#    0.000    6.250    0.000    0.000    0.000    0.000 
#    0.000    0.000    0.000    0.000    0.000    0.000 
#
# Total GULP energy -89102.338481 kJ/mol
# GULP energy per Si atom -5568.896155 kJ/mol
# Density = 2.355104 g / cm^3
# Si number density = 23.604766 Si / 1000 Ang^3
#
#
#
# Elastic Constant Matrix: (Units=GPa)
#
#
# Indices 1 2 3 4 5 6 
#
# 1 81.0605 50.2667 12.5255 0.0000 24.2572 0.0000
# 2 50.2667 179.7138 38.6672 0.0000 6.3181 0.0000
# 3 12.5255 38.6672 62.3682 0.0000 29.1650 0.0000
# 4 0.0000 0.0000 0.0000 2.8202 0.0000 2.5357
# 5 24.2572 6.3181 29.1650 0.0000 29.7078 0.0000
# 6 0.0000 0.0000 0.0000 2.5357 0.0000 35.1071
#
#
#
# Elastic Compliance Matrix: (Units=1/GPa)
#
#
# Indices 1 2 3 4 5 6 
#
# 1 0.027636 -0.010513 0.019365 0.000000 -0.039341 0.000000
# 2 -0.010513 0.010796 -0.013907 0.000000 0.019942 0.000000
# 3 0.019365 -0.013907 0.049504 0.000000 -0.061454 0.000000
# 4 0.000000 0.000000 0.000000 0.379214 0.000000 -0.027390
# 5 -0.039341 0.019942 -0.061454 0.000000 0.121874 0.000000
# 6 0.000000 0.000000 0.000000 -0.027390 0.000000 0.030463
#
#
# Mechanical properties :
#
#
# Convention : Reuss Voigt Hill
#
# Bulk Modulus (GPa) = 12.84933 58.45125 35.65029
# Shear Modulus (GPa) = 7.62728 28.30588 17.96658
#
# Velocity S-wave (km/s) = 1.79952 3.46664 2.76187
# Velocity P-wave (km/s) = 3.12618 6.39060 5.03054
#
# Compressibility (1/GPa) = 0.07782508
#
# Stress axis : x y z
#
# Youngs Moduli (GPa) = 36.18416 92.62465 20.20019
#
# Poissons Ratio (x) = 0.97380 -0.39117
# Poissons Ratio (y) = 0.38042 0.28093
# Poissons Ratio (z) = -0.70069 1.28815
#
# Static dielectric constant tensor:
#      x y z
#    x 1.945070 0.000000 -0.068840 
#    y 0.000000 1.973780 0.000000 
#    z -0.068840 0.000000 1.882800 
# 
# From -- ./inp_files/17823.got.cif
#   From: 2010.05.17/outbox.cif.g08.bks.cpg/sg8_9_cif.got.tgz:17823.got - 2010.06.03 19:46:02.
