data_PCOD9132208
_publ_section_title
;
Structure prediction by ZEFSAII (Michael W. Deem and Ramdas Pophale) SiO2 
 PCOD9132208
Probable space group: C M
;
_chemical_formula_sum "Si O2"
_cell_formula_units_Z 26
_cell_length_a 11.123393
_cell_length_b 21.103912
_cell_length_c 7.933990
_cell_angle_alpha 90.000000
_cell_angle_beta 141.528677
_cell_angle_gamma 90.000000
_cell_volume 1158.692125
_symmetry_space_group_name_H-M "C M"
_symmetry_group_IT_number 8
_symmetry_cell_setting 'monoclinic'
loop_
_space_group_symop_operation_xyz
x,y,z
x,-y,z
1/2+x,1/2+y,z
1/2+x,1/2-y,z
loop_
_atom_site_type_symbol
_atom_site_label
_atom_site_fract_x
_atom_site_fract_y
_atom_site_fract_z
Si Si1 0.330570 0.282934 0.446950
Si Si2 0.746716 0.107340 0.587414
Si Si3 0.041176 0.925625 0.186664
Si Si4 0.004193 0.675632 0.857740
Si Si5 0.487964 0.928221 0.588737
Si Si6 0.489101 0.500000 0.662902
Si Si7 0.150064 0.878411 0.668965
O O1 0.230797 0.326336 0.478974
O O2 0.384504 0.217258 0.592142
O O3 0.523772 0.321184 0.606392
O O4 0.176653 0.283490 0.126650
O O5 0.555162 0.087840 0.475406
O O6 0.832921 0.055244 0.555351
O O7 0.903651 0.111101 0.909898
O O8 0.258664 0.922910 0.356018
O O9 0.047878 0.900454 0.382404
O O10 0.984639 0.000000 0.120143
O O11 0.859525 0.647164 0.840333
O O12 0.080246 0.616902 0.830984
O O13 0.543226 0.000000 0.687706
O O14 0.637779 0.442246 0.766720
#
# Coordination Sequence:
#
# PCOD9132208 Si02
#       7
#     4   4   4   4   4   2   4
#     4  11  28  45  69 100 137 188 236 287 349 405
#     4  11  22  40  64 101 137 173 228 285 345 406
#     4  10  19  37  69  97 132 181 220 273 348 404
#     4  11  27  48  70 102 136 191 236 285 344 415
#     4  10  22  42  70 101 133 178 226 285 346 415
#     4  10  20  40  64 102 138 184 222 290 348 400
#     4  10  23  44  69  99 141 181 236 286 340 417
#
# _framework density 22.439094999999998
#
# number of rings (size 3 to 8) (size 9 to 14) (size 15 to 20)
#    0.000    1.538    2.308    0.923    7.538    3.692 
#    5.538    0.000    0.000    0.000    0.000    0.000 
#    0.000    0.000    0.000    0.000    0.000    0.000 
#
# Total GULP energy -72420.522621 kJ/mol
# GULP energy per Si atom -5570.809432 kJ/mol
# Density = 2.238802 g / cm^3
# Si number density = 22.439095 Si / 1000 Ang^3
#
#
#
# Elastic Constant Matrix: (Units=GPa)
#
#
# Indices 1 2 3 4 5 6 
#
# 1 114.6850 52.0595 -8.0133 0.0000 15.2424 0.0000
# 2 52.0595 82.0372 1.1299 0.0000 0.4925 0.0000
# 3 -8.0133 1.1299 33.2942 0.0000 -6.3928 0.0000
# 4 0.0000 0.0000 0.0000 24.8928 0.0000 -12.3257
# 5 15.2424 0.4925 -6.3928 0.0000 24.9720 0.0000
# 6 0.0000 0.0000 0.0000 -12.3257 0.0000 28.4897
#
#
#
# Elastic Compliance Matrix: (Units=1/GPa)
#
#
# Indices 1 2 3 4 5 6 
#
# 1 0.013896 -0.008801 0.002154 0.000000 -0.007757 0.000000
# 2 -0.008801 0.017773 -0.001848 0.000000 0.004549 0.000000
# 3 0.002154 -0.001848 0.031941 0.000000 0.006899 0.000000
# 4 0.000000 0.000000 0.000000 0.051124 0.000000 0.022118
# 5 -0.007757 0.004549 0.006899 0.000000 0.046456 0.000000
# 6 0.000000 0.000000 0.000000 0.022118 0.000000 0.044670
#
#
# Mechanical properties :
#
#
# Convention : Reuss Voigt Hill
#
# Bulk Modulus (GPa) = 21.45059 35.59651 28.52355
# Shear Modulus (GPa) = 20.97397 27.99359 24.48378
#
# Velocity S-wave (km/s) = 3.06061 3.53588 3.30680
# Velocity P-wave (km/s) = 4.69788 5.70684 5.22676
#
# Compressibility (1/GPa) = 0.04661876
#
# Stress axis : x y z
#
# Youngs Moduli (GPa) = 71.96168 56.26512 31.30775
#
# Poissons Ratio (x) = 0.49521 -0.06743
# Poissons Ratio (y) = 0.63337 0.05786
# Poissons Ratio (z) = -0.15499 0.10399
#
# Static dielectric constant tensor:
#      x y z
#    x 1.861700 0.000000 -0.009510 
#    y 0.000000 1.821400 0.000000 
#    z -0.009510 0.000000 1.856630 
# 
# From -- ./inp_files/11565.got.cif
#   From: 2010.05.17/outbox.cif.g08.bks.cpg/sg8_6_cif.got.tgz:11565.got - 2010.06.03 19:46:02.
