data_PCOD9132131
_publ_section_title
;
Structure prediction by ZEFSAII (Michael W. Deem and Ramdas Pophale) SiO2 
 PCOD9132131
Probable space group: C M
;
_chemical_formula_sum "Si O2"
_cell_formula_units_Z 32
_cell_length_a 14.466019
_cell_length_b 8.558484
_cell_length_c 20.486303
_cell_angle_alpha 90.000000
_cell_angle_beta 134.920774
_cell_angle_gamma 90.000000
_cell_volume 1795.949668
_symmetry_space_group_name_H-M "C M"
_symmetry_group_IT_number 8
_symmetry_cell_setting 'monoclinic'
loop_
_space_group_symop_operation_xyz
x,y,z
x,-y,z
1/2+x,1/2+y,z
1/2+x,1/2-y,z
loop_
_atom_site_type_symbol
_atom_site_label
_atom_site_fract_x
_atom_site_fract_y
_atom_site_fract_z
Si Si1 0.769840 0.813043 0.709340
Si Si2 0.480288 0.688637 0.565952
Si Si3 0.269026 0.689429 0.354692
Si Si4 0.973636 0.813359 0.059301
Si Si5 0.766911 0.313181 0.852576
Si Si6 0.977510 0.686957 0.709340
Si Si7 0.763801 0.811985 0.203027
Si Si8 0.470923 0.811985 0.203028
O O1 0.624578 0.750657 0.621333
O O2 0.800639 0.751684 0.797486
O O3 0.873807 0.750000 0.709472
O O4 0.769055 0.000000 0.709198
O O5 0.483658 0.500000 0.569323
O O6 0.374295 0.742471 0.459960
O O7 0.446759 0.750658 0.621333
O O8 0.271468 0.500000 0.357133
O O9 0.298258 0.736324 0.294650
O O10 0.119711 0.736323 0.294651
O O11 0.119904 0.754214 0.117002
O O12 0.942773 0.754215 0.117004
O O13 0.969516 0.000000 0.055181
O O14 0.871620 0.743414 0.957286
O O15 0.761913 0.500000 0.847578
O O16 0.623003 0.248317 0.797486
O O17 0.978011 0.500000 0.709199
O O18 0.868816 0.750000 0.204481
O O19 0.758142 0.000000 0.198086
O O20 0.466702 0.000000 0.198087
#
# Coordination Sequence:
#
# PCOD9132131 Si02
#       8
#     4   4   4   4   4   4   4   4
#     4  11  22  38  57  82 112 146 184 227 272 324
#     4  10  19  36  58  83 112 146 183 227 276 327
#     4   8  18  35  56  80 112 146 183 227 274 323
#     4  11  22  38  58  83 111 145 183 225 272 326
#     4  11  22  39  60  84 111 143 179 225 276 328
#     4  11  22  38  57  82 112 146 184 227 272 324
#     4  10  20  37  57  82 112 146 184 228 274 324
#     4  10  20  37  57  82 112 146 184 228 274 324
#
# _framework density 17.817872000000001
#
# number of rings (size 3 to 8) (size 9 to 14) (size 15 to 20)
#    0.000    1.750    0.000    7.875    0.000    2.000 
#    0.000   15.000    0.000    0.000    0.000    0.000 
#    0.000    0.000    0.000    0.000    0.000    0.000 
#
# Total GULP energy -89381.732834 kJ/mol
# GULP energy per Si atom -5586.358302 kJ/mol
# Density = 1.777732 g / cm^3
# Si number density = 17.817872 Si / 1000 Ang^3
#
#
#
# Elastic Constant Matrix: (Units=GPa)
#
#
# Indices 1 2 3 4 5 6 
#
# 1 199.8511 66.9119 104.7961 0.0000 3.3498 0.0000
# 2 66.9119 148.1515 63.1477 0.0000 0.1444 0.0000
# 3 104.7961 63.1477 197.9440 0.0000 -3.2729 0.0000
# 4 0.0000 0.0000 0.0000 25.0535 0.0000 0.1005
# 5 3.3498 0.1444 -3.2729 0.0000 3.8931 0.0000
# 6 0.0000 0.0000 0.0000 0.1005 0.0000 27.6957
#
#
#
# Elastic Compliance Matrix: (Units=1/GPa)
#
#
# Indices 1 2 3 4 5 6 
#
# 1 0.007712 -0.001928 -0.003627 0.000000 -0.009614 0.000000
# 2 -0.001928 0.008317 -0.001633 0.000000 -0.000022 0.000000
# 3 -0.003627 -0.001633 0.007652 0.000000 0.009614 0.000000
# 4 0.000000 0.000000 0.000000 0.039915 0.000000 -0.000145
# 5 -0.009614 -0.000022 0.009614 0.000000 0.273220 0.000000
# 6 0.000000 0.000000 0.000000 -0.000145 0.000000 0.036107
#
#
# Mechanical properties :
#
#
# Convention : Reuss Voigt Hill
#
# Bulk Modulus (GPa) = 107.46404 112.85090 110.15747
# Shear Modulus (GPa) = 12.80736 32.06786 22.43761
#
# Velocity S-wave (km/s) = 2.68394 4.24696 3.55248
# Velocity P-wave (km/s) = 8.36948 9.35533 8.87610
#
# Compressibility (1/GPa) = 0.00930544
#
# Stress axis : x y z
#
# Youngs Moduli (GPa) = 129.66488 120.24209 130.68483
#
# Poissons Ratio (x) = 0.23181 0.47399
# Poissons Ratio (y) = 0.24998 0.21339
# Poissons Ratio (z) = 0.47029 0.19634
#
# Static dielectric constant tensor:
#      x y z
#    x 1.576920 0.000000 -0.000610 
#    y 0.000000 1.597680 0.000000 
#    z -0.000610 0.000000 1.593020 
# 
# From -- ./inp_files/30707.got.cif
#   From: 2010.05.17/outbox.cif.g08.bks.cpg/sg8_16_cif.got.tgz:30707.got - 2010.06.03 19:46:02.
