data_PCOD9132332
_publ_section_title
;
Structure prediction by ZEFSAII (Michael W. Deem and Ramdas Pophale) SiO2 
 PCOD9132332
Probable space group: C M
;
_chemical_formula_sum "Si O2"
_cell_formula_units_Z 32
_cell_length_a 21.610849
_cell_length_b 14.916011
_cell_length_c 8.811652
_cell_angle_alpha 90.000000
_cell_angle_beta 29.791681
_cell_angle_gamma 90.000000
_cell_volume 1411.254609
_symmetry_space_group_name_H-M "C M"
_symmetry_group_IT_number 8
_symmetry_cell_setting 'monoclinic'
loop_
_space_group_symop_operation_xyz
x,y,z
x,-y,z
1/2+x,1/2+y,z
1/2+x,1/2-y,z
loop_
_atom_site_type_symbol
_atom_site_label
_atom_site_fract_x
_atom_site_fract_y
_atom_site_fract_z
Si Si1 0.889690 0.600758 0.213290
Si Si2 0.592379 0.227093 0.927222
Si Si3 0.149786 0.901283 0.931317
Si Si4 0.864361 0.898368 0.873931
Si Si5 0.504458 0.893645 0.668891
Si Si6 0.648865 0.894843 0.082832
Si Si7 0.658188 0.398168 0.246221
Si Si8 0.214980 0.264733 0.350591
O O1 0.945602 0.500000 0.110763
O O2 0.758653 0.596020 0.575368
O O3 0.891179 0.619632 0.028405
O O4 0.974896 0.673729 0.113093
O O5 0.560117 0.321634 0.073130
O O6 0.686023 0.246442 0.588527
O O7 0.654535 0.166324 0.924069
O O8 0.091146 0.000000 0.063224
O O9 0.211934 0.883314 0.963363
O O10 0.010178 0.896658 0.529669
O O11 0.837368 0.000000 0.989739
O O12 0.770848 0.884479 0.930863
O O13 0.840775 0.817355 0.041310
O O14 0.526567 0.867835 0.445800
O O15 0.613806 0.840361 0.518065
O O16 0.526622 0.000000 0.617966
O O17 0.638408 0.000000 0.065528
O O18 0.692554 0.500000 0.223897
O O19 0.689111 0.319862 0.297154
#
# Coordination Sequence:
#
# PCOD9132332 Si02
#       8
#     4   4   4   4   4   4   4   4
#     4   9  19  37  58  81 114 154 191 232 286 343
#     4  11  22  34  56  88 121 150 188 241 295 347
#     4  10  22  39  56  78 113 154 195 239 287 341
#     4   9  19  38  62  85 113 152 196 241 290 343
#     4   8  15  31  55  81 111 146 185 230 278 332
#     4   9  17  32  58  93 122 147 190 243 291 345
#     4  10  22  41  61  81 112 157 203 244 288 342
#     4  10  20  34  58  87 116 150 194 242 291 345
#
# _framework density 22.674859000000001
#
# number of rings (size 3 to 8) (size 9 to 14) (size 15 to 20)
#    0.000    2.500    0.000    3.000    0.000    6.000 
#    0.000    1.250    0.000    9.750    0.000    0.000 
#    0.000    0.000    0.000    0.000    0.000    0.000 
#
# Total GULP energy -89278.155804 kJ/mol
# GULP energy per Si atom -5579.884738 kJ/mol
# Density = 2.262325 g / cm^3
# Si number density = 22.674859 Si / 1000 Ang^3
#
#
#
# Elastic Constant Matrix: (Units=GPa)
#
#
# Indices 1 2 3 4 5 6 
#
# 1 83.1648 76.0605 28.3653 0.0000 19.6241 0.0000
# 2 76.0605 137.0006 34.0261 0.0000 20.8325 0.0000
# 3 28.3653 34.0261 75.2868 0.0000 25.9299 0.0000
# 4 0.0000 0.0000 0.0000 24.1005 0.0000 9.2600
# 5 19.6241 20.8325 25.9299 0.0000 39.3359 0.0000
# 6 0.0000 0.0000 0.0000 9.2600 0.0000 25.8546
#
#
#
# Elastic Compliance Matrix: (Units=1/GPa)
#
#
# Indices 1 2 3 4 5 6 
#
# 1 0.025831 -0.013098 -0.002281 0.000000 -0.004446 0.000000
# 2 -0.013098 0.015053 -0.001776 0.000000 -0.000267 0.000000
# 3 -0.002281 -0.001776 0.018408 0.000000 -0.010056 0.000000
# 4 0.000000 0.000000 0.000000 0.048114 0.000000 -0.017232
# 5 -0.004446 -0.000267 -0.010056 0.000000 0.034410 0.000000
# 6 0.000000 0.000000 0.000000 -0.017232 0.000000 0.044850
#
#
# Mechanical properties :
#
#
# Convention : Reuss Voigt Hill
#
# Bulk Modulus (GPa) = 40.03126 63.59511 51.81319
# Shear Modulus (GPa) = 21.80514 28.32488 25.06501
#
# Velocity S-wave (km/s) = 3.10440 3.53820 3.32838
# Velocity P-wave (km/s) = 5.52653 6.69322 6.13766
#
# Compressibility (1/GPa) = 0.02498047
#
# Stress axis : x y z
#
# Youngs Moduli (GPa) = 38.71354 66.43237 54.32365
#
# Poissons Ratio (x) = 0.87015 0.12391
# Poissons Ratio (y) = 0.50708 0.09651
# Poissons Ratio (z) = 0.08830 0.11802
#
# Static dielectric constant tensor:
#      x y z
#    x 1.830250 0.000000 0.007480 
#    y 0.000000 1.873360 0.000000 
#    z 0.007480 0.000000 1.916040 
# 
# From -- ./inp_files/17114.got.cif
#   From: 2010.05.17/outbox.cif.g08.bks.cpg/sg8_9_cif.got.tgz:17114.got - 2010.06.03 19:46:02.
