data_PCOD9132186
_publ_section_title
;
Structure prediction by ZEFSAII (Michael W. Deem and Ramdas Pophale) SiO2 
 PCOD9132186
Probable space group: C M
;
_chemical_formula_sum "Si O2"
_cell_formula_units_Z 24
_cell_length_a 9.947080
_cell_length_b 17.044986
_cell_length_c 7.084377
_cell_angle_alpha 90.000000
_cell_angle_beta 111.014230
_cell_angle_gamma 90.000000
_cell_volume 1121.254611
_symmetry_space_group_name_H-M "C M"
_symmetry_group_IT_number 8
_symmetry_cell_setting 'monoclinic'
loop_
_space_group_symop_operation_xyz
x,y,z
x,-y,z
1/2+x,1/2+y,z
1/2+x,1/2-y,z
loop_
_atom_site_type_symbol
_atom_site_label
_atom_site_fract_x
_atom_site_fract_y
_atom_site_fract_z
Si Si1 0.648440 0.253574 0.313750
Si Si2 0.274002 0.914430 0.323538
Si Si3 0.849554 0.149965 0.631439
Si Si4 0.928963 0.302237 0.911416
Si Si5 0.566270 0.088267 0.671110
Si Si6 0.645427 0.633211 0.641057
O O1 0.702243 0.331649 0.228776
O O2 0.776830 0.192243 0.413144
O O3 0.612781 0.285955 0.506442
O O4 0.515758 0.214655 0.143176
O O5 0.443959 0.903357 0.447332
O O6 0.209080 0.918429 0.504484
O O7 0.248165 0.000000 0.218168
O O8 0.723062 0.101294 0.664033
O O9 0.895007 0.219663 0.795196
O O10 0.996489 0.106255 0.653158
O O11 0.028218 0.350775 0.815924
O O12 0.777601 0.348339 0.846251
O O13 0.553119 0.000000 0.739309
#
# Coordination Sequence:
#
# PCOD9132186 Si02
#       6
#     4   4   4   4   4   4
#     4   9  20  33  62  87 110 156 210 246 289 359
#     4   8  17  36  59  82 114 158 199 242 303 355
#     4  11  20  36  56  91 119 153 203 245 303 354
#     4  10  19  37  60  86 118 157 207 246 297 360
#     4  10  21  39  61  87 125 161 197 251 310 358
#     4   8  19  33  55  85 115 151 196 246 298 346
#
# _framework density 21.404592999999998
#
# number of rings (size 3 to 8) (size 9 to 14) (size 15 to 20)
#    1.000    1.667    1.667    2.000    0.000    3.333 
#    0.000    1.667    0.000    0.000    0.000    0.000 
#    0.000    0.000    0.000    0.000    0.000    0.000 
#
# Total GULP energy -66867.296774 kJ/mol
# GULP energy per Si atom -5572.274731 kJ/mol
# Density = 2.135588 g / cm^3
# Si number density = 21.404593 Si / 1000 Ang^3
#
#
#
# Elastic Constant Matrix: (Units=GPa)
#
#
# Indices 1 2 3 4 5 6 
#
# 1 133.4690 8.5797 25.9811 0.0000 34.0010 0.0000
# 2 8.5797 63.1346 17.6635 0.0000 4.0352 0.0000
# 3 25.9811 17.6635 88.3796 0.0000 24.9831 0.0000
# 4 0.0000 0.0000 0.0000 1.7042 0.0000 1.0211
# 5 34.0010 4.0352 24.9831 0.0000 29.9331 0.0000
# 6 0.0000 0.0000 0.0000 1.0211 0.0000 11.3631
#
#
#
# Elastic Compliance Matrix: (Units=1/GPa)
#
#
# Indices 1 2 3 4 5 6 
#
# 1 0.010591 -0.000801 0.000545 0.000000 -0.012377 0.000000
# 2 -0.000801 0.016849 -0.003595 0.000000 0.001639 0.000000
# 3 0.000545 -0.003595 0.015589 0.000000 -0.013146 0.000000
# 4 0.000000 0.000000 0.000000 0.620158 0.000000 -0.055726
# 5 -0.012377 0.001639 -0.013146 0.000000 0.058218 0.000000
# 6 0.000000 0.000000 0.000000 -0.055726 0.000000 0.093011
#
#
# Mechanical properties :
#
#
# Convention : Reuss Voigt Hill
#
# Bulk Modulus (GPa) = 28.30632 43.27019 35.78825
# Shear Modulus (GPa) = 5.99596 24.11736 15.05666
#
# Velocity S-wave (km/s) = 1.67551 3.36033 2.65511
# Velocity P-wave (km/s) = 4.12265 5.94265 5.11426
#
# Compressibility (1/GPa) = 0.03532781
#
# Stress axis : x y z
#
# Youngs Moduli (GPa) = 94.42167 59.35025 64.14712
#
# Poissons Ratio (x) = 0.04752 -0.03499
# Poissons Ratio (y) = 0.07561 0.23063
# Poissons Ratio (z) = -0.05151 0.21339
#
# Static dielectric constant tensor:
#      x y z
#    x 1.799970 0.000000 -0.009140 
#    y 0.000000 1.774190 0.000000 
#    z -0.009140 0.000000 1.761960 
# 
# From -- ./inp_files/8757.got.cif
#   From: 2010.05.17/outbox.cif.g08.bks.cpg/sg8_5_cif.got.tgz:8757.got - 2010.06.03 19:46:02.
