data_PCOD9132796
_publ_section_title
;
Structure prediction by ZEFSAII (Michael W. Deem and Ramdas Pophale) SiO2 
 PCOD9132796
Probable space group: C M
;
_chemical_formula_sum "Si O2"
_cell_formula_units_Z 32
_cell_length_a 16.225636
_cell_length_b 20.271539
_cell_length_c 9.297923
_cell_angle_alpha 90.000000
_cell_angle_beta 144.127815
_cell_angle_gamma 90.000000
_cell_volume 1792.076228
_symmetry_space_group_name_H-M "C M"
_symmetry_group_IT_number 8
_symmetry_cell_setting 'monoclinic'
loop_
_space_group_symop_operation_xyz
x,y,z
x,-y,z
1/2+x,1/2+y,z
1/2+x,1/2-y,z
loop_
_atom_site_type_symbol
_atom_site_label
_atom_site_fract_x
_atom_site_fract_y
_atom_site_fract_z
Si Si1 0.794300 0.688174 0.403630
Si Si2 0.794604 0.832078 0.269337
Si Si3 0.084628 0.804498 0.533212
Si Si4 0.088339 0.666393 0.703677
Si Si5 0.498721 0.313975 0.080936
Si Si6 0.764572 0.075560 0.754805
Si Si7 0.372883 0.171426 0.842649
Si Si8 0.635854 0.076013 0.254241
O O1 0.798271 0.766551 0.374392
O O2 0.629582 0.671517 0.160187
O O3 0.833155 0.666725 0.619549
O O4 0.921253 0.658341 0.490537
O O5 0.746591 0.892857 0.298886
O O6 0.949165 0.837271 0.416926
O O7 0.677051 0.823901 0.977035
O O8 0.105126 0.732925 0.633915
O O9 0.235866 0.840041 0.748030
O O10 0.050467 0.798340 0.315932
O O11 0.155494 0.605646 0.714494
O O12 0.397219 0.376070 0.944461
O O13 0.420610 0.247328 0.925372
O O14 0.698462 0.078669 0.502644
O O15 0.800206 0.000000 0.838589
O O16 0.499027 0.122299 0.054979
O O17 0.603830 0.000000 0.173364
#
# Coordination Sequence:
#
# PCOD9132796 Si02
#       8
#     4   4   4   4   4   4   4   4
#     4  10  21  33  60  92 118 144 199 245 297 338
#     4  11  20  37  58  92 120 152 193 247 294 346
#     4  10  21  33  60  92 118 144 199 245 297 338
#     4  11  20  37  58  92 120 152 193 247 294 346
#     4  11  19  37  60  88 118 157 193 245 297 344
#     4  11  24  41  60  84 119 163 200 235 293 362
#     4  11  19  37  60  88 118 157 193 245 297 344
#     4  11  24  41  60  84 119 163 200 235 293 362
#
# _framework density 17.856383000000001
#
# number of rings (size 3 to 8) (size 9 to 14) (size 15 to 20)
#    0.000    1.250    5.000    1.500    0.000    2.500 
#    0.000    3.750    0.000    3.000    0.000    0.000 
#    0.000    0.000    0.000    0.000    0.000    0.000 
#
# Total GULP energy -89249.634129 kJ/mol
# GULP energy per Si atom -5578.102133 kJ/mol
# Density = 1.781574 g / cm^3
# Si number density = 17.856383 Si / 1000 Ang^3
#
#
#
# Elastic Constant Matrix: (Units=GPa)
#
#
# Indices 1 2 3 4 5 6 
#
# 1 89.6766 22.8576 5.7454 0.0000 36.3602 0.0000
# 2 22.8576 83.4616 10.3443 0.0000 10.0911 0.0000
# 3 5.7454 10.3443 29.5056 0.0000 10.5671 0.0000
# 4 0.0000 0.0000 0.0000 28.7404 0.0000 -2.4671
# 5 36.3602 10.0911 10.5671 0.0000 40.3732 0.0000
# 6 0.0000 0.0000 0.0000 -2.4671 0.0000 25.3240
#
#
#
# Elastic Compliance Matrix: (Units=1/GPa)
#
#
# Indices 1 2 3 4 5 6 
#
# 1 0.018658 -0.003521 0.003646 0.000000 -0.016878 0.000000
# 2 -0.003521 0.013368 -0.004348 0.000000 0.000968 0.000000
# 3 0.003646 -0.004348 0.039164 0.000000 -0.012448 0.000000
# 4 0.000000 0.000000 0.000000 0.035088 0.000000 0.003418
# 5 -0.016878 0.000968 -0.012448 0.000000 0.042985 0.000000
# 6 0.000000 0.000000 0.000000 0.003418 0.000000 0.039821
#
#
# Mechanical properties :
#
#
# Convention : Reuss Voigt Hill
#
# Bulk Modulus (GPa) = 15.93759 31.17091 23.55425
# Shear Modulus (GPa) = 22.88906 29.80063 26.34485
#
# Velocity S-wave (km/s) = 3.58417 4.08966 3.84523
# Velocity P-wave (km/s) = 5.10619 6.30831 5.73881
#
# Compressibility (1/GPa) = 0.06274474
#
# Stress axis : x y z
#
# Youngs Moduli (GPa) = 53.59502 74.80704 25.53357
#
# Poissons Ratio (x) = 0.26341 -0.09309
# Poissons Ratio (y) = 0.18872 0.11101
# Poissons Ratio (z) = -0.19541 0.32523
#
# Static dielectric constant tensor:
#      x y z
#    x 1.644450 0.000000 0.021380 
#    y 0.000000 1.567220 0.000000 
#    z 0.021380 0.000000 1.631520 
# 
# From -- ./inp_files/11373.got.cif
#   From: 2010.05.17/outbox.cif.g08.bks.cpg/sg8_6_cif.got.tgz:11373.got - 2010.06.03 19:46:02.
