data_PCOD9132478
_publ_section_title
;
Structure prediction by ZEFSAII (Michael W. Deem and Ramdas Pophale) SiO2 
 PCOD9132478
Probable space group: C M
;
_chemical_formula_sum "Si O2"
_cell_formula_units_Z 32
_cell_length_a 14.466568
_cell_length_b 15.158642
_cell_length_c 19.847074
_cell_angle_alpha 90.000000
_cell_angle_beta 158.733561
_cell_angle_gamma 90.000000
_cell_volume 1578.615474
_symmetry_space_group_name_H-M "C M"
_symmetry_group_IT_number 8
_symmetry_cell_setting 'monoclinic'
loop_
_space_group_symop_operation_xyz
x,y,z
x,-y,z
1/2+x,1/2+y,z
1/2+x,1/2-y,z
loop_
_atom_site_type_symbol
_atom_site_label
_atom_site_fract_x
_atom_site_fract_y
_atom_site_fract_z
Si Si1 0.524260 0.898300 0.379580
Si Si2 0.386674 0.777576 0.172625
Si Si3 0.068321 0.100451 0.475891
Si Si4 0.143504 0.596530 0.612958
Si Si5 0.982321 0.605799 0.108364
Si Si6 0.361230 0.211999 0.781973
Si Si7 0.582991 0.321024 0.729538
Si Si8 0.821125 0.346330 0.514800
O O1 0.355877 0.830050 0.222322
O O2 0.502412 0.890007 0.445475
O O3 0.818441 0.873430 0.561301
O O4 0.474195 0.000000 0.327225
O O5 0.423201 0.849872 0.139622
O O6 0.643809 0.721898 0.354032
O O7 0.158708 0.711075 0.000833
O O8 0.774334 0.126849 0.286406
O O9 0.254574 0.162813 0.644631
O O10 0.149520 0.106009 0.453273
O O11 0.095501 0.000000 0.518415
O O12 0.272974 0.500000 0.695926
O O13 0.311522 0.683258 0.738241
O O14 0.961558 0.596900 0.554249
O O15 0.956235 0.500000 0.092692
O O16 0.785786 0.646038 0.921283
O O17 0.201934 0.171681 0.735910
O O18 0.517599 0.216879 0.688632
#
# Coordination Sequence:
#
# PCOD9132478 Si02
#       8
#     4   4   4   4   4   4   4   4
#     4  10  20  36  59  87 118 151 192 244 296 347
#     4  11  22  36  59  85 117 157 194 238 294 353
#     4  11  23  40  61  85 117 156 199 246 294 346
#     4  10  21  38  61  86 115 153 195 241 294 350
#     4  11  22  36  59  90 119 152 199 249 296 348
#     4  11  23  39  59  86 119 156 196 241 295 351
#     4  10  21  36  59  86 117 155 192 239 296 351
#     4  10  21  39  60  83 116 156 196 238 291 354
#
# _framework density 20.270928999999999
#
# number of rings (size 3 to 8) (size 9 to 14) (size 15 to 20)
#    0.000    1.500    0.000    7.125    0.000    5.000 
#    0.000    1.250    0.000    3.000    0.000    0.000 
#    0.000    0.000    0.000    0.000    0.000    0.000 
#
# Total GULP energy -89356.505250 kJ/mol
# GULP energy per Si atom -5584.781578 kJ/mol
# Density = 2.022479 g / cm^3
# Si number density = 20.270929 Si / 1000 Ang^3
#
#
#
# Elastic Constant Matrix: (Units=GPa)
#
#
# Indices 1 2 3 4 5 6 
#
# 1 100.3227 16.0145 26.9550 0.0059 -0.8593 -0.0131
# 2 16.0145 78.6493 32.3462 0.0354 -10.6602 0.0033
# 3 26.9550 32.3462 98.6988 0.0210 -7.8561 0.0105
# 4 0.0059 0.0354 0.0210 -0.3948 0.0090 4.7707
# 5 -0.8593 -10.6602 -7.8561 0.0090 26.5776 0.0041
# 6 -0.0131 0.0033 0.0105 4.7707 0.0041 16.8550
#
#
#
# Elastic Compliance Matrix: (Units=1/GPa)
#
#
# Indices 1 2 3 4 5 6 
#
# 1 0.010867 -0.001257 -0.002630 0.000003 -0.000930 0.000010
# 2 -0.001257 0.015406 -0.004319 0.000275 0.004862 -0.000080
# 3 -0.002630 -0.004319 0.012413 0.000037 0.001852 -0.000020
# 4 0.000003 0.000275 0.000037 -0.573024 0.000290 0.162192
# 5 -0.000930 0.004862 0.001852 0.000290 0.040093 -0.000095
# 6 0.000010 -0.000080 -0.000020 0.162192 -0.000095 0.013422
#
#
# Mechanical properties :
#
#
# Convention : Reuss Voigt Hill
#
# Bulk Modulus (GPa) = 44.89496 47.58914 46.24205
# Shear Modulus (GPa) = -10.94123 22.09789 5.57833
#
# Velocity S-wave (km/s) = -2.32577 3.30529 1.66068
# Velocity P-wave (km/s) = 3.87082 6.17204 5.15157
#
# Compressibility (1/GPa) = 0.02227421
#
# Stress axis : x y z
#
# Youngs Moduli (GPa) = 92.02029 64.91140 80.56224
#
# Poissons Ratio (x) = 0.08161 0.21187
# Poissons Ratio (y) = 0.11569 0.34791
# Poissons Ratio (z) = 0.24200 0.28032
#
# Static dielectric constant tensor:
#      x y z
#    x 1.733290 0.000000 0.001540 
#    y 0.000000 1.719960 -0.000040 
#    z 0.001540 -0.000040 1.709740 
# 
# From -- ./inp_files/30933.got.cif
#   From: 2010.05.17/outbox.cif.g08.bks.cpg/sg8_16_cif.got.tgz:30933.got - 2010.06.03 19:46:02.
