data_PCOD9132243
_publ_section_title
;
Structure prediction by ZEFSAII (Michael W. Deem and Ramdas Pophale) SiO2 
 PCOD9132243
Probable space group: C M
;
_chemical_formula_sum "Si O2"
_cell_formula_units_Z 32
_cell_length_a 20.606470
_cell_length_b 7.457580
_cell_length_c 15.029621
_cell_angle_alpha 90.000000
_cell_angle_beta 30.121501
_cell_angle_gamma 90.000000
_cell_volume 1159.073059
_symmetry_space_group_name_H-M "C M"
_symmetry_group_IT_number 8
_symmetry_cell_setting 'monoclinic'
loop_
_space_group_symop_operation_xyz
x,y,z
x,-y,z
1/2+x,1/2+y,z
1/2+x,1/2-y,z
loop_
_atom_site_type_symbol
_atom_site_label
_atom_site_fract_x
_atom_site_fract_y
_atom_site_fract_z
Si Si1 0.419090 0.717986 0.144170
Si Si2 0.496539 0.716113 0.330580
Si Si3 0.215591 0.281426 0.631583
Si Si4 0.361616 0.707425 0.024180
Si Si5 0.284972 0.708455 0.929278
Si Si6 0.073322 0.788344 0.427390
Si Si7 0.134872 0.286094 0.543867
Si Si8 0.194014 0.710035 0.856034
O O1 0.418440 0.500000 0.144188
O O2 0.433710 0.786552 0.024501
O O3 0.278614 0.776278 0.344150
O O4 0.540694 0.778731 0.057013
O O5 0.507856 0.500000 0.309950
O O6 0.365825 0.765232 0.435092
O O7 0.633203 0.792076 0.138243
O O8 0.481670 0.763037 0.453769
O O9 0.208147 0.500000 0.643546
O O10 0.125144 0.220702 0.657269
O O11 0.197512 0.211596 0.752827
O O12 0.396269 0.500000 0.974232
O O13 0.356632 0.790126 0.930958
O O14 0.212499 0.707380 0.236658
O O15 0.324395 0.500000 0.875810
O O16 0.274318 0.788405 0.842983
O O17 0.045749 0.755126 0.564235
O O18 0.088757 0.000000 0.401816
O O19 0.137273 0.500000 0.545493
O O20 0.231754 0.500000 0.805627
#
# Coordination Sequence:
#
# PCOD9132243 Si02
#       8
#     4   4   4   4   4   4   4   4
#     4   9  17  30  49  70  90 117 154 191 227 271
#     4   9  17  31  51  71  91 119 154 189 226 271
#     4   9  18  33  49  65  90 126 162 187 217 271
#     4   8  15  29  47  67  92 122 153 182 221 276
#     4   9  17  30  49  72  94 117 150 191 231 269
#     4   9  16  26  45  74  98 113 141 192 240 267
#     4   9  17  31  51  69  89 123 158 185 220 273
#     4  10  20  32  47  68  94 123 154 191 230 266
#
# _framework density 27.608269
#
# number of rings (size 3 to 8) (size 9 to 14) (size 15 to 20)
#    0.000    3.000    0.000    1.875    0.000    4.000 
#    0.000    3.125    0.000    3.000    0.000    0.000 
#    0.000    0.000    0.000    0.000    0.000    0.000 
#
# Total GULP energy -89449.808716 kJ/mol
# GULP energy per Si atom -5590.613045 kJ/mol
# Density = 2.754543 g / cm^3
# Si number density = 27.608269 Si / 1000 Ang^3
#
#
#
# Elastic Constant Matrix: (Units=GPa)
#
#
# Indices 1 2 3 4 5 6 
#
# 1 264.6324 17.4489 41.7442 0.0002 17.7677 -0.0007
# 2 17.4489 93.2133 10.4706 -0.0004 8.7304 0.0011
# 3 41.7442 10.4706 90.5137 -0.0006 22.2274 0.0011
# 4 0.0002 -0.0004 -0.0006 21.7276 0.0003 -11.7552
# 5 17.7677 8.7304 22.2274 0.0003 58.8658 -0.0005
# 6 -0.0007 0.0011 0.0011 -11.7552 -0.0005 1.5618
#
#
#
# Elastic Compliance Matrix: (Units=1/GPa)
#
#
# Indices 1 2 3 4 5 6 
#
# 1 0.004118 -0.000530 -0.001711 -0.000001 -0.000518 -0.000001
# 2 -0.000530 0.011022 -0.000737 0.000001 -0.001197 0.000002
# 3 -0.001711 -0.000737 0.012971 0.000002 -0.004272 0.000002
# 4 -0.000001 0.000001 0.000002 -0.014982 -0.000002 -0.112760
# 5 -0.000518 -0.001197 -0.004272 -0.000002 0.018935 -0.000002
# 6 -0.000001 0.000002 0.000002 -0.112760 -0.000002 -0.208420
#
#
# Mechanical properties :
#
#
# Convention : Reuss Voigt Hill
#
# Bulk Modulus (GPa) = 45.13299 65.29853 55.21576
# Shear Modulus (GPa) = -30.67230 41.67742 5.50256
#
# Velocity S-wave (km/s) = -3.33676 3.88957 1.41330
# Velocity P-wave (km/s) = 1.24011 6.62381 4.76512
#
# Compressibility (1/GPa) = 0.02215674
#
# Stress axis : x y z
#
# Youngs Moduli (GPa) = 242.80930 90.72636 77.09265
#
# Poissons Ratio (x) = 0.04810 0.13189
# Poissons Ratio (y) = 0.12874 0.05679
# Poissons Ratio (z) = 0.41538 0.06684
#
# Static dielectric constant tensor:
#      x y z
#    x 2.154900 0.000000 0.048330 
#    y 0.000000 1.997270 0.000000 
#    z 0.048330 0.000000 2.259180 
# 
# From -- ./inp_files/23837.got.cif
#   From: 2010.05.17/outbox.cif.g08.bks.cpg/sg8_12_cif.got.tgz:23837.got - 2010.06.03 19:46:02.
