data_PCOD9132766
_publ_section_title
;
Structure prediction by ZEFSAII (Michael W. Deem and Ramdas Pophale) SiO2 
 PCOD9132766
Probable space group: C M
;
_chemical_formula_sum "Si O2"
_cell_formula_units_Z 32
_cell_length_a 14.718571
_cell_length_b 17.410380
_cell_length_c 12.771803
_cell_angle_alpha 90.000000
_cell_angle_beta 151.552035
_cell_angle_gamma 90.000000
_cell_volume 1559.056284
_symmetry_space_group_name_H-M "C M"
_symmetry_group_IT_number 8
_symmetry_cell_setting 'monoclinic'
loop_
_space_group_symop_operation_xyz
x,y,z
x,-y,z
1/2+x,1/2+y,z
1/2+x,1/2-y,z
loop_
_atom_site_type_symbol
_atom_site_label
_atom_site_fract_x
_atom_site_fract_y
_atom_site_fract_z
Si Si1 0.922830 0.408309 0.049910
Si Si2 0.209028 0.909968 0.616199
Si Si3 0.079740 0.914860 0.072838
Si Si4 0.429842 0.302744 0.254038
Si Si5 0.153301 0.172754 0.948387
Si Si6 0.848096 0.368188 0.523774
Si Si7 0.734653 0.798202 0.449121
Si Si8 0.283286 0.592120 0.923295
O O1 0.938065 0.500000 0.086760
O O2 0.119484 0.362442 0.268766
O O3 0.848256 0.398964 0.855687
O O4 0.770447 0.367617 0.973590
O O5 0.307634 0.887873 0.604924
O O6 0.025252 0.854003 0.440778
O O7 0.155515 0.000000 0.558235
O O8 0.182947 0.870776 0.086366
O O9 0.878595 0.882296 0.910502
O O10 0.042718 0.000000 0.996145
O O11 0.212827 0.915284 0.309592
O O12 0.583982 0.237257 0.379902
O O13 0.230621 0.258070 0.052019
O O14 0.400699 0.363933 0.131377
O O15 0.929604 0.171580 0.696095
O O16 0.798140 0.278835 0.452163
O O17 0.064491 0.386392 0.714515
O O18 0.304890 0.500000 0.953899
#
# Coordination Sequence:
#
# PCOD9132766 Si02
#       8
#     4   4   4   4   4   4   4   4
#     4  10  24  44  67  95 130 178 231 274 323 396
#     4  10  20  41  67  96 136 169 213 280 338 397
#     4  11  24  41  66  96 132 173 215 274 331 392
#     4  10  21  40  62  97 127 169 215 269 332 397
#     4  11  24  44  64  95 134 178 226 270 328 399
#     4  11  22  40  66  99 132 163 212 272 345 402
#     4  10  22  42  65  89 131 175 218 273 329 386
#     4  11  21  38  65  97 132 167 212 266 334 399
#
# _framework density 20.525237000000001
#
# number of rings (size 3 to 8) (size 9 to 14) (size 15 to 20)
#    0.000    1.500    3.750    1.875    0.000    6.000 
#    2.250    1.250    0.000    0.000    0.000    0.000 
#    0.000    0.000    0.000    0.000    0.000    0.000 
#
# Total GULP energy -89261.037023 kJ/mol
# GULP energy per Si atom -5578.814814 kJ/mol
# Density = 2.047852 g / cm^3
# Si number density = 20.525237 Si / 1000 Ang^3
#
#
#
# Elastic Constant Matrix: (Units=GPa)
#
#
# Indices 1 2 3 4 5 6 
#
# 1 77.4413 16.2462 40.9968 0.0000 -3.1700 0.0000
# 2 16.2462 94.0404 50.3462 0.0000 -11.6756 0.0000
# 3 40.9968 50.3462 121.4687 0.0000 8.0330 0.0000
# 4 0.0000 0.0000 0.0000 33.0605 0.0000 -0.9021
# 5 -3.1700 -11.6756 8.0330 0.0000 25.0583 0.0000
# 6 0.0000 0.0000 0.0000 -0.9021 0.0000 12.6835
#
#
#
# Elastic Compliance Matrix: (Units=1/GPa)
#
#
# Indices 1 2 3 4 5 6 
#
# 1 0.016155 0.001097 -0.006208 0.000000 0.004545 0.000000
# 2 0.001097 0.015701 -0.007531 0.000000 0.009869 0.000000
# 3 -0.006208 -0.007531 0.014030 0.000000 -0.008792 0.000000
# 4 0.000000 0.000000 0.000000 0.030306 0.000000 0.002155
# 5 0.004545 0.009869 -0.008792 0.000000 0.047898 0.000000
# 6 0.000000 0.000000 0.000000 0.002155 0.000000 0.078996
#
#
# Mechanical properties :
#
#
# Convention : Reuss Voigt Hill
#
# Bulk Modulus (GPa) = 48.53491 56.45874 52.49682
# Shear Modulus (GPa) = 21.25507 26.51790 23.88648
#
# Velocity S-wave (km/s) = 3.22150 3.59829 3.41510
# Velocity P-wave (km/s) = 6.12660 6.69554 6.41738
#
# Compressibility (1/GPa) = 0.02060373
#
# Stress axis : x y z
#
# Youngs Moduli (GPa) = 61.89938 63.68979 71.27394
#
# Poissons Ratio (x) = -0.06985 0.44244
# Poissons Ratio (y) = -0.06788 0.53673
# Poissons Ratio (z) = 0.38425 0.47962
#
# Static dielectric constant tensor:
#      x y z
#    x 1.749330 0.000000 0.028510 
#    y 0.000000 1.757410 0.000000 
#    z 0.028510 0.000000 1.738830 
# 
# From -- ./inp_files/22426.got.cif
#   From: 2010.05.17/outbox.cif.g08.bks.cpg/sg8_12_cif.got.tgz:22426.got - 2010.06.03 19:46:02.
