data_PCOD9132898
_publ_section_title
;
Structure prediction by ZEFSAII (Michael W. Deem and Ramdas Pophale) SiO2 
 PCOD9132898
Probable space group: C M
;
_chemical_formula_sum "Si O2"
_cell_formula_units_Z 28
_cell_length_a 13.676845
_cell_length_b 10.148872
_cell_length_c 11.804383
_cell_angle_alpha 90.000000
_cell_angle_beta 52.288441
_cell_angle_gamma 90.000000
_cell_volume 1296.219220
_symmetry_space_group_name_H-M "C M"
_symmetry_group_IT_number 8
_symmetry_cell_setting 'monoclinic'
loop_
_space_group_symop_operation_xyz
x,y,z
x,-y,z
1/2+x,1/2+y,z
1/2+x,1/2-y,z
loop_
_atom_site_type_symbol
_atom_site_label
_atom_site_fract_x
_atom_site_fract_y
_atom_site_fract_z
Si Si1 0.600240 0.854365 0.881330
Si Si2 0.316864 0.849089 0.118148
Si Si3 0.307978 0.639191 0.316388
Si Si4 0.020715 0.649414 0.583518
Si Si5 0.899051 0.296151 0.433211
Si Si6 0.641211 0.855004 0.120859
Si Si7 0.627245 0.351237 0.676935
O O1 0.650585 0.733478 0.773630
O O2 0.647058 0.000000 0.811800
O O3 0.452651 0.853737 0.968363
O O4 0.622785 0.841189 0.999445
O O5 0.333122 0.764508 0.220906
O O6 0.222281 0.764121 0.111080
O O7 0.276613 0.000000 0.166851
O O8 0.347046 0.500000 0.236450
O O9 0.161423 0.637140 0.439223
O O10 0.374802 0.656856 0.389603
O O11 0.983501 0.500000 0.646341
O O12 0.033427 0.761751 0.669634
O O13 0.940339 0.695142 0.533693
O O14 0.762107 0.357872 0.521889
O O15 0.011382 0.355067 0.280437
O O16 0.698605 0.000000 0.100401
O O17 0.583227 0.500000 0.727240
#
# Coordination Sequence:
#
# PCOD9132898 Si02
#       7
#     4   4   4   4   4   4   4
#     4  10  24  46  66  86 127 177 212 257 323 386
#     4  11  23  39  62  93 127 166 212 262 316 376
#     4  10  21  37  60  93 128 165 205 254 312 374
#     4  10  21  39  63  89 127 170 205 250 318 384
#     4  11  22  40  66  98 130 165 208 259 325 380
#     4  11  22  41  68  97 128 166 211 263 325 385
#     4  11  25  42  65  94 127 167 217 269 309 373
#
# _framework density 21.601284
#
# number of rings (size 3 to 8) (size 9 to 14) (size 15 to 20)
#    0.000    1.429    2.857    2.143    0.000    7.429 
#    0.000    2.857    0.000    0.000    0.000    0.000 
#    0.000    0.000    0.000    0.000    0.000    0.000 
#
# Total GULP energy -78105.108189 kJ/mol
# GULP energy per Si atom -5578.936299 kJ/mol
# Density = 2.155212 g / cm^3
# Si number density = 21.601284 Si / 1000 Ang^3
#
#
#
# Elastic Constant Matrix: (Units=GPa)
#
#
# Indices 1 2 3 4 5 6 
#
# 1 107.1789 68.8117 13.2851 0.0000 27.0543 0.0000
# 2 68.8117 216.7542 57.8652 0.0000 24.6941 0.0000
# 3 13.2851 57.8652 57.1648 0.0000 19.8255 0.0000
# 4 0.0000 0.0000 0.0000 25.0717 0.0000 13.1037
# 5 27.0543 24.6941 19.8255 0.0000 30.2051 0.0000
# 6 0.0000 0.0000 0.0000 13.1037 0.0000 3.3906
#
#
#
# Elastic Compliance Matrix: (Units=1/GPa)
#
#
# Indices 1 2 3 4 5 6 
#
# 1 0.015149 -0.004904 0.006162 0.000000 -0.013604 0.000000
# 2 -0.004904 0.007947 -0.007994 0.000000 0.003143 0.000000
# 3 0.006162 -0.007994 0.030816 0.000000 -0.019210 0.000000
# 4 0.000000 0.000000 0.000000 -0.039108 0.000000 0.151141
# 5 -0.013604 0.003143 -0.019210 0.000000 0.055330 0.000000
# 6 0.000000 0.000000 0.000000 0.151141 0.000000 -0.289183
#
#
# Mechanical properties :
#
#
# Convention : Reuss Voigt Hill
#
# Bulk Modulus (GPa) = 24.72956 73.44686 49.08821
# Shear Modulus (GPa) = -26.02859 27.80921 0.89031
#
# Velocity S-wave (km/s) = -3.47501 3.59191 0.64269
# Velocity P-wave (km/s) = 2.15126 7.16082 4.82957
#
# Compressibility (1/GPa) = 0.04043743
#
# Stress axis : x y z
#
# Youngs Moduli (GPa) = 66.01084 125.84051 32.45101
#
# Poissons Ratio (x) = 0.61718 -0.19996
# Poissons Ratio (y) = 0.32375 0.25942
# Poissons Ratio (z) = -0.40674 1.00600
#
# Static dielectric constant tensor:
#      x y z
#    x 1.786750 0.000000 0.020190 
#    y 0.000000 1.831510 0.000000 
#    z 0.020190 0.000000 1.799170 
# 
# From -- ./inp_files/21466.got.cif
#   From: 2010.05.17/outbox.cif.g08.bks.cpg/sg8_11_cif.got.tgz:21466.got - 2010.06.03 19:46:02.
