data_PCOD9132259
_publ_section_title
;
Structure prediction by ZEFSAII (Michael W. Deem and Ramdas Pophale) SiO2 
 PCOD9132259
Probable space group: C M
;
_chemical_formula_sum "Si O2"
_cell_formula_units_Z 32
_cell_length_a 23.091386
_cell_length_b 7.586145
_cell_length_c 11.560122
_cell_angle_alpha 90.000000
_cell_angle_beta 131.348266
_cell_angle_gamma 90.000000
_cell_volume 1520.213319
_symmetry_space_group_name_H-M "C M"
_symmetry_group_IT_number 8
_symmetry_cell_setting 'monoclinic'
loop_
_space_group_symop_operation_xyz
x,y,z
x,-y,z
1/2+x,1/2+y,z
1/2+x,1/2-y,z
loop_
_atom_site_type_symbol
_atom_site_label
_atom_site_fract_x
_atom_site_fract_y
_atom_site_fract_z
Si Si1 0.709290 0.715838 0.489350
Si Si2 0.073125 0.796035 0.709446
Si Si3 0.057324 0.783293 0.428371
Si Si4 0.238448 0.707011 0.022644
Si Si5 0.513882 0.286037 0.872547
Si Si6 0.394548 0.703819 0.119994
Si Si7 0.863685 0.293974 0.819294
Si Si8 0.677984 0.286901 0.189096
O O1 0.710624 0.500000 0.489785
O O2 0.632371 0.771418 0.455357
O O3 0.785989 0.775192 0.656913
O O4 0.705316 0.773444 0.350707
O O5 0.061802 0.721430 0.567004
O O6 0.027076 0.720753 0.758659
O O7 0.049392 0.000000 0.670086
O O8 0.162950 0.789966 0.864207
O O9 0.977467 0.722655 0.265602
O O10 0.059446 0.000000 0.429990
O O11 0.234554 0.500000 0.988662
O O12 0.318631 0.781608 0.080498
O O13 0.229099 0.728066 0.147900
O O14 0.513823 0.500000 0.870909
O O15 0.435714 0.226150 0.828568
O O16 0.589877 0.231598 0.045138
O O17 0.396726 0.500000 0.161213
O O18 0.383191 0.709030 0.967722
O O19 0.851460 0.500000 0.827658
O O20 0.678444 0.500000 0.189278
#
# Coordination Sequence:
#
# PCOD9132259 Si02
#       8
#     4   4   4   4   4   4   4   4
#     4   9  18  32  52  77 101 130 172 218 256 294
#     4   9  18  34  57  79 100 136 179 210 244 301
#     4   9  17  33  56  76  97 131 178 219 246 292
#     4  10  20  33  52  80 110 135 163 209 265 307
#     4   9  18  33  54  78 103 134 171 209 252 303
#     4  10  21  36  54  76 103 136 172 212 258 305
#     4  11  22  34  52  78 105 134 170 213 261 308
#     4   9  18  35  57  76  99 138 181 210 242 300
#
# _framework density 21.049676000000002
#
# number of rings (size 3 to 8) (size 9 to 14) (size 15 to 20)
#    0.000    2.500    0.000    3.000    0.000    7.000 
#    0.000    3.125    0.000    3.750    0.000    0.000 
#    0.000    0.000    0.000    0.000    0.000    0.000 
#
# Total GULP energy -89341.259697 kJ/mol
# GULP energy per Si atom -5583.828731 kJ/mol
# Density = 2.100177 g / cm^3
# Si number density = 21.049676 Si / 1000 Ang^3
#
#
#
# Elastic Constant Matrix: (Units=GPa)
#
#
# Indices 1 2 3 4 5 6 
#
# 1 170.8951 -12.4730 101.6425 0.0000 12.4537 0.0000
# 2 -12.4730 43.0028 -10.0780 0.0000 0.3345 0.0000
# 3 101.6425 -10.0780 158.4256 0.0000 -13.3671 0.0000
# 4 0.0000 0.0000 0.0000 6.8808 0.0000 -6.2464
# 5 12.4537 0.3345 -13.3671 0.0000 32.2677 0.0000
# 6 0.0000 0.0000 0.0000 -6.2464 0.0000 13.0961
#
#
#
# Elastic Compliance Matrix: (Units=1/GPa)
#
#
# Indices 1 2 3 4 5 6 
#
# 1 0.011022 0.001473 -0.007604 0.000000 -0.007419 0.000000
# 2 0.001473 0.023808 0.000519 0.000000 -0.000600 0.000000
# 3 -0.007604 0.000519 0.011886 0.000000 0.007853 0.000000
# 4 0.000000 0.000000 0.000000 0.256313 0.000000 0.122252
# 5 -0.007419 -0.000600 0.007853 0.000000 0.037114 0.000000
# 6 0.000000 0.000000 0.000000 0.122252 0.000000 0.134669
#
#
# Mechanical properties :
#
#
# Convention : Reuss Voigt Hill
#
# Bulk Modulus (GPa) = 28.17554 58.94517 43.56036
# Shear Modulus (GPa) = 10.04284 29.99771 20.02027
#
# Velocity S-wave (km/s) = 2.18664 3.77913 3.08733
# Velocity P-wave (km/s) = 4.44854 6.86339 5.78341
#
# Compressibility (1/GPa) = 0.03549178
#
# Stress axis : x y z
#
# Youngs Moduli (GPa) = 90.72524 42.00309 84.13043
#
# Poissons Ratio (x) = -0.06186 0.63973
# Poissons Ratio (y) = -0.13361 -0.04366
# Poissons Ratio (z) = 0.68987 -0.02180
#
# Static dielectric constant tensor:
#      x y z
#    x 1.726770 0.000000 -0.000580 
#    y 0.000000 1.820600 0.000000 
#    z -0.000580 0.000000 1.724890 
# 
# From -- ./inp_files/23873.got.cif
#   From: 2010.05.17/outbox.cif.g08.bks.cpg/sg8_12_cif.got.tgz:23873.got - 2010.06.03 19:46:02.
