data_PCOD9132743
_publ_section_title
;
Structure prediction by ZEFSAII (Michael W. Deem and Ramdas Pophale) SiO2 
 PCOD9132743
Probable space group: C M
;
_chemical_formula_sum "Si O2"
_cell_formula_units_Z 32
_cell_length_a 19.811438
_cell_length_b 8.398772
_cell_length_c 24.194358
_cell_angle_alpha 90.000000
_cell_angle_beta 156.508178
_cell_angle_gamma 90.000000
_cell_volume 1604.733744
_symmetry_space_group_name_H-M "C M"
_symmetry_group_IT_number 8
_symmetry_cell_setting 'monoclinic'
loop_
_space_group_symop_operation_xyz
x,y,z
x,-y,z
1/2+x,1/2+y,z
1/2+x,1/2-y,z
loop_
_atom_site_type_symbol
_atom_site_label
_atom_site_fract_x
_atom_site_fract_y
_atom_site_fract_z
Si Si1 0.974720 0.188553 0.977750
Si Si2 0.036394 0.694097 0.302427
Si Si3 0.917729 0.809881 0.560858
Si Si4 0.365316 0.806361 0.286853
Si Si5 0.194664 0.313553 0.855707
Si Si6 0.516139 0.813762 0.514332
Si Si7 0.208007 0.812862 0.987240
Si Si8 0.368700 0.818568 0.785423
O O1 0.871593 0.208790 0.956487
O O2 0.887361 0.290125 0.864700
O O3 0.963949 0.000000 0.954547
O O4 0.170476 0.233121 0.129067
O O5 0.038612 0.500000 0.303853
O O6 0.981193 0.746356 0.322552
O O7 0.224630 0.745738 0.427028
O O8 0.886275 0.742576 0.147633
O O9 0.970843 0.768626 0.538122
O O10 0.046826 0.734216 0.701954
O O11 0.924308 0.000000 0.572893
O O12 0.419526 0.749061 0.387995
O O13 0.376174 0.000000 0.296377
O O14 0.176115 0.500000 0.855506
O O15 0.197579 0.215695 0.914191
O O16 0.714775 0.791582 0.650924
O O17 0.477182 0.000000 0.491834
O O18 0.048371 0.726189 0.894521
O O19 0.192212 0.000000 0.988250
O O20 0.325011 0.000000 0.740196
#
# Coordination Sequence:
#
# PCOD9132743 Si02
#       8
#     4   4   4   4   4   4   4   4
#     4  10  20  40  67  89 119 160 206 257 310 367
#     4   9  20  39  63  90 120 160 207 254 302 364
#     4  11  23  40  62  90 126 165 206 254 307 363
#     4   9  19  38  64  91 116 156 208 253 302 367
#     4  11  24  40  62  94 127 161 208 258 308 364
#     4  11  23  39  64  92 121 164 208 251 310 369
#     4  11  23  42  67  90 122 166 209 253 310 370
#     4  12  24  40  63  92 125 158 204 262 311 364
#
# _framework density 19.941002999999998
#
# number of rings (size 3 to 8) (size 9 to 14) (size 15 to 20)
#    0.000    1.500    2.500    2.625    3.500    0.500 
#    0.000    3.125    0.000    0.000    0.000    0.000 
#    0.000    0.000    0.000    0.000    0.000    0.000 
#
# Total GULP energy -89395.710773 kJ/mol
# GULP energy per Si atom -5587.231923 kJ/mol
# Density = 1.989562 g / cm^3
# Si number density = 19.941003 Si / 1000 Ang^3
#
#
#
# Elastic Constant Matrix: (Units=GPa)
#
#
# Indices 1 2 3 4 5 6 
#
# 1 80.8902 4.1054 32.3609 0.0000 -0.4752 -0.0001
# 2 4.1054 17.8998 -8.5224 0.0006 4.6966 0.0000
# 3 32.3609 -8.5224 83.0359 0.0012 9.8494 0.0000
# 4 0.0000 0.0006 0.0012 1.2439 0.0000 3.0695
# 5 -0.4752 4.6966 9.8494 0.0000 37.7718 0.0000
# 6 -0.0001 0.0000 0.0000 3.0695 0.0000 27.8594
#
#
#
# Elastic Compliance Matrix: (Units=1/GPa)
#
#
# Indices 1 2 3 4 5 6 
#
# 1 0.015697 -0.007880 -0.007292 0.000016 0.003079 -0.000002
# 2 -0.007880 0.065932 0.011167 -0.000061 -0.011209 0.000007
# 3 -0.007292 0.011167 0.016724 -0.000031 -0.005841 0.000003
# 4 0.000016 -0.000061 -0.000031 1.104160 0.000017 -0.121654
# 5 0.003079 -0.011209 -0.005841 0.000017 0.029430 -0.000002
# 6 -0.000002 0.000007 0.000003 -0.121654 -0.000002 0.049298
#
#
# Mechanical properties :
#
#
# Convention : Reuss Voigt Hill
#
# Bulk Modulus (GPa) = 11.06865 26.41263 18.74064
# Shear Modulus (GPa) = 3.78970 23.63383 13.71177
#
# Velocity S-wave (km/s) = 1.38007 3.44639 2.62509
# Velocity P-wave (km/s) = 2.84644 5.39546 4.31353
#
# Compressibility (1/GPa) = 0.09034525
#
# Stress axis : x y z
#
# Youngs Moduli (GPa) = 63.70448 15.16719 59.79549
#
# Poissons Ratio (x) = 0.11951 0.43600
# Poissons Ratio (y) = 0.50197 -0.66776
# Poissons Ratio (z) = 0.46450 -0.16938
#
# Static dielectric constant tensor:
#      x y z
#    x 1.681610 0.000000 0.000090 
#    y 0.000000 1.707630 0.000000 
#    z 0.000090 0.000000 1.688370 
# 
# From -- ./inp_files/33065.got.cif
#   From: 2010.05.17/outbox.cif.g08.bks.cpg/sg8_17_cif.got.tgz:33065.got - 2010.06.03 19:46:02.
