data_PCOD9132293
_publ_section_title
;
Structure prediction by ZEFSAII (Michael W. Deem and Ramdas Pophale) SiO2 
 PCOD9132293
Probable space group: C M
;
_chemical_formula_sum "Si O2"
_cell_formula_units_Z 32
_cell_length_a 28.462297
_cell_length_b 7.903090
_cell_length_c 12.388973
_cell_angle_alpha 90.000000
_cell_angle_beta 30.344347
_cell_angle_gamma 90.000000
_cell_volume 1407.867753
_symmetry_space_group_name_H-M "C M"
_symmetry_group_IT_number 8
_symmetry_cell_setting 'monoclinic'
loop_
_space_group_symop_operation_xyz
x,y,z
x,-y,z
1/2+x,1/2+y,z
1/2+x,1/2-y,z
loop_
_atom_site_type_symbol
_atom_site_label
_atom_site_fract_x
_atom_site_fract_y
_atom_site_fract_z
Si Si1 0.496740 0.301661 0.402580
Si Si2 0.393917 0.795487 0.958946
Si Si3 0.761821 0.698587 0.033417
Si Si4 0.651724 0.196066 0.802450
Si Si5 0.449464 0.301413 0.269154
Si Si6 0.214545 0.198339 0.899990
Si Si7 0.317368 0.704513 0.343625
Si Si8 0.559560 0.196066 0.500123
O O1 0.474956 0.500000 0.461808
O O2 0.444181 0.229408 0.401493
O O3 0.494910 0.210303 0.520935
O O4 0.605642 0.293515 0.151285
O O5 0.497933 0.738754 0.721587
O O6 0.394989 0.000000 0.949950
O O7 0.326210 0.728343 0.999078
O O8 0.355642 0.750001 0.151286
O O9 0.782873 0.500000 0.979587
O O10 0.655531 0.711750 0.285135
O O11 0.767104 0.770591 0.901077
O O12 0.716374 0.210302 0.781636
O O13 0.713351 0.261245 0.580985
O O14 0.628378 0.000000 0.831923
O O15 0.555754 0.288253 0.017436
O O16 0.428410 0.500000 0.322988
O O17 0.385075 0.228342 0.303492
O O18 0.236329 0.000000 0.840762
O O19 0.316296 0.500000 0.352620
O O20 0.582905 0.000000 0.470652
#
# Coordination Sequence:
#
# PCOD9132293 Si02
#       8
#     4   4   4   4   4   4   4   4
#     4   8  15  30  53  79 107 139 172 205 252 319
#     4  10  23  40  55  75 105 140 180 222 261 307
#     4   9  19  37  57  77 106 143 176 208 256 319
#     4  10  20  34  54  82 111 135 168 220 269 304
#     4   9  19  37  57  77 106 143 176 208 256 319
#     4   8  15  30  53  79 107 139 172 205 252 319
#     4  10  23  40  55  75 105 140 180 222 261 307
#     4  10  20  34  54  82 111 135 168 220 269 304
#
# _framework density 22.729406999999998
#
# number of rings (size 3 to 8) (size 9 to 14) (size 15 to 20)
#    0.000    2.750    0.000    2.250    0.000    9.500 
#    0.000    5.000    0.000    0.000    0.000    0.000 
#    0.000    0.000    0.000    0.000    0.000    0.000 
#
# Total GULP energy -89323.489626 kJ/mol
# GULP energy per Si atom -5582.718102 kJ/mol
# Density = 2.267767 g / cm^3
# Si number density = 22.729407 Si / 1000 Ang^3
#
#
#
# Elastic Constant Matrix: (Units=GPa)
#
#
# Indices 1 2 3 4 5 6 
#
# 1 44.1736 -5.0563 19.4357 0.0000 -7.1456 0.0000
# 2 -5.0563 25.2192 -2.9411 0.0000 1.0927 0.0000
# 3 19.4357 -2.9411 125.0935 0.0000 23.1608 0.0000
# 4 0.0000 0.0000 0.0000 22.4418 0.0000 6.0740
# 5 -7.1456 1.0927 23.1608 0.0000 20.0007 0.0000
# 6 0.0000 0.0000 0.0000 6.0740 0.0000 24.6108
#
#
#
# Elastic Compliance Matrix: (Units=1/GPa)
#
#
# Indices 1 2 3 4 5 6 
#
# 1 0.030010 0.004181 -0.008283 0.000000 0.020085 0.000000
# 2 0.004181 0.040615 0.000560 0.000000 -0.001373 0.000000
# 3 -0.008283 0.000560 0.012535 0.000000 -0.017506 0.000000
# 4 0.000000 0.000000 0.000000 0.047749 0.000000 -0.011785
# 5 0.020085 -0.001373 -0.017506 0.000000 0.077521 0.000000
# 6 0.000000 0.000000 0.000000 -0.011785 0.000000 0.043541
#
#
# Mechanical properties :
#
#
# Convention : Reuss Voigt Hill
#
# Bulk Modulus (GPa) = 13.14492 24.15143 18.64818
# Shear Modulus (GPa) = 17.57993 25.61385 21.59689
#
# Velocity S-wave (km/s) = 2.78410 3.36058 3.08583
# Velocity P-wave (km/s) = 4.01631 5.07018 4.57370
#
# Compressibility (1/GPa) = 0.07607503
#
# Stress axis : x y z
#
# Youngs Moduli (GPa) = 33.32238 24.62122 79.77510
#
# Poissons Ratio (x) = -0.10293 0.66078
# Poissons Ratio (y) = -0.13931 -0.04464
# Poissons Ratio (z) = 0.27601 -0.01378
#
# Static dielectric constant tensor:
#      x y z
#    x 1.890990 0.000000 -0.028690 
#    y 0.000000 1.801650 0.000000 
#    z -0.028690 0.000000 1.875190 
# 
# From -- ./inp_files/24783.got.cif
#   From: 2010.05.17/outbox.cif.g08.bks.cpg/sg8_13_cif.got.tgz:24783.got - 2010.06.03 19:46:02.
