data_PCOD9132906
_publ_section_title
;
Structure prediction by ZEFSAII (Michael W. Deem and Ramdas Pophale) SiO2 
 PCOD9132906
Probable space group: C M
;
_chemical_formula_sum "Si O2"
_cell_formula_units_Z 32
_cell_length_a 12.272784
_cell_length_b 20.340197
_cell_length_c 8.855075
_cell_angle_alpha 90.000000
_cell_angle_beta 133.571858
_cell_angle_gamma 90.000000
_cell_volume 1601.530339
_symmetry_space_group_name_H-M "C M"
_symmetry_group_IT_number 8
_symmetry_cell_setting 'monoclinic'
loop_
_space_group_symop_operation_xyz
x,y,z
x,-y,z
1/2+x,1/2+y,z
1/2+x,1/2-y,z
loop_
_atom_site_type_symbol
_atom_site_label
_atom_site_fract_x
_atom_site_fract_y
_atom_site_fract_z
Si Si1 0.584950 0.345029 0.131560
Si Si2 0.733960 0.192623 0.775866
Si Si3 0.287211 0.252306 0.521702
Si Si4 0.046875 0.651659 0.853938
Si Si5 0.782331 0.686740 0.035858
Si Si6 0.064625 0.925895 0.387101
Si Si7 0.855795 0.426254 0.880213
Si Si8 0.356756 0.306271 0.290608
O O1 0.669230 0.289489 0.311492
O O2 0.611333 0.409786 0.258802
O O3 0.406969 0.331068 0.954111
O O4 0.660597 0.341842 0.038590
O O5 0.711130 0.205952 0.579440
O O6 0.619511 0.145809 0.756750
O O7 0.719731 0.262394 0.850078
O O8 0.408178 0.202568 0.710768
O O9 0.372661 0.297324 0.483141
O O10 0.984721 0.588844 0.880776
O O11 0.182804 0.679822 0.083671
O O12 0.857295 0.628210 0.013175
O O13 0.884361 0.736365 0.234307
O O14 0.951479 0.867395 0.322202
O O15 0.202470 0.920782 0.635827
O O16 0.003298 0.000000 0.338445
O O17 0.867130 0.500000 0.951161
#
# Coordination Sequence:
#
# PCOD9132906 Si02
#       8
#     4   4   4   4   4   4   4   4
#     4  11  22  39  59  93 127 161 208 261 305 382
#     4  11  21  35  60  93 127 155 207 259 327 357
#     4  11  22  35  62  92 132 157 202 270 315 367
#     4  11  22  38  59  94 124 164 203 260 320 368
#     4  10  21  37  63  91 127 154 213 260 312 361
#     4  11  23  43  65  89 128 174 211 253 313 387
#     4  11  25  44  65  89 128 175 214 251 317 389
#     4  10  24  37  63 101 123 160 214 264 321 363
#
# _framework density 19.980888
#
# number of rings (size 3 to 8) (size 9 to 14) (size 15 to 20)
#    0.000    1.250    5.000    2.250    7.000    1.000 
#    0.000    0.000    0.000    0.750    0.000    0.000 
#    0.000    0.000    0.000    0.000    0.000    0.000 
#
# Total GULP energy -89309.409923 kJ/mol
# GULP energy per Si atom -5581.838120 kJ/mol
# Density = 1.993541 g / cm^3
# Si number density = 19.980888 Si / 1000 Ang^3
#
#
#
# Elastic Constant Matrix: (Units=GPa)
#
#
# Indices 1 2 3 4 5 6 
#
# 1 130.7756 57.2701 30.6829 0.0000 -19.4394 0.0000
# 2 57.2701 112.4743 19.8974 0.0000 -12.8433 0.0000
# 3 30.6829 19.8974 56.0964 0.0000 -5.2503 0.0000
# 4 0.0000 0.0000 0.0000 15.0340 0.0000 -0.7638
# 5 -19.4394 -12.8433 -5.2503 0.0000 44.9373 0.0000
# 6 0.0000 0.0000 0.0000 -0.7638 0.0000 23.3839
#
#
#
# Elastic Compliance Matrix: (Units=1/GPa)
#
#
# Indices 1 2 3 4 5 6 
#
# 1 0.011062 -0.004555 -0.004154 0.000000 0.002998 0.000000
# 2 -0.004555 0.011613 -0.001518 0.000000 0.001171 0.000000
# 3 -0.004154 -0.001518 0.020654 0.000000 0.000182 0.000000
# 4 0.000000 0.000000 0.000000 0.066627 0.000000 0.002176
# 5 0.002998 0.001171 0.000182 0.000000 0.023906 0.000000
# 6 0.000000 0.000000 0.000000 0.002176 0.000000 0.042836
#
#
# Mechanical properties :
#
#
# Convention : Reuss Voigt Hill
#
# Bulk Modulus (GPa) = 43.71756 57.22747 50.47252
# Shear Modulus (GPa) = 24.41692 29.43742 26.92717
#
# Velocity S-wave (km/s) = 3.49952 3.84250 3.67501
# Velocity P-wave (km/s) = 6.18515 6.95627 6.58201
#
# Compressibility (1/GPa) = 0.02287410
#
# Stress axis : x y z
#
# Youngs Moduli (GPa) = 90.40069 86.11304 48.41661
#
# Poissons Ratio (x) = 0.39227 0.20113
# Poissons Ratio (y) = 0.41180 0.07349
# Poissons Ratio (z) = 0.37554 0.13070
#
# Static dielectric constant tensor:
#      x y z
#    x 1.774210 0.000000 0.001910 
#    y 0.000000 1.697540 0.000000 
#    z 0.001910 0.000000 1.744800 
# 
# From -- ./inp_files/11465.got.cif
#   From: 2010.05.17/outbox.cif.g08.bks.cpg/sg8_6_cif.got.tgz:11465.got - 2010.06.03 19:46:02.
