data_PCOD9132867
_publ_section_title
;
Structure prediction by ZEFSAII (Michael W. Deem and Ramdas Pophale) SiO2 
 PCOD9132867
Probable space group: C M
;
_chemical_formula_sum "Si O2"
_cell_formula_units_Z 32
_cell_length_a 12.223019
_cell_length_b 20.410233
_cell_length_c 5.719434
_cell_angle_alpha 90.000000
_cell_angle_beta 78.138895
_cell_angle_gamma 90.000000
_cell_volume 1396.388758
_symmetry_space_group_name_H-M "C M"
_symmetry_group_IT_number 8
_symmetry_cell_setting 'monoclinic'
loop_
_space_group_symop_operation_xyz
x,y,z
x,-y,z
1/2+x,1/2+y,z
1/2+x,1/2-y,z
loop_
_atom_site_type_symbol
_atom_site_label
_atom_site_fract_x
_atom_site_fract_y
_atom_site_fract_z
Si Si1 0.761500 0.921669 0.307440
Si Si2 0.383730 0.746938 0.416324
Si Si3 0.065787 0.162025 0.479839
Si Si4 0.016010 0.385938 0.392033
Si Si5 0.383809 0.577062 0.762948
Si Si6 0.752525 0.317770 0.102210
Si Si7 0.477386 0.887060 0.900422
Si Si8 0.658215 0.229652 0.773674
O O1 0.649534 0.878497 0.344332
O O2 0.814863 0.914777 0.545649
O O3 0.734688 0.000000 0.298868
O O4 0.827119 0.904783 0.036893
O O5 0.470606 0.688959 0.349626
O O6 0.446670 0.817050 0.429641
O O7 0.314517 0.760937 0.216588
O O8 0.290662 0.725316 0.648558
O O9 0.178121 0.137776 0.307806
O O10 0.101322 0.227857 0.596843
O O11 0.001308 0.113300 0.676227
O O12 0.987965 0.417748 0.153596
O O13 0.991318 0.422405 0.646791
O O14 0.403689 0.500000 0.770762
O O15 0.853260 0.356659 0.942816
O O16 0.665001 0.280362 0.982123
O O17 0.577728 0.831915 0.857739
#
# Coordination Sequence:
#
# PCOD9132867 Si02
#       8
#     4   4   4   4   4   4   4   4
#     4  10  23  43  68  93 123 161 210 266 317 369
#     4  10  22  36  53  89 130 160 205 245 309 376
#     4  11  23  36  61  89 119 173 200 260 313 377
#     4  11  21  40  58  90 123 162 198 254 312 366
#     4  10  24  45  64  93 123 158 217 270 310 367
#     4  10  21  37  54  81 128 167 208 251 295 371
#     4  11  23  37  57  87 125 168 200 251 299 362
#     4  11  21  36  54  84 126 167 208 245 299 378
#
# _framework density 22.916252
#
# number of rings (size 3 to 8) (size 9 to 14) (size 15 to 20)
#    0.000    1.500    2.500    2.250    7.000    0.000 
#    2.250    0.000    0.000    7.500    0.000    0.000 
#    0.000    0.000    0.000    0.000    0.000    0.000 
#
# Total GULP energy -89201.644350 kJ/mol
# GULP energy per Si atom -5575.102772 kJ/mol
# Density = 2.286409 g / cm^3
# Si number density = 22.916252 Si / 1000 Ang^3
#
#
#
# Elastic Constant Matrix: (Units=GPa)
#
#
# Indices 1 2 3 4 5 6 
#
# 1 89.2402 34.4011 46.1458 0.0000 -21.6671 0.0000
# 2 34.4011 61.1155 29.0718 0.0000 -16.3660 0.0000
# 3 46.1458 29.0718 176.2974 0.0000 -12.9108 0.0000
# 4 0.0000 0.0000 0.0000 13.8809 0.0000 -3.7291
# 5 -21.6671 -16.3660 -12.9108 0.0000 52.8567 0.0000
# 6 0.0000 0.0000 0.0000 -3.7291 0.0000 6.1207
#
#
#
# Elastic Compliance Matrix: (Units=1/GPa)
#
#
# Indices 1 2 3 4 5 6 
#
# 1 0.016215 -0.006736 -0.002850 0.000000 0.003865 0.000000
# 2 -0.006736 0.021876 -0.001579 0.000000 0.003627 0.000000
# 3 -0.002850 -0.001579 0.006677 0.000000 -0.000026 0.000000
# 4 0.000000 0.000000 0.000000 0.086141 0.000000 0.052482
# 5 0.003865 0.003627 -0.000026 0.000000 0.021620 0.000000
# 6 0.000000 0.000000 0.000000 0.052482 0.000000 0.195355
#
#
# Mechanical properties :
#
#
# Convention : Reuss Voigt Hill
#
# Bulk Modulus (GPa) = 44.56872 60.65448 52.61160
# Shear Modulus (GPa) = 13.23825 29.04061 21.13943
#
# Velocity S-wave (km/s) = 2.40610 3.56371 3.04051
# Velocity P-wave (km/s) = 5.21631 6.59232 5.94426
#
# Compressibility (1/GPa) = 0.02243726
#
# Stress axis : x y z
#
# Youngs Moduli (GPa) = 61.67235 45.71150 149.77450
#
# Poissons Ratio (x) = 0.30792 0.42691
# Poissons Ratio (y) = 0.41544 0.23644
# Poissons Ratio (z) = 0.17579 0.07216
#
# Static dielectric constant tensor:
#      x y z
#    x 1.888620 0.000000 0.002990 
#    y 0.000000 1.829700 0.000000 
#    z 0.002990 0.000000 1.982420 
# 
# From -- ./inp_files/3162.got.cif
#   From: 2010.05.17/outbox.cif.g08.bks.cpg/sg8_2_cif.got.tgz:3162.got - 2010.06.03 19:46:02.
