data_PCOD9132943
_publ_section_title
;
Structure prediction by ZEFSAII (Michael W. Deem and Ramdas Pophale) SiO2 
 PCOD9132943
Probable space group: C M
;
_chemical_formula_sum "Si O2"
_cell_formula_units_Z 32
_cell_length_a 33.165816
_cell_length_b 8.646187
_cell_length_c 12.675567
_cell_angle_alpha 90.000000
_cell_angle_beta 153.132011
_cell_angle_gamma 90.000000
_cell_volume 1642.706677
_symmetry_space_group_name_H-M "C M"
_symmetry_group_IT_number 8
_symmetry_cell_setting 'monoclinic'
loop_
_space_group_symop_operation_xyz
x,y,z
x,-y,z
1/2+x,1/2+y,z
1/2+x,1/2-y,z
loop_
_atom_site_type_symbol
_atom_site_label
_atom_site_fract_x
_atom_site_fract_y
_atom_site_fract_z
Si Si1 0.846160 0.183477 0.845650
Si Si2 0.019695 0.184840 0.649256
Si Si3 0.661871 0.314424 0.435500
Si Si4 0.399195 0.814618 0.548639
Si Si5 0.950365 0.682120 0.276040
Si Si6 0.962250 0.186734 0.915693
Si Si7 0.212950 0.187392 0.015020
Si Si8 0.132627 0.186109 0.610955
O O1 0.745953 0.229424 0.582361
O O2 0.912806 0.233766 0.908090
O O3 0.855403 0.000000 0.880425
O O4 0.872373 0.263871 0.016544
O O5 0.977879 0.255473 0.656427
O O6 0.958400 0.234373 0.407174
O O7 0.120922 0.237465 0.857446
O O8 0.020954 0.000000 0.660214
O O9 0.672174 0.500000 0.448705
O O10 0.659921 0.278153 0.555979
O O11 0.566265 0.269573 0.165237
O O12 0.415827 0.756236 0.705184
O O13 0.398360 0.000000 0.545054
O O14 0.304110 0.757208 0.280412
O O15 0.944935 0.500000 0.281104
O O16 0.041245 0.729111 0.427627
O O17 0.958202 0.000000 0.901036
O O18 0.202275 0.226327 0.866133
O O19 0.213890 0.000000 0.022717
O O20 0.116233 0.000000 0.578308
#
# Coordination Sequence:
#
# PCOD9132943 Si02
#       8
#     4   4   4   4   4   4   4   4
#     4  11  23  40  61  89 121 158 205 253 305 360
#     4  10  21  40  62  87 120 161 200 244 305 365
#     4  10  21  38  62  89 118 159 204 248 307 367
#     4  11  23  39  62  91 119 156 205 254 296 356
#     4  11  21  35  59  91 126 160 198 248 304 362
#     4  10  23  44  62  81 120 166 203 246 303 365
#     4   8  18  36  59  85 118 156 194 237 296 359
#     4   9  17  36  61  85 120 162 197 244 306 362
#
# _framework density 19.480043999999999
#
# number of rings (size 3 to 8) (size 9 to 14) (size 15 to 20)
#    0.000    2.000    1.250    3.000    1.750    3.000 
#    0.000   10.000    0.000    0.000    0.000    0.000 
#    0.000    0.000    0.000    0.000    0.000    0.000 
#
# Total GULP energy -89365.932529 kJ/mol
# GULP energy per Si atom -5585.370783 kJ/mol
# Density = 1.943571 g / cm^3
# Si number density = 19.480044 Si / 1000 Ang^3
#
#
#
# Elastic Constant Matrix: (Units=GPa)
#
#
# Indices 1 2 3 4 5 6 
#
# 1 30.2414 8.3544 13.2042 0.0000 -9.8056 0.0000
# 2 8.3544 23.4677 18.0697 0.0000 -2.3907 0.0000
# 3 13.2042 18.0697 110.3415 0.0000 -8.7578 0.0000
# 4 0.0000 0.0000 0.0000 28.9407 0.0000 -5.1588
# 5 -9.8056 -2.3907 -8.7578 0.0000 25.2727 0.0000
# 6 0.0000 0.0000 0.0000 -5.1588 0.0000 22.0026
#
#
#
# Elastic Compliance Matrix: (Units=1/GPa)
#
#
# Indices 1 2 3 4 5 6 
#
# 1 0.041897 -0.011975 -0.001905 0.000000 0.014463 0.000000
# 2 -0.011975 0.052272 -0.007304 0.000000 -0.002233 0.000000
# 3 -0.001905 -0.007304 0.010667 0.000000 0.002266 0.000000
# 4 0.000000 0.000000 0.000000 0.036061 0.000000 0.008455
# 5 0.014463 -0.002233 0.002266 0.000000 0.045754 0.000000
# 6 0.000000 0.000000 0.000000 0.008455 0.000000 0.047432
#
#
# Mechanical properties :
#
#
# Convention : Reuss Voigt Hill
#
# Bulk Modulus (GPa) = 16.00852 27.03414 21.52133
# Shear Modulus (GPa) = 16.81964 23.53801 20.17883
#
# Velocity S-wave (km/s) = 2.94160 3.47985 3.22199
# Velocity P-wave (km/s) = 4.44670 5.48214 4.99134
#
# Compressibility (1/GPa) = 0.06246673
#
# Stress axis : x y z
#
# Youngs Moduli (GPa) = 23.86828 19.13087 93.74944
#
# Poissons Ratio (x) = 0.22910 0.17856
# Poissons Ratio (y) = 0.28583 0.68477
# Poissons Ratio (z) = 0.04546 0.13974
#
# Static dielectric constant tensor:
#      x y z
#    x 1.664800 0.000000 0.014430 
#    y 0.000000 1.657870 0.000000 
#    z 0.014430 0.000000 1.693730 
# 
# From -- ./inp_files/24824.got.cif
#   From: 2010.05.17/outbox.cif.g08.bks.cpg/sg8_13_cif.got.tgz:24824.got - 2010.06.03 19:46:02.
