data_PCOD9132225
_publ_section_title
;
Structure prediction by ZEFSAII (Michael W. Deem and Ramdas Pophale) SiO2 
 PCOD9132225
Probable space group: C M
;
_chemical_formula_sum "Si O2"
_cell_formula_units_Z 26
_cell_length_a 10.598610
_cell_length_b 19.163457
_cell_length_c 10.420542
_cell_angle_alpha 90.000000
_cell_angle_beta 141.419178
_cell_angle_gamma 90.000000
_cell_volume 1319.871645
_symmetry_space_group_name_H-M "C M"
_symmetry_group_IT_number 8
_symmetry_cell_setting 'monoclinic'
loop_
_space_group_symop_operation_xyz
x,y,z
x,-y,z
1/2+x,1/2+y,z
1/2+x,1/2-y,z
loop_
_atom_site_type_symbol
_atom_site_label
_atom_site_fract_x
_atom_site_fract_y
_atom_site_fract_z
Si Si1 0.324130 0.102412 0.060260
Si Si2 0.324138 0.800994 0.452260
Si Si3 0.597040 0.421169 0.142970
Si Si4 0.135069 0.000000 0.708425
Si Si5 0.667228 0.000000 0.270634
Si Si6 0.691847 0.857819 0.891758
Si Si7 0.910334 0.249440 0.233553
Si Si8 0.518293 0.000000 0.860835
O O1 0.211144 0.078221 0.098832
O O2 0.344255 0.185108 0.091750
O O3 0.545023 0.066765 0.228018
O O4 0.202091 0.067896 0.845266
O O5 0.236552 0.878055 0.351079
O O6 0.532199 0.809296 0.692971
O O7 0.363578 0.766774 0.344189
O O8 0.146829 0.763751 0.391637
O O9 0.556609 0.500000 0.153798
O O10 0.387980 0.378803 0.964571
O O11 0.279381 0.000000 0.699760
O O12 0.900231 0.000000 0.491456
O O13 0.628335 0.000000 0.087418
O O14 0.584620 0.929717 0.844044
O O15 0.782764 0.817348 0.086287
#
# Coordination Sequence:
#
# PCOD9132225 Si02
#       8
#     4   4   4   2   2   4   4   2
#     4   9  20  41  61  92 128 163 215 270 313 374
#     4  10  25  41  67  96 122 179 214 263 331 384
#     4  10  19  39  63  93 127 158 209 269 319 377
#     4  10  22  37  64  98 120 181 216 258 328 375
#     4  10  22  39  61  91 129 172 212 270 319 374
#     4  11  24  43  67  93 131 170 213 270 324 382
#     4  10  24  44  63  96 134 168 221 267 321 390
#     4  10  24  42  59  95 129 163 218 270 317 381
#
# _framework density 19.698885000000001
#
# number of rings (size 3 to 8) (size 9 to 14) (size 15 to 20)
#    0.000    2.154    2.308    0.000    5.385    9.846 
#    0.000    0.000    0.000    0.000    0.000    0.000 
#    0.000    0.000    0.000    0.000    0.000    0.000 
#
# Total GULP energy -72561.914750 kJ/mol
# GULP energy per Si atom -5581.685750 kJ/mol
# Density = 1.965405 g / cm^3
# Si number density = 19.698885 Si / 1000 Ang^3
#
#
#
# Elastic Constant Matrix: (Units=GPa)
#
#
# Indices 1 2 3 4 5 6 
#
# 1 79.8041 15.3693 57.2719 0.0000 20.6799 0.0000
# 2 15.3693 72.9245 16.4669 0.0000 4.6310 0.0000
# 3 57.2719 16.4669 102.2106 0.0000 33.1119 0.0000
# 4 0.0000 0.0000 0.0000 9.5564 0.0000 4.7804
# 5 20.6799 4.6310 33.1119 0.0000 29.7608 0.0000
# 6 0.0000 0.0000 0.0000 4.7804 0.0000 20.2709
#
#
#
# Elastic Compliance Matrix: (Units=1/GPa)
#
#
# Indices 1 2 3 4 5 6 
#
# 1 0.021311 -0.001887 -0.010843 0.000000 -0.002450 0.000000
# 2 -0.001887 0.014403 -0.001504 0.000000 0.000743 0.000000
# 3 -0.010843 -0.001504 0.021241 0.000000 -0.015864 0.000000
# 4 0.000000 0.000000 0.000000 0.118637 0.000000 -0.027978
# 5 -0.002450 0.000743 -0.015864 0.000000 0.052839 0.000000
# 6 0.000000 0.000000 0.000000 -0.027978 0.000000 0.055930
#
#
# Mechanical properties :
#
#
# Convention : Reuss Voigt Hill
#
# Bulk Modulus (GPa) = 35.10443 48.12839 41.61641
# Shear Modulus (GPa) = 15.51232 22.97303 19.24267
#
# Velocity S-wave (km/s) = 2.80924 3.41869 3.12884
# Velocity P-wave (km/s) = 5.32744 6.32995 5.85021
#
# Compressibility (1/GPa) = 0.02848643
#
# Stress axis : x y z
#
# Youngs Moduli (GPa) = 46.92428 69.43043 47.07835
#
# Poissons Ratio (x) = 0.13104 0.51049
# Poissons Ratio (y) = 0.08856 0.07079
# Poissons Ratio (z) = 0.50882 0.10440
#
# Static dielectric constant tensor:
#      x y z
#    x 1.672790 0.000000 0.004600 
#    y 0.000000 1.716440 0.000000 
#    z 0.004600 0.000000 1.665100 
# 
# From -- ./inp_files/8834.got.cif
#   From: 2010.05.17/outbox.cif.g08.bks.cpg/sg8_5_cif.got.tgz:8834.got - 2010.06.03 19:46:02.
