data_PCOD9132066
_publ_section_title
;
Structure prediction by ZEFSAII (Michael W. Deem and Ramdas Pophale) SiO2 
 PCOD9132066
Probable space group: C M
;
_chemical_formula_sum "Si O2"
_cell_formula_units_Z 32
_cell_length_a 14.658263
_cell_length_b 8.763115
_cell_length_c 14.358174
_cell_angle_alpha 90.000000
_cell_angle_beta 74.623504
_cell_angle_gamma 90.000000
_cell_volume 1778.317403
_symmetry_space_group_name_H-M "C M"
_symmetry_group_IT_number 8
_symmetry_cell_setting 'monoclinic'
loop_
_space_group_symop_operation_xyz
x,y,z
x,-y,z
1/2+x,1/2+y,z
1/2+x,1/2-y,z
loop_
_atom_site_type_symbol
_atom_site_label
_atom_site_fract_x
_atom_site_fract_y
_atom_site_fract_z
Si Si1 0.659020 0.315368 0.851930
Si Si2 0.772641 0.683608 0.001319
Si Si3 0.703454 0.677361 0.404088
Si Si4 0.342953 0.317981 0.496710
Si Si5 0.451216 0.315903 0.845895
Si Si6 0.524926 0.678228 0.341941
Si Si7 0.698154 0.819341 0.212274
Si Si8 0.850507 0.683192 0.697189
O O1 0.656009 0.500000 0.851574
O O2 0.693241 0.270888 0.946084
O O3 0.555690 0.263109 0.848633
O O4 0.744990 0.270544 0.760560
O O5 0.778366 0.500000 0.001178
O O6 0.871164 0.750870 0.936829
O O7 0.744318 0.746290 0.109314
O O8 0.729064 0.500000 0.404309
O O9 0.743347 0.766933 0.480658
O O10 0.590590 0.686781 0.417368
O O11 0.740153 0.749171 0.296713
O O12 0.348569 0.500000 0.504754
O O13 0.421639 0.270099 0.398971
O O14 0.363147 0.240346 0.589340
O O15 0.447960 0.500000 0.847657
O O16 0.422869 0.255810 0.751381
O O17 0.523347 0.500000 0.313932
O O18 0.586959 0.772346 0.251522
O O19 0.708565 0.000000 0.209361
O O20 0.857168 0.500000 0.700501
#
# Coordination Sequence:
#
# PCOD9132066 Si02
#       8
#     4   4   4   4   4   4   4   4
#     4   8  18  36  57  78 106 143 179 215 270 331
#     4  10  19  36  57  80 111 146 178 218 274 333
#     4   9  19  37  55  76 107 146 181 223 273 324
#     4  11  21  36  57  83 109 145 187 228 272 325
#     4  10  19  36  58  82 106 138 182 229 270 324
#     4   8  19  37  54  74 108 147 180 220 276 324
#     4  10  19  35  57  82 110 144 184 230 270 317
#     4  10  21  37  55  79 111 147 179 221 275 330
#
# _framework density 17.994539
#
# number of rings (size 3 to 8) (size 9 to 14) (size 15 to 20)
#    0.750    1.750    0.000    3.375    0.000    2.000 
#    2.250   12.500    0.000    0.000    0.000    0.000 
#    0.000    0.000    0.000    0.000    0.000    0.000 
#
# Total GULP energy -89118.717843 kJ/mol
# GULP energy per Si atom -5569.919865 kJ/mol
# Density = 1.795358 g / cm^3
# Si number density = 17.994539 Si / 1000 Ang^3
#
#
#
# Elastic Constant Matrix: (Units=GPa)
#
#
# Indices 1 2 3 4 5 6 
#
# 1 83.6728 17.3221 11.2392 0.0000 8.7878 0.0000
# 2 17.3221 65.3175 17.7238 0.0000 1.0571 0.0000
# 3 11.2392 17.7238 58.3402 0.0000 6.7336 0.0000
# 4 0.0000 0.0000 0.0000 31.3411 0.0000 -0.1208
# 5 8.7878 1.0571 6.7336 0.0000 12.2731 0.0000
# 6 0.0000 0.0000 0.0000 -0.1208 0.0000 23.1854
#
#
#
# Elastic Compliance Matrix: (Units=1/GPa)
#
#
# Indices 1 2 3 4 5 6 
#
# 1 0.013682 -0.003327 -0.000563 0.000000 -0.009201 0.000000
# 2 -0.003327 0.017518 -0.005105 0.000000 0.003674 0.000000
# 3 -0.000563 -0.005105 0.019967 0.000000 -0.010112 0.000000
# 4 0.000000 0.000000 0.000000 0.031908 0.000000 0.000166
# 5 -0.009201 0.003674 -0.010112 0.000000 0.093299 0.000000
# 6 0.000000 0.000000 0.000000 0.000166 0.000000 0.043131
#
#
# Mechanical properties :
#
#
# Convention : Reuss Voigt Hill
#
# Bulk Modulus (GPa) = 30.14111 33.32229 31.73170
# Shear Modulus (GPa) = 20.11631 24.09629 22.10630
#
# Velocity S-wave (km/s) = 3.34715 3.66333 3.50880
# Velocity P-wave (km/s) = 5.63244 6.03751 5.83849
#
# Compressibility (1/GPa) = 0.03317728
#
# Stress axis : x y z
#
# Youngs Moduli (GPa) = 73.08865 57.08451 50.08158
#
# Poissons Ratio (x) = 0.18990 0.02821
# Poissons Ratio (y) = 0.24315 0.25567
# Poissons Ratio (z) = 0.04116 0.29142
#
# Static dielectric constant tensor:
#      x y z
#    x 1.624940 0.000000 0.000340 
#    y 0.000000 1.604640 0.000000 
#    z 0.000340 0.000000 1.594640 
# 
# From -- ./inp_files/26434.got.cif
#   From: 2010.05.17/outbox.cif.g08.bks.cpg/sg8_14_cif.got.tgz:26434.got - 2010.06.03 19:46:02.
