data_PCOD9132213
_publ_section_title
;
Structure prediction by ZEFSAII (Michael W. Deem and Ramdas Pophale) SiO2 
 PCOD9132213
Probable space group: C M
;
_chemical_formula_sum "Si O2"
_cell_formula_units_Z 32
_cell_length_a 9.596210
_cell_length_b 18.227905
_cell_length_c 8.600637
_cell_angle_alpha 90.000000
_cell_angle_beta 74.243848
_cell_angle_gamma 90.000000
_cell_volume 1447.886449
_symmetry_space_group_name_H-M "C M"
_symmetry_group_IT_number 8
_symmetry_cell_setting 'monoclinic'
loop_
_space_group_symop_operation_xyz
x,y,z
x,-y,z
1/2+x,1/2+y,z
1/2+x,1/2-y,z
loop_
_atom_site_type_symbol
_atom_site_label
_atom_site_fract_x
_atom_site_fract_y
_atom_site_fract_z
Si Si1 0.660570 0.920852 0.189510
Si Si2 0.927627 0.821277 0.601309
Si Si3 0.444140 0.578201 0.313880
Si Si4 0.675703 0.180175 0.919749
Si Si5 0.198988 0.087623 0.636054
Si Si6 0.901773 0.759596 0.062759
Si Si7 0.077608 0.912776 0.984877
Si Si8 0.932234 0.310569 0.394243
O O1 0.813714 0.923992 0.229824
O O2 0.564773 0.860188 0.300484
O O3 0.590134 0.000000 0.224195
O O4 0.679512 0.897790 0.005036
O O5 0.903303 0.862488 0.448337
O O6 0.781385 0.815531 0.743130
O O7 0.976365 0.742096 0.524104
O O8 0.045270 0.872404 0.649868
O O9 0.452930 0.500000 0.392202
O O10 0.590386 0.588254 0.168934
O O11 0.746663 0.235045 0.027517
O O12 0.511305 0.203754 0.946037
O O13 0.207122 0.095826 0.822275
O O14 0.309799 0.134961 0.499592
O O15 0.203405 0.000000 0.599961
O O16 0.977231 0.839039 0.002573
O O17 0.891002 0.734387 0.246853
O O18 0.029070 0.000000 0.969131
#
# Coordination Sequence:
#
# PCOD9132213 Si02
#       8
#     4   4   4   4   4   4   4   4
#     4  10  21  41  63  86 121 168 209 249 314 387
#     4  12  23  36  62  92 127 154 213 264 317 368
#     4  10  20  35  60  91 119 154 202 261 313 365
#     4  11  24  38  65  91 126 166 208 262 317 377
#     4  11  24  41  61  91 127 167 212 262 317 379
#     4  11  22  42  61  92 125 166 211 256 319 382
#     4  10  19  38  63  86 118 161 213 258 311 380
#     4  11  25  37  63  89 129 164 208 260 316 382
#
# _framework density 22.101182000000001
#
# number of rings (size 3 to 8) (size 9 to 14) (size 15 to 20)
#    0.000    1.250    3.750    1.500    5.250    1.000 
#    0.000    0.000    0.000    0.750    0.000    0.000 
#    0.000    0.000    0.000    0.000    0.000    0.000 
#
# Total GULP energy -89123.348330 kJ/mol
# GULP energy per Si atom -5570.209271 kJ/mol
# Density = 2.205088 g / cm^3
# Si number density = 22.101182 Si / 1000 Ang^3
#
#
#
# Elastic Constant Matrix: (Units=GPa)
#
#
# Indices 1 2 3 4 5 6 
#
# 1 24.4986 7.7443 15.1583 0.0000 -8.7411 0.0000
# 2 7.7443 113.5364 63.0780 0.0000 -2.4310 0.0000
# 3 15.1583 63.0780 160.2147 0.0000 -25.2411 0.0000
# 4 0.0000 0.0000 0.0000 33.5305 0.0000 -5.9381
# 5 -8.7411 -2.4310 -25.2411 0.0000 23.3358 0.0000
# 6 0.0000 0.0000 0.0000 -5.9381 0.0000 19.5457
#
#
#
# Elastic Compliance Matrix: (Units=1/GPa)
#
#
# Indices 1 2 3 4 5 6 
#
# 1 0.048146 -0.002379 -0.000984 0.000000 0.016723 0.000000
# 2 -0.002379 0.011774 -0.005253 0.000000 -0.005346 0.000000
# 3 -0.000984 -0.005253 0.009955 0.000000 0.009852 0.000000
# 4 0.000000 0.000000 0.000000 0.031519 0.000000 0.009576
# 5 0.016723 -0.005346 0.009852 0.000000 0.059216 0.000000
# 6 0.000000 0.000000 0.000000 0.009576 0.000000 0.054071
#
#
# Mechanical properties :
#
#
# Convention : Reuss Voigt Hill
#
# Bulk Modulus (GPa) = 18.99581 52.24567 35.62074
# Shear Modulus (GPa) = 20.04321 29.43366 24.73843
#
# Velocity S-wave (km/s) = 3.01472 3.65330 3.34926
# Velocity P-wave (km/s) = 4.55320 6.44097 5.57753
#
# Compressibility (1/GPa) = 0.05264319
#
# Stress axis : x y z
#
# Youngs Moduli (GPa) = 20.77001 84.93443 100.45378
#
# Poissons Ratio (x) = 0.20209 0.09884
# Poissons Ratio (y) = 0.04942 0.52764
# Poissons Ratio (z) = 0.02044 0.44613
#
# Static dielectric constant tensor:
#      x y z
#    x 1.832810 0.000000 0.040420 
#    y 0.000000 1.922260 0.000000 
#    z 0.040420 0.000000 1.869510 
# 
# From -- ./inp_files/11145.got.cif
#   From: 2010.05.17/outbox.cif.g08.bks.cpg/sg8_6_cif.got.tgz:11145.got - 2010.06.03 19:46:02.
