data_PCOD9133862
_publ_section_title
;
Structure prediction by ZEFSAII (Michael W. Deem and Ramdas Pophale) SiO2 
 PCOD9133862
Probable space group: C C
;
_chemical_formula_sum "Si O2"
_cell_formula_units_Z 32
_cell_length_a 17.894872
_cell_length_b 10.444693
_cell_length_c 9.046519
_cell_angle_alpha 90.000000
_cell_angle_beta 105.450070
_cell_angle_gamma 90.000000
_cell_volume 1629.750305
_symmetry_space_group_name_H-M "C C"
_symmetry_group_IT_number 9
_symmetry_cell_setting 'monoclinic'
loop_
_space_group_symop_operation_xyz
x,y,z
x,-y,1/2+z
1/2+x,1/2+y,z
1/2+x,1/2-y,1/2+z
loop_
_atom_site_type_symbol
_atom_site_label
_atom_site_fract_x
_atom_site_fract_y
_atom_site_fract_z
Si Si1 0.840040 0.772596 0.457460
Si Si2 0.429655 0.083954 0.068489
Si Si3 0.600849 0.642875 0.994304
Si Si4 0.985193 0.341619 0.912855
Si Si5 0.277272 0.189564 0.131094
Si Si6 0.339570 0.436467 0.002827
Si Si7 0.405934 0.718147 0.295651
Si Si8 0.509497 0.508257 0.204120
O O1 0.922446 0.771837 0.412160
O O2 0.787154 0.695400 0.314731
O O3 0.862439 0.721263 0.631647
O O4 0.812241 0.917483 0.472399
O O5 0.480307 0.116864 0.239742
O O6 0.342988 0.100483 0.090509
O O7 0.432507 0.183984 0.934594
O O8 0.456137 0.953632 0.005084
O O9 0.568370 0.786576 0.996830
O O10 0.559519 0.588118 0.827277
O O11 0.692747 0.644069 0.041849
O O12 0.564903 0.557985 0.105169
O O13 0.295195 0.334217 0.081299
O O14 0.429369 0.445924 0.103990
O O15 0.345260 0.376076 0.843278
O O16 0.477054 0.631945 0.275828
#
# Coordination Sequence:
#
# PCOD9133862 Si02
#       8
#     4   4   4   4   4   4   4   4
#     4  10  18  35  63  88 119 164 219 256 295 376
#     4  10  23  39  65  86 129 166 216 243 316 393
#     4  12  24  41  63  97 132 157 209 274 329 361
#     4  11  21  39  64  92 122 169 211 256 304 387
#     4  10  24  40  58  96 132 165 202 267 327 370
#     4  10  18  37  66  92 116 166 226 258 300 378
#     4  10  17  33  64  94 107 161 226 257 291 362
#     4  11  21  38  69  91 121 166 225 263 308 379
#
# _framework density 19.634909
#
# number of rings (size 3 to 8) (size 9 to 14) (size 15 to 20)
#    0.000    1.500    3.750    4.500    0.000    2.000 
#    2.250    2.500    0.000    0.000    0.000    0.000 
#    0.000    0.000    0.000    0.000    0.000    0.000 
#
# Total GULP energy -89254.154357 kJ/mol
# GULP energy per Si atom -5578.384647 kJ/mol
# Density = 1.959022 g / cm^3
# Si number density = 19.634909 Si / 1000 Ang^3
#
#
#
# Elastic Constant Matrix: (Units=GPa)
#
#
# Indices 1 2 3 4 5 6 
#
# 1 68.9309 15.2000 25.1860 0.0000 12.9488 0.0000
# 2 15.2000 76.2018 35.8936 0.0000 -7.1805 0.0000
# 3 25.1860 35.8936 134.4777 0.0000 -6.9190 0.0000
# 4 0.0000 0.0000 0.0000 30.2373 0.0000 -5.9932
# 5 12.9488 -7.1805 -6.9190 0.0000 24.0832 0.0000
# 6 0.0000 0.0000 0.0000 -5.9932 0.0000 18.4995
#
#
#
# Elastic Compliance Matrix: (Units=1/GPa)
#
#
# Indices 1 2 3 4 5 6 
#
# 1 0.018665 -0.003332 -0.003221 0.000000 -0.011954 0.000000
# 2 -0.003332 0.015880 -0.003328 0.000000 0.005570 0.000000
# 3 -0.003221 -0.003328 0.009100 0.000000 0.003354 0.000000
# 4 0.000000 0.000000 0.000000 0.035341 0.000000 0.011449
# 5 -0.011954 0.005570 0.003354 0.000000 0.050575 0.000000
# 6 0.000000 0.000000 0.000000 0.011449 0.000000 0.057765
#
#
# Mechanical properties :
#
#
# Convention : Reuss Voigt Hill
#
# Bulk Modulus (GPa) = 41.87190 48.01884 44.94537
# Shear Modulus (GPa) = 23.25049 28.11939 25.68494
#
# Velocity S-wave (km/s) = 3.44487 3.78843 3.62073
# Velocity P-wave (km/s) = 6.09872 6.60645 6.35766
#
# Compressibility (1/GPa) = 0.02388237
#
# Stress axis : x y z
#
# Youngs Moduli (GPa) = 53.57700 62.97171 109.88609
#
# Poissons Ratio (x) = 0.20983 0.35398
# Poissons Ratio (y) = 0.17853 0.36569
# Poissons Ratio (z) = 0.17259 0.20956
#
# Static dielectric constant tensor:
#      x y z
#    x 1.651630 0.000000 -0.003470 
#    y 0.000000 1.780620 0.000000 
#    z -0.003470 0.000000 1.740530 
# 
# From -- ./inp_files/10672.got.cif
#   From: 2010.05.17/outbox.cif.g08.bks.cpg/sg9_6_cif.got.tgz:10672.got - 2010.06.03 20:04:27.
