data_PCOD9133374
_publ_section_title
;
Structure prediction by ZEFSAII (Michael W. Deem and Ramdas Pophale) SiO2 
 PCOD9133374
Probable space group: C M
;
_chemical_formula_sum "Si O2"
_cell_formula_units_Z 32
_cell_length_a 22.884671
_cell_length_b 8.588828
_cell_length_c 14.725218
_cell_angle_alpha 90.000000
_cell_angle_beta 149.534682
_cell_angle_gamma 90.000000
_cell_volume 1467.447549
_symmetry_space_group_name_H-M "C M"
_symmetry_group_IT_number 8
_symmetry_cell_setting 'monoclinic'
loop_
_space_group_symop_operation_xyz
x,y,z
x,-y,z
1/2+x,1/2+y,z
1/2+x,1/2-y,z
loop_
_atom_site_type_symbol
_atom_site_label
_atom_site_fract_x
_atom_site_fract_y
_atom_site_fract_z
Si Si1 0.870600 0.815698 0.491580
Si Si2 0.531887 0.312066 0.865995
Si Si3 0.257329 0.683817 0.069503
Si Si4 0.195969 0.184983 0.645378
Si Si5 0.980196 0.683768 0.468178
Si Si6 0.844195 0.312832 0.008296
Si Si7 0.627127 0.316558 0.178638
Si Si8 0.105892 0.684698 0.349920
O O1 0.966044 0.773380 0.544485
O O2 0.755960 0.719990 0.315915
O O3 0.918830 0.775294 0.655964
O O4 0.845814 0.000000 0.454648
O O5 0.545445 0.500000 0.881266
O O6 0.639626 0.236668 0.958444
O O7 0.540032 0.264989 0.982300
O O8 0.273959 0.500000 0.104450
O O9 0.364275 0.774517 0.257666
O O10 0.262487 0.727746 0.970389
O O11 0.306784 0.223268 0.855286
O O12 0.193565 0.241744 0.538932
O O13 0.088423 0.261017 0.554273
O O14 0.180955 0.000000 0.626285
O O15 0.987044 0.500000 0.493381
O O16 0.834872 0.500000 0.008484
O O17 0.975827 0.265724 0.201870
O O18 0.612622 0.500000 0.174343
O O19 0.619796 0.230224 0.264220
O O20 0.113478 0.500000 0.368848
#
# Coordination Sequence:
#
# PCOD9133374 Si02
#       8
#     4   4   4   4   4   4   4   4
#     4  11  23  41  65  95 126 163 207 256 309 369
#     4  10  23  42  64  91 128 165 201 253 313 367
#     4  12  23  36  63  96 126 164 207 251 304 371
#     4  11  23  41  65  95 126 163 207 256 309 369
#     4  12  23  38  61  92 130 168 203 251 312 371
#     4  10  23  42  64  91 128 165 201 253 313 367
#     4  11  24  43  65  89 122 166 209 261 312 364
#     4  11  24  43  65  89 122 166 209 261 312 364
#
# _framework density 21.806570000000001
#
# number of rings (size 3 to 8) (size 9 to 14) (size 15 to 20)
#    0.000    1.000    2.500    4.500    0.000    7.000 
#    0.000    2.500    0.000    0.000    0.000    0.000 
#    0.000    0.000    0.000    0.000    0.000    0.000 
#
# Total GULP energy -89528.690553 kJ/mol
# GULP energy per Si atom -5595.543160 kJ/mol
# Density = 2.175694 g / cm^3
# Si number density = 21.806570 Si / 1000 Ang^3
#
#
#
# Elastic Constant Matrix: (Units=GPa)
#
#
# Indices 1 2 3 4 5 6 
#
# 1 64.7336 -4.8226 1.6030 0.0000 -29.0337 0.0000
# 2 -4.8226 31.5303 15.5400 0.0000 -10.2883 0.0000
# 3 1.6030 15.5400 83.3828 0.0000 -37.1463 0.0000
# 4 0.0000 0.0000 0.0000 21.0781 0.0000 -2.1680
# 5 -29.0337 -10.2883 -37.1463 0.0000 37.6931 0.0000
# 6 0.0000 0.0000 0.0000 -2.1680 0.0000 33.6520
#
#
#
# Elastic Compliance Matrix: (Units=1/GPa)
#
#
# Indices 1 2 3 4 5 6 
#
# 1 0.042600 0.014598 0.022913 0.000000 0.059378 0.000000
# 2 0.014598 0.040591 0.003742 0.000000 0.026011 0.000000
# 3 0.022913 0.003742 0.034177 0.000000 0.052352 0.000000
# 4 0.000000 0.000000 0.000000 0.047759 0.000000 0.003077
# 5 0.059378 0.026011 0.052352 0.000000 0.130959 0.000000
# 6 0.000000 0.000000 0.000000 0.003077 0.000000 0.029914
#
#
# Mechanical properties :
#
#
# Convention : Reuss Voigt Hill
#
# Bulk Modulus (GPa) = 5.00315 22.69861 13.85088
# Shear Modulus (GPa) = 16.12283 29.63973 22.88128
#
# Velocity S-wave (km/s) = 2.72206 3.69075 3.24278
# Velocity P-wave (km/s) = 3.48981 5.34732 4.51512
#
# Compressibility (1/GPa) = 0.19987400
#
# Stress axis : x y z
#
# Youngs Moduli (GPa) = 23.47438 24.63578 29.25923
#
# Poissons Ratio (x) = -0.35963 -0.67041
# Poissons Ratio (y) = -0.34267 -0.10950
# Poissons Ratio (z) = -0.53786 -0.09219
#
# Static dielectric constant tensor:
#      x y z
#    x 1.811610 0.000000 -0.031310 
#    y 0.000000 1.720720 0.000000 
#    z -0.031310 0.000000 1.817710 
# 
# From -- ./inp_files/26583.got.cif
#   From: 2010.05.17/outbox.cif.g08.bks.cpg/sg8_14_cif.got.tgz:26583.got - 2010.06.03 19:46:02.
