data_PCOD9133087
_publ_section_title
;
Structure prediction by ZEFSAII (Michael W. Deem and Ramdas Pophale) SiO2 
 PCOD9133087
Probable space group: C M
;
_chemical_formula_sum "Si O2"
_cell_formula_units_Z 24
_cell_length_a 10.236077
_cell_length_b 18.538213
_cell_length_c 9.280263
_cell_angle_alpha 90.000000
_cell_angle_beta 43.320357
_cell_angle_gamma 90.000000
_cell_volume 1208.187905
_symmetry_space_group_name_H-M "C M"
_symmetry_group_IT_number 8
_symmetry_cell_setting 'monoclinic'
loop_
_space_group_symop_operation_xyz
x,y,z
x,-y,z
1/2+x,1/2+y,z
1/2+x,1/2-y,z
loop_
_atom_site_type_symbol
_atom_site_label
_atom_site_fract_x
_atom_site_fract_y
_atom_site_fract_z
Si Si1 0.980410 0.660979 0.219220
Si Si2 0.806588 0.185763 0.374557
Si Si3 0.388534 0.798325 0.711040
Si Si4 0.594113 0.814806 0.820228
Si Si5 0.739639 0.583358 0.635160
Si Si6 0.830946 0.084610 0.094413
O O1 0.947719 0.746627 0.267743
O O2 0.801516 0.623713 0.440663
O O3 0.159703 0.626967 0.157011
O O4 0.013033 0.645356 0.024205
O O5 0.740045 0.153458 0.582752
O O6 0.871407 0.125142 0.212123
O O7 0.602549 0.219214 0.484755
O O8 0.418062 0.792271 0.858823
O O9 0.345900 0.877516 0.683049
O O10 0.721141 0.750250 0.783205
O O11 0.792547 0.500000 0.584951
O O12 0.516790 0.589761 0.845778
O O13 0.786895 0.000000 0.150871
#
# Coordination Sequence:
#
# PCOD9133087 Si02
#       6
#     4   4   4   4   4   4
#     4  12  23  39  68 101 137 176 227 288 335 400
#     4  10  22  40  67 100 133 178 225 285 333 404
#     4  10  21  42  62 102 130 179 221 281 337 405
#     4  10  23  37  62 101 136 167 225 284 338 391
#     4  11  23  44  69  97 137 187 232 273 346 420
#     4  11  25  46  72  99 138 189 230 273 346 422
#
# _framework density 19.864459
#
# number of rings (size 3 to 8) (size 9 to 14) (size 15 to 20)
#    1.000    0.333    3.333    1.500    7.000    0.000 
#    3.000    3.333    0.000    4.000    0.000    0.000 
#    0.000    0.000    0.000    0.000    0.000    0.000 
#
# Total GULP energy -66868.863812 kJ/mol
# GULP energy per Si atom -5572.405318 kJ/mol
# Density = 1.981925 g / cm^3
# Si number density = 19.864459 Si / 1000 Ang^3
#
#
#
# Elastic Constant Matrix: (Units=GPa)
#
#
# Indices 1 2 3 4 5 6 
#
# 1 74.4241 60.4555 42.8298 0.0000 26.1024 0.0000
# 2 60.4555 110.2388 58.7926 0.0000 1.4851 0.0000
# 3 42.8298 58.7926 148.6338 0.0000 27.5831 0.0000
# 4 0.0000 0.0000 0.0000 29.3643 0.0000 0.1573
# 5 26.1024 1.4851 27.5831 0.0000 36.7934 0.0000
# 6 0.0000 0.0000 0.0000 0.1573 0.0000 24.5873
#
#
#
# Elastic Compliance Matrix: (Units=1/GPa)
#
#
# Indices 1 2 3 4 5 6 
#
# 1 0.043007 -0.024991 0.003447 0.000000 -0.032086 0.000000
# 2 -0.024991 0.026402 -0.007358 0.000000 0.022180 0.000000
# 3 0.003447 -0.007358 0.010505 0.000000 -0.010024 0.000000
# 4 0.000000 0.000000 0.000000 0.034056 0.000000 -0.000218
# 5 -0.032086 0.022180 -0.010024 0.000000 0.056561 0.000000
# 6 0.000000 0.000000 0.000000 -0.000218 0.000000 0.040673
#
#
# Mechanical properties :
#
#
# Convention : Reuss Voigt Hill
#
# Bulk Modulus (GPa) = 45.22932 73.05030 59.13981
# Shear Modulus (GPa) = 18.09114 29.56358 23.82736
#
# Velocity S-wave (km/s) = 3.02110 3.86199 3.46713
# Velocity P-wave (km/s) = 5.91505 7.53265 6.77232
#
# Compressibility (1/GPa) = 0.02210955
#
# Stress axis : x y z
#
# Youngs Moduli (GPa) = 23.25221 37.87599 95.18898
#
# Poissons Ratio (x) = 0.94657 -0.32813
# Poissons Ratio (y) = 0.58110 0.70041
# Poissons Ratio (z) = -0.08015 0.27870
#
# Static dielectric constant tensor:
#      x y z
#    x 1.727860 0.000000 0.001770 
#    y 0.000000 1.682840 0.000000 
#    z 0.001770 0.000000 1.764240 
# 
# From -- ./inp_files/22193.got.cif
#   From: 2010.05.17/outbox.cif.g08.bks.cpg/sg8_12_cif.got.tgz:22193.got - 2010.06.03 19:46:02.
