data_PCOD9133540
_publ_section_title
;
Structure prediction by ZEFSAII (Michael W. Deem and Ramdas Pophale) SiO2 
 PCOD9133540
Probable space group: C M
;
_chemical_formula_sum "Si O2"
_cell_formula_units_Z 20
_cell_length_a 14.744980
_cell_length_b 10.145139
_cell_length_c 6.979632
_cell_angle_alpha 90.000000
_cell_angle_beta 40.885897
_cell_angle_gamma 90.000000
_cell_volume 683.408994
_symmetry_space_group_name_H-M "C M"
_symmetry_group_IT_number 8
_symmetry_cell_setting 'monoclinic'
loop_
_space_group_symop_operation_xyz
x,y,z
x,-y,z
1/2+x,1/2+y,z
1/2+x,1/2-y,z
loop_
_atom_site_type_symbol
_atom_site_label
_atom_site_fract_x
_atom_site_fract_y
_atom_site_fract_z
Si Si1 0.811790 0.000000 0.451200
Si Si2 0.357397 0.500000 0.840060
Si Si3 0.502281 0.000000 0.043927
Si Si4 0.027133 0.831498 0.056349
Si Si5 0.548814 0.000000 0.427279
Si Si6 0.795493 0.323322 0.356251
Si Si7 0.556610 0.279837 0.462767
O O1 0.825372 0.000000 0.665144
O O2 0.643846 0.000000 0.698600
O O3 0.843060 0.842072 0.335156
O O4 0.453624 0.377713 0.732910
O O5 0.214987 0.500000 0.176333
O O6 0.472563 0.828225 0.075489
O O7 0.519063 0.000000 0.249052
O O8 0.176911 0.832374 0.710779
O O9 0.996810 0.000000 0.099090
O O10 0.055099 0.806545 0.239369
O O11 0.497093 0.864903 0.592293
O O12 0.828619 0.500000 0.283986
O O13 0.708439 0.299911 0.301947
#
# Coordination Sequence:
#
# PCOD9133540 Si02
#       7
#     2   2   2   4   2   4   4
#     4   9  21  45  74 101 148 204 251 324 395 449
#     4   9  23  46  75 109 157 197 261 319 391 463
#     4  11  22  47  76 113 152 206 267 323 381 489
#     4  11  25  45  73 107 152 202 257 324 391 459
#     4  11  24  46  83 109 157 211 255 324 403 459
#     4  12  26  43  76 109 150 203 265 314 392 470
#     4  11  26  48  77 113 158 209 261 330 394 472
#
# _framework density 29.265053000000002
#
# number of rings (size 3 to 8) (size 9 to 14) (size 15 to 20)
#    0.000    1.200    2.000    2.400    8.400    0.800 
#    0.000    3.000    0.000    0.000    0.000    0.000 
#    0.000    0.000    0.000    0.000    0.000    0.000 
#
# Total GULP energy -56051.602674 kJ/mol
# GULP energy per Si atom -5605.160267 kJ/mol
# Density = 2.919844 g / cm^3
# Si number density = 29.265053 Si / 1000 Ang^3
#
#
#
# Elastic Constant Matrix: (Units=GPa)
#
#
# Indices 1 2 3 4 5 6 
#
# 1 206.1525 71.7820 84.6849 0.0000 -7.6840 0.0000
# 2 71.7820 324.9049 95.7884 0.0000 -34.0881 0.0000
# 3 84.6849 95.7884 183.4158 0.0000 -7.2971 0.0000
# 4 0.0000 0.0000 0.0000 77.2328 0.0000 -31.5119
# 5 -7.6840 -34.0881 -7.2971 0.0000 40.3432 0.0000
# 6 0.0000 0.0000 0.0000 -31.5119 0.0000 66.8461
#
#
#
# Elastic Compliance Matrix: (Units=1/GPa)
#
#
# Indices 1 2 3 4 5 6 
#
# 1 0.006088 -0.000587 -0.002496 0.000000 0.000212 0.000000
# 2 -0.000587 0.004025 -0.001712 0.000000 0.002979 0.000000
# 3 -0.002496 -0.001712 0.007476 0.000000 -0.000570 0.000000
# 4 0.000000 0.000000 0.000000 0.016031 0.000000 0.007557
# 5 0.000212 0.002979 -0.000570 0.000000 0.027242 0.000000
# 6 0.000000 0.000000 0.000000 0.007557 0.000000 0.018522
#
#
# Mechanical properties :
#
#
# Convention : Reuss Voigt Hill
#
# Bulk Modulus (GPa) = 125.02327 135.44263 130.23295
# Shear Modulus (GPa) = 54.55975 67.69894 61.12935
#
# Velocity S-wave (km/s) = 4.32247 4.81490 4.57532
# Velocity P-wave (km/s) = 8.22955 8.79163 8.51523
#
# Compressibility (1/GPa) = 0.00799851
#
# Stress axis : x y z
#
# Youngs Moduli (GPa) = 164.24581 248.44940 133.75734
#
# Poissons Ratio (x) = 0.14583 0.33387
# Poissons Ratio (y) = 0.09641 0.22906
# Poissons Ratio (z) = 0.40997 0.42547
#
# Static dielectric constant tensor:
#      x y z
#    x 2.159760 0.000000 -0.023580 
#    y 0.000000 2.693030 0.000000 
#    z -0.023580 0.000000 2.046320 
# 
# From -- ./inp_files/14372.got.cif
#   From: 2010.05.17/outbox.cif.g08.bks.cpg/sg8_8_cif.got.tgz:14372.got - 2010.06.03 19:46:02.
