data_PCOD9133320
_publ_section_title
;
Structure prediction by ZEFSAII (Michael W. Deem and Ramdas Pophale) SiO2 
 PCOD9133320
Probable space group: C M
;
_chemical_formula_sum "Si O2"
_cell_formula_units_Z 30
_cell_length_a 10.770486
_cell_length_b 20.721387
_cell_length_c 12.624519
_cell_angle_alpha 90.000000
_cell_angle_beta 155.389027
_cell_angle_gamma 90.000000
_cell_volume 1173.375340
_symmetry_space_group_name_H-M "C M"
_symmetry_group_IT_number 8
_symmetry_cell_setting 'monoclinic'
loop_
_space_group_symop_operation_xyz
x,y,z
x,-y,z
1/2+x,1/2+y,z
1/2+x,1/2-y,z
loop_
_atom_site_type_symbol
_atom_site_label
_atom_site_fract_x
_atom_site_fract_y
_atom_site_fract_z
Si Si1 0.460130 0.330114 0.225340
Si Si2 0.424560 0.926588 0.251469
Si Si3 0.455067 0.196763 0.142833
Si Si4 0.948756 0.000000 0.574415
Si Si5 0.239171 0.569105 0.889064
Si Si6 0.670074 0.719906 0.692312
Si Si7 0.043226 0.356867 0.556713
Si Si8 0.175517 0.899632 0.574520
O O1 0.375985 0.255449 0.161929
O O2 0.815598 0.332632 0.472247
O O3 0.417956 0.372348 0.297675
O O4 0.356849 0.370957 0.045436
O O5 0.357149 0.873561 0.108673
O O6 0.395890 0.889945 0.340731
O O7 0.294591 0.000000 0.137663
O O8 0.774847 0.944168 0.509194
O O9 0.817379 0.200494 0.418425
O O10 0.309788 0.215764 0.917645
O O11 0.073388 0.055256 0.589173
O O12 0.389064 0.500000 0.025673
O O13 0.235455 0.588381 0.763703
O O14 0.905715 0.564775 0.676831
O O15 0.707092 0.789339 0.664114
O O16 0.818226 0.664299 0.736266
#
# Coordination Sequence:
#
# PCOD9133320 Si02
#       8
#     4   4   4   2   4   4   4   4
#     4  10  24  42  68 101 136 179 243 293 359 412
#     4  10  22  44  73  99 147 193 234 292 362 439
#     4  11  23  47  70 107 142 187 241 296 355 427
#     4  10  22  44  68 102 142 186 234 284 364 440
#     4  11  23  40  68 102 136 180 237 300 354 427
#     4  11  23  44  74 101 145 183 241 299 351 427
#     4  10  22  45  68 101 139 186 236 297 359 427
#     4  11  23  43  68  99 138 187 231 294 356 424
#
# _framework density 25.567267999999999
#
# number of rings (size 3 to 8) (size 9 to 14) (size 15 to 20)
#    0.400    1.067    3.333    1.200    2.800    1.067 
#    3.600    0.000    0.000    0.000    0.000    0.000 
#    0.000    0.000    0.000    0.000    0.000    0.000 
#
# Total GULP energy -83517.490403 kJ/mol
# GULP energy per Si atom -5567.832694 kJ/mol
# Density = 2.550908 g / cm^3
# Si number density = 25.567268 Si / 1000 Ang^3
#
#
#
# Elastic Constant Matrix: (Units=GPa)
#
#
# Indices 1 2 3 4 5 6 
#
# 1 69.4764 30.6930 -2.3336 -0.0170 6.0999 -0.0034
# 2 30.6930 213.6690 18.2349 -0.0061 -1.3437 -0.0023
# 3 -2.3336 18.2349 89.5931 -0.0219 -3.3975 -0.0061
# 4 -0.0170 -0.0061 -0.0219 -1.6285 -0.0123 -3.5411
# 5 6.0999 -1.3437 -3.3975 -0.0123 22.4688 -0.0021
# 6 -0.0034 -0.0023 -0.0061 -3.5411 -0.0021 46.5480
#
#
#
# Elastic Compliance Matrix: (Units=1/GPa)
#
#
# Indices 1 2 3 4 5 6 
#
# 1 0.015843 -0.002365 0.000730 -0.000116 -0.004332 -0.000008
# 2 -0.002365 0.005116 -0.001073 0.000012 0.000786 0.000001
# 3 0.000730 -0.001073 0.011455 -0.000148 0.001470 -0.000010
# 4 -0.000116 0.000012 -0.000148 -0.526906 -0.000282 -0.040084
# 5 -0.004332 0.000786 0.001470 -0.000282 0.045951 -0.000019
# 6 -0.000008 0.000001 -0.000010 -0.040084 -0.000019 0.018434
#
#
# Mechanical properties :
#
#
# Convention : Reuss Voigt Hill
#
# Bulk Modulus (GPa) = 37.04137 51.76966 44.40552
# Shear Modulus (GPa) = -12.02819 35.22062 11.59622
#
# Velocity S-wave (km/s) = -2.17135 3.71559 2.13200
# Velocity P-wave (km/s) = 2.86931 6.22092 4.84421
#
# Compressibility (1/GPa) = 0.02699684
#
# Stress axis : x y z
#
# Youngs Moduli (GPa) = 63.11859 195.44835 87.30040
#
# Poissons Ratio (x) = 0.46231 -0.06371
# Poissons Ratio (y) = 0.14930 0.09369
# Poissons Ratio (z) = -0.04606 0.20975
#
# Static dielectric constant tensor:
#      x y z
#    x 2.062390 0.000000 0.117840 
#    y 0.000000 2.081870 0.000010 
#    z 0.117840 0.000010 2.082860 
# 
# From -- ./inp_files/20828.got.cif
#   From: 2010.05.17/outbox.cif.g08.bks.cpg/sg8_11_cif.got.tgz:20828.got - 2010.06.03 19:46:02.
