data_PCOD9133119
_publ_section_title
;
Structure prediction by ZEFSAII (Michael W. Deem and Ramdas Pophale) SiO2 
 PCOD9133119
Probable space group: C M
;
_chemical_formula_sum "Si O2"
_cell_formula_units_Z 26
_cell_length_a 10.568020
_cell_length_b 15.745197
_cell_length_c 7.323098
_cell_angle_alpha 90.000000
_cell_angle_beta 74.070055
_cell_angle_gamma 90.000000
_cell_volume 1171.736939
_symmetry_space_group_name_H-M "C M"
_symmetry_group_IT_number 8
_symmetry_cell_setting 'monoclinic'
loop_
_space_group_symop_operation_xyz
x,y,z
x,-y,z
1/2+x,1/2+y,z
1/2+x,1/2-y,z
loop_
_atom_site_type_symbol
_atom_site_label
_atom_site_fract_x
_atom_site_fract_y
_atom_site_fract_z
Si Si1 0.859840 0.333697 0.428490
Si Si2 0.156148 0.500000 0.067330
Si Si3 0.858216 0.856007 0.974699
Si Si4 0.422909 0.000000 0.892673
Si Si5 0.489827 0.338448 0.295991
Si Si6 0.779669 0.668232 0.037893
Si Si7 0.020759 0.500000 0.475515
Si Si8 0.094346 0.094941 0.620426
O O1 0.939032 0.246622 0.416268
O O2 0.834527 0.340320 0.222026
O O3 0.715454 0.339298 0.575656
O O4 0.941889 0.414404 0.459174
O O5 0.235938 0.416472 0.977311
O O6 0.143454 0.500000 0.291698
O O7 0.010443 0.500000 0.040837
O O8 0.885917 0.863690 0.181596
O O9 0.831679 0.757415 0.941482
O O10 0.984549 0.886988 0.813436
O O11 0.530274 0.000000 0.689004
O O12 0.331769 0.916273 0.919274
O O13 0.623459 0.324650 0.127314
O O14 0.527902 0.400004 0.446116
O O15 0.148579 0.000000 0.623241
#
# Coordination Sequence:
#
# PCOD9133119 Si02
#       8
#     4   2   4   2   4   4   2   4
#     4  10  21  45  67 101 139 175 226 285 340 406
#     4  12  26  50  66 100 150 178 232 292 348 420
#     4  11  26  44  71  99 144 183 225 290 355 405
#     4  12  28  43  73 103 133 192 240 281 356 412
#     4  10  25  42  71 102 135 178 231 280 352 405
#     4  10  23  46  70 104 137 181 233 292 337 420
#     4  12  24  41  73  95 131 186 230 277 344 408
#     4  11  24  42  69 103 138 179 228 285 340 413
#
# _framework density 22.189278999999999
#
# number of rings (size 3 to 8) (size 9 to 14) (size 15 to 20)
#    0.000    1.231    3.077    0.923   10.769    1.231 
#    0.000    0.000    0.000    0.000    0.000    0.000 
#    0.000    0.000    0.000    0.000    0.000    0.000 
#
# Total GULP energy -72686.400690 kJ/mol
# GULP energy per Si atom -5591.261592 kJ/mol
# Density = 2.213878 g / cm^3
# Si number density = 22.189279 Si / 1000 Ang^3
#
#
#
# Elastic Constant Matrix: (Units=GPa)
#
#
# Indices 1 2 3 4 5 6 
#
# 1 59.5744 51.8200 6.7740 0.0000 -9.9987 0.0000
# 2 51.8200 131.2213 33.8878 0.0000 -24.2977 0.0000
# 3 6.7740 33.8878 91.4686 0.0000 -23.6415 0.0000
# 4 0.0000 0.0000 0.0000 19.5763 0.0000 -0.7664
# 5 -9.9987 -24.2977 -23.6415 0.0000 37.4711 0.0000
# 6 0.0000 0.0000 0.0000 -0.7664 0.0000 12.4703
#
#
#
# Elastic Compliance Matrix: (Units=1/GPa)
#
#
# Indices 1 2 3 4 5 6 
#
# 1 0.025992 -0.010593 0.002410 0.000000 0.001587 0.000000
# 2 -0.010593 0.013329 -0.003167 0.000000 0.003818 0.000000
# 3 0.002410 -0.003167 0.013816 0.000000 0.007306 0.000000
# 4 0.000000 0.000000 0.000000 0.051205 0.000000 0.003147
# 5 0.001587 0.003818 0.007306 0.000000 0.034197 0.000000
# 6 0.000000 0.000000 0.000000 0.003147 0.000000 0.080384
#
#
# Mechanical properties :
#
#
# Convention : Reuss Voigt Hill
#
# Bulk Modulus (GPa) = 32.85434 51.91418 42.38426
# Shear Modulus (GPa) = 19.85954 26.55570 23.20762
#
# Velocity S-wave (km/s) = 2.99491 3.46320 3.23754
# Velocity P-wave (km/s) = 5.17667 6.28001 5.75484
#
# Compressibility (1/GPa) = 0.03043738
#
# Stress axis : x y z
#
# Youngs Moduli (GPa) = 38.47308 75.02603 72.38018
#
# Poissons Ratio (x) = 0.79474 -0.17443
# Poissons Ratio (y) = 0.40754 0.22921
# Poissons Ratio (z) = -0.09271 0.23759
#
# Static dielectric constant tensor:
#      x y z
#    x 1.800430 0.000000 0.022010 
#    y 0.000000 1.780720 0.000000 
#    z 0.022010 0.000000 1.807360 
# 
# From -- ./inp_files/10586.got.cif
#   From: 2010.05.17/outbox.cif.g08.bks.cpg/sg8_6_cif.got.tgz:10586.got - 2010.06.03 19:46:02.
