data_PCOD9133451
_publ_section_title
;
Structure prediction by ZEFSAII (Michael W. Deem and Ramdas Pophale) SiO2 
 PCOD9133451
Probable space group: C M
;
_chemical_formula_sum "Si O2"
_cell_formula_units_Z 20
_cell_length_a 11.903660
_cell_length_b 16.481912
_cell_length_c 4.841110
_cell_angle_alpha 90.000000
_cell_angle_beta 55.409274
_cell_angle_gamma 90.000000
_cell_volume 781.903814
_symmetry_space_group_name_H-M "C M"
_symmetry_group_IT_number 8
_symmetry_cell_setting 'monoclinic'
loop_
_space_group_symop_operation_xyz
x,y,z
x,-y,z
1/2+x,1/2+y,z
1/2+x,1/2-y,z
loop_
_atom_site_type_symbol
_atom_site_label
_atom_site_fract_x
_atom_site_fract_y
_atom_site_fract_z
Si Si1 0.768120 0.908072 0.274760
Si Si2 0.592587 0.868906 0.012922
Si Si3 0.824915 0.631094 0.685746
Si Si4 0.958751 0.790735 0.349335
Si Si5 0.649382 0.591928 0.423908
O O1 0.633993 0.899217 0.655776
O O2 0.818789 0.000000 0.221632
O O3 0.719546 0.888098 0.035221
O O4 0.874829 0.845481 0.254558
O O5 0.557463 0.773358 0.056468
O O6 0.458751 0.905043 0.349334
O O7 0.783509 0.600783 0.042892
O O8 0.697956 0.611901 0.663446
O O9 0.860039 0.726642 0.642202
O O10 0.042673 0.845481 0.444112
O O11 0.598712 0.500000 0.477036
#
# Coordination Sequence:
#
# PCOD9133451 Si02
#       5
#     4   4   4   4   4
#     4  12  24  43  66  97 127 164 212 266 313 366
#     4  10  25  41  69  90 130 167 214 251 318 378
#     4  10  25  41  69  90 130 167 214 251 318 378
#     4  10  25  44  67  92 128 172 212 254 313 384
#     4  12  24  43  66  97 127 164 212 266 313 366
#
# _framework density 25.578593000000001
#
# number of rings (size 3 to 8) (size 9 to 14) (size 15 to 20)
#    1.200    0.000    0.000    5.400    0.000    9.600 
#    0.000    4.000    0.000    0.000    0.000    0.000 
#    0.000    0.000    0.000    0.000    0.000    0.000 
#
# Total GULP energy -56065.842069 kJ/mol
# GULP energy per Si atom -5606.584207 kJ/mol
# Density = 2.552038 g / cm^3
# Si number density = 25.578593 Si / 1000 Ang^3
#
#
#
# Elastic Constant Matrix: (Units=GPa)
#
#
# Indices 1 2 3 4 5 6 
#
# 1 77.2277 20.8279 1.1207 0.0000 5.8076 0.0000
# 2 20.8279 190.9370 2.3324 0.0000 3.1875 0.0000
# 3 1.1207 2.3324 105.8863 0.0000 0.7154 0.0000
# 4 0.0000 0.0000 0.0000 -7.9769 0.0000 60.3419
# 5 5.8076 3.1875 0.7154 0.0000 51.8987 0.0000
# 6 0.0000 0.0000 0.0000 60.3419 0.0000 -87.8709
#
#
#
# Elastic Compliance Matrix: (Units=1/GPa)
#
#
# Indices 1 2 3 4 5 6 
#
# 1 0.013445 -0.001442 -0.000101 0.000000 -0.001415 0.000000
# 2 -0.001442 0.005399 -0.000103 0.000000 -0.000169 0.000000
# 3 -0.000101 -0.000103 0.009448 0.000000 -0.000113 0.000000
# 4 0.000000 0.000000 0.000000 0.029886 0.000000 0.020523
# 5 -0.001415 -0.000169 -0.000113 0.000000 0.019439 0.000000
# 6 0.000000 0.000000 0.000000 0.020523 0.000000 0.002713
#
#
# Mechanical properties :
#
#
# Convention : Reuss Voigt Hill
#
# Bulk Modulus (GPa) = 39.99738 46.95700 43.47719
# Shear Modulus (GPa) = 54.37486 14.52820 34.45153
#
# Velocity S-wave (km/s) = 4.61564 2.38582 3.67398
# Velocity P-wave (km/s) = 6.63901 5.09778 5.91878
#
# Compressibility (1/GPa) = 0.02500164
#
# Stress axis : x y z
#
# Youngs Moduli (GPa) = 74.37483 185.23058 105.84051
#
# Poissons Ratio (x) = 0.26707 0.01069
# Poissons Ratio (y) = 0.10723 0.01085
# Poissons Ratio (z) = 0.00751 0.01899
#
# Static dielectric constant tensor:
#      x y z
#    x 1.980790 0.000000 -0.124060 
#    y 0.000000 1.969130 0.000000 
#    z -0.124060 0.000000 2.016800 
# 
# From -- ./inp_files/2625.got.cif
#   From: 2010.05.17/outbox.cif.g08.bks.cpg/sg8_2_cif.got.tgz:2625.got - 2010.06.03 19:46:02.
