data_PCOD9133190
_publ_section_title
;
Structure prediction by ZEFSAII (Michael W. Deem and Ramdas Pophale) SiO2 
 PCOD9133190
Probable space group: C M
;
_chemical_formula_sum "Si O2"
_cell_formula_units_Z 32
_cell_length_a 24.558274
_cell_length_b 7.982702
_cell_length_c 20.050745
_cell_angle_alpha 90.000000
_cell_angle_beta 22.965200
_cell_angle_gamma 90.000000
_cell_volume 1533.678511
_symmetry_space_group_name_H-M "C M"
_symmetry_group_IT_number 8
_symmetry_cell_setting 'monoclinic'
loop_
_space_group_symop_operation_xyz
x,y,z
x,-y,z
1/2+x,1/2+y,z
1/2+x,1/2-y,z
loop_
_atom_site_type_symbol
_atom_site_label
_atom_site_fract_x
_atom_site_fract_y
_atom_site_fract_z
Si Si1 0.909270 0.804559 0.574290
Si Si2 0.301480 0.200955 0.456924
Si Si3 0.359622 0.802469 0.775350
Si Si4 0.874920 0.695317 0.116108
Si Si5 0.191798 0.692238 0.206863
Si Si6 0.108173 0.701705 0.154968
Si Si7 0.171559 0.204115 0.462990
Si Si8 0.671884 0.202870 0.740091
O O1 0.848410 0.785817 0.716434
O O2 0.801496 0.746014 0.639876
O O3 0.050183 0.700920 0.409093
O O4 0.943394 0.000000 0.524386
O O5 0.457319 0.264921 0.299615
O O6 0.238823 0.260078 0.457239
O O7 0.200688 0.241772 0.632353
O O8 0.311915 0.000000 0.439654
O O9 0.512469 0.761718 0.632786
O O10 0.349426 0.000000 0.776793
O O11 0.233932 0.744600 0.964052
O O12 0.891917 0.500000 0.114184
O O13 0.804263 0.710723 0.123440
O O14 0.770687 0.763792 0.290202
O O15 0.029177 0.768567 0.933681
O O16 0.238687 0.500000 0.146661
O O17 0.150617 0.762517 0.180955
O O18 0.095955 0.500000 0.173976
O O19 0.167713 0.000000 0.465813
O O20 0.666875 0.000000 0.746196
#
# Coordination Sequence:
#
# PCOD9133190 Si02
#       8
#     4   4   4   4   4   4   4   4
#     4  11  22  40  66  90 121 161 202 253 312 366
#     4  10  22  41  65  90 122 163 203 249 303 365
#     4  12  26  41  62  92 124 160 208 257 304 361
#     4  10  22  40  62  89 121 163 206 246 301 364
#     4  11  22  39  64  92 121 156 206 258 304 359
#     4  10  23  42  64  90 123 161 204 252 308 368
#     4  10  22  41  64  88 121 165 206 246 304 365
#     4  10  23  40  63  93 123 159 203 251 304 364
#
# _framework density 20.864868999999999
#
# number of rings (size 3 to 8) (size 9 to 14) (size 15 to 20)
#    0.000    1.500    2.500    1.875    3.500    3.000 
#    0.000    0.000    0.000    0.000    0.000    0.000 
#    0.000    0.000    0.000    0.000    0.000    0.000 
#
# Total GULP energy -89396.159282 kJ/mol
# GULP energy per Si atom -5587.259955 kJ/mol
# Density = 2.081738 g / cm^3
# Si number density = 20.864869 Si / 1000 Ang^3
#
#
#
# Elastic Constant Matrix: (Units=GPa)
#
#
# Indices 1 2 3 4 5 6 
#
# 1 90.8304 -3.4221 6.5456 -0.0013 10.1202 0.0000
# 2 -3.4221 15.8542 -17.0577 -0.0060 -1.0662 0.0012
# 3 6.5456 -17.0577 76.9239 -0.0048 8.6570 0.0014
# 4 -0.0013 -0.0060 -0.0048 16.8017 0.0001 5.8336
# 5 10.1202 -1.0662 8.6570 0.0001 32.8854 -0.0001
# 6 0.0000 0.0012 0.0014 5.8336 -0.0001 20.8231
#
#
#
# Elastic Compliance Matrix: (Units=1/GPa)
#
#
# Indices 1 2 3 4 5 6 
#
# 1 0.011480 0.002117 -0.000121 0.000002 -0.003432 -0.000001
# 2 0.002117 0.083385 0.018631 0.000041 -0.002853 -0.000018
# 3 -0.000121 0.018631 0.017591 0.000014 -0.003989 -0.000006
# 4 0.000002 0.000041 0.000014 0.065931 -0.000003 -0.018470
# 5 -0.003432 -0.002853 -0.003989 -0.000003 0.032423 0.000001
# 6 -0.000001 -0.000018 -0.000006 -0.018470 0.000001 0.053198
#
#
# Mechanical properties :
#
#
# Convention : Reuss Voigt Hill
#
# Bulk Modulus (GPa) = 6.50574 17.30447 11.90510
# Shear Modulus (GPa) = 18.24880 27.27158 22.76019
#
# Velocity S-wave (km/s) = 2.96060 3.61925 3.30637
# Velocity P-wave (km/s) = 3.84860 5.07709 4.50492
#
# Compressibility (1/GPa) = 0.15371048
#
# Stress axis : x y z
#
# Youngs Moduli (GPa) = 87.10453 11.99250 56.84858
#
# Poissons Ratio (x) = -0.02539 0.00689
# Poissons Ratio (y) = -0.18438 -1.05917
# Poissons Ratio (z) = 0.01056 -0.22344
#
# Static dielectric constant tensor:
#      x y z
#    x 1.731690 0.000000 -0.003490 
#    y 0.000000 1.748460 0.000000 
#    z -0.003490 0.000000 1.727710 
# 
# From -- ./inp_files/31650.got.cif
#   From: 2010.05.17/outbox.cif.g08.bks.cpg/sg8_16_cif.got.tgz:31650.got - 2010.06.03 19:46:02.
