data_PCOD9133447
_publ_section_title
;
Structure prediction by ZEFSAII (Michael W. Deem and Ramdas Pophale) SiO2 
 PCOD9133447
Probable space group: C M
;
_chemical_formula_sum "Si O2"
_cell_formula_units_Z 30
_cell_length_a 7.818617
_cell_length_b 15.212474
_cell_length_c 12.184514
_cell_angle_alpha 90.000000
_cell_angle_beta 66.900732
_cell_angle_gamma 90.000000
_cell_volume 1333.042272
_symmetry_space_group_name_H-M "C M"
_symmetry_group_IT_number 8
_symmetry_cell_setting 'monoclinic'
loop_
_space_group_symop_operation_xyz
x,y,z
x,-y,z
1/2+x,1/2+y,z
1/2+x,1/2-y,z
loop_
_atom_site_type_symbol
_atom_site_label
_atom_site_fract_x
_atom_site_fract_y
_atom_site_fract_z
Si Si1 0.170330 0.655050 0.427190
Si Si2 0.451863 0.500000 0.323475
Si Si3 0.275050 0.797947 0.571768
Si Si4 0.878673 0.097539 0.942979
Si Si5 0.115572 0.670165 0.181630
Si Si6 0.819313 0.599499 0.875530
Si Si7 0.748004 0.364836 0.141157
Si Si8 0.902029 0.783329 0.749472
O O1 0.315183 0.577630 0.408780
O O2 0.236889 0.745851 0.468422
O O3 0.144488 0.663229 0.303478
O O4 0.957564 0.642924 0.521857
O O5 0.587508 0.424862 0.231749
O O6 0.088594 0.836999 0.670099
O O7 0.309972 0.723856 0.654783
O O8 0.097423 0.111534 0.909245
O O9 0.805605 0.165750 0.871786
O O10 0.850156 0.000000 0.908271
O O11 0.767992 0.110534 0.082991
O O12 0.159088 0.770110 0.139462
O O13 0.913932 0.643704 0.187728
O O14 0.871902 0.500000 0.826720
O O15 0.915648 0.682566 0.791455
O O16 0.834578 0.603997 0.003864
#
# Coordination Sequence:
#
# PCOD9133447 Si02
#       8
#     4   2   4   4   4   4   4   4
#     4  11  25  48  74 101 142 193 248 312 360 432
#     4  12  26  46  72 110 146 188 248 314 368 436
#     4  10  24  48  73  97 138 193 256 295 357 434
#     4  11  25  42  71 110 149 192 241 305 373 447
#     4  12  26  44  74 104 150 200 236 295 379 446
#     4  11  23  42  68 106 152 193 238 297 368 443
#     4  12  25  41  68 109 151 189 239 291 372 457
#     4  11  22  46  73 104 140 195 252 305 364 434
#
# _framework density 22.504912000000001
#
# number of rings (size 3 to 8) (size 9 to 14) (size 15 to 20)
#    0.000    0.800    3.333    4.000    5.600    1.067 
#    7.200    0.000    0.000    0.000    0.000    0.000 
#    0.000    0.000    0.000    0.000    0.000    0.000 
#
# Total GULP energy -83524.771279 kJ/mol
# GULP energy per Si atom -5568.318085 kJ/mol
# Density = 2.245369 g / cm^3
# Si number density = 22.504912 Si / 1000 Ang^3
#
#
#
# Elastic Constant Matrix: (Units=GPa)
#
#
# Indices 1 2 3 4 5 6 
#
# 1 58.7479 8.5997 34.0328 0.0000 -10.7433 0.0000
# 2 8.5997 97.5051 21.8501 0.0000 -13.3750 0.0000
# 3 34.0328 21.8501 120.3930 0.0000 6.2736 0.0000
# 4 0.0000 0.0000 0.0000 3.0600 0.0000 -12.9334
# 5 -10.7433 -13.3750 6.2736 0.0000 52.6638 0.0000
# 6 0.0000 0.0000 0.0000 -12.9334 0.0000 17.3086
#
#
#
# Elastic Compliance Matrix: (Units=1/GPa)
#
#
# Indices 1 2 3 4 5 6 
#
# 1 0.021682 0.000254 -0.006449 0.000000 0.005256 0.000000
# 2 0.000254 0.011174 -0.002264 0.000000 0.003159 0.000000
# 3 -0.006449 -0.002264 0.010705 0.000000 -0.003166 0.000000
# 4 0.000000 0.000000 0.000000 -0.151421 0.000000 -0.113145
# 5 0.005256 0.003159 -0.003166 0.000000 0.021240 0.000000
# 6 0.000000 0.000000 0.000000 -0.113145 0.000000 -0.026770
#
#
# Mechanical properties :
#
#
# Convention : Reuss Voigt Hill
#
# Bulk Modulus (GPa) = 37.53465 45.06790 41.30127
# Shear Modulus (GPa) = -57.08455 28.75070 -14.16693
#
# Velocity S-wave (km/s) = -5.04187 3.57813 -2.51171
# Velocity P-wave (km/s) = 4.14479 6.09426 3.15917
#
# Compressibility (1/GPa) = 0.02664205
#
# Stress axis : x y z
#
# Youngs Moduli (GPa) = 46.12172 89.49091 93.41371
#
# Poissons Ratio (x) = -0.02271 0.60242
# Poissons Ratio (y) = -0.01171 0.21153
# Poissons Ratio (z) = 0.29744 0.20264
#
# Static dielectric constant tensor:
#      x y z
#    x 1.953860 0.000000 0.006320 
#    y 0.000000 1.815180 0.000000 
#    z 0.006320 0.000000 1.812030 
# 
# From -- ./inp_files/18859.got.cif
#   From: 2010.05.17/outbox.cif.g08.bks.cpg/sg8_10_cif.got.tgz:18859.got - 2010.06.03 19:46:02.
