data_PCOD9133267
_publ_section_title
;
Structure prediction by ZEFSAII (Michael W. Deem and Ramdas Pophale) SiO2 
 PCOD9133267
Probable space group: C M
;
_chemical_formula_sum "Si O2"
_cell_formula_units_Z 28
_cell_length_a 12.641485
_cell_length_b 22.309586
_cell_length_c 7.207368
_cell_angle_alpha 90.000000
_cell_angle_beta 147.715391
_cell_angle_gamma 90.000000
_cell_volume 1085.698980
_symmetry_space_group_name_H-M "C M"
_symmetry_group_IT_number 8
_symmetry_cell_setting 'monoclinic'
loop_
_space_group_symop_operation_xyz
x,y,z
x,-y,z
1/2+x,1/2+y,z
1/2+x,1/2-y,z
loop_
_atom_site_type_symbol
_atom_site_label
_atom_site_fract_x
_atom_site_fract_y
_atom_site_fract_z
Si Si1 0.762840 0.875252 0.887410
Si Si2 0.014974 0.933245 0.777709
Si Si3 0.806326 0.169972 0.330754
Si Si4 0.180522 0.065318 0.424361
Si Si5 0.876700 0.678929 0.658386
Si Si6 0.686167 0.265204 0.705055
Si Si7 0.358148 0.137604 0.201103
O O1 0.740531 0.803992 0.813935
O O2 0.561591 0.899177 0.500711
O O3 0.753334 0.878858 0.094824
O O4 0.967844 0.905882 0.150655
O O5 0.873168 0.874600 0.594443
O O6 0.935380 0.000000 0.617423
O O7 0.153160 0.940531 0.162208
O O8 0.175343 0.905043 0.874362
O O9 0.987064 0.210552 0.518009
O O10 0.596476 0.203430 0.027284
O O11 0.350599 0.113167 0.710337
O O12 0.208618 0.000000 0.548255
O O13 0.716634 0.717846 0.534252
O O14 0.841700 0.667190 0.386243
O O15 0.851093 0.306004 0.053682
#
# Coordination Sequence:
#
# PCOD9133267 Si02
#       7
#     4   4   4   4   4   4   4
#     4  11  22  41  62  95 136 169 217 274 325 394
#     4   9  20  41  65  90 126 169 221 277 325 392
#     4  10  22  42  64  99 129 168 230 265 329 399
#     4  10  22  42  66  96 134 176 226 270 326 403
#     4  10  22  44  66  97 129 182 212 270 343 375
#     4  11  22  44  63  96 139 168 221 276 321 403
#     4   9  22  40  62  95 133 166 223 270 325 398
#
# _framework density 25.789836000000001
#
# number of rings (size 3 to 8) (size 9 to 14) (size 15 to 20)
#    0.000    2.000    1.429    0.857    2.000    1.714 
#   25.714    2.857    0.000    0.000    0.000    0.000 
#    0.000    0.000    0.000    0.000    0.000    0.000 
#
# Total GULP energy -78067.362092 kJ/mol
# GULP energy per Si atom -5576.240149 kJ/mol
# Density = 2.573114 g / cm^3
# Si number density = 25.789836 Si / 1000 Ang^3
#
#
#
# Elastic Constant Matrix: (Units=GPa)
#
#
# Indices 1 2 3 4 5 6 
#
# 1 88.9532 32.3546 13.9440 0.0000 13.0079 0.0000
# 2 32.3546 118.6736 16.0762 0.0000 7.1148 0.0000
# 3 13.9440 16.0762 91.5061 0.0000 15.9767 0.0000
# 4 0.0000 0.0000 0.0000 29.3935 0.0000 -4.4175
# 5 13.0079 7.1148 15.9767 0.0000 44.4930 0.0000
# 6 0.0000 0.0000 0.0000 -4.4175 0.0000 14.7756
#
#
#
# Elastic Compliance Matrix: (Units=1/GPa)
#
#
# Indices 1 2 3 4 5 6 
#
# 1 0.012995 -0.003244 -0.000893 0.000000 -0.002959 0.000000
# 2 -0.003244 0.009475 -0.001143 0.000000 -0.000156 0.000000
# 3 -0.000893 -0.001143 0.011936 0.000000 -0.003842 0.000000
# 4 0.000000 0.000000 0.000000 0.035622 0.000000 0.010650
# 5 -0.002959 -0.000156 -0.003842 0.000000 0.024745 0.000000
# 6 0.000000 0.000000 0.000000 0.010650 0.000000 0.070863
#
#
# Mechanical properties :
#
#
# Convention : Reuss Voigt Hill
#
# Bulk Modulus (GPa) = 41.93872 47.09804 44.51838
# Shear Modulus (GPa) = 27.15237 33.51630 30.33433
#
# Velocity S-wave (km/s) = 3.24826 3.60890 3.43332
# Velocity P-wave (km/s) = 5.51047 5.97222 5.74598
#
# Compressibility (1/GPa) = 0.02384431
#
# Stress axis : x y z
#
# Youngs Moduli (GPa) = 76.95408 105.53869 83.78019
#
# Poissons Ratio (x) = 0.34241 0.07486
# Poissons Ratio (y) = 0.24967 0.09576
# Poissons Ratio (z) = 0.06876 0.12063
#
# Static dielectric constant tensor:
#      x y z
#    x 2.147940 0.000000 0.007820 
#    y 0.000000 2.151070 0.000000 
#    z 0.007820 0.000000 2.124850 
# 
# From -- ./inp_files/13766.got.cif
#   From: 2010.05.17/outbox.cif.g08.bks.cpg/sg8_7_cif.got.tgz:13766.got - 2010.06.03 19:46:02.
