data_PCOD9133138
_publ_section_title
;
Structure prediction by ZEFSAII (Michael W. Deem and Ramdas Pophale) SiO2 
 PCOD9133138
Probable space group: C M
;
_chemical_formula_sum "Si O2"
_cell_formula_units_Z 28
_cell_length_a 9.383788
_cell_length_b 10.594121
_cell_length_c 14.232086
_cell_angle_alpha 90.000000
_cell_angle_beta 71.819533
_cell_angle_gamma 90.000000
_cell_volume 1344.222483
_symmetry_space_group_name_H-M "C M"
_symmetry_group_IT_number 8
_symmetry_cell_setting 'monoclinic'
loop_
_space_group_symop_operation_xyz
x,y,z
x,-y,z
1/2+x,1/2+y,z
1/2+x,1/2-y,z
loop_
_atom_site_type_symbol
_atom_site_label
_atom_site_fract_x
_atom_site_fract_y
_atom_site_fract_z
Si Si1 0.275120 0.144237 0.150110
Si Si2 0.372359 0.864642 0.344483
Si Si3 0.898359 0.142358 0.457251
Si Si4 0.174755 0.143713 0.753469
Si Si5 0.119162 0.644933 0.063590
Si Si6 0.830846 0.855630 0.839002
Si Si7 0.639120 0.292124 0.543561
O O1 0.303352 0.153481 0.256099
O O2 0.169569 0.250958 0.128648
O O3 0.444082 0.160869 0.074550
O O4 0.224829 0.000000 0.139880
O O5 0.452216 0.737978 0.364511
O O6 0.242021 0.870175 0.449691
O O7 0.453969 0.000000 0.329004
O O8 0.719675 0.157674 0.510338
O O9 0.974435 0.192621 0.536842
O O10 0.938687 0.000000 0.428832
O O11 0.005871 0.158750 0.828034
O O12 0.155915 0.163141 0.645708
O O13 0.280910 0.248730 0.776376
O O14 0.226121 0.000000 0.761324
O O15 0.135345 0.500000 0.095254
O O16 0.225291 0.657725 0.951432
O O17 0.813054 0.000000 0.805901
#
# Coordination Sequence:
#
# PCOD9133138 Si02
#       7
#     4   4   4   4   4   4   4
#     4  10  22  38  60  88 118 153 194 236 287 346
#     4   9  21  38  58  85 121 156 190 237 287 337
#     4  10  22  38  58  82 115 157 197 234 279 337
#     4  11  22  38  61  87 115 154 196 236 287 347
#     4  10  22  41  61  86 118 151 190 244 294 341
#     4  10  23  41  61  86 118 150 191 245 295 340
#     4  10  22  38  59  82 121 153 190 236 285 334
#
# _framework density 20.829884
#
# number of rings (size 3 to 8) (size 9 to 14) (size 15 to 20)
#    0.857    1.143    0.000    3.000    2.000    4.571 
#    0.000    0.000    0.000    0.000    0.000    0.000 
#    0.000    0.000    0.000    0.000    0.000    0.000 
#
# Total GULP energy -78045.307766 kJ/mol
# GULP energy per Si atom -5574.664840 kJ/mol
# Density = 2.078247 g / cm^3
# Si number density = 20.829884 Si / 1000 Ang^3
#
#
#
# Elastic Constant Matrix: (Units=GPa)
#
#
# Indices 1 2 3 4 5 6 
#
# 1 35.6706 56.0338 -12.0353 0.0000 6.8601 0.0000
# 2 56.0338 158.6636 10.7039 0.0000 34.4423 0.0000
# 3 -12.0353 10.7039 50.8022 0.0000 -7.5836 0.0000
# 4 0.0000 0.0000 0.0000 9.7571 0.0000 -9.4302
# 5 6.8601 34.4423 -7.5836 0.0000 30.3049 0.0000
# 6 0.0000 0.0000 0.0000 -9.4302 0.0000 3.7077
#
#
#
# Elastic Compliance Matrix: (Units=1/GPa)
#
#
# Indices 1 2 3 4 5 6 
#
# 1 0.133696 -0.062513 0.052909 0.000000 0.054023 0.000000
# 2 -0.062513 0.038167 -0.028270 0.000000 -0.036301 0.000000
# 3 0.052909 -0.028270 0.042782 0.000000 0.030859 0.000000
# 4 0.000000 0.000000 0.000000 -0.070285 0.000000 -0.178763
# 5 0.054023 -0.036301 0.030859 0.000000 0.069749 0.000000
# 6 0.000000 0.000000 0.000000 -0.178763 0.000000 -0.184960
#
#
# Mechanical properties :
#
#
# Convention : Reuss Voigt Hill
#
# Bulk Modulus (GPa) = 7.19962 39.39347 23.29655
# Shear Modulus (GPa) = 33.06993 21.44953 27.25973
#
# Velocity S-wave (km/s) = 3.98882 3.21245 3.62150
# Velocity P-wave (km/s) = 4.96771 5.71951 5.35682
#
# Compressibility (1/GPa) = 0.13889614
#
# Stress axis : x y z
#
# Youngs Moduli (GPa) = 7.47968 26.20060 23.37458
#
# Poissons Ratio (x) = 1.63787 -1.23672
# Poissons Ratio (y) = 0.46757 0.66080
# Poissons Ratio (z) = -0.39574 0.74070
#
# Static dielectric constant tensor:
#      x y z
#    x 1.780210 0.000000 -0.040820 
#    y 0.000000 1.767550 0.000000 
#    z -0.040820 0.000000 1.758710 
# 
# From -- ./inp_files/25782.got.cif
#   From: 2010.05.17/outbox.cif.g08.bks.cpg/sg8_13_cif.got.tgz:25782.got - 2010.06.03 19:46:02.
