data_PCOD9133981
_publ_section_title
;
Structure prediction by ZEFSAII (Michael W. Deem and Ramdas Pophale) SiO2 
 PCOD9133981
Probable space group: C C
;
_chemical_formula_sum "Si O2"
_cell_formula_units_Z 28
_cell_length_a 16.878838
_cell_length_b 6.932694
_cell_length_c 9.474010
_cell_angle_alpha 90.000000
_cell_angle_beta 103.071752
_cell_angle_gamma 90.000000
_cell_volume 1079.882310
_symmetry_space_group_name_H-M "C C"
_symmetry_group_IT_number 9
_symmetry_cell_setting 'monoclinic'
loop_
_space_group_symop_operation_xyz
x,y,z
x,-y,1/2+z
1/2+x,1/2+y,z
1/2+x,1/2-y,1/2+z
loop_
_atom_site_type_symbol
_atom_site_label
_atom_site_fract_x
_atom_site_fract_y
_atom_site_fract_z
Si Si1 0.165390 0.185103 0.556110
Si Si2 0.414387 0.311230 0.751228
Si Si3 0.034055 0.129396 0.705013
Si Si4 0.617383 0.077819 0.456144
Si Si5 0.263263 0.588029 0.338760
Si Si6 0.315449 0.791707 0.953914
Si Si7 0.970061 0.506125 0.580791
O O1 0.101686 0.058059 0.618621
O O2 0.120015 0.342722 0.439678
O O3 0.207771 0.317675 0.694173
O O4 0.239380 0.097817 0.495504
O O5 0.484031 0.469650 0.767280
O O6 0.351742 0.323732 0.852765
O O7 0.355283 0.345662 0.590748
O O8 0.450649 0.104699 0.723400
O O9 0.075347 0.275124 0.831790
O O10 0.977777 0.278202 0.596229
O O11 0.557273 0.087407 0.565636
O O12 0.712563 0.120212 0.462260
O O13 0.278866 0.357576 0.328147
O O14 0.393962 0.920429 0.955909
#
# Coordination Sequence:
#
# PCOD9133981 Si02
#       7
#     4   4   4   4   4   4   4
#     4   8  16  30  50  76 100 139 176 206 252 307
#     4   9  19  32  53  80 105 135 174 217 254 311
#     4  10  18  33  54  77 105 139 169 214 263 302
#     4   9  17  31  56  77 102 142 175 207 260 314
#     4   9  15  31  57  75 101 146 174 203 266 307
#     4   8  16  31  53  74 103 138 169 212 254 303
#     4   9  19  34  51  81 108 131 175 217 255 310
#
# _framework density 25.928750999999998
#
# number of rings (size 3 to 8) (size 9 to 14) (size 15 to 20)
#    0.857    2.286    0.000    0.857    0.000    0.000 
#    5.143    0.000   18.857    3.429    0.000    0.000 
#    0.000    0.000    0.000    0.000    0.000    0.000 
#
# Total GULP energy -77959.749570 kJ/mol
# GULP energy per Si atom -5568.553541 kJ/mol
# Density = 2.586974 g / cm^3
# Si number density = 25.928751 Si / 1000 Ang^3
#
#
#
# Elastic Constant Matrix: (Units=GPa)
#
#
# Indices 1 2 3 4 5 6 
#
# 1 213.7609 65.2749 59.6399 0.0000 -55.7702 0.0000
# 2 65.2749 67.1400 18.4637 0.0000 -6.0207 0.0000
# 3 59.6399 18.4637 64.7102 0.0000 -15.6074 0.0000
# 4 0.0000 0.0000 0.0000 24.2994 0.0000 10.9484
# 5 -55.7702 -6.0207 -15.6074 0.0000 51.4709 0.0000
# 6 0.0000 0.0000 0.0000 10.9484 0.0000 18.7014
#
#
#
# Elastic Compliance Matrix: (Units=1/GPa)
#
#
# Indices 1 2 3 4 5 6 
#
# 1 0.011453 -0.008688 -0.005749 0.000000 0.009650 0.000000
# 2 -0.008688 0.022767 -0.000126 0.000000 -0.006789 0.000000
# 3 -0.005749 -0.000126 0.020803 0.000000 0.000064 0.000000
# 4 0.000000 0.000000 0.000000 0.055898 0.000000 -0.032724
# 5 0.009650 -0.006789 0.000064 0.000000 0.029110 0.000000
# 6 0.000000 0.000000 0.000000 -0.032724 0.000000 0.072630
#
#
# Mechanical properties :
#
#
# Convention : Reuss Voigt Hill
#
# Bulk Modulus (GPa) = 38.61488 70.26312 54.43900
# Shear Modulus (GPa) = 19.96647 32.37652 26.17150
#
# Velocity S-wave (km/s) = 2.77799 3.53749 3.18049
# Velocity P-wave (km/s) = 5.02142 6.62137 5.87610
#
# Compressibility (1/GPa) = 0.02589675
#
# Stress axis : x y z
#
# Youngs Moduli (GPa) = 87.31388 43.92298 48.06890
#
# Poissons Ratio (x) = 0.38162 0.27635
# Poissons Ratio (y) = 0.75862 0.00606
# Poissons Ratio (z) = 0.50197 0.00553
#
# Static dielectric constant tensor:
#      x y z
#    x 2.073710 0.000000 0.038920 
#    y 0.000000 2.041550 0.000000 
#    z 0.038920 0.000000 2.115100 
# 
# From -- ./inp_files/17604.got.cif
#   From: 2010.05.17/outbox.cif.g08.bks.cpg/sg9_9_cif.got.tgz:17604.got - 2010.06.03 20:04:27.
