data_PCOD9133165
_publ_section_title
;
Structure prediction by ZEFSAII (Michael W. Deem and Ramdas Pophale) SiO2 
 PCOD9133165
Probable space group: C M
;
_chemical_formula_sum "Si O2"
_cell_formula_units_Z 32
_cell_length_a 15.324249
_cell_length_b 8.650374
_cell_length_c 23.042205
_cell_angle_alpha 90.000000
_cell_angle_beta 31.973645
_cell_angle_gamma 90.000000
_cell_volume 1617.439222
_symmetry_space_group_name_H-M "C M"
_symmetry_group_IT_number 8
_symmetry_cell_setting 'monoclinic'
loop_
_space_group_symop_operation_xyz
x,y,z
x,-y,z
1/2+x,1/2+y,z
1/2+x,1/2-y,z
loop_
_atom_site_type_symbol
_atom_site_label
_atom_site_fract_x
_atom_site_fract_y
_atom_site_fract_z
Si Si1 0.756820 0.320296 0.077290
Si Si2 0.615405 0.688446 0.550334
Si Si3 0.728944 0.183311 0.969414
Si Si4 0.895233 0.819465 0.109946
Si Si5 0.168813 0.819416 0.331882
Si Si6 0.382644 0.686795 0.576197
Si Si7 0.412767 0.818947 0.305427
Si Si8 0.050542 0.813503 0.717936
O O1 0.769023 0.500000 0.056344
O O2 0.880157 0.274173 0.058863
O O3 0.574944 0.279475 0.203862
O O4 0.780906 0.222297 0.005558
O O5 0.616257 0.500000 0.549215
O O6 0.477800 0.736624 0.580931
O O7 0.794225 0.734365 0.424545
O O8 0.576616 0.740627 0.637030
O O9 0.875141 0.231159 0.843681
O O10 0.699563 0.000000 0.980592
O O11 0.560535 0.270683 0.049919
O O12 0.741751 0.776484 0.237946
O O13 0.894177 0.000000 0.098085
O O14 0.299014 0.812311 0.311870
O O15 0.996880 0.766046 0.456908
O O16 0.156194 0.000000 0.321931
O O17 0.379872 0.500000 0.577822
O O18 0.201100 0.751187 0.671120
O O19 0.457957 0.000000 0.288317
O O20 0.056760 0.000000 0.714518
#
# Coordination Sequence:
#
# PCOD9133165 Si02
#       8
#     4   4   4   4   4   4   4   4
#     4  12  25  40  61  90 122 160 208 256 310 371
#     4   8  17  36  59  86 119 159 196 234 295 360
#     4  11  24  44  63  86 125 166 210 260 306 360
#     4  12  25  40  62  91 121 161 207 255 313 370
#     4   9  18  35  59  88 127 164 197 246 305 360
#     4   9  19  36  59  88 122 161 200 242 293 356
#     4   9  17  34  61  88 123 162 196 243 303 363
#     4  10  22  39  62  89 119 159 204 250 299 358
#
# _framework density 19.784361000000001
#
# number of rings (size 3 to 8) (size 9 to 14) (size 15 to 20)
#    0.000    2.000    1.250    4.125    1.750    2.500 
#    0.000    3.750    0.000    0.000    0.000    0.000 
#    0.000    0.000    0.000    0.000    0.000    0.000 
#
# Total GULP energy -89402.942825 kJ/mol
# GULP energy per Si atom -5587.683927 kJ/mol
# Density = 1.973933 g / cm^3
# Si number density = 19.784361 Si / 1000 Ang^3
#
#
#
# Elastic Constant Matrix: (Units=GPa)
#
#
# Indices 1 2 3 4 5 6 
#
# 1 45.4488 -9.8052 6.5824 0.0000 17.3747 0.0000
# 2 -9.8052 22.6921 8.8769 0.0000 -2.5740 0.0000
# 3 6.5824 8.8769 67.0014 -0.0001 17.7805 0.0000
# 4 0.0000 0.0000 -0.0001 20.8355 0.0000 -6.8416
# 5 17.3747 -2.5740 17.7805 0.0000 25.7164 0.0000
# 6 0.0000 0.0000 0.0000 -6.8416 0.0000 25.3723
#
#
#
# Elastic Compliance Matrix: (Units=1/GPa)
#
#
# Indices 1 2 3 4 5 6 
#
# 1 0.032512 0.011192 0.001047 0.000000 -0.021570 0.000000
# 2 0.011192 0.052972 -0.009207 0.000000 0.004107 0.000000
# 3 0.001047 -0.009207 0.020176 0.000000 -0.015579 0.000000
# 4 0.000000 0.000000 0.000000 0.052657 0.000000 0.014199
# 5 -0.021570 0.004107 -0.015579 0.000000 0.064641 0.000000
# 6 0.000000 0.000000 0.000000 0.014199 0.000000 0.043242
#
#
# Mechanical properties :
#
#
# Convention : Reuss Voigt Hill
#
# Bulk Modulus (GPa) = 8.95070 16.27225 12.61148
# Shear Modulus (GPa) = 16.81364 23.01740 19.91552
#
# Velocity S-wave (km/s) = 2.91837 3.41459 3.17618
# Velocity P-wave (km/s) = 3.98620 4.87735 4.45412
#
# Compressibility (1/GPa) = 0.11172306
#
# Stress axis : x y z
#
# Youngs Moduli (GPa) = 30.75830 18.87799 49.56293
#
# Poissons Ratio (x) = -0.21128 -0.05190
# Poissons Ratio (y) = -0.34424 0.45635
# Poissons Ratio (z) = -0.03221 0.17382
#
# Static dielectric constant tensor:
#      x y z
#    x 1.690770 0.000000 0.009390 
#    y 0.000000 1.662540 0.000000 
#    z 0.009390 0.000000 1.683290 
# 
# From -- ./inp_files/31980.got.cif
#   From: 2010.05.17/outbox.cif.g08.bks.cpg/sg8_16_cif.got.tgz:31980.got - 2010.06.03 19:46:02.
