data_PCOD9133015
_publ_section_title
;
Structure prediction by ZEFSAII (Michael W. Deem and Ramdas Pophale) SiO2 
 PCOD9133015
Probable space group: C M
;
_chemical_formula_sum "Si O2"
_cell_formula_units_Z 24
_cell_length_a 5.680806
_cell_length_b 24.898854
_cell_length_c 7.426917
_cell_angle_alpha 90.000000
_cell_angle_beta 115.969141
_cell_angle_gamma 90.000000
_cell_volume 944.435016
_symmetry_space_group_name_H-M "C M"
_symmetry_group_IT_number 8
_symmetry_cell_setting 'monoclinic'
loop_
_space_group_symop_operation_xyz
x,y,z
x,-y,z
1/2+x,1/2+y,z
1/2+x,1/2-y,z
loop_
_atom_site_type_symbol
_atom_site_label
_atom_site_fract_x
_atom_site_fract_y
_atom_site_fract_z
Si Si1 0.785890 0.831162 0.309280
Si Si2 0.937277 0.939472 0.960718
Si Si3 0.420016 0.881831 0.955383
Si Si4 0.025198 0.260619 0.642345
Si Si5 0.665240 0.941604 0.481647
Si Si6 0.297954 0.869678 0.512365
O O1 0.870820 0.778727 0.450383
O O2 0.739266 0.889109 0.392850
O O3 0.066057 0.845401 0.317050
O O4 0.542093 0.829679 0.095006
O O5 0.687103 0.913300 0.981661
O O6 0.834926 0.942844 0.719876
O O7 0.218093 0.910606 0.023532
O O8 0.976548 0.000000 0.041695
O O9 0.263364 0.872997 0.716467
O O10 0.829119 0.254438 0.745368
O O11 0.013630 0.322561 0.578204
O O12 0.380474 0.926800 0.466156
O O13 0.679209 0.000000 0.397616
#
# Coordination Sequence:
#
# PCOD9133015 Si02
#       6
#     4   4   4   4   4   4
#     4  11  23  41  64  99 129 170 224 271 329 383
#     4  10  22  42  63  93 132 177 217 266 322 387
#     4  11  24  39  67  93 131 170 217 271 324 393
#     4  10  21  39  68  89 126 173 209 272 323 381
#     4  10  21  39  67  94 131 176 220 263 329 394
#     4  10  22  44  63  94 133 174 217 269 333 382
#
# _framework density 25.412019999999998
#
# number of rings (size 3 to 8) (size 9 to 14) (size 15 to 20)
#    0.000    1.667    3.333    0.500    2.333    2.667 
#    0.000    6.667    0.000    0.000    0.000    0.000 
#    0.000    0.000    0.000    0.000    0.000    0.000 
#
# Total GULP energy -66823.199379 kJ/mol
# GULP energy per Si atom -5568.599948 kJ/mol
# Density = 2.535418 g / cm^3
# Si number density = 25.412020 Si / 1000 Ang^3
#
#
#
# Elastic Constant Matrix: (Units=GPa)
#
#
# Indices 1 2 3 4 5 6 
#
# 1 135.3078 30.4501 12.4035 0.0000 4.5184 0.0000
# 2 30.4501 120.1116 22.4625 0.0000 -13.8008 0.0000
# 3 12.4035 22.4625 96.1133 0.0000 6.7326 0.0000
# 4 0.0000 0.0000 0.0000 33.2990 0.0000 1.8722
# 5 4.5184 -13.8008 6.7326 0.0000 30.2146 0.0000
# 6 0.0000 0.0000 0.0000 1.8722 0.0000 22.5253
#
#
#
# Elastic Compliance Matrix: (Units=1/GPa)
#
#
# Indices 1 2 3 4 5 6 
#
# 1 0.007990 -0.002200 -0.000369 0.000000 -0.002118 0.000000
# 2 -0.002200 0.009959 -0.002423 0.000000 0.005418 0.000000
# 3 -0.000369 -0.002423 0.011268 0.000000 -0.003562 0.000000
# 4 0.000000 0.000000 0.000000 0.030172 0.000000 -0.002508
# 5 -0.002118 0.005418 -0.003562 0.000000 0.036682 0.000000
# 6 0.000000 0.000000 0.000000 -0.002508 0.000000 0.044603
#
#
# Mechanical properties :
#
#
# Convention : Reuss Voigt Hill
#
# Bulk Modulus (GPa) = 51.99272 53.57389 52.78330
# Shear Modulus (GPa) = 31.83333 36.28889 34.06111
#
# Velocity S-wave (km/s) = 3.54317 3.78302 3.66506
# Velocity P-wave (km/s) = 6.10271 6.34109 6.22304
#
# Compressibility (1/GPa) = 0.01923346
#
# Stress axis : x y z
#
# Youngs Moduli (GPa) = 125.15401 100.41194 88.74838
#
# Poissons Ratio (x) = 0.22091 0.03272
# Poissons Ratio (y) = 0.27534 0.21505
# Poissons Ratio (z) = 0.04614 0.24331
#
# Static dielectric constant tensor:
#      x y z
#    x 2.172180 0.000000 -0.044780 
#    y 0.000000 2.013950 0.000000 
#    z -0.044780 0.000000 2.062550 
# 
# From -- ./inp_files/6818.got.cif
#   From: 2010.05.17/outbox.cif.g08.bks.cpg/sg8_4_cif.got.tgz:6818.got - 2010.06.03 19:46:02.
