data_PCOD9133203
_publ_section_title
;
Structure prediction by ZEFSAII (Michael W. Deem and Ramdas Pophale) SiO2 
 PCOD9133203
Probable space group: C M
;
_chemical_formula_sum "Si O2"
_cell_formula_units_Z 28
_cell_length_a 10.397425
_cell_length_b 20.924906
_cell_length_c 5.210019
_cell_angle_alpha 90.000000
_cell_angle_beta 94.260893
_cell_angle_gamma 90.000000
_cell_volume 1130.385560
_symmetry_space_group_name_H-M "C M"
_symmetry_group_IT_number 8
_symmetry_cell_setting 'monoclinic'
loop_
_space_group_symop_operation_xyz
x,y,z
x,-y,z
1/2+x,1/2+y,z
1/2+x,1/2-y,z
loop_
_atom_site_type_symbol
_atom_site_label
_atom_site_fract_x
_atom_site_fract_y
_atom_site_fract_z
Si Si1 0.078740 0.728207 0.435110
Si Si2 0.858934 0.678357 0.996227
Si Si3 0.514668 0.070498 0.783991
Si Si4 0.420326 0.699263 0.850369
Si Si5 0.939885 0.930025 0.552609
Si Si6 0.128978 0.145414 0.267218
Si Si7 0.177526 0.597731 0.313385
O O1 0.000563 0.753630 0.672686
O O2 0.168895 0.791142 0.421926
O O3 0.179796 0.671004 0.410309
O O4 0.969433 0.698232 0.221642
O O5 0.745930 0.634695 0.096150
O O6 0.919236 0.630687 0.792791
O O7 0.810460 0.750460 0.917621
O O8 0.586671 0.069150 0.522828
O O9 0.457072 0.000000 0.820419
O O10 0.616347 0.084740 0.027547
O O11 0.402734 0.630204 0.722886
O O12 0.507317 0.677501 0.103546
O O13 0.820417 0.930249 0.339634
O O14 0.072410 0.910489 0.430888
O O15 0.949571 0.000000 0.676785
#
# Coordination Sequence:
#
# PCOD9133203 Si02
#       7
#     4   4   4   4   4   4   4
#     4   9  21  39  63  97 126 169 221 286 340 397
#     4  10  22  40  66  96 132 172 229 286 347 407
#     4  11  23  43  69 101 134 180 231 291 351 405
#     4  10  22  40  63  96 125 176 226 284 336 408
#     4  11  26  43  63  96 138 186 226 278 350 424
#     4  10  24  40  63  95 134 176 223 280 346 415
#     4  11  24  43  71  99 137 177 234 289 342 412
#
# _framework density 24.770309999999998
#
# number of rings (size 3 to 8) (size 9 to 14) (size 15 to 20)
#    0.000    1.714    1.429    1.286   10.000    2.286 
#    0.000    0.000    0.000    0.000    0.000    0.000 
#    0.000    0.000    0.000    0.000    0.000    0.000 
#
# Total GULP energy -78000.147279 kJ/mol
# GULP energy per Si atom -5571.439091 kJ/mol
# Density = 2.471393 g / cm^3
# Si number density = 24.770310 Si / 1000 Ang^3
#
#
#
# Elastic Constant Matrix: (Units=GPa)
#
#
# Indices 1 2 3 4 5 6 
#
# 1 57.2177 31.5916 -0.5524 0.0000 -15.6828 0.0000
# 2 31.5916 179.5450 -5.2139 0.0000 -8.7097 0.0000
# 3 -0.5524 -5.2139 36.1594 0.0000 -9.2446 0.0000
# 4 0.0000 0.0000 0.0000 -111.2778 0.0000 -83.4696
# 5 -15.6828 -8.7097 -9.2446 0.0000 27.4846 0.0000
# 6 0.0000 0.0000 0.0000 -83.4696 0.0000 -85.4832
#
#
#
# Elastic Compliance Matrix: (Units=1/GPa)
#
#
# Indices 1 2 3 4 5 6 
#
# 1 0.022929 -0.003304 0.003229 0.000000 0.013122 0.000000
# 2 -0.003304 0.006198 0.000945 0.000000 0.000396 0.000000
# 3 0.003229 0.000945 0.031059 0.000000 0.012589 0.000000
# 4 0.000000 0.000000 0.000000 -0.033586 0.000000 0.032795
# 5 0.013122 0.000396 0.012589 0.000000 0.048231 0.000000
# 6 0.000000 0.000000 0.000000 0.032795 0.000000 -0.043720
#
#
# Mechanical properties :
#
#
# Convention : Reuss Voigt Hill
#
# Bulk Modulus (GPa) = 16.14869 36.06362 26.10615
# Shear Modulus (GPa) = 99.97064 -17.38216 41.29424
#
# Velocity S-wave (km/s) = 6.35977 -2.65190 4.08743
# Velocity P-wave (km/s) = 7.77576 2.28343 5.73047
#
# Compressibility (1/GPa) = 0.06192452
#
# Stress axis : x y z
#
# Youngs Moduli (GPa) = 43.61219 161.35101 32.19653
#
# Poissons Ratio (x) = 0.53313 -0.10396
# Poissons Ratio (y) = 0.14410 -0.03041
# Poissons Ratio (z) = -0.14081 -0.15240
#
# Static dielectric constant tensor:
#      x y z
#    x 2.096420 0.000000 0.032690 
#    y 0.000000 2.173340 0.000000 
#    z 0.032690 0.000000 2.220410 
# 
# From -- ./inp_files/2834.got.cif
#   From: 2010.05.17/outbox.cif.g08.bks.cpg/sg8_2_cif.got.tgz:2834.got - 2010.06.03 19:46:02.
