data_PCOD9133177
_publ_section_title
;
Structure prediction by ZEFSAII (Michael W. Deem and Ramdas Pophale) SiO2 
 PCOD9133177
Probable space group: C M
;
_chemical_formula_sum "Si O2"
_cell_formula_units_Z 28
_cell_length_a 12.488233
_cell_length_b 20.360736
_cell_length_c 5.265767
_cell_angle_alpha 90.000000
_cell_angle_beta 66.275322
_cell_angle_gamma 90.000000
_cell_volume 1225.771211
_symmetry_space_group_name_H-M "C M"
_symmetry_group_IT_number 8
_symmetry_cell_setting 'monoclinic'
loop_
_space_group_symop_operation_xyz
x,y,z
x,-y,z
1/2+x,1/2+y,z
1/2+x,1/2-y,z
loop_
_atom_site_type_symbol
_atom_site_label
_atom_site_fract_x
_atom_site_fract_y
_atom_site_fract_z
Si Si1 0.510870 0.305727 0.301850
Si Si2 0.604209 0.074402 0.223246
Si Si3 0.340387 0.074859 0.298500
Si Si4 0.256512 0.859661 0.877989
Si Si5 0.137525 0.291499 0.518355
Si Si6 0.290258 0.638807 0.747948
Si Si7 0.867431 0.757101 0.025306
O O1 0.624218 0.341457 0.080813
O O2 0.541465 0.262711 0.525644
O O3 0.400272 0.355253 0.450208
O O4 0.470812 0.253457 0.126428
O O5 0.479815 0.083470 0.202144
O O6 0.616104 0.137382 0.401746
O O7 0.603183 0.000000 0.338342
O O8 0.713980 0.078782 0.923300
O O9 0.302444 0.090203 0.048571
O O10 0.312876 0.000000 0.384207
O O11 0.273419 0.116872 0.575438
O O12 0.342976 0.798504 0.843553
O O13 0.187341 0.312699 0.744605
O O14 0.249732 0.253604 0.303072
O O15 0.353926 0.670549 0.926973
#
# Coordination Sequence:
#
# PCOD9133177 Si02
#       7
#     4   4   4   4   4   4   4
#     4  10  22  39  66  99 135 171 215 280 348 412
#     4  10  23  42  64  92 129 176 227 277 329 398
#     4  11  26  46  67  96 131 179 237 284 329 403
#     4  11  25  42  71  97 135 179 222 278 348 401
#     4   9  20  37  60  95 129 168 213 271 335 403
#     4  10  22  39  66  97 134 165 220 275 340 404
#     4   9  21  37  60  98 132 168 212 269 339 415
#
# _framework density 22.842760999999999
#
# number of rings (size 3 to 8) (size 9 to 14) (size 15 to 20)
#    0.000    2.000    0.000    1.286   12.000    2.857 
#    0.000    1.429    0.000    0.857    0.000    0.000 
#    0.000    0.000    0.000    0.000    0.000    0.000 
#
# Total GULP energy -78021.101718 kJ/mol
# GULP energy per Si atom -5572.935837 kJ/mol
# Density = 2.279077 g / cm^3
# Si number density = 22.842761 Si / 1000 Ang^3
#
#
#
# Elastic Constant Matrix: (Units=GPa)
#
#
# Indices 1 2 3 4 5 6 
#
# 1 101.2163 25.6841 23.2780 0.0000 -22.0667 0.0000
# 2 25.6841 86.4649 15.1547 0.0000 -13.1261 0.0000
# 3 23.2780 15.1547 57.1111 0.0000 -10.9620 0.0000
# 4 0.0000 0.0000 0.0000 32.1610 0.0000 1.2189
# 5 -22.0667 -13.1261 -10.9620 0.0000 53.8267 0.0000
# 6 0.0000 0.0000 0.0000 1.2189 0.0000 24.1291
#
#
#
# Elastic Compliance Matrix: (Units=1/GPa)
#
#
# Indices 1 2 3 4 5 6 
#
# 1 0.012115 -0.002415 -0.003597 0.000000 0.003645 0.000000
# 2 -0.002415 0.012915 -0.002111 0.000000 0.001730 0.000000
# 3 -0.003597 -0.002111 0.019933 0.000000 0.002070 0.000000
# 4 0.000000 0.000000 0.000000 0.031153 0.000000 -0.001574
# 5 0.003645 0.001730 0.002070 0.000000 0.020916 0.000000
# 6 0.000000 0.000000 0.000000 -0.001574 0.000000 0.041523
#
#
# Mechanical properties :
#
#
# Convention : Reuss Voigt Hill
#
# Bulk Modulus (GPa) = 34.82235 41.44732 38.13483
# Shear Modulus (GPa) = 30.41845 34.06840 32.24343
#
# Velocity S-wave (km/s) = 3.65313 3.86609 3.76112
# Velocity P-wave (km/s) = 5.75076 6.17357 5.96591
#
# Compressibility (1/GPa) = 0.02871719
#
# Stress axis : x y z
#
# Youngs Moduli (GPa) = 82.54509 77.42800 50.16690
#
# Poissons Ratio (x) = 0.18697 0.18047
# Poissons Ratio (y) = 0.19932 0.10590
# Poissons Ratio (z) = 0.29695 0.16344
#
# Static dielectric constant tensor:
#      x y z
#    x 1.893460 0.000000 -0.052800 
#    y 0.000000 1.878230 0.000000 
#    z -0.052800 0.000000 1.946870 
# 
# From -- ./inp_files/2909.got.cif
#   From: 2010.05.17/outbox.cif.g08.bks.cpg/sg8_2_cif.got.tgz:2909.got - 2010.06.03 19:46:02.
