data_PCOD9133020
_publ_section_title
;
Structure prediction by ZEFSAII (Michael W. Deem and Ramdas Pophale) SiO2 
 PCOD9133020
Probable space group: C M
;
_chemical_formula_sum "Si O2"
_cell_formula_units_Z 20
_cell_length_a 9.064568
_cell_length_b 18.643294
_cell_length_c 11.803429
_cell_angle_alpha 90.000000
_cell_angle_beta 154.538812
_cell_angle_gamma 90.000000
_cell_volume 857.521430
_symmetry_space_group_name_H-M "C M"
_symmetry_group_IT_number 8
_symmetry_cell_setting 'monoclinic'
loop_
_space_group_symop_operation_xyz
x,y,z
x,-y,z
1/2+x,1/2+y,z
1/2+x,1/2-y,z
loop_
_atom_site_type_symbol
_atom_site_label
_atom_site_fract_x
_atom_site_fract_y
_atom_site_fract_z
Si Si1 0.204480 0.880270 0.293050
Si Si2 0.210521 0.415746 0.147452
Si Si3 0.440067 0.577051 0.868404
Si Si4 0.580065 0.344880 0.607385
Si Si5 0.796674 0.787411 0.636887
O O1 0.531860 0.924500 0.565035
O O2 0.398253 0.809151 0.382436
O O3 0.947113 0.876224 0.218176
O O4 0.031096 0.914726 0.062873
O O5 0.285090 0.500000 0.195210
O O6 0.315131 0.383906 0.341176
O O7 0.822714 0.400800 0.840489
O O8 0.586133 0.500000 0.928565
O O9 0.516148 0.652466 0.857999
O O10 0.821493 0.292111 0.701109
O O11 0.397620 0.297996 0.577641
#
# Coordination Sequence:
#
# PCOD9133020 Si02
#       5
#     4   4   4   4   4
#     4  10  23  43  71 100 137 176 234 277 346 416
#     4  12  27  47  72 106 142 187 232 290 354 413
#     4  10  21  39  69 103 137 176 231 283 336 415
#     4  12  28  47  73 100 148 183 235 294 346 422
#     4  10  28  46  71 105 137 190 234 284 357 408
#
# _framework density 23.323032999999999
#
# number of rings (size 3 to 8) (size 9 to 14) (size 15 to 20)
#    1.200    0.000    0.000    4.800    8.400    1.600 
#    0.000    0.000    0.000    0.000    0.000    0.000 
#    0.000    0.000    0.000    0.000    0.000    0.000 
#
# Total GULP energy -55839.219638 kJ/mol
# GULP energy per Si atom -5583.921964 kJ/mol
# Density = 2.326995 g / cm^3
# Si number density = 23.323033 Si / 1000 Ang^3
#
#
#
# Elastic Constant Matrix: (Units=GPa)
#
#
# Indices 1 2 3 4 5 6 
#
# 1 111.2865 10.9668 45.3297 0.0009 -21.2530 0.0058
# 2 10.9668 65.4257 38.1978 0.0082 -15.4216 0.0028
# 3 45.3297 38.1978 135.1437 0.0231 -47.4569 0.0142
# 4 0.0009 0.0082 0.0231 43.0954 0.0059 -14.9399
# 5 -21.2530 -15.4216 -47.4569 0.0059 37.9040 0.0060
# 6 0.0058 0.0028 0.0142 -14.9399 0.0060 29.2567
#
#
#
# Elastic Compliance Matrix: (Units=1/GPa)
#
#
# Indices 1 2 3 4 5 6 
#
# 1 0.010566 0.000456 -0.002726 0.000000 0.002697 -0.000001
# 2 0.000456 0.018389 -0.004700 -0.000001 0.001853 -0.000001
# 3 -0.002726 -0.004700 0.015052 -0.000015 0.015405 -0.000017
# 4 0.000000 -0.000001 -0.000015 0.028196 -0.000026 0.014398
# 5 0.002697 0.001853 0.015405 -0.000026 0.047936 -0.000031
# 6 -0.000001 -0.000001 -0.000017 0.014398 -0.000031 0.041533
#
#
# Mechanical properties :
#
#
# Convention : Reuss Voigt Hill
#
# Bulk Modulus (GPa) = 33.25831 55.64938 44.45385
# Shear Modulus (GPa) = 26.93496 36.54199 31.73848
#
# Velocity S-wave (km/s) = 3.40202 3.96255 3.69293
# Velocity P-wave (km/s) = 5.45183 6.69685 6.10615
#
# Compressibility (1/GPa) = 0.03006767
#
# Stress axis : x y z
#
# Youngs Moduli (GPa) = 94.64050 54.38107 66.43789
#
# Poissons Ratio (x) = -0.02480 0.18110
# Poissons Ratio (y) = -0.04316 0.31224
# Poissons Ratio (z) = 0.25798 0.25558
#
# Static dielectric constant tensor:
#      x y z
#    x 1.859260 -0.000010 0.032770 
#    y -0.000010 1.878060 0.000000 
#    z 0.032770 0.000000 1.851800 
# 
# From -- ./inp_files/19099.got.cif
#   From: 2010.05.17/outbox.cif.g08.bks.cpg/sg8_10_cif.got.tgz:19099.got - 2010.06.03 19:46:02.
