data_PCOD9133872
_publ_section_title
;
Structure prediction by ZEFSAII (Michael W. Deem and Ramdas Pophale) SiO2 
 PCOD9133872
Probable space group: C C
;
_chemical_formula_sum "Si O2"
_cell_formula_units_Z 32
_cell_length_a 9.687213
_cell_length_b 14.043141
_cell_length_c 15.069846
_cell_angle_alpha 90.000000
_cell_angle_beta 37.381770
_cell_angle_gamma 90.000000
_cell_volume 1244.654000
_symmetry_space_group_name_H-M "C C"
_symmetry_group_IT_number 9
_symmetry_cell_setting 'monoclinic'
loop_
_space_group_symop_operation_xyz
x,y,z
x,-y,1/2+z
1/2+x,1/2+y,z
1/2+x,1/2-y,1/2+z
loop_
_atom_site_type_symbol
_atom_site_label
_atom_site_fract_x
_atom_site_fract_y
_atom_site_fract_z
Si Si1 0.745600 0.130707 0.156670
Si Si2 0.726278 0.442419 0.223271
Si Si3 0.340124 0.447021 0.994999
Si Si4 0.313835 0.379499 0.820373
Si Si5 0.384999 0.706870 0.812697
Si Si6 0.289460 0.161574 0.864713
Si Si7 0.994534 0.163234 0.570569
Si Si8 0.256529 0.987606 0.523106
O O1 0.681738 0.118513 0.293477
O O2 0.574908 0.210529 0.210615
O O3 0.010468 0.162632 0.015137
O O4 0.736769 0.035029 0.103123
O O5 0.606164 0.528655 0.336767
O O6 0.511780 0.376941 0.300493
O O7 0.844518 0.382135 0.240173
O O8 0.847833 0.471109 0.069607
O O9 0.242733 0.429421 0.947889
O O10 0.352759 0.359006 0.055380
O O11 0.358692 0.270849 0.826647
O O12 0.541793 0.431038 0.672653
O O13 0.340607 0.675610 0.735252
O O14 0.160267 0.748032 0.971002
O O15 0.371594 0.089671 0.899792
O O16 0.155498 0.072676 0.514021
#
# Coordination Sequence:
#
# PCOD9133872 Si02
#       8
#     4   4   4   4   4   4   4   4
#     4  10  20  39  62  93 117 163 213 259 313 375
#     4   9  17  34  60  83 113 161 200 247 304 360
#     4  10  20  39  61  84 131 168 196 256 327 374
#     4  10  19  35  63  89 118 164 207 255 317 373
#     4  11  23  37  68  93 121 159 225 260 299 378
#     4  10  17  34  60  91 117 152 212 251 312 367
#     4  11  21  41  62  92 125 169 207 260 314 375
#     4   9  19  35  58  85 118 162 202 250 314 366
#
# _framework density 25.709956999999999
#
# number of rings (size 3 to 8) (size 9 to 14) (size 15 to 20)
#    0.000    2.000    5.000    1.500    0.000    0.000 
#    6.750    3.750    2.750    0.000    0.000    0.000 
#    0.000    0.000    0.000    0.000    0.000    0.000 
#
# Total GULP energy -89517.521829 kJ/mol
# GULP energy per Si atom -5594.845114 kJ/mol
# Density = 2.565144 g / cm^3
# Si number density = 25.709957 Si / 1000 Ang^3
#
#
#
# Elastic Constant Matrix: (Units=GPa)
#
#
# Indices 1 2 3 4 5 6 
#
# 1 126.6521 37.4191 41.9713 -0.0024 42.9444 0.0006
# 2 37.4191 82.7067 24.5172 -0.0035 28.0991 0.0019
# 3 41.9713 24.5172 110.0986 -0.0071 36.8990 0.0044
# 4 -0.0024 -0.0035 -0.0071 38.8048 0.0041 18.7637
# 5 42.9444 28.0991 36.8990 0.0041 57.1357 -0.0016
# 6 0.0006 0.0019 0.0044 18.7637 -0.0016 24.1145
#
#
#
# Elastic Compliance Matrix: (Units=1/GPa)
#
#
# Indices 1 2 3 4 5 6 
#
# 1 0.011283 -0.002515 -0.001676 0.000001 -0.006161 -0.000001
# 2 -0.002515 0.015177 -0.000706 0.000004 -0.005118 -0.000004
# 3 -0.001676 -0.000706 0.011920 0.000006 -0.006091 -0.000007
# 4 0.000001 0.000004 0.000006 0.041314 -0.000011 -0.032147
# 5 -0.006161 -0.005118 -0.006091 -0.000011 0.028584 0.000012
# 6 -0.000001 -0.000004 -0.000007 -0.032147 0.000012 0.066483
#
#
# Mechanical properties :
#
#
# Convention : Reuss Voigt Hill
#
# Bulk Modulus (GPa) = 34.98119 58.58586 46.78353
# Shear Modulus (GPa) = 25.76198 38.38098 32.07148
#
# Velocity S-wave (km/s) = 3.16891 3.86793 3.53574
# Velocity P-wave (km/s) = 5.19855 6.54099 5.90802
#
# Compressibility (1/GPa) = 0.02858679
#
# Stress axis : x y z
#
# Youngs Moduli (GPa) = 88.62629 65.89080 83.88938
#
# Poissons Ratio (x) = 0.16569 0.14063
# Poissons Ratio (y) = 0.22287 0.05920
# Poissons Ratio (z) = 0.14858 0.04650
#
# Static dielectric constant tensor:
#      x y z
#    x 2.057930 0.000000 -0.026760 
#    y 0.000000 2.014040 0.000000 
#    z -0.026760 0.000000 2.020290 
# 
# From -- ./inp_files/24909.got.cif
#   From: 2010.05.17/outbox.cif.g08.bks.cpg/sg9_13_cif.got.tgz:24909.got - 2010.06.03 20:04:27.
