data_PCOD9133253
_publ_section_title
;
Structure prediction by ZEFSAII (Michael W. Deem and Ramdas Pophale) SiO2 
 PCOD9133253
Probable space group: C M
;
_chemical_formula_sum "Si O2"
_cell_formula_units_Z 20
_cell_length_a 14.845440
_cell_length_b 11.520566
_cell_length_c 7.686505
_cell_angle_alpha 90.000000
_cell_angle_beta 37.801284
_cell_angle_gamma 90.000000
_cell_volume 805.754929
_symmetry_space_group_name_H-M "C M"
_symmetry_group_IT_number 8
_symmetry_cell_setting 'monoclinic'
loop_
_space_group_symop_operation_xyz
x,y,z
x,-y,z
1/2+x,1/2+y,z
1/2+x,1/2-y,z
loop_
_atom_site_type_symbol
_atom_site_label
_atom_site_fract_x
_atom_site_fract_y
_atom_site_fract_z
Si Si1 0.667980 0.000000 0.589520
Si Si2 0.347718 0.500000 0.001840
Si Si3 0.905778 0.771855 0.698522
Si Si4 0.679102 0.500000 0.575939
Si Si5 0.632257 0.752119 0.636443
Si Si6 0.589296 0.743124 0.093561
Si Si7 0.489942 0.000000 0.198095
O O1 0.727234 0.867625 0.534442
O O2 0.699955 0.000000 0.336765
O O3 0.525916 0.000000 0.933380
O O4 0.357743 0.386423 0.872581
O O5 0.502570 0.500000 0.873727
O O6 0.015024 0.711189 0.668984
O O7 0.987958 0.808208 0.397313
O O8 0.756350 0.708054 0.877830
O O9 0.701268 0.630885 0.462039
O O10 0.816071 0.500000 0.498462
O O11 0.563504 0.720830 0.929163
O O12 0.561061 0.881897 0.156903
#
# Coordination Sequence:
#
# PCOD9133253 Si02
#       7
#     2   2   4   2   4   4   2
#     4  10  22  42  71 100 140 186 228 282 346 414
#     4  10  23  41  65  99 135 181 236 282 340 414
#     4  11  24  42  66  96 136 182 231 285 343 411
#     4  10  22  41  67 100 140 179 228 289 346 404
#     4  10  24  44  69 102 142 183 231 285 343 412
#     4  11  24  42  67  99 136 183 232 284 348 413
#     4  10  23  42  67 101 137 180 236 287 346 416
#
# _framework density 24.821441
#
# number of rings (size 3 to 8) (size 9 to 14) (size 15 to 20)
#    0.000    1.600    0.000    3.000    0.000   22.400 
#    0.000    2.000    0.000    1.200    0.000    0.000 
#    0.000    0.000    0.000    0.000    0.000    0.000 
#
# Total GULP energy -55674.281556 kJ/mol
# GULP energy per Si atom -5567.428156 kJ/mol
# Density = 2.476495 g / cm^3
# Si number density = 24.821441 Si / 1000 Ang^3
#
#
#
# Elastic Constant Matrix: (Units=GPa)
#
#
# Indices 1 2 3 4 5 6 
#
# 1 135.0113 13.6596 59.7727 0.0000 -8.6963 0.0000
# 2 13.6596 143.1776 7.4415 0.0000 0.7653 0.0000
# 3 59.7727 7.4415 120.5775 0.0000 19.2603 0.0000
# 4 0.0000 0.0000 0.0000 32.1906 0.0000 13.8486
# 5 -8.6963 0.7653 19.2603 0.0000 52.5009 0.0000
# 6 0.0000 0.0000 0.0000 13.8486 0.0000 23.8925
#
#
#
# Elastic Compliance Matrix: (Units=1/GPa)
#
#
# Indices 1 2 3 4 5 6 
#
# 1 0.010207 -0.000702 -0.005617 0.000000 0.003762 0.000000
# 2 -0.000702 0.007055 -0.000056 0.000000 -0.000199 0.000000
# 3 -0.005617 -0.000056 0.011929 0.000000 -0.005306 0.000000
# 4 0.000000 0.000000 0.000000 0.041385 0.000000 -0.023987
# 5 0.003762 -0.000199 -0.005306 0.000000 0.021620 0.000000
# 6 0.000000 0.000000 0.000000 -0.023987 0.000000 0.055758
#
#
# Mechanical properties :
#
#
# Convention : Reuss Voigt Hill
#
# Bulk Modulus (GPa) = 60.82260 62.27934 61.55097
# Shear Modulus (GPa) = 30.08710 42.90962 36.49836
#
# Velocity S-wave (km/s) = 3.48536 4.16231 3.83879
# Velocity P-wave (km/s) = 6.38390 6.94588 6.67081
#
# Compressibility (1/GPa) = 0.01644126
#
# Stress axis : x y z
#
# Youngs Moduli (GPa) = 97.97139 141.73824 83.82895
#
# Poissons Ratio (x) = 0.09949 0.47090
# Poissons Ratio (y) = 0.06877 0.00467
# Poissons Ratio (z) = 0.55034 0.00790
#
# Static dielectric constant tensor:
#      x y z
#    x 2.027020 0.000000 -0.024610 
#    y 0.000000 2.053040 0.000000 
#    z -0.024610 0.000000 1.967430 
# 
# From -- ./inp_files/14904.got.cif
#   From: 2010.05.17/outbox.cif.g08.bks.cpg/sg8_8_cif.got.tgz:14904.got - 2010.06.03 19:46:02.
