data_PCOD9133890
_publ_section_title
;
Structure prediction by ZEFSAII (Michael W. Deem and Ramdas Pophale) SiO2 
 PCOD9133890
Probable space group: C C
;
_chemical_formula_sum "Si O2"
_cell_formula_units_Z 32
_cell_length_a 14.279263
_cell_length_b 10.993409
_cell_length_c 18.135942
_cell_angle_alpha 90.000000
_cell_angle_beta 25.704127
_cell_angle_gamma 90.000000
_cell_volume 1234.786120
_symmetry_space_group_name_H-M "C C"
_symmetry_group_IT_number 9
_symmetry_cell_setting 'monoclinic'
loop_
_space_group_symop_operation_xyz
x,y,z
x,-y,1/2+z
1/2+x,1/2+y,z
1/2+x,1/2-y,1/2+z
loop_
_atom_site_type_symbol
_atom_site_label
_atom_site_fract_x
_atom_site_fract_y
_atom_site_fract_z
Si Si1 0.240020 0.883095 0.211380
Si Si2 0.604067 0.853736 0.048795
Si Si3 0.894549 0.642249 0.065029
Si Si4 0.021399 0.854259 0.084717
Si Si5 0.370474 0.508392 0.063331
Si Si6 0.943067 0.774004 0.902390
Si Si7 0.508272 0.933686 0.721542
Si Si8 0.378224 0.407948 0.347664
O O1 0.432788 0.804839 0.110751
O O2 0.100836 0.879265 0.234615
O O3 0.375186 0.008904 0.108981
O O4 0.051377 0.899744 0.404989
O O5 0.481557 0.936414 0.198154
O O6 0.743350 0.752016 0.991346
O O7 0.795217 0.952059 0.892530
O O8 0.656091 0.684372 0.209536
O O9 0.016834 0.664726 0.902702
O O10 0.966327 0.732854 0.077836
O O11 0.278679 0.874890 0.898519
O O12 0.185881 0.630689 0.041199
O O13 0.924838 0.965522 0.105501
O O14 0.400991 0.389908 0.986874
O O15 0.135041 0.555036 0.208750
O O16 0.417527 0.642559 0.738683
#
# Coordination Sequence:
#
# PCOD9133890 Si02
#       8
#     4   4   4   4   4   4   4   4
#     4  10  17  36  59  83 115 157 188 237 289 341
#     4   9  17  34  55  74 113 157 184 227 285 338
#     4  10  21  34  55  87 119 139 188 243 295 334
#     4  11  19  32  54  85 117 148 188 240 292 334
#     4   8  15  32  51  75 118 147 184 230 285 333
#     4   9  18  35  50  84 118 146 179 240 290 339
#     4   8  17  32  49  73 117 149 186 234 282 335
#     4   9  20  33  53  83 115 147 197 233 276 342
#
# _framework density 25.915420000000001
#
# number of rings (size 3 to 8) (size 9 to 14) (size 15 to 20)
#    0.750    2.000    3.750    0.000    1.750    1.000 
#    4.500    0.000    0.000    0.000    3.250    0.000 
#    0.000    0.000    0.000    0.000    0.000    0.000 
#
# Total GULP energy -89307.391153 kJ/mol
# GULP energy per Si atom -5581.711947 kJ/mol
# Density = 2.585643 g / cm^3
# Si number density = 25.915420 Si / 1000 Ang^3
#
#
#
# Elastic Constant Matrix: (Units=GPa)
#
#
# Indices 1 2 3 4 5 6 
#
# 1 179.3447 22.1585 75.6924 0.0030 -34.6993 0.0000
# 2 22.1585 25.2123 23.4753 -0.0113 7.2009 -0.0009
# 3 75.6924 23.4753 138.2144 -0.0192 -28.2876 0.0005
# 4 0.0030 -0.0113 -0.0192 34.6317 0.0006 -2.0576
# 5 -34.6993 7.2009 -28.2876 0.0006 56.2101 -0.0001
# 6 0.0000 -0.0009 0.0005 -2.0576 -0.0001 22.3191
#
#
#
# Elastic Compliance Matrix: (Units=1/GPa)
#
#
# Indices 1 2 3 4 5 6 
#
# 1 0.008327 -0.006291 -0.002536 -0.000004 0.004670 -0.000001
# 2 -0.006291 0.059200 -0.009985 0.000015 -0.016492 0.000004
# 3 -0.002536 -0.009985 0.011439 0.000003 0.005471 0.000000
# 4 -0.000004 0.000015 0.000003 0.029034 -0.000003 0.002677
# 5 0.004670 -0.016492 0.005471 -0.000003 0.025539 -0.000001
# 6 -0.000001 0.000004 0.000000 0.002677 -0.000001 0.045051
#
#
# Mechanical properties :
#
#
# Convention : Reuss Voigt Hill
#
# Bulk Modulus (GPa) = 24.18836 65.04709 44.61772
# Shear Modulus (GPa) = 21.73953 37.39520 29.56737
#
# Velocity S-wave (km/s) = 2.89946 3.80277 3.38141
# Velocity P-wave (km/s) = 4.53464 6.66601 5.70082
#
# Compressibility (1/GPa) = 0.04134220
#
# Stress axis : x y z
#
# Youngs Moduli (GPa) = 120.09186 16.89197 87.41652
#
# Poissons Ratio (x) = 0.10627 0.22168
# Poissons Ratio (y) = 0.75550 0.87286
# Poissons Ratio (z) = 0.30454 0.16867
#
# Static dielectric constant tensor:
#      x y z
#    x 2.063320 0.000000 -0.012880 
#    y 0.000000 2.150570 0.000000 
#    z -0.012880 0.000000 2.062000 
# 
# From -- ./inp_files/36873.got.cif
#   From: 2010.05.17/outbox.cif.g08.bks.cpg/sg9_19_cif.got.tgz:36873.got - 2010.06.03 20:04:27.
