data_PCOD9133854
_publ_section_title
;
Structure prediction by ZEFSAII (Michael W. Deem and Ramdas Pophale) SiO2 
 PCOD9133854
Probable space group: C C
;
_chemical_formula_sum "Si O2"
_cell_formula_units_Z 28
_cell_length_a 11.222933
_cell_length_b 7.376596
_cell_length_c 14.192763
_cell_angle_alpha 90.000000
_cell_angle_beta 71.904684
_cell_angle_gamma 90.000000
_cell_volume 1116.863844
_symmetry_space_group_name_H-M "C C"
_symmetry_group_IT_number 9
_symmetry_cell_setting 'monoclinic'
loop_
_space_group_symop_operation_xyz
x,y,z
x,-y,1/2+z
1/2+x,1/2+y,z
1/2+x,1/2-y,1/2+z
loop_
_atom_site_type_symbol
_atom_site_label
_atom_site_fract_x
_atom_site_fract_y
_atom_site_fract_z
Si Si1 0.283600 0.262032 0.877010
Si Si2 0.673274 0.394409 0.735730
Si Si3 0.108525 0.890162 0.551841
Si Si4 0.499885 0.666264 0.461503
Si Si5 0.227291 0.272556 0.501019
Si Si6 0.889718 0.364551 0.801391
Si Si7 0.184564 0.328264 0.714778
O O1 0.368240 0.311733 0.945141
O O2 0.265405 0.379844 0.787141
O O3 0.341432 0.068542 0.832909
O O4 0.147818 0.241637 0.958550
O O5 0.609311 0.316936 0.656980
O O6 0.589048 0.371599 0.849002
O O7 0.810859 0.316530 0.726115
O O8 0.681221 0.609338 0.720433
O O9 0.212101 0.054334 0.524902
O O10 0.994471 0.006192 0.539761
O O11 0.588727 0.815554 0.491123
O O12 0.337818 0.269619 0.396659
O O13 0.235264 0.370037 0.598671
O O14 0.038138 0.375943 0.758408
#
# Coordination Sequence:
#
# PCOD9133854 Si02
#       7
#     4   4   4   4   4   4   4
#     4  10  19  34  53  79 109 138 182 222 268 329
#     4   9  17  33  53  82 101 139 186 218 271 324
#     4   8  16  30  54  77  99 141 183 211 274 316
#     4   9  17  33  53  79 108 137 175 227 264 319
#     4   7  16  32  50  80 103 135 186 212 266 318
#     4   9  18  33  55  80 109 143 178 224 272 315
#     4  10  17  33  56  79 107 145 180 222 273 321
#
# _framework density 25.070201000000001
#
# number of rings (size 3 to 8) (size 9 to 14) (size 15 to 20)
#    0.857    2.286    2.857    0.000    2.000    0.000 
#    2.571    2.857    0.000    1.714    0.000    0.000 
#    0.000    0.000    0.000    0.000    0.000    0.000 
#
# Total GULP energy -77953.532498 kJ/mol
# GULP energy per Si atom -5568.109464 kJ/mol
# Density = 2.501314 g / cm^3
# Si number density = 25.070201 Si / 1000 Ang^3
#
#
#
# Elastic Constant Matrix: (Units=GPa)
#
#
# Indices 1 2 3 4 5 6 
#
# 1 118.9690 26.3173 64.9086 0.0000 17.7903 0.0000
# 2 26.3173 46.2387 26.8046 0.0000 6.5121 0.0000
# 3 64.9086 26.8046 132.6771 0.0000 42.0440 0.0000
# 4 0.0000 0.0000 0.0000 12.0585 0.0000 4.7085
# 5 17.7903 6.5121 42.0440 0.0000 47.5704 0.0000
# 6 0.0000 0.0000 0.0000 4.7085 0.0000 10.8736
#
#
#
# Elastic Compliance Matrix: (Units=1/GPa)
#
#
# Indices 1 2 3 4 5 6 
#
# 1 0.012076 -0.003869 -0.005366 0.000000 0.000756 0.000000
# 2 -0.003869 0.025804 -0.003694 0.000000 0.001179 0.000000
# 3 -0.005366 -0.003694 0.014046 0.000000 -0.009902 0.000000
# 4 0.000000 0.000000 0.000000 0.099804 0.000000 -0.043217
# 5 0.000756 0.001179 -0.009902 0.000000 0.029329 0.000000
# 6 0.000000 0.000000 0.000000 -0.043217 0.000000 0.110679
#
#
# Mechanical properties :
#
#
# Convention : Reuss Voigt Hill
#
# Bulk Modulus (GPa) = 38.35999 59.32733 48.84366
# Shear Modulus (GPa) = 15.32395 26.09077 20.70736
#
# Velocity S-wave (km/s) = 2.47501 3.22950 2.87710
# Velocity P-wave (km/s) = 4.84787 6.13369 5.52829
#
# Compressibility (1/GPa) = 0.02606883
#
# Stress axis : x y z
#
# Youngs Moduli (GPa) = 82.80976 38.75299 71.19318
#
# Poissons Ratio (x) = 0.14994 0.38200
# Poissons Ratio (y) = 0.32040 0.26300
# Poissons Ratio (z) = 0.44433 0.14316
#
# Static dielectric constant tensor:
#      x y z
#    x 2.073290 0.000000 0.060230 
#    y 0.000000 2.035760 0.000000 
#    z 0.060230 0.000000 2.041120 
# 
# From -- ./inp_files/24168.got.cif
#   From: 2010.05.17/outbox.cif.g08.bks.cpg/sg9_13_cif.got.tgz:24168.got - 2010.06.03 20:04:27.
