data_PCOD9133955
_publ_section_title
;
Structure prediction by ZEFSAII (Michael W. Deem and Ramdas Pophale) SiO2 
 PCOD9133955
Probable space group: C C
;
_chemical_formula_sum "Si O2"
_cell_formula_units_Z 32
_cell_length_a 13.888651
_cell_length_b 5.331112
_cell_length_c 18.533912
_cell_angle_alpha 90.000000
_cell_angle_beta 68.000650
_cell_angle_gamma 90.000000
_cell_volume 1272.368238
_symmetry_space_group_name_H-M "C C"
_symmetry_group_IT_number 9
_symmetry_cell_setting 'monoclinic'
loop_
_space_group_symop_operation_xyz
x,y,z
x,-y,1/2+z
1/2+x,1/2+y,z
1/2+x,1/2-y,1/2+z
loop_
_atom_site_type_symbol
_atom_site_label
_atom_site_fract_x
_atom_site_fract_y
_atom_site_fract_z
Si Si1 0.151560 0.401944 0.442740
Si Si2 0.914729 0.152142 0.942644
Si Si3 0.600014 0.613619 0.005421
Si Si4 0.232514 0.626594 0.275378
Si Si5 0.403528 0.136576 0.005352
Si Si6 0.281135 0.134688 0.180713
Si Si7 0.501225 0.877706 0.775359
Si Si8 0.047173 0.885774 0.680747
O O1 0.152765 0.617643 0.501620
O O2 0.219909 0.527827 0.360792
O O3 0.028068 0.380603 0.457817
O O4 0.171595 0.122553 0.464975
O O5 0.928450 0.278101 0.860678
O O6 0.854598 0.367861 0.001489
O O7 0.023066 0.130832 0.957834
O O8 0.872420 0.872780 0.964894
O O9 0.538654 0.594472 0.097137
O O10 0.285321 0.396029 0.220878
O O11 0.114266 0.624444 0.280574
O O12 0.277516 0.896188 0.236928
O O13 0.373155 0.155404 0.097079
O O14 0.169960 0.124541 0.169107
O O15 0.503043 0.647593 0.720656
O O16 0.494542 0.147622 0.737124
#
# Coordination Sequence:
#
# PCOD9133955 Si02
#       8
#     4   4   4   4   4   4   4   4
#     4  10  19  32  57  79 101 137 186 220 263 306
#     4  10  19  32  57  79 101 137 186 220 263 306
#     4  10  19  32  51  84 106 136 172 233 260 315
#     4  10  18  32  51  80 105 134 180 225 256 307
#     4  10  19  32  51  84 106 136 172 233 260 315
#     4  10  21  32  51  81 114 136 171 220 279 314
#     4  10  18  32  51  80 105 134 180 225 256 307
#     4  10  21  32  51  81 114 136 171 220 279 314
#
# _framework density 25.149953
#
# number of rings (size 3 to 8) (size 9 to 14) (size 15 to 20)
#    0.000    2.000    2.500    3.000    7.000    0.000 
#    0.000    0.000    0.000    0.000   65.000    0.000 
#    0.000    0.000    0.000    0.000    0.000    0.000 
#
# Total GULP energy -89239.706066 kJ/mol
# GULP energy per Si atom -5577.481629 kJ/mol
# Density = 2.509271 g / cm^3
# Si number density = 25.149953 Si / 1000 Ang^3
#
#
#
# Elastic Constant Matrix: (Units=GPa)
#
#
# Indices 1 2 3 4 5 6 
#
# 1 112.2212 -12.6229 -19.0091 0.0000 0.1349 -0.0002
# 2 -12.6229 223.9134 41.6277 -0.0005 -0.3488 -0.0005
# 3 -19.0091 41.6277 158.0740 -0.0003 -0.3075 -0.0002
# 4 0.0000 -0.0005 -0.0003 55.6525 0.0003 0.0488
# 5 0.1349 -0.3488 -0.3075 0.0003 102.8640 -0.0006
# 6 -0.0002 -0.0005 -0.0002 0.0488 -0.0006 -37.0649
#
#
#
# Elastic Compliance Matrix: (Units=1/GPa)
#
#
# Indices 1 2 3 4 5 6 
#
# 1 0.009119 0.000326 0.001011 0.000000 -0.000008 0.000000
# 2 0.000326 0.004708 -0.001200 0.000000 0.000012 0.000000
# 3 0.001011 -0.001200 0.006764 0.000000 0.000015 0.000000
# 4 0.000000 0.000000 0.000000 0.017969 0.000000 0.000024
# 5 -0.000008 0.000012 0.000015 0.000000 0.009722 0.000000
# 6 0.000000 0.000000 0.000000 0.000024 0.000000 -0.026980
#
#
# Mechanical properties :
#
#
# Convention : Reuss Voigt Hill
#
# Bulk Modulus (GPa) = 47.93160 57.13331 52.53245
# Shear Modulus (GPa) = 178.68300 56.57120 117.62710
#
# Velocity S-wave (km/s) = 8.43809 4.74788 6.84630
# Velocity P-wave (km/s) = 10.67871 7.26794 9.13394
#
# Compressibility (1/GPa) = 0.02086306
#
# Stress axis : x y z
#
# Youngs Moduli (GPa) = 109.66271 212.42262 147.84476
#
# Poissons Ratio (x) = -0.06928 -0.14942
# Poissons Ratio (y) = -0.03577 0.17748
# Poissons Ratio (z) = -0.11083 0.25501
#
# Static dielectric constant tensor:
#      x y z
#    x 1.565000 0.000000 -0.002850 
#    y 0.000000 2.028420 0.000000 
#    z -0.002850 0.000000 2.042240 
# 
# From -- ./inp_files/13657.got.cif
#   From: 2010.05.17/outbox.cif.g08.bks.cpg/sg9_7_cif.got.tgz:13657.got - 2010.06.03 20:04:27.
