data_PCOD9133183
_publ_section_title
;
Structure prediction by ZEFSAII (Michael W. Deem and Ramdas Pophale) SiO2 
 PCOD9133183
Probable space group: C M
;
_chemical_formula_sum "Si O2"
_cell_formula_units_Z 28
_cell_length_a 7.430349
_cell_length_b 32.556455
_cell_length_c 5.200576
_cell_angle_alpha 90.000000
_cell_angle_beta 90.680329
_cell_angle_gamma 90.000000
_cell_volume 1257.960931
_symmetry_space_group_name_H-M "C M"
_symmetry_group_IT_number 8
_symmetry_cell_setting 'monoclinic'
loop_
_space_group_symop_operation_xyz
x,y,z
x,-y,z
1/2+x,1/2+y,z
1/2+x,1/2-y,z
loop_
_atom_site_type_symbol
_atom_site_label
_atom_site_fract_x
_atom_site_fract_y
_atom_site_fract_z
Si Si1 0.976810 0.544078 0.189010
Si Si2 0.329216 0.371293 0.904681
Si Si3 0.724140 0.044624 0.691348
Si Si4 0.541114 0.717563 0.411454
Si Si5 0.173156 0.176233 0.925109
Si Si6 0.653043 0.806456 0.533440
Si Si7 0.974708 0.631083 0.189289
O O1 0.879398 0.500000 0.210878
O O2 0.878808 0.587484 0.229919
O O3 0.128540 0.544174 0.413832
O O4 0.068274 0.545076 0.908512
O O5 0.330356 0.412777 0.733911
O O6 0.526441 0.358638 0.993482
O O7 0.247285 0.330440 0.768196
O O8 0.179494 0.379558 0.115484
O O9 0.819016 0.000000 0.724881
O O10 0.632054 0.689782 0.634735
O O11 0.553098 0.762888 0.535477
O O12 0.333167 0.704372 0.371034
O O13 0.638326 0.711698 0.138395
O O14 0.367102 0.156998 0.977354
O O15 0.510067 0.838612 0.422244
#
# Coordination Sequence:
#
# PCOD9133183 Si02
#       7
#     4   4   4   4   4   4   4
#     4   9  18  33  56  89 116 150 195 236 287 351
#     4  10  22  40  59  90 119 158 197 248 289 362
#     4   9  17  32  58  85 115 151 192 237 290 348
#     4  11  26  42  59  89 121 156 199 256 288 358
#     4  11  26  41  60  90 123 153 204 244 296 348
#     4  11  23  40  63  84 122 155 204 244 304 345
#     4  11  22  38  65  87 118 165 191 249 294 356
#
# _framework density 22.258246
#
# number of rings (size 3 to 8) (size 9 to 14) (size 15 to 20)
#    0.000    1.714    2.857    0.857    6.000    1.143 
#    0.000    0.714    0.000    0.000    0.000   12.000 
#    0.000    0.000    0.000    0.000    0.000    0.000 
#
# Total GULP energy -78005.394249 kJ/mol
# GULP energy per Si atom -5571.813875 kJ/mol
# Density = 2.220758 g / cm^3
# Si number density = 22.258246 Si / 1000 Ang^3
#
#
#
# Elastic Constant Matrix: (Units=GPa)
#
#
# Indices 1 2 3 4 5 6 
#
# 1 50.1842 6.9783 16.1582 0.0000 -1.2003 0.0000
# 2 6.9783 133.9376 10.1990 0.0000 1.8481 0.0000
# 3 16.1582 10.1990 77.4218 0.0000 7.4445 0.0000
# 4 0.0000 0.0000 0.0000 19.6500 0.0000 -1.6686
# 5 -1.2003 1.8481 7.4445 0.0000 15.6803 0.0000
# 6 0.0000 0.0000 0.0000 -1.6686 0.0000 3.0647
#
#
#
# Elastic Compliance Matrix: (Units=1/GPa)
#
#
# Indices 1 2 3 4 5 6 
#
# 1 0.021685 -0.000820 -0.004806 0.000000 0.004038 0.000000
# 2 -0.000820 0.007576 -0.000770 0.000000 -0.000590 0.000000
# 3 -0.004806 -0.000770 0.014719 0.000000 -0.007265 0.000000
# 4 0.000000 0.000000 0.000000 0.053357 0.000000 0.029051
# 5 0.004038 -0.000590 -0.007265 0.000000 0.067603 0.000000
# 6 0.000000 0.000000 0.000000 0.029051 0.000000 0.342114
#
#
# Mechanical properties :
#
#
# Convention : Reuss Voigt Hill
#
# Bulk Modulus (GPa) = 32.06351 36.46830 34.26590
# Shear Modulus (GPa) = 9.42968 22.89287 16.16127
#
# Velocity S-wave (km/s) = 2.06051 3.21052 2.69751
# Velocity P-wave (km/s) = 4.48301 5.49209 5.01300
#
# Compressibility (1/GPa) = 0.03118810
#
# Stress axis : x y z
#
# Youngs Moduli (GPa) = 46.11573 132.00190 67.93774
#
# Poissons Ratio (x) = 0.10818 0.32651
# Poissons Ratio (y) = 0.03779 0.05233
# Poissons Ratio (z) = 0.22163 0.10167
#
# Static dielectric constant tensor:
#      x y z
#    x 1.825760 0.000000 -0.057640 
#    y 0.000000 1.968330 0.000000 
#    z -0.057640 0.000000 1.826980 
# 
# From -- ./inp_files/1862.got.cif
#   From: 2010.05.17/outbox.cif.g08.bks.cpg/sg8_1_cif.got.tgz:1862.got - 2010.06.03 19:46:02.
