data_PCOD9133919
_publ_section_title
;
Structure prediction by ZEFSAII (Michael W. Deem and Ramdas Pophale) SiO2 
 PCOD9133919
Probable space group: C C
;
_chemical_formula_sum "Si O2"
_cell_formula_units_Z 28
_cell_length_a 9.735245
_cell_length_b 27.223320
_cell_length_c 5.299067
_cell_angle_alpha 90.000000
_cell_angle_beta 110.073703
_cell_angle_gamma 90.000000
_cell_volume 1319.074906
_symmetry_space_group_name_H-M "C C"
_symmetry_group_IT_number 9
_symmetry_cell_setting 'monoclinic'
loop_
_space_group_symop_operation_xyz
x,y,z
x,-y,1/2+z
1/2+x,1/2+y,z
1/2+x,1/2-y,1/2+z
loop_
_atom_site_type_symbol
_atom_site_label
_atom_site_fract_x
_atom_site_fract_y
_atom_site_fract_z
Si Si1 0.065260 0.517945 0.621000
Si Si2 0.755859 0.699327 0.700255
Si Si3 0.888036 0.024811 0.273559
Si Si4 0.937806 0.715152 0.331938
Si Si5 0.959758 0.175877 0.678772
Si Si6 0.758855 0.108414 0.883263
Si Si7 0.197417 0.693753 0.189976
O O1 0.984688 0.502369 0.316334
O O2 0.215182 0.486197 0.705734
O O3 0.135711 0.572037 0.689863
O O4 0.860301 0.692377 0.526964
O O5 0.622423 0.663861 0.688553
O O6 0.675928 0.751154 0.577796
O O7 0.844713 0.705678 0.017237
O O8 0.947999 0.011041 0.588176
O O9 0.870017 0.078263 0.138947
O O10 0.959042 0.774662 0.354154
O O11 0.094663 0.691465 0.370268
O O12 0.866795 0.133397 0.751445
O O13 0.864794 0.190415 0.376912
O O14 0.674247 0.149963 0.985304
#
# Coordination Sequence:
#
# PCOD9133919 Si02
#       7
#     4   4   4   4   4   4   4
#     4   8  16  28  42  64 104 132 146 194 268 312
#     4  10  22  39  50  68 106 145 173 206 261 298
#     4   8  16  28  42  64 104 132 146 194 268 312
#     4  10  22  39  50  68 106 145 173 206 261 298
#     4  10  22  31  54  76 101 133 180 219 247 294
#     4  10  18  28  48  76 102 128 172 208 254 298
#     4  10  22  31  54  76 101 133 180 219 247 294
#
# _framework density 21.226997999999998
#
# number of rings (size 3 to 8) (size 9 to 14) (size 15 to 20)
#    0.000    2.857    1.429    0.000   12.000    3.429 
#    0.000    0.000    0.000    0.000    0.000    0.000 
#    0.000   61.714    0.000    0.000    0.000    0.000 
#
# Total GULP energy -77952.248436 kJ/mol
# GULP energy per Si atom -5568.017745 kJ/mol
# Density = 2.117868 g / cm^3
# Si number density = 21.226998 Si / 1000 Ang^3
#
#
#
# Elastic Constant Matrix: (Units=GPa)
#
#
# Indices 1 2 3 4 5 6 
#
# 1 64.9785 0.1358 27.0742 0.0000 -13.7795 0.0000
# 2 0.1358 56.0398 14.5637 0.0000 -4.4985 0.0000
# 3 27.0742 14.5637 114.5878 0.0000 -29.9196 0.0000
# 4 0.0000 0.0000 0.0000 27.1805 0.0000 -16.3065
# 5 -13.7795 -4.4985 -29.9196 0.0000 28.3976 0.0000
# 6 0.0000 0.0000 0.0000 -16.3065 0.0000 3.0184
#
#
#
# Elastic Compliance Matrix: (Units=1/GPa)
#
#
# Indices 1 2 3 4 5 6 
#
# 1 0.017805 0.001161 -0.002829 0.000000 0.005843 0.000000
# 2 0.001161 0.018538 -0.002368 0.000000 0.001005 0.000000
# 3 -0.002829 -0.002368 0.012746 0.000000 0.011682 0.000000
# 4 0.000000 0.000000 0.000000 -0.016416 0.000000 -0.088689
# 5 0.005843 0.001005 0.011682 0.000000 0.050517 0.000000
# 6 0.000000 0.000000 0.000000 -0.088689 0.000000 -0.147832
#
#
# Mechanical properties :
#
#
# Convention : Reuss Voigt Hill
#
# Bulk Modulus (GPa) = 24.37963 35.46149 29.92056
# Shear Modulus (GPa) = -116.55466 24.64146 -45.95660
#
# Velocity S-wave (km/s) = -7.41808 3.41083 -4.65801
# Velocity P-wave (km/s) = 7.86514 5.67924 3.84751
#
# Compressibility (1/GPa) = 0.04101784
#
# Stress axis : x y z
#
# Youngs Moduli (GPa) = 56.16391 53.94407 78.45315
#
# Poissons Ratio (x) = -0.06263 0.22192
# Poissons Ratio (y) = -0.06521 0.18578
# Poissons Ratio (z) = 0.15887 0.12774
#
# Static dielectric constant tensor:
#      x y z
#    x 1.769540 0.000000 -0.021500 
#    y 0.000000 1.843910 0.000000 
#    z -0.021500 0.000000 1.960970 
# 
# From -- ./inp_files/972.got.cif
#   From: 2010.05.17/outbox.cif.g08.bks.cpg/sg9_1_cif.got.tgz:972.got - 2010.06.03 20:04:27.
