data_PCOD9133051
_publ_section_title
;
Structure prediction by ZEFSAII (Michael W. Deem and Ramdas Pophale) SiO2 
 PCOD9133051
Probable space group: C M
;
_chemical_formula_sum "Si O2"
_cell_formula_units_Z 32
_cell_length_a 17.695628
_cell_length_b 13.855398
_cell_length_c 12.251715
_cell_angle_alpha 90.000000
_cell_angle_beta 152.889784
_cell_angle_gamma 90.000000
_cell_volume 1368.876780
_symmetry_space_group_name_H-M "C M"
_symmetry_group_IT_number 8
_symmetry_cell_setting 'monoclinic'
loop_
_space_group_symop_operation_xyz
x,y,z
x,-y,z
1/2+x,1/2+y,z
1/2+x,1/2-y,z
loop_
_atom_site_type_symbol
_atom_site_label
_atom_site_fract_x
_atom_site_fract_y
_atom_site_fract_z
Si Si1 0.057960 0.609035 0.963370
Si Si2 0.176675 0.386570 0.878592
Si Si3 0.877415 0.890258 0.512118
Si Si4 0.741018 0.111371 0.570735
Si Si5 0.051631 0.804475 0.069369
Si Si6 0.235527 0.888682 0.933540
Si Si7 0.477278 0.256560 0.208480
Si Si8 0.361197 0.887593 0.344234
O O1 0.990963 0.500000 0.897918
O O2 0.067132 0.628395 0.846682
O O3 0.249542 0.606360 0.249683
O O4 0.990870 0.700883 0.942770
O O5 0.218897 0.500000 0.928443
O O6 0.051912 0.365091 0.618071
O O7 0.346784 0.326467 0.099914
O O8 0.780137 0.859968 0.495086
O O9 0.051685 0.844557 0.705828
O O10 0.926953 0.000000 0.605903
O O11 0.616822 0.194979 0.450273
O O12 0.677315 0.000000 0.494441
O O13 0.915902 0.118882 0.855237
O O14 0.054198 0.807694 0.202679
O O15 0.229299 0.826113 0.243773
O O16 0.232005 0.000000 0.895446
O O17 0.354660 0.828686 0.009411
O O18 0.310356 0.880865 0.152175
O O19 0.338665 0.000000 0.346864
#
# Coordination Sequence:
#
# PCOD9133051 Si02
#       8
#     4   4   4   4   4   4   4   4
#     4  10  22  41  66  92 128 177 226 276 331 396
#     4  10  25  45  64  92 136 181 224 275 338 409
#     4   9  18  38  67  91 121 168 227 282 322 379
#     4  11  24  45  67 100 139 176 226 284 341 399
#     4  12  25  39  68 101 133 174 225 280 342 400
#     4  10  21  40  67  98 127 171 232 286 335 391
#     4  12  27  39  62 100 140 177 212 271 351 408
#     4  10  22  43  70  96 126 176 235 286 329 396
#
# _framework density 23.376830999999999
#
# number of rings (size 3 to 8) (size 9 to 14) (size 15 to 20)
#    0.000    1.500    2.500    1.500    5.250    2.500 
#    0.000    0.625    0.000    0.000    0.000    0.000 
#    0.000    0.000    0.000    0.000    0.000    0.000 
#
# Total GULP energy -89360.707543 kJ/mol
# GULP energy per Si atom -5585.044221 kJ/mol
# Density = 2.332362 g / cm^3
# Si number density = 23.376831 Si / 1000 Ang^3
#
#
#
# Elastic Constant Matrix: (Units=GPa)
#
#
# Indices 1 2 3 4 5 6 
#
# 1 47.4652 14.8530 -5.9854 0.0000 3.7178 0.0000
# 2 14.8530 105.2385 4.5868 0.0000 10.7376 0.0000
# 3 -5.9854 4.5868 63.6023 0.0000 6.2581 0.0000
# 4 0.0000 0.0000 0.0000 31.7408 0.0000 13.3492
# 5 3.7178 10.7376 6.2581 0.0000 33.5241 0.0000
# 6 0.0000 0.0000 0.0000 13.3492 0.0000 25.9140
#
#
#
# Elastic Compliance Matrix: (Units=1/GPa)
#
#
# Indices 1 2 3 4 5 6 
#
# 1 0.022508 -0.003085 0.002536 0.000000 -0.001981 0.000000
# 2 -0.003085 0.010256 -0.000754 0.000000 -0.002802 0.000000
# 3 0.002536 -0.000754 0.016319 0.000000 -0.003086 0.000000
# 4 0.000000 0.000000 0.000000 0.040219 0.000000 -0.020718
# 5 -0.001981 -0.002802 -0.003086 0.000000 0.031523 0.000000
# 6 0.000000 0.000000 0.000000 -0.020718 0.000000 0.049262
#
#
# Mechanical properties :
#
#
# Convention : Reuss Voigt Hill
#
# Bulk Modulus (GPa) = 21.51616 27.02388 24.27002
# Shear Modulus (GPa) = 26.56932 31.75921 29.16427
#
# Velocity S-wave (km/s) = 3.37496 3.68989 3.53593
# Velocity P-wave (km/s) = 4.94076 5.45334 5.20337
#
# Compressibility (1/GPa) = 0.04647670
#
# Stress axis : x y z
#
# Youngs Moduli (GPa) = 44.42784 97.49980 61.27683
#
# Poissons Ratio (x) = 0.30080 -0.15538
# Poissons Ratio (y) = 0.13707 0.04622
# Poissons Ratio (z) = -0.11265 0.07354
#
# Static dielectric constant tensor:
#      x y z
#    x 1.874840 0.000000 0.018680 
#    y 0.000000 1.975080 0.000000 
#    z 0.018680 0.000000 1.899730 
# 
# From -- ./inp_files/23340.got.cif
#   From: 2010.05.17/outbox.cif.g08.bks.cpg/sg8_12_cif.got.tgz:23340.got - 2010.06.03 19:46:02.
