data_PCOD9133465
_publ_section_title
;
Structure prediction by ZEFSAII (Michael W. Deem and Ramdas Pophale) SiO2 
 PCOD9133465
Probable space group: C M
;
_chemical_formula_sum "Si O2"
_cell_formula_units_Z 18
_cell_length_a 8.841613
_cell_length_b 19.191119
_cell_length_c 4.868638
_cell_angle_alpha 90.000000
_cell_angle_beta 117.704969
_cell_angle_gamma 90.000000
_cell_volume 731.401589
_symmetry_space_group_name_H-M "C M"
_symmetry_group_IT_number 8
_symmetry_cell_setting 'monoclinic'
loop_
_space_group_symop_operation_xyz
x,y,z
x,-y,z
1/2+x,1/2+y,z
1/2+x,1/2-y,z
loop_
_atom_site_type_symbol
_atom_site_label
_atom_site_fract_x
_atom_site_fract_y
_atom_site_fract_z
Si Si1 0.944870 0.627384 0.539090
Si Si2 0.072995 0.129171 0.014416
Si Si3 0.863252 0.000000 0.033091
Si Si4 0.952799 0.790327 0.421913
Si Si5 0.657925 0.890310 0.232200
O O1 0.755747 0.607319 0.289752
O O2 0.963770 0.709075 0.487315
O O3 0.084506 0.588458 0.465711
O O4 0.994611 0.615839 0.894601
O O5 0.079451 0.165146 0.723179
O O6 0.953822 0.061931 0.924899
O O7 0.992844 0.188081 0.145685
O O8 0.784702 0.059203 0.179757
O O9 0.764342 0.818655 0.339759
#
# Coordination Sequence:
#
# PCOD9133465 Si02
#       5
#     4   4   2   4   4
#     4  12  23  41  67 102 125 163 220 273 321 372
#     4  11  25  41  68  93 133 172 210 269 317 389
#     4  10  26  48  62  92 132 182 222 250 332 384
#     4  11  22  42  66  98 132 168 206 263 337 387
#     4  11  25  41  68  92 132 173 211 268 315 389
#
# _framework density 24.610284
#
# number of rings (size 3 to 8) (size 9 to 14) (size 15 to 20)
#    0.000    0.889    0.000    8.000    0.000    9.778 
#    0.000    0.000    0.000    0.000    0.000    0.000 
#    0.000    0.000    0.000    0.000    0.000    0.000 
#
# Total GULP energy -50185.485589 kJ/mol
# GULP energy per Si atom -5576.165065 kJ/mol
# Density = 2.455427 g / cm^3
# Si number density = 24.610284 Si / 1000 Ang^3
#
#
#
# Elastic Constant Matrix: (Units=GPa)
#
#
# Indices 1 2 3 4 5 6 
#
# 1 59.0953 -19.5143 4.3548 0.0000 5.7734 0.0000
# 2 -19.5143 102.4145 -17.0623 0.0000 -11.3510 0.0000
# 3 4.3548 -17.0623 116.4021 0.0000 7.8485 0.0000
# 4 0.0000 0.0000 0.0000 12.1313 0.0000 13.4507
# 5 5.7734 -11.3510 7.8485 0.0000 45.8125 0.0000
# 6 0.0000 0.0000 0.0000 13.4507 0.0000 27.6178
#
#
#
# Elastic Compliance Matrix: (Units=1/GPa)
#
#
# Indices 1 2 3 4 5 6 
#
# 1 0.018155 0.003281 -0.000100 0.000000 -0.001458 0.000000
# 2 0.003281 0.010837 0.001328 0.000000 0.002044 0.000000
# 3 -0.000100 0.001328 0.008869 0.000000 -0.001178 0.000000
# 4 0.000000 0.000000 0.000000 0.179198 0.000000 -0.087274
# 5 -0.001458 0.002044 -0.001178 0.000000 0.022720 0.000000
# 6 0.000000 0.000000 0.000000 -0.087274 0.000000 0.078714
#
#
# Mechanical properties :
#
#
# Convention : Reuss Voigt Hill
#
# Bulk Modulus (GPa) = 21.33147 23.71871 22.52509
# Shear Modulus (GPa) = 15.37985 37.78790 26.58387
#
# Velocity S-wave (km/s) = 2.50258 3.92273 3.29020
# Velocity P-wave (km/s) = 4.12760 5.49325 4.85865
#
# Compressibility (1/GPa) = 0.04687910
#
# Stress axis : x y z
#
# Youngs Moduli (GPa) = 55.08102 92.27460 112.75598
#
# Poissons Ratio (x) = -0.30276 0.01127
# Poissons Ratio (y) = -0.18072 -0.14973
# Poissons Ratio (z) = 0.00551 -0.12254
#
# Static dielectric constant tensor:
#      x y z
#    x 1.916890 0.000000 0.074420 
#    y 0.000000 1.776950 0.000000 
#    z 0.074420 0.000000 1.962360 
# 
# From -- ./inp_files/1243.got.cif
#   From: 2010.05.17/outbox.cif.g08.bks.cpg/sg8_1_cif.got.tgz:1243.got - 2010.06.03 19:46:02.
