data_PCOD9134659
_publ_section_title
;
Structure prediction by ZEFSAII (Michael W. Deem and Ramdas Pophale) SiO2 
 PCOD9134659
Probable space group: C C
;
_chemical_formula_sum "Si O2"
_cell_formula_units_Z 28
_cell_length_a 12.715612
_cell_length_b 20.651767
_cell_length_c 8.499799
_cell_angle_alpha 90.000000
_cell_angle_beta 134.165817
_cell_angle_gamma 90.000000
_cell_volume 1601.105548
_symmetry_space_group_name_H-M "C C"
_symmetry_group_IT_number 9
_symmetry_cell_setting 'monoclinic'
loop_
_space_group_symop_operation_xyz
x,y,z
x,-y,1/2+z
1/2+x,1/2+y,z
1/2+x,1/2-y,1/2+z
loop_
_atom_site_type_symbol
_atom_site_label
_atom_site_fract_x
_atom_site_fract_y
_atom_site_fract_z
Si Si1 0.701120 0.808967 0.138200
Si Si2 0.529310 0.080824 0.619941
Si Si3 0.341691 0.256987 0.738228
Si Si4 0.586615 0.182720 0.165781
Si Si5 0.007486 0.802273 0.596905
Si Si6 0.751430 0.626537 0.479168
Si Si7 0.468922 0.054358 0.894221
O O1 0.649631 0.876213 0.162253
O O2 0.623332 0.751385 0.156518
O O3 0.875822 0.805237 0.335612
O O4 0.644195 0.808009 0.901123
O O5 0.383340 0.124926 0.489558
O O6 0.487314 0.015549 0.486663
O O7 0.566706 0.062366 0.838594
O O8 0.220263 0.303852 0.684432
O O9 0.428255 0.283708 0.677861
O O10 0.264464 0.191401 0.596086
O O11 0.460145 0.234050 0.990000
O O12 0.517952 0.111762 0.061819
O O13 0.098939 0.867536 0.730166
O O14 0.805648 0.569497 0.653230
#
# Coordination Sequence:
#
# PCOD9134659 Si02
#       7
#     4   4   4   4   4   4   4
#     4  12  22  33  59  91 122 159 192 261 295 374
#     4  10  19  39  61  86 112 160 208 242 296 353
#     4  11  18  36  57  84 121 151 195 241 305 366
#     4  11  22  34  55  92 120 155 197 248 311 348
#     4  12  19  37  58  88 121 154 202 235 323 357
#     4   9  20  34  62  87 108 160 190 247 299 351
#     4   9  20  37  62  84 112 157 210 240 293 361
#
# _framework density 17.487916999999999
#
# number of rings (size 3 to 8) (size 9 to 14) (size 15 to 20)
#    0.857    0.571    4.286    2.571    0.000    0.000 
#    0.000    0.000    9.429    0.000    0.000    0.000 
#    0.000    0.000    0.000    0.000    0.000    0.000 
#
# Total GULP energy -77959.011002 kJ/mol
# GULP energy per Si atom -5568.500786 kJ/mol
# Density = 1.744811 g / cm^3
# Si number density = 17.487917 Si / 1000 Ang^3
#
#
#
# Elastic Constant Matrix: (Units=GPa)
#
#
# Indices 1 2 3 4 5 6 
#
# 1 41.7151 8.1775 13.2742 0.0000 -3.3416 0.0000
# 2 8.1775 61.6533 23.9944 0.0000 0.1222 0.0000
# 3 13.2742 23.9944 121.7305 0.0000 0.9207 0.0000
# 4 0.0000 0.0000 0.0000 24.5392 0.0000 -7.5962
# 5 -3.3416 0.1222 0.9207 0.0000 29.4749 0.0000
# 6 0.0000 0.0000 0.0000 -7.5962 0.0000 15.7237
#
#
#
# Elastic Compliance Matrix: (Units=1/GPa)
#
#
# Indices 1 2 3 4 5 6 
#
# 1 0.025430 -0.002481 -0.002306 0.000000 0.002965 0.000000
# 2 -0.002481 0.017809 -0.003238 0.000000 -0.000254 0.000000
# 3 -0.002306 -0.003238 0.009109 0.000000 -0.000533 0.000000
# 4 0.000000 0.000000 0.000000 0.047917 0.000000 0.023149
# 5 0.002965 -0.000254 -0.000533 0.000000 0.034281 0.000000
# 6 0.000000 0.000000 0.000000 0.023149 0.000000 0.074781
#
#
# Mechanical properties :
#
#
# Convention : Reuss Voigt Hill
#
# Bulk Modulus (GPa) = 27.55050 35.11013 31.33031
# Shear Modulus (GPa) = 21.05463 25.92443 23.48953
#
# Velocity S-wave (km/s) = 3.47357 3.85440 3.66893
# Velocity P-wave (km/s) = 5.64586 6.31893 5.99186
#
# Compressibility (1/GPa) = 0.03629698
#
# Stress axis : x y z
#
# Youngs Moduli (GPa) = 39.32360 56.14985 109.78594
#
# Poissons Ratio (x) = 0.13932 0.25321
# Poissons Ratio (y) = 0.09757 0.35548
# Poissons Ratio (z) = 0.09070 0.18181
#
# Static dielectric constant tensor:
#      x y z
#    x 1.598410 0.000000 0.002890 
#    y 0.000000 1.578490 0.000000 
#    z 0.002890 0.000000 1.640050 
# 
# From -- ./inp_files/7866.got.cif
#   From: 2010.05.17/outbox.cif.g08.bks.cpg/sg9_4_cif.got.tgz:7866.got - 2010.06.03 20:04:27.
