data_PCOD9134768
_publ_section_title
;
Structure prediction by ZEFSAII (Michael W. Deem and Ramdas Pophale) SiO2 
 PCOD9134768
Probable space group: C C
;
_chemical_formula_sum "Si O2"
_cell_formula_units_Z 32
_cell_length_a 21.525665
_cell_length_b 9.171901
_cell_length_c 13.961472
_cell_angle_alpha 90.000000
_cell_angle_beta 141.725025
_cell_angle_gamma 90.000000
_cell_volume 1707.433241
_symmetry_space_group_name_H-M "C C"
_symmetry_group_IT_number 9
_symmetry_cell_setting 'monoclinic'
loop_
_space_group_symop_operation_xyz
x,y,z
x,-y,1/2+z
1/2+x,1/2+y,z
1/2+x,1/2-y,1/2+z
loop_
_atom_site_type_symbol
_atom_site_label
_atom_site_fract_x
_atom_site_fract_y
_atom_site_fract_z
Si Si1 0.816730 0.894709 0.481580
Si Si2 0.428178 0.307925 0.424264
Si Si3 0.966408 0.689745 0.782708
Si Si4 0.520395 0.623903 0.522985
Si Si5 0.930881 0.812443 0.107376
Si Si6 0.634999 0.452296 0.335800
Si Si7 0.856675 0.396384 0.669980
Si Si8 0.596766 0.795260 0.262595
O O1 0.850931 0.843694 0.416872
O O2 0.883853 0.796618 0.634463
O O3 0.700223 0.870717 0.360338
O O4 0.850128 0.062130 0.531374
O O5 0.475814 0.462761 0.450352
O O6 0.378924 0.220310 0.279058
O O7 0.517112 0.213058 0.579881
O O8 0.024390 0.779750 0.934165
O O9 0.909024 0.550098 0.754198
O O10 0.042056 0.642618 0.789964
O O11 0.445792 0.698123 0.511003
O O12 0.621171 0.601575 0.708390
O O13 0.903320 0.667631 0.128611
O O14 0.039070 0.877834 0.270152
O O15 0.739116 0.415399 0.509274
O O16 0.618758 0.625382 0.313616
#
# Coordination Sequence:
#
# PCOD9134768 Si02
#       8
#     4   4   4   4   4   4   4   4
#     4  10  19  41  64  85 119 170 205 243 304 369
#     4   9  21  38  62  91 122 157 208 255 301 362
#     4  11  21  37  61  93 124 153 207 256 299 360
#     4   8  19  43  63  81 122 170 195 245 308 367
#     4   9  21  41  64  83 130 160 203 251 302 366
#     4   9  20  42  62  86 119 168 203 240 315 357
#     4  12  23  37  63  99 120 159 204 260 308 356
#     4  10  20  41  63  90 120 167 205 250 303 367
#
# _framework density 18.741581
#
# number of rings (size 3 to 8) (size 9 to 14) (size 15 to 20)
#    0.750    1.500    3.750    0.750    0.000    4.000 
#    6.750    1.250    0.000    0.000    0.000    0.000 
#    0.000    0.000    0.000    0.000    0.000    0.000 
#
# Total GULP energy -89202.133665 kJ/mol
# GULP energy per Si atom -5575.133354 kJ/mol
# Density = 1.869892 g / cm^3
# Si number density = 18.741581 Si / 1000 Ang^3
#
#
#
# Elastic Constant Matrix: (Units=GPa)
#
#
# Indices 1 2 3 4 5 6 
#
# 1 36.2829 0.4416 25.5786 0.0000 15.8762 0.0000
# 2 0.4416 20.0309 4.7352 0.0000 -2.4053 0.0000
# 3 25.5786 4.7352 90.9299 0.0000 17.2369 0.0000
# 4 0.0000 0.0000 0.0000 21.2545 0.0000 -6.1617
# 5 15.8762 -2.4053 17.2369 0.0000 31.7717 0.0000
# 6 0.0000 0.0000 0.0000 -6.1617 0.0000 16.6816
#
#
#
# Elastic Compliance Matrix: (Units=1/GPa)
#
#
# Indices 1 2 3 4 5 6 
#
# 1 0.040300 -0.000805 -0.008321 0.000000 -0.015684 0.000000
# 2 -0.000805 0.051558 -0.003650 0.000000 0.006286 0.000000
# 3 -0.008321 -0.003650 0.014259 0.000000 -0.003854 0.000000
# 4 0.000000 0.000000 0.000000 0.052691 0.000000 0.019462
# 5 -0.015684 0.006286 -0.003854 0.000000 0.041879 0.000000
# 6 0.000000 0.000000 0.000000 0.019462 0.000000 0.067135
#
#
# Mechanical properties :
#
#
# Convention : Reuss Voigt Hill
#
# Bulk Modulus (GPa) = 12.41232 23.19496 17.80364
# Shear Modulus (GPa) = 15.61379 21.70744 18.66062
#
# Velocity S-wave (km/s) = 2.88950 3.40700 3.15886
# Velocity P-wave (km/s) = 4.21539 5.28015 4.77752
#
# Compressibility (1/GPa) = 0.08056514
#
# Stress axis : x y z
#
# Youngs Moduli (GPa) = 24.81372 19.39550 70.13137
#
# Poissons Ratio (x) = 0.01561 0.58359
# Poissons Ratio (y) = 0.01997 0.25599
# Poissons Ratio (z) = 0.20649 0.07080
#
# Static dielectric constant tensor:
#      x y z
#    x 1.657600 0.000000 -0.006640 
#    y 0.000000 1.624770 0.000000 
#    z -0.006640 0.000000 1.639460 
# 
# From -- ./inp_files/27277.got.cif
#   From: 2010.05.17/outbox.cif.g08.bks.cpg/sg9_14_cif.got.tgz:27277.got - 2010.06.03 20:04:27.
