data_PCOD9134007
_publ_section_title
;
Structure prediction by ZEFSAII (Michael W. Deem and Ramdas Pophale) SiO2 
 PCOD9134007
Probable space group: C C
;
_chemical_formula_sum "Si O2"
_cell_formula_units_Z 28
_cell_length_a 29.721340
_cell_length_b 5.466401
_cell_length_c 15.322349
_cell_angle_alpha 90.000000
_cell_angle_beta 26.340408
_cell_angle_gamma 90.000000
_cell_volume 1104.556438
_symmetry_space_group_name_H-M "C C"
_symmetry_group_IT_number 9
_symmetry_cell_setting 'monoclinic'
loop_
_space_group_symop_operation_xyz
x,y,z
x,-y,1/2+z
1/2+x,1/2+y,z
1/2+x,1/2-y,1/2+z
loop_
_atom_site_type_symbol
_atom_site_label
_atom_site_fract_x
_atom_site_fract_y
_atom_site_fract_z
Si Si1 0.576420 0.064267 0.675750
Si Si2 0.904890 0.581260 0.827717
Si Si3 0.613532 0.439405 0.155339
Si Si4 0.237053 0.615888 0.693089
Si Si5 0.875018 0.962000 0.613666
Si Si6 0.427962 0.040874 0.094451
Si Si7 0.697885 0.616651 0.703684
O O1 0.488360 0.081410 0.757349
O O2 0.635470 0.810851 0.567514
O O3 0.641577 0.308826 0.560135
O O4 0.524866 0.056121 0.861934
O O5 0.828080 0.813405 0.966436
O O6 0.948035 0.535643 0.657906
O O7 0.820674 0.374455 0.993172
O O8 0.490485 0.451135 0.375062
O O9 0.658967 0.428035 0.173509
O O10 0.299099 0.545450 0.670863
O O11 0.169652 0.383795 0.785604
O O12 0.174409 0.872077 0.800246
O O13 0.862639 0.686963 0.670734
O O14 0.878567 0.189797 0.675095
#
# Coordination Sequence:
#
# PCOD9134007 Si02
#       7
#     4   4   4   4   4   4   4
#     4  10  20  36  57  79 107 145 182 222 268 318
#     4  10  22  34  60  81 111 139 190 221 273 318
#     4  10  18  34  55  79 111 141 179 220 273 325
#     4  10  19  35  54  84 105 140 188 214 273 320
#     4  10  19  36  55  80 108 141 184 224 268 315
#     4  10  20  32  57  85 105 137 184 234 258 316
#     4  10  20  31  56  84 107 145 179 221 275 330
#
# _framework density 25.349542
#
# number of rings (size 3 to 8) (size 9 to 14) (size 15 to 20)
#    0.857    1.143    2.857    3.429    2.000    0.000 
#    0.000    0.000    0.000   27.429    0.000    0.000 
#    0.000    0.000    0.000    0.000    0.000    0.000 
#
# Total GULP energy -78228.794075 kJ/mol
# GULP energy per Si atom -5587.771005 kJ/mol
# Density = 2.529185 g / cm^3
# Si number density = 25.349542 Si / 1000 Ang^3
#
#
#
# Elastic Constant Matrix: (Units=GPa)
#
#
# Indices 1 2 3 4 5 6 
#
# 1 70.3959 20.7273 15.3982 0.0000 -6.1291 -0.0001
# 2 20.7273 232.0156 5.1260 -0.0023 -10.2950 -0.0011
# 3 15.3982 5.1260 88.1354 -0.0004 -4.9194 -0.0001
# 4 0.0000 -0.0023 -0.0004 -5.5969 -0.0001 1.0348
# 5 -6.1291 -10.2950 -4.9194 -0.0001 29.9312 0.0001
# 6 -0.0001 -0.0011 -0.0001 1.0348 0.0001 30.6045
#
#
#
# Elastic Compliance Matrix: (Units=1/GPa)
#
#
# Indices 1 2 3 4 5 6 
#
# 1 0.015304 -0.001210 -0.002474 0.000001 0.002311 0.000000
# 2 -0.001210 0.004475 0.000023 -0.000002 0.001295 0.000000
# 3 -0.002474 0.000023 0.011858 -0.000001 0.001450 0.000000
# 4 0.000001 -0.000002 -0.000001 -0.177559 -0.000001 0.006003
# 5 0.002311 0.001295 0.001450 -0.000001 0.034567 0.000000
# 6 0.000000 0.000000 0.000000 0.006003 0.000000 0.032472
#
#
# Mechanical properties :
#
#
# Convention : Reuss Voigt Hill
#
# Bulk Modulus (GPa) = 41.12637 52.56110 46.84374
# Shear Modulus (GPa) = -78.79481 34.27413 -22.26034
#
# Velocity S-wave (km/s) = -5.58129 3.68103 -2.96655
# Velocity P-wave (km/s) = 5.02747 6.23267 2.60487
#
# Compressibility (1/GPa) = 0.02431530
#
# Stress axis : x y z
#
# Youngs Moduli (GPa) = 65.34201 223.45830 84.33072
#
# Poissons Ratio (x) = 0.27038 0.20867
# Poissons Ratio (y) = 0.07906 -0.00198
# Poissons Ratio (z) = 0.16168 -0.00523
#
# Static dielectric constant tensor:
#      x y z
#    x 1.913820 0.000000 0.016700 
#    y 0.000000 2.139500 0.000000 
#    z 0.016700 0.000000 2.006610 
# 
# From -- ./inp_files/26419.got.cif
#   From: 2010.05.17/outbox.cif.g08.bks.cpg/sg9_14_cif.got.tgz:26419.got - 2010.06.03 20:04:27.
