data_PCOD9134732
_publ_section_title
;
Structure prediction by ZEFSAII (Michael W. Deem and Ramdas Pophale) SiO2 
 PCOD9134732
Probable space group: C C
;
_chemical_formula_sum "Si O2"
_cell_formula_units_Z 32
_cell_length_a 16.811360
_cell_length_b 11.901661
_cell_length_c 12.955795
_cell_angle_alpha 90.000000
_cell_angle_beta 34.957853
_cell_angle_gamma 90.000000
_cell_volume 1485.282920
_symmetry_space_group_name_H-M "C C"
_symmetry_group_IT_number 9
_symmetry_cell_setting 'monoclinic'
loop_
_space_group_symop_operation_xyz
x,y,z
x,-y,1/2+z
1/2+x,1/2+y,z
1/2+x,1/2-y,1/2+z
loop_
_atom_site_type_symbol
_atom_site_label
_atom_site_fract_x
_atom_site_fract_y
_atom_site_fract_z
Si Si1 0.548890 0.989509 0.408350
Si Si2 0.356910 0.851660 0.749792
Si Si3 0.581525 0.380540 0.809707
Si Si4 0.270378 0.323009 0.061034
Si Si5 0.928621 0.114538 0.670361
Si Si6 0.083911 0.356291 0.686870
Si Si7 0.621055 0.604837 0.649907
Si Si8 0.724675 0.049198 0.410245
O O1 0.419780 0.916732 0.586093
O O2 0.668068 0.906306 0.235563
O O3 0.608837 0.053628 0.445548
O O4 0.514930 0.078061 0.355206
O O5 0.327177 0.720829 0.757611
O O6 0.480868 0.162505 0.201285
O O7 0.241391 0.915503 0.937809
O O8 0.707019 0.299890 0.644787
O O9 0.613191 0.507627 0.741914
O O10 0.431754 0.342601 0.919626
O O11 0.557280 0.365837 0.957271
O O12 0.248990 0.350497 0.962339
O O13 0.861951 0.996411 0.708905
O O14 0.981065 0.102190 0.730984
O O15 0.139912 0.235074 0.663110
O O16 0.190611 0.444691 0.523585
#
# Coordination Sequence:
#
# PCOD9134732 Si02
#       8
#     4   4   4   4   4   4   4   4
#     4  10  20  38  67  96 123 168 211 258 317 383
#     4  10  21  38  65  93 125 165 214 262 307 380
#     4  12  26  41  67  94 132 169 213 272 319 382
#     4  11  24  41  65  97 131 168 213 267 324 378
#     4  11  21  39  66  92 118 167 220 253 310 384
#     4   9  21  37  64  95 126 161 207 262 315 378
#     4  11  24  42  62  95 129 165 210 267 319 373
#     4  10  19  40  66  90 124 165 210 255 321 376
#
# _framework density 21.544716999999999
#
# number of rings (size 3 to 8) (size 9 to 14) (size 15 to 20)
#    0.000    1.500    5.000    0.000    1.750    4.000 
#    2.250    1.250    0.000    0.000    0.000    0.000 
#    0.000    0.000    0.000    0.000    0.000    0.000 
#
# Total GULP energy -89276.048532 kJ/mol
# GULP energy per Si atom -5579.753033 kJ/mol
# Density = 2.149568 g / cm^3
# Si number density = 21.544717 Si / 1000 Ang^3
#
#
#
# Elastic Constant Matrix: (Units=GPa)
#
#
# Indices 1 2 3 4 5 6 
#
# 1 31.6609 16.0042 3.5200 0.0000 14.5416 0.0000
# 2 16.0042 88.5160 23.2169 0.0000 18.2946 0.0000
# 3 3.5200 23.2169 72.7051 0.0000 5.5574 0.0000
# 4 0.0000 0.0000 0.0000 39.5903 0.0000 5.7797
# 5 14.5416 18.2946 5.5574 0.0000 35.2150 0.0000
# 6 0.0000 0.0000 0.0000 5.7797 0.0000 22.2920
#
#
#
# Elastic Compliance Matrix: (Units=1/GPa)
#
#
# Indices 1 2 3 4 5 6 
#
# 1 0.040422 -0.004471 0.000576 0.000000 -0.014460 0.000000
# 2 -0.004471 0.014145 -0.003927 0.000000 -0.004882 0.000000
# 3 0.000576 -0.003927 0.015024 0.000000 -0.000569 0.000000
# 4 0.000000 0.000000 0.000000 0.026252 0.000000 -0.006806
# 5 -0.014460 -0.004882 -0.000569 0.000000 0.036994 0.000000
# 6 0.000000 0.000000 0.000000 -0.006806 0.000000 0.046624
#
#
# Mechanical properties :
#
#
# Convention : Reuss Voigt Hill
#
# Bulk Modulus (GPa) = 18.53698 30.92936 24.73317
# Shear Modulus (GPa) = 23.46452 29.42887 26.44670
#
# Velocity S-wave (km/s) = 3.30374 3.69988 3.50741
# Velocity P-wave (km/s) = 4.81410 5.71307 5.28274
#
# Compressibility (1/GPa) = 0.05394623
#
# Stress axis : x y z
#
# Youngs Moduli (GPa) = 24.73904 70.69657 66.56083
#
# Poissons Ratio (x) = 0.31609 -0.03834
# Poissons Ratio (y) = 0.11061 0.26140
# Poissons Ratio (z) = -0.01425 0.27764
#
# Static dielectric constant tensor:
#      x y z
#    x 1.820990 0.000000 -0.037330 
#    y 0.000000 1.808690 0.000000 
#    z -0.037330 0.000000 1.830140 
# 
# From -- ./inp_files/19302.got.cif
#   From: 2010.05.17/outbox.cif.g08.bks.cpg/sg9_10_cif.got.tgz:19302.got - 2010.06.03 20:04:27.
