data_PCOD9134802
_publ_section_title
;
Structure prediction by ZEFSAII (Michael W. Deem and Ramdas Pophale) SiO2 
 PCOD9134802
Probable space group: C C
;
_chemical_formula_sum "Si O2"
_cell_formula_units_Z 28
_cell_length_a 16.714297
_cell_length_b 7.625723
_cell_length_c 12.357813
_cell_angle_alpha 90.000000
_cell_angle_beta 54.995204
_cell_angle_gamma 90.000000
_cell_volume 1290.178565
_symmetry_space_group_name_H-M "C C"
_symmetry_group_IT_number 9
_symmetry_cell_setting 'monoclinic'
loop_
_space_group_symop_operation_xyz
x,y,z
x,-y,1/2+z
1/2+x,1/2+y,z
1/2+x,1/2-y,1/2+z
loop_
_atom_site_type_symbol
_atom_site_label
_atom_site_fract_x
_atom_site_fract_y
_atom_site_fract_z
Si Si1 0.768510 0.846069 0.307970
Si Si2 0.674033 0.683764 0.593775
Si Si3 0.851242 0.641788 0.803754
Si Si4 0.445373 0.243970 0.277476
Si Si5 0.445888 0.812757 0.017868
Si Si6 0.678514 0.790614 0.827558
Si Si7 0.804512 0.369757 0.568727
O O1 0.723080 0.741695 0.444479
O O2 0.881775 0.861932 0.248937
O O3 0.765169 0.749101 0.195513
O O4 0.716577 0.029931 0.346028
O O5 0.558637 0.715879 0.673044
O O6 0.701356 0.789308 0.681913
O O7 0.716755 0.493604 0.592921
O O8 0.909123 0.456710 0.778412
O O9 0.741274 0.637958 0.837517
O O10 0.906872 0.742540 0.664935
O O11 0.843083 0.723075 0.929639
O O12 0.420088 0.276631 0.423412
O O13 0.562461 0.794368 0.931419
O O14 0.393029 0.004428 0.043129
#
# Coordination Sequence:
#
# PCOD9134802 Si02
#       7
#     4   4   4   4   4   4   4
#     4  12  23  41  62 100 132 171 215 280 319 394
#     4  11  22  44  65  95 129 176 216 273 318 401
#     4  11  20  44  63  93 128 174 213 268 326 394
#     4  10  21  39  68  90 126 169 217 257 334 381
#     4  10  19  42  67  88 119 178 207 267 322 392
#     4  11  25  38  69  96 130 165 227 266 338 384
#     4  11  22  42  68  90 132 175 223 257 341 384
#
# _framework density 21.702421000000001
#
# number of rings (size 3 to 8) (size 9 to 14) (size 15 to 20)
#    0.000    1.143    5.714    0.857    2.000    0.000 
#    2.571    1.429    0.000    0.000    0.000    0.000 
#    0.000    0.000    0.000    0.000    0.000    0.000 
#
# Total GULP energy -78063.075614 kJ/mol
# GULP energy per Si atom -5575.933972 kJ/mol
# Density = 2.165303 g / cm^3
# Si number density = 21.702421 Si / 1000 Ang^3
#
#
#
# Elastic Constant Matrix: (Units=GPa)
#
#
# Indices 1 2 3 4 5 6 
#
# 1 142.0181 41.0069 60.8902 0.0000 -1.9187 0.0000
# 2 41.0069 60.8414 29.0487 0.0000 6.8258 0.0000
# 3 60.8902 29.0487 152.8154 0.0000 23.4060 0.0000
# 4 0.0000 0.0000 0.0000 19.0103 0.0000 6.9418
# 5 -1.9187 6.8258 23.4060 0.0000 46.5726 0.0000
# 6 0.0000 0.0000 0.0000 6.9418 0.0000 7.8237
#
#
#
# Elastic Compliance Matrix: (Units=1/GPa)
#
#
# Indices 1 2 3 4 5 6 
#
# 1 0.010158 -0.005532 -0.003450 0.000000 0.002963 0.000000
# 2 -0.005532 0.021132 -0.001412 0.000000 -0.002615 0.000000
# 3 -0.003450 -0.001412 0.008859 0.000000 -0.004387 0.000000
# 4 0.000000 0.000000 0.000000 0.077815 0.000000 -0.069044
# 5 0.002963 -0.002615 -0.004387 0.000000 0.024182 0.000000
# 6 0.000000 0.000000 0.000000 -0.069044 0.000000 0.189078
#
#
# Mechanical properties :
#
#
# Convention : Reuss Voigt Hill
#
# Bulk Modulus (GPa) = 51.64912 68.61849 60.13381
# Shear Modulus (GPa) = 13.94834 29.66328 21.80581
#
# Velocity S-wave (km/s) = 2.53792 3.70106 3.17324
# Velocity P-wave (km/s) = 5.69548 7.06756 6.41829
#
# Compressibility (1/GPa) = 0.01936141
#
# Stress axis : x y z
#
# Youngs Moduli (GPa) = 98.44797 47.32124 112.88143
#
# Poissons Ratio (x) = 0.26176 0.38941
# Poissons Ratio (y) = 0.54457 0.15943
# Poissons Ratio (z) = 0.33962 0.06683
#
# Static dielectric constant tensor:
#      x y z
#    x 1.805920 0.000000 -0.007900 
#    y 0.000000 1.829620 0.000000 
#    z -0.007900 0.000000 1.826370 
# 
# From -- ./inp_files/17681.got.cif
#   From: 2010.05.17/outbox.cif.g08.bks.cpg/sg9_9_cif.got.tgz:17681.got - 2010.06.03 20:04:27.
