data_PCOD9134141
_publ_section_title
;
Structure prediction by ZEFSAII (Michael W. Deem and Ramdas Pophale) SiO2 
 PCOD9134141
Probable space group: C C
;
_chemical_formula_sum "Si O2"
_cell_formula_units_Z 32
_cell_length_a 24.351314
_cell_length_b 7.909339
_cell_length_c 15.271173
_cell_angle_alpha 90.000000
_cell_angle_beta 153.695204
_cell_angle_gamma 90.000000
_cell_volume 1303.412998
_symmetry_space_group_name_H-M "C C"
_symmetry_group_IT_number 9
_symmetry_cell_setting 'monoclinic'
loop_
_space_group_symop_operation_xyz
x,y,z
x,-y,1/2+z
1/2+x,1/2+y,z
1/2+x,1/2-y,1/2+z
loop_
_atom_site_type_symbol
_atom_site_label
_atom_site_fract_x
_atom_site_fract_y
_atom_site_fract_z
Si Si1 0.220980 0.653834 0.605760
Si Si2 0.215132 0.713574 0.092194
Si Si3 0.600475 0.590603 0.571700
Si Si4 0.038054 0.271955 0.000999
Si Si5 0.871954 0.495017 0.518433
Si Si6 0.801278 0.461485 0.617474
Si Si7 0.973646 0.189348 0.565524
Si Si8 0.972284 0.182409 0.078250
O O1 0.197842 0.472233 0.529587
O O2 0.131318 0.667554 0.560412
O O3 0.432403 0.915087 0.849862
O O4 0.355131 0.666062 0.844537
O O5 0.105999 0.780896 0.999189
O O6 0.335935 0.691038 0.326281
O O7 0.247482 0.860716 0.070964
O O8 0.514015 0.425063 0.436930
O O9 0.740601 0.515139 0.778440
O O10 0.563760 0.683160 0.609680
O O11 0.216535 0.192775 0.030941
O O12 0.076479 0.245151 0.157611
O O13 0.831984 0.458955 0.559765
O O14 0.964082 0.350281 0.614351
O O15 0.934812 0.675935 0.592933
O O16 0.993961 0.007627 0.640847
#
# Coordination Sequence:
#
# PCOD9134141 Si02
#       8
#     4   4   4   4   4   4   4   4
#     4  10  19  37  61  85 113 157 204 245 292 347
#     4  10  21  37  60  89 116 152 206 251 285 349
#     4  10  19  38  66  86 109 159 211 244 280 362
#     4  10  18  37  65  83 112 155 210 243 286 351
#     4  11  22  39  57  85 129 152 186 249 304 354
#     4  11  24  38  55  90 130 155 184 251 312 353
#     4   9  20  36  59  88 108 153 205 243 285 345
#     4   9  19  36  59  86 111 151 202 246 286 343
#
# _framework density 24.550927999999999
#
# number of rings (size 3 to 8) (size 9 to 14) (size 15 to 20)
#    0.000    2.000    2.500    3.000    3.500    2.000 
#    0.000    2.500    0.000    0.000    0.000    0.000 
#    0.000    0.000    0.000    0.000    0.000    0.000 
#
# Total GULP energy -89406.106129 kJ/mol
# GULP energy per Si atom -5587.881633 kJ/mol
# Density = 2.449505 g / cm^3
# Si number density = 24.550928 Si / 1000 Ang^3
#
#
#
# Elastic Constant Matrix: (Units=GPa)
#
#
# Indices 1 2 3 4 5 6 
#
# 1 128.8209 83.5999 13.3042 0.0000 24.9326 0.0000
# 2 83.5999 196.2987 42.5680 0.0000 -1.5981 0.0000
# 3 13.3042 42.5680 47.4276 0.0000 -3.9089 0.0000
# 4 0.0000 0.0000 0.0000 62.2064 0.0000 40.0310
# 5 24.9326 -1.5981 -3.9089 0.0000 26.7946 0.0000
# 6 0.0000 0.0000 0.0000 40.0310 0.0000 78.0046
#
#
#
# Elastic Compliance Matrix: (Units=1/GPa)
#
#
# Indices 1 2 3 4 5 6 
#
# 1 0.014563 -0.006433 0.000547 0.000000 -0.013855 0.000000
# 2 -0.006433 0.009173 -0.005962 0.000000 0.005664 0.000000
# 3 0.000547 -0.005962 0.026530 0.000000 0.003005 0.000000
# 4 0.000000 0.000000 0.000000 0.024002 0.000000 -0.012318
# 5 -0.013855 0.005664 0.003005 0.000000 0.050989 0.000000
# 6 0.000000 0.000000 0.000000 -0.012318 0.000000 0.019141
#
#
# Mechanical properties :
#
#
# Convention : Reuss Voigt Hill
#
# Bulk Modulus (GPa) = 37.63656 72.38794 55.01225
# Shear Modulus (GPa) = 28.25657 48.93948 38.59803
#
# Velocity S-wave (km/s) = 3.39623 4.46958 3.96935
# Velocity P-wave (km/s) = 5.54458 7.49567 6.59270
#
# Compressibility (1/GPa) = 0.02656991
#
# Stress axis : x y z
#
# Youngs Moduli (GPa) = 68.66840 109.01457 37.69348
#
# Poissons Ratio (x) = 0.70134 -0.02063
# Poissons Ratio (y) = 0.44178 0.22472
# Poissons Ratio (z) = -0.03758 0.64991
#
# Static dielectric constant tensor:
#      x y z
#    x 1.972560 0.000000 0.046940 
#    y 0.000000 1.970360 0.000000 
#    z 0.046940 0.000000 2.084760 
# 
# From -- ./inp_files/27284.got.cif
#   From: 2010.05.17/outbox.cif.g08.bks.cpg/sg9_14_cif.got.tgz:27284.got - 2010.06.03 20:04:27.
