data_PCOD9134845
_publ_section_title
;
Structure prediction by ZEFSAII (Michael W. Deem and Ramdas Pophale) SiO2 
 PCOD9134845
Probable space group: C C
;
_chemical_formula_sum "Si O2"
_cell_formula_units_Z 32
_cell_length_a 18.476181
_cell_length_b 16.652894
_cell_length_c 11.417552
_cell_angle_alpha 90.000000
_cell_angle_beta 157.461839
_cell_angle_gamma 90.000000
_cell_volume 1346.518274
_symmetry_space_group_name_H-M "C C"
_symmetry_group_IT_number 9
_symmetry_cell_setting 'monoclinic'
loop_
_space_group_symop_operation_xyz
x,y,z
x,-y,1/2+z
1/2+x,1/2+y,z
1/2+x,1/2-y,1/2+z
loop_
_atom_site_type_symbol
_atom_site_label
_atom_site_fract_x
_atom_site_fract_y
_atom_site_fract_z
Si Si1 0.088360 0.597948 0.110390
Si Si2 0.342176 0.175052 0.536792
Si Si3 0.925471 0.714579 0.041486
Si Si4 0.451242 0.533053 0.313674
Si Si5 0.999753 0.106452 0.739633
Si Si6 0.075835 0.825886 0.842679
Si Si7 0.782972 0.577893 0.983191
Si Si8 0.009227 0.537604 0.667950
O O1 0.298728 0.574107 0.388716
O O2 0.990049 0.523476 0.029572
O O3 0.982428 0.637998 0.844812
O O4 0.086970 0.667689 0.209155
O O5 0.147058 0.172168 0.315691
O O6 0.403177 0.265323 0.601322
O O7 0.389811 0.119271 0.497166
O O8 0.746468 0.709174 0.682206
O O9 0.865406 0.661727 0.062614
O O10 0.984662 0.800725 0.178497
O O11 0.480722 0.438055 0.336057
O O12 0.519191 0.586488 0.304200
O O13 0.593723 0.561273 0.625488
O O14 0.232924 0.552513 0.009404
O O15 0.196772 0.077685 0.981525
O O16 0.934122 0.513106 0.167221
#
# Coordination Sequence:
#
# PCOD9134845 Si02
#       8
#     4   4   4   4   4   4   4   4
#     4   9  19  31  50  84 116 145 189 248 292 347
#     4  11  19  33  56  84 119 146 197 243 301 342
#     4   9  18  31  52  84 116 139 187 238 301 341
#     4  10  22  36  53  88 118 152 195 239 305 350
#     4  11  18  31  55  81 114 154 184 238 298 356
#     4  10  20  31  54  85 116 146 186 248 294 347
#     4  10  21  35  55  85 121 147 193 245 292 352
#     4  10  21  36  53  83 120 161 193 243 297 367
#
# _framework density 23.764994000000002
#
# number of rings (size 3 to 8) (size 9 to 14) (size 15 to 20)
#    0.000    2.000    1.250    3.750    5.250    0.000 
#    0.000    0.000    0.000    0.000   65.000    0.000 
#    0.000    0.000    0.000    0.000    0.000    0.000 
#
# Total GULP energy -89298.993570 kJ/mol
# GULP energy per Si atom -5581.187098 kJ/mol
# Density = 2.371090 g / cm^3
# Si number density = 23.764994 Si / 1000 Ang^3
#
#
#
# Elastic Constant Matrix: (Units=GPa)
#
#
# Indices 1 2 3 4 5 6 
#
# 1 81.4648 30.6787 38.3406 0.0000 31.6502 0.0000
# 2 30.6787 129.8290 31.1976 0.0000 10.9873 0.0000
# 3 38.3406 31.1976 76.1990 0.0000 32.3128 0.0000
# 4 0.0000 0.0000 0.0000 33.5546 0.0000 2.0888
# 5 31.6502 10.9873 32.3128 0.0000 36.9277 0.0000
# 6 0.0000 0.0000 0.0000 2.0888 0.0000 24.5614
#
#
#
# Elastic Compliance Matrix: (Units=1/GPa)
#
#
# Indices 1 2 3 4 5 6 
#
# 1 0.020140 -0.002839 -0.003195 0.000000 -0.013621 0.000000
# 2 -0.002839 0.008959 -0.003404 0.000000 0.002746 0.000000
# 3 -0.003195 -0.003404 0.023109 0.000000 -0.016470 0.000000
# 4 0.000000 0.000000 0.000000 0.029961 0.000000 -0.002548
# 5 -0.013621 0.002746 -0.016470 0.000000 0.052349 0.000000
# 6 0.000000 0.000000 0.000000 -0.002548 0.000000 0.040931
#
#
# Mechanical properties :
#
#
# Convention : Reuss Voigt Hill
#
# Bulk Modulus (GPa) = 30.00146 54.21407 42.10776
# Shear Modulus (GPa) = 24.33855 31.49381 27.91618
#
# Velocity S-wave (km/s) = 3.20368 3.64430 3.43107
# Velocity P-wave (km/s) = 5.13190 6.36946 5.78388
#
# Compressibility (1/GPa) = 0.03333172
#
# Stress axis : x y z
#
# Youngs Moduli (GPa) = 49.65217 111.62205 43.27281
#
# Poissons Ratio (x) = 0.31684 0.13828
# Poissons Ratio (y) = 0.14094 0.14731
# Poissons Ratio (z) = 0.15866 0.37998
#
# Static dielectric constant tensor:
#      x y z
#    x 1.969970 0.000000 -0.039750 
#    y 0.000000 1.902910 0.000000 
#    z -0.039750 0.000000 1.957580 
# 
# From -- ./inp_files/7926.got.cif
#   From: 2010.05.17/outbox.cif.g08.bks.cpg/sg9_4_cif.got.tgz:7926.got - 2010.06.03 20:04:27.
