data_PCOD9134784
_publ_section_title
;
Structure prediction by ZEFSAII (Michael W. Deem and Ramdas Pophale) SiO2 
 PCOD9134784
Probable space group: C C
;
_chemical_formula_sum "Si O2"
_cell_formula_units_Z 28
_cell_length_a 8.020501
_cell_length_b 7.147135
_cell_length_c 17.701760
_cell_angle_alpha 90.000000
_cell_angle_beta 90.020852
_cell_angle_gamma 90.000000
_cell_volume 1014.728603
_symmetry_space_group_name_H-M "C C"
_symmetry_group_IT_number 9
_symmetry_cell_setting 'monoclinic'
loop_
_space_group_symop_operation_xyz
x,y,z
x,-y,1/2+z
1/2+x,1/2+y,z
1/2+x,1/2-y,1/2+z
loop_
_atom_site_type_symbol
_atom_site_label
_atom_site_fract_x
_atom_site_fract_y
_atom_site_fract_z
Si Si1 0.801060 0.184810 0.377730
Si Si2 0.605379 0.994840 0.608897
Si Si3 0.288929 0.733893 0.847410
Si Si4 0.494332 0.294027 0.734181
Si Si5 0.792887 0.670495 0.076744
Si Si6 0.134200 0.968476 0.958888
Si Si7 0.495722 0.723747 0.712108
O O1 0.735491 0.980408 0.356835
O O2 0.964300 0.120837 0.427752
O O3 0.856926 0.268904 0.296327
O O4 0.688232 0.333134 0.421208
O O5 0.472200 0.908689 0.550294
O O6 0.526736 0.150029 0.666391
O O7 0.739449 0.115443 0.563776
O O8 0.973564 0.003395 0.703014
O O9 0.149562 0.815857 0.792130
O O10 0.459114 0.755580 0.799999
O O11 0.277893 0.830534 0.928075
O O12 0.145881 0.324285 0.666816
O O13 0.843943 0.680373 0.164791
O O14 0.657103 0.524906 0.046132
#
# Coordination Sequence:
#
# PCOD9134784 Si02
#       7
#     4   4   4   4   4   4   4
#     4  10  25  41  70  97 137 177 233 283 357 411
#     4  10  21  43  62  98 134 176 223 290 344 421
#     4  10  21  43  67 101 133 179 230 290 343 422
#     4  10  19  41  69 100 132 174 230 286 353 409
#     4  10  24  44  66  98 141 178 236 281 360 413
#     4  11  25  46  66 100 135 190 225 289 348 430
#     4   9  21  40  64 100 132 176 227 291 341 416
#
# _framework density 27.593582999999999
#
# number of rings (size 3 to 8) (size 9 to 14) (size 15 to 20)
#    0.857    1.143    1.429    0.857    2.000    6.857 
#    5.143    0.000    0.000    0.000    0.000    0.000 
#    0.000    0.000    0.000    0.000    0.000    0.000 
#
# Total GULP energy -78126.600969 kJ/mol
# GULP energy per Si atom -5580.471498 kJ/mol
# Density = 2.753078 g / cm^3
# Si number density = 27.593583 Si / 1000 Ang^3
#
#
#
# Elastic Constant Matrix: (Units=GPa)
#
#
# Indices 1 2 3 4 5 6 
#
# 1 71.2143 36.2985 42.3561 0.0000 -7.1053 0.0000
# 2 36.2985 143.9228 54.9140 0.0000 -8.8403 0.0000
# 3 42.3561 54.9140 96.9126 0.0000 -4.3324 0.0000
# 4 0.0000 0.0000 0.0000 40.5091 0.0000 -12.9648
# 5 -7.1053 -8.8403 -4.3324 0.0000 48.3524 0.0000
# 6 0.0000 0.0000 0.0000 -12.9648 0.0000 56.8627
#
#
#
# Elastic Compliance Matrix: (Units=1/GPa)
#
#
# Indices 1 2 3 4 5 6 
#
# 1 0.019633 -0.002035 -0.007344 0.000000 0.001855 0.000000
# 2 -0.002035 0.009143 -0.004247 0.000000 0.000992 0.000000
# 3 -0.007344 -0.004247 0.015916 0.000000 -0.000430 0.000000
# 4 0.000000 0.000000 0.000000 0.026629 0.000000 0.006071
# 5 0.001855 0.000992 -0.000430 0.000000 0.021097 0.000000
# 6 0.000000 0.000000 0.000000 0.006071 0.000000 0.018971
#
#
# Mechanical properties :
#
#
# Convention : Reuss Voigt Hill
#
# Bulk Modulus (GPa) = 57.34506 64.35410 60.84958
# Shear Modulus (GPa) = 34.61324 41.04356 37.82840
#
# Velocity S-wave (km/s) = 3.54559 3.86091 3.70660
# Velocity P-wave (km/s) = 6.13096 6.57634 6.35755
#
# Compressibility (1/GPa) = 0.01743829
#
# Stress axis : x y z
#
# Youngs Moduli (GPa) = 50.93504 109.37596 62.83140
#
# Poissons Ratio (x) = 0.22262 0.46146
# Poissons Ratio (y) = 0.10367 0.26683
# Poissons Ratio (z) = 0.37409 0.46449
#
# Static dielectric constant tensor:
#      x y z
#    x 2.443530 0.000000 0.086180 
#    y 0.000000 2.090980 0.000000 
#    z 0.086180 0.000000 2.183900 
# 
# From -- ./inp_files/37127.got.cif
#   From: 2010.05.17/outbox.cif.g08.bks.cpg/sg9_19_cif.got.tgz:37127.got - 2010.06.03 20:04:27.
