data_PCOD9134664
_publ_section_title
;
Structure prediction by ZEFSAII (Michael W. Deem and Ramdas Pophale) SiO2 
 PCOD9134664
Probable space group: C C
;
_chemical_formula_sum "Si O2"
_cell_formula_units_Z 32
_cell_length_a 12.689089
_cell_length_b 9.005093
_cell_length_c 13.211974
_cell_angle_alpha 90.000000
_cell_angle_beta 62.586809
_cell_angle_gamma 90.000000
_cell_volume 1340.161633
_symmetry_space_group_name_H-M "C C"
_symmetry_group_IT_number 9
_symmetry_cell_setting 'monoclinic'
loop_
_space_group_symop_operation_xyz
x,y,z
x,-y,1/2+z
1/2+x,1/2+y,z
1/2+x,1/2-y,1/2+z
loop_
_atom_site_type_symbol
_atom_site_label
_atom_site_fract_x
_atom_site_fract_y
_atom_site_fract_z
Si Si1 0.869970 0.445908 0.461530
Si Si2 0.004266 0.056616 0.764357
Si Si3 0.396770 0.755570 0.053577
Si Si4 0.604163 0.365014 0.556332
Si Si5 0.651174 0.815515 0.618280
Si Si6 0.576455 0.761485 0.278040
Si Si7 0.265809 0.263817 0.358379
Si Si8 0.911991 0.467510 0.672247
O O1 0.890245 0.621991 0.467548
O O2 0.737339 0.415403 0.484545
O O3 0.888553 0.394780 0.570881
O O4 0.963971 0.362903 0.351402
O O5 0.041312 0.913340 0.814498
O O6 0.872988 0.121143 0.834796
O O7 0.099485 0.189408 0.716087
O O8 0.019367 0.988500 0.644741
O O9 0.528075 0.690493 0.996372
O O10 0.283815 0.648303 0.098657
O O11 0.387093 0.860528 0.157721
O O12 0.612750 0.246541 0.644721
O O13 0.680175 0.754079 0.492952
O O14 0.545639 0.930875 0.647527
O O15 0.681399 0.814806 0.303710
O O16 0.325472 0.114611 0.287562
#
# Coordination Sequence:
#
# PCOD9134664 Si02
#       8
#     4   4   4   4   4   4   4   4
#     4  10  19  39  63  86 130 167 211 271 318 384
#     4   9  22  42  60  96 130 163 224 268 318 398
#     4  10  21  41  58  89 132 158 216 267 313 396
#     4  10  21  43  62  88 131 175 205 276 329 374
#     4  11  20  39  66  89 131 172 209 272 327 379
#     4  10  20  39  64  95 126 174 218 265 326 390
#     4  11  19  37  67  93 123 172 222 260 332 388
#     4   9  20  38  60  88 127 163 209 275 313 387
#
# _framework density 23.877718000000002
#
# number of rings (size 3 to 8) (size 9 to 14) (size 15 to 20)
#    1.500    0.500    3.750    0.750    0.000    3.000 
#    4.500    2.500    0.000    0.000    0.000    0.000 
#    0.000    0.000    0.000    0.000    0.000    0.000 
#
# Total GULP energy -89253.244382 kJ/mol
# GULP energy per Si atom -5578.327774 kJ/mol
# Density = 2.382337 g / cm^3
# Si number density = 23.877718 Si / 1000 Ang^3
#
#
#
# Elastic Constant Matrix: (Units=GPa)
#
#
# Indices 1 2 3 4 5 6 
#
# 1 161.7887 29.7952 39.1131 0.0000 -39.6510 0.0000
# 2 29.7952 53.2897 29.5851 0.0000 -18.8791 0.0000
# 3 39.1131 29.5851 117.7398 0.0000 -13.9946 0.0000
# 4 0.0000 0.0000 0.0000 27.0178 0.0000 -2.6455
# 5 -39.6510 -18.8791 -13.9946 0.0000 38.7261 0.0000
# 6 0.0000 0.0000 0.0000 -2.6455 0.0000 31.4905
#
#
#
# Elastic Compliance Matrix: (Units=1/GPa)
#
#
# Indices 1 2 3 4 5 6 
#
# 1 0.008697 -0.001202 -0.001670 0.000000 0.007715 0.000000
# 2 -0.001202 0.025490 -0.004885 0.000000 0.009431 0.000000
# 3 -0.001670 -0.004885 0.010229 0.000000 -0.000395 0.000000
# 4 0.000000 0.000000 0.000000 0.037320 0.000000 0.003135
# 5 0.007715 0.009431 -0.000395 0.000000 0.038176 0.000000
# 6 0.000000 0.000000 0.000000 0.003135 0.000000 0.032019
#
#
# Mechanical properties :
#
#
# Convention : Reuss Voigt Hill
#
# Bulk Modulus (GPa) = 34.59993 58.86722 46.73357
# Shear Modulus (GPa) = 28.23605 35.06855 31.65230
#
# Velocity S-wave (km/s) = 3.44252 3.83648 3.64483
# Velocity P-wave (km/s) = 5.50665 6.65822 6.10963
#
# Compressibility (1/GPa) = 0.02890179
#
# Stress axis : x y z
#
# Youngs Moduli (GPa) = 114.98493 39.23037 97.76537
#
# Poissons Ratio (x) = 0.04716 0.16327
# Poissons Ratio (y) = 0.13824 0.47757
# Poissons Ratio (z) = 0.19202 0.19163
#
# Static dielectric constant tensor:
#      x y z
#    x 1.957980 0.000000 0.066850 
#    y 0.000000 1.970930 0.000000 
#    z 0.066850 0.000000 1.859880 
# 
# From -- ./inp_files/29977.got.cif
#   From: 2010.05.17/outbox.cif.g08.bks.cpg/sg9_15_cif.got.tgz:29977.got - 2010.06.03 20:04:27.
