data_PCOD9134740
_publ_section_title
;
Structure prediction by ZEFSAII (Michael W. Deem and Ramdas Pophale) SiO2 
 PCOD9134740
Probable space group: C C
;
_chemical_formula_sum "Si O2"
_cell_formula_units_Z 28
_cell_length_a 12.714083
_cell_length_b 5.295018
_cell_length_c 16.361774
_cell_angle_alpha 90.000000
_cell_angle_beta 98.631781
_cell_angle_gamma 90.000000
_cell_volume 1089.019538
_symmetry_space_group_name_H-M "C C"
_symmetry_group_IT_number 9
_symmetry_cell_setting 'monoclinic'
loop_
_space_group_symop_operation_xyz
x,y,z
x,-y,1/2+z
1/2+x,1/2+y,z
1/2+x,1/2-y,1/2+z
loop_
_atom_site_type_symbol
_atom_site_label
_atom_site_fract_x
_atom_site_fract_y
_atom_site_fract_z
Si Si1 0.378030 0.832413 0.184120
Si Si2 0.892647 0.304952 0.937885
Si Si3 0.987558 0.193652 0.458584
Si Si4 0.222574 0.077757 0.300923
Si Si5 0.486117 0.458742 0.295956
Si Si6 0.118290 0.563444 0.677643
Si Si7 0.177979 0.068092 0.584290
O O1 0.410151 0.543496 0.212703
O O2 0.494891 0.949081 0.188483
O O3 0.305161 0.893379 0.096375
O O4 0.302903 0.947408 0.246293
O O5 0.778059 0.398914 0.895042
O O6 0.958431 0.530286 0.985231
O O7 0.946286 0.249273 0.854238
O O8 0.906945 0.028109 0.978724
O O9 0.103468 0.103317 0.497899
O O10 0.981013 0.193300 0.359700
O O11 0.190422 0.356138 0.263712
O O12 0.109376 0.934825 0.288600
O O13 0.147066 0.309633 0.635689
O O14 0.142654 0.804148 0.621218
#
# Coordination Sequence:
#
# PCOD9134740 Si02
#       7
#     4   4   4   4   4   4   4
#     4  10  21  42  65  93 123 159 208 257 303 363
#     4  10  20  40  60  90 127 154 198 253 299 363
#     4  10  22  42  61  88 130 158 204 251 299 370
#     4  10  19  40  67  93 121 161 202 259 312 352
#     4   9  21  39  62  96 118 159 203 255 303 367
#     4  10  24  39  67  91 121 161 211 250 305 365
#     4  11  23  44  62  89 126 166 200 255 305 360
#
# _framework density 25.711199000000001
#
# number of rings (size 3 to 8) (size 9 to 14) (size 15 to 20)
#    0.857    1.143    1.429    1.714    0.000    5.714 
#   10.286    0.000    0.000    0.000    0.000    0.000 
#    0.000    0.000    0.000    0.000    0.000    0.000 
#
# Total GULP energy -78176.600307 kJ/mol
# GULP energy per Si atom -5584.042879 kJ/mol
# Density = 2.565268 g / cm^3
# Si number density = 25.711199 Si / 1000 Ang^3
#
#
#
# Elastic Constant Matrix: (Units=GPa)
#
#
# Indices 1 2 3 4 5 6 
#
# 1 154.3955 32.2630 8.4595 0.0000 15.5392 0.0000
# 2 32.2630 132.6312 4.6190 0.0000 -3.6683 0.0000
# 3 8.4595 4.6190 60.9491 0.0000 33.3594 0.0000
# 4 0.0000 0.0000 0.0000 31.3882 0.0000 6.1935
# 5 15.5392 -3.6683 33.3594 0.0000 50.2000 0.0000
# 6 0.0000 0.0000 0.0000 6.1935 0.0000 30.1739
#
#
#
# Elastic Compliance Matrix: (Units=1/GPa)
#
#
# Indices 1 2 3 4 5 6 
#
# 1 0.007102 -0.001828 0.000674 0.000000 -0.002780 0.000000
# 2 -0.001828 0.008099 -0.001562 0.000000 0.002196 0.000000
# 3 0.000674 -0.001562 0.026103 0.000000 -0.017669 0.000000
# 4 0.000000 0.000000 0.000000 0.033204 0.000000 -0.006815
# 5 -0.002780 0.002196 -0.017669 0.000000 0.032683 0.000000
# 6 0.000000 0.000000 0.000000 -0.006815 0.000000 0.034540
#
#
# Mechanical properties :
#
#
# Convention : Reuss Voigt Hill
#
# Bulk Modulus (GPa) = 27.87583 48.73988 38.30786
# Shear Modulus (GPa) = 31.42302 42.52802 36.97552
#
# Velocity S-wave (km/s) = 3.49972 4.07143 3.79636
# Velocity P-wave (km/s) = 5.21500 6.41092 5.84363
#
# Compressibility (1/GPa) = 0.03587337
#
# Stress axis : x y z
#
# Youngs Moduli (GPa) = 140.81170 123.46502 38.31024
#
# Poissons Ratio (x) = 0.22568 -0.02584
# Poissons Ratio (y) = 0.25739 0.05983
# Poissons Ratio (z) = -0.09497 0.19283
#
# Static dielectric constant tensor:
#      x y z
#    x 2.066550 0.000000 0.005770 
#    y 0.000000 2.072660 0.000000 
#    z 0.005770 0.000000 2.099540 
# 
# From -- ./inp_files/32905.got.cif
#   From: 2010.05.17/outbox.cif.g08.bks.cpg/sg9_17_cif.got.tgz:32905.got - 2010.06.03 20:04:27.
