data_PCOD9134271
_publ_section_title
;
Structure prediction by ZEFSAII (Michael W. Deem and Ramdas Pophale) SiO2 
 PCOD9134271
Probable space group: C C
;
_chemical_formula_sum "Si O2"
_cell_formula_units_Z 28
_cell_length_a 17.028548
_cell_length_b 7.124309
_cell_length_c 14.708474
_cell_angle_alpha 90.000000
_cell_angle_beta 137.293553
_cell_angle_gamma 90.000000
_cell_volume 1210.243873
_symmetry_space_group_name_H-M "C C"
_symmetry_group_IT_number 9
_symmetry_cell_setting 'monoclinic'
loop_
_space_group_symop_operation_xyz
x,y,z
x,-y,1/2+z
1/2+x,1/2+y,z
1/2+x,1/2-y,1/2+z
loop_
_atom_site_type_symbol
_atom_site_label
_atom_site_fract_x
_atom_site_fract_y
_atom_site_fract_z
Si Si1 0.132480 0.161486 0.994680
Si Si2 0.661049 0.796868 0.716198
Si Si3 0.993857 0.364461 0.021891
Si Si4 0.237476 0.526319 0.466249
Si Si5 0.993045 0.858341 0.200900
Si Si6 0.501119 0.099726 0.730196
Si Si7 0.834528 0.580705 0.747175
O O1 0.180599 0.361778 0.001349
O O2 0.064462 0.081063 0.850243
O O3 0.049318 0.200140 0.009049
O O4 0.242759 0.041566 0.113788
O O5 0.725360 0.852239 0.863795
O O6 0.569617 0.639528 0.673941
O O7 0.757138 0.737487 0.727642
O O8 0.589001 0.971309 0.616710
O O9 0.962777 0.319755 0.099966
O O10 0.892260 0.454856 0.875283
O O11 0.373632 0.530225 0.597957
O O12 0.139623 0.368445 0.362964
O O13 0.978016 0.629310 0.201780
O O14 0.430440 0.154106 0.758999
#
# Coordination Sequence:
#
# PCOD9134271 Si02
#       7
#     4   4   4   4   4   4   4
#     4  10  19  32  61  89 111 149 197 234 290 335
#     4   9  21  32  61  84 115 150 199 228 299 333
#     4  10  20  39  57  85 120 156 185 238 291 344
#     4   9  15  35  57  83 105 153 201 232 263 358
#     4   9  16  34  56  85 107 154 201 234 263 356
#     4   9  19  31  61  81 108 158 190 224 298 334
#     4  12  20  37  61  89 118 148 193 246 282 344
#
# _framework density 23.135833999999999
#
# number of rings (size 3 to 8) (size 9 to 14) (size 15 to 20)
#    0.000    2.857    4.286    1.714    2.000    0.000 
#    0.000   10.000    3.143    0.000    0.000    0.000 
#    0.000    0.000    0.000    0.000    0.000    0.000 
#
# Total GULP energy -78135.672099 kJ/mol
# GULP energy per Si atom -5581.119436 kJ/mol
# Density = 2.308318 g / cm^3
# Si number density = 23.135834 Si / 1000 Ang^3
#
#
#
# Elastic Constant Matrix: (Units=GPa)
#
#
# Indices 1 2 3 4 5 6 
#
# 1 143.3747 20.9834 40.0789 0.0000 -0.5020 0.0000
# 2 20.9834 36.7908 14.0625 0.0000 0.9543 0.0000
# 3 40.0789 14.0625 141.3756 0.0000 13.5720 0.0000
# 4 0.0000 0.0000 0.0000 -0.7191 0.0000 -4.0760
# 5 -0.5020 0.9543 13.5720 0.0000 34.5133 0.0000
# 6 0.0000 0.0000 0.0000 -4.0760 0.0000 29.6502
#
#
#
# Elastic Compliance Matrix: (Units=1/GPa)
#
#
# Indices 1 2 3 4 5 6 
#
# 1 0.008108 -0.003883 -0.002010 0.000000 0.001016 0.000000
# 2 -0.003883 0.030118 -0.001881 0.000000 -0.000150 0.000000
# 3 -0.002010 -0.001881 0.008135 0.000000 -0.003176 0.000000
# 4 0.000000 0.000000 0.000000 -0.781580 0.000000 -0.107445
# 5 0.001016 -0.000150 -0.003176 0.000000 0.030242 0.000000
# 6 0.000000 0.000000 0.000000 -0.107445 0.000000 0.018956
#
#
# Mechanical properties :
#
#
# Convention : Reuss Voigt Hill
#
# Bulk Modulus (GPa) = 32.45201 52.42119 42.43660
# Shear Modulus (GPa) = -7.57344 29.11663 10.77160
#
# Velocity S-wave (km/s) = -1.81124 3.55139 2.16007
# Velocity P-wave (km/s) = 3.11177 6.28679 4.96018
#
# Compressibility (1/GPa) = 0.03081473
#
# Stress axis : x y z
#
# Youngs Moduli (GPa) = 123.32899 33.20289 122.92314
#
# Poissons Ratio (x) = 0.12891 0.24707
# Poissons Ratio (y) = 0.47884 0.23119
# Poissons Ratio (z) = 0.24789 0.06245
#
# Static dielectric constant tensor:
#      x y z
#    x 1.899560 0.000000 -0.002010 
#    y 0.000000 1.968280 0.000000 
#    z -0.002010 0.000000 1.867510 
# 
# From -- ./inp_files/26734.got.cif
#   From: 2010.05.17/outbox.cif.g08.bks.cpg/sg9_14_cif.got.tgz:26734.got - 2010.06.03 20:04:27.
