data_PCOD9134239
_publ_section_title
;
Structure prediction by ZEFSAII (Michael W. Deem and Ramdas Pophale) SiO2 
 PCOD9134239
Probable space group: C C
;
_chemical_formula_sum "Si O2"
_cell_formula_units_Z 28
_cell_length_a 13.756026
_cell_length_b 13.296654
_cell_length_c 9.320221
_cell_angle_alpha 90.000000
_cell_angle_beta 61.861766
_cell_angle_gamma 90.000000
_cell_volume 1503.272621
_symmetry_space_group_name_H-M "C C"
_symmetry_group_IT_number 9
_symmetry_cell_setting 'monoclinic'
loop_
_space_group_symop_operation_xyz
x,y,z
x,-y,1/2+z
1/2+x,1/2+y,z
1/2+x,1/2-y,1/2+z
loop_
_atom_site_type_symbol
_atom_site_label
_atom_site_fract_x
_atom_site_fract_y
_atom_site_fract_z
Si Si1 0.626440 0.097666 0.844290
Si Si2 0.321241 0.916567 0.169361
Si Si3 0.007554 0.514338 0.180745
Si Si4 0.846799 0.817340 0.122065
Si Si5 0.810160 0.669944 0.389589
Si Si6 0.749204 0.383998 0.540324
Si Si7 0.087143 0.166709 0.372735
O O1 0.748083 0.103009 0.693296
O O2 0.585817 0.212453 0.870389
O O3 0.550547 0.030780 0.796780
O O4 0.606016 0.060244 0.019285
O O5 0.257885 0.901202 0.364235
O O6 0.447127 0.927000 0.132710
O O7 0.293866 0.018121 0.096263
O O8 0.302733 0.829904 0.065702
O O9 0.908913 0.593660 0.277901
O O10 0.843081 0.771440 0.285354
O O11 0.813582 0.718542 0.047035
O O12 0.964793 0.862276 0.001999
O O13 0.689703 0.640397 0.408050
O O14 0.627058 0.370255 0.689535
#
# Coordination Sequence:
#
# PCOD9134239 Si02
#       7
#     4   4   4   4   4   4   4
#     4  10  22  33  60  81 113 145 192 227 284 331
#     4  12  17  32  54  89 111 136 199 245 264 327
#     4  12  17  34  56  88 104 141 191 240 262 331
#     4  10  20  41  53  79 118 161 176 227 298 348
#     4  10  20  31  58  87 107 145 193 231 279 326
#     4  10  19  31  56  83 112 148 193 229 284 324
#     4  10  19  38  55  79 115 156 180 233 287 349
#
# _framework density 18.626028999999999
#
# number of rings (size 3 to 8) (size 9 to 14) (size 15 to 20)
#    0.000    1.714    7.143    0.857    0.000    0.000 
#    0.000   12.857    0.000    0.000    0.000    0.000 
#    0.000    0.000    0.000    0.000    0.000    0.000 
#
# Total GULP energy -77944.596947 kJ/mol
# GULP energy per Si atom -5567.471210 kJ/mol
# Density = 1.858364 g / cm^3
# Si number density = 18.626029 Si / 1000 Ang^3
#
#
#
# Elastic Constant Matrix: (Units=GPa)
#
#
# Indices 1 2 3 4 5 6 
#
# 1 88.7636 12.8623 47.5649 0.0000 -27.6538 0.0000
# 2 12.8623 28.4826 19.0189 0.0000 1.9690 0.0000
# 3 47.5649 19.0189 152.4478 0.0000 4.6139 0.0000
# 4 0.0000 0.0000 0.0000 24.2832 0.0000 -1.3912
# 5 -27.6538 1.9690 4.6139 0.0000 38.6816 0.0000
# 6 0.0000 0.0000 0.0000 -1.3912 0.0000 25.7539
#
#
#
# Elastic Compliance Matrix: (Units=1/GPa)
#
#
# Indices 1 2 3 4 5 6 
#
# 1 0.020195 -0.006184 -0.005998 0.000000 0.015467 0.000000
# 2 -0.006184 0.040267 -0.002909 0.000000 -0.006124 0.000000
# 3 -0.005998 -0.002909 0.008951 0.000000 -0.005207 0.000000
# 4 0.000000 0.000000 0.000000 0.041309 0.000000 0.002231
# 5 0.015467 -0.006124 -0.005207 0.000000 0.037843 0.000000
# 6 0.000000 0.000000 0.000000 0.002231 0.000000 0.038950
#
#
# Mechanical properties :
#
#
# Convention : Reuss Voigt Hill
#
# Bulk Modulus (GPa) = 25.48900 47.62069 36.55485
# Shear Modulus (GPa) = 21.66635 30.42693 26.04664
#
# Velocity S-wave (km/s) = 3.41432 4.04613 3.74358
# Velocity P-wave (km/s) = 5.40904 6.88843 6.19307
#
# Compressibility (1/GPa) = 0.03923261
#
# Stress axis : x y z
#
# Youngs Moduli (GPa) = 49.51815 24.83400 111.71449
#
# Poissons Ratio (x) = 0.15358 0.67001
# Poissons Ratio (y) = 0.30622 0.32496
# Poissons Ratio (z) = 0.29699 0.07224
#
# Static dielectric constant tensor:
#      x y z
#    x 1.674210 0.000000 -0.018830 
#    y 0.000000 1.682250 0.000000 
#    z -0.018830 0.000000 1.687240 
# 
# From -- ./inp_files/9056.got.cif
#   From: 2010.05.17/outbox.cif.g08.bks.cpg/sg9_5_cif.got.tgz:9056.got - 2010.06.03 20:04:27.
