data_PCOD9134202
_publ_section_title
;
Structure prediction by ZEFSAII (Michael W. Deem and Ramdas Pophale) SiO2 
 PCOD9134202
Probable space group: C C
;
_chemical_formula_sum "Si O2"
_cell_formula_units_Z 24
_cell_length_a 7.157628
_cell_length_b 18.892882
_cell_length_c 9.134462
_cell_angle_alpha 90.000000
_cell_angle_beta 123.182060
_cell_angle_gamma 90.000000
_cell_volume 1033.814009
_symmetry_space_group_name_H-M "C C"
_symmetry_group_IT_number 9
_symmetry_cell_setting 'monoclinic'
loop_
_space_group_symop_operation_xyz
x,y,z
x,-y,1/2+z
1/2+x,1/2+y,z
1/2+x,1/2-y,1/2+z
loop_
_atom_site_type_symbol
_atom_site_label
_atom_site_fract_x
_atom_site_fract_y
_atom_site_fract_z
Si Si1 0.684340 0.410686 0.101340
Si Si2 0.449520 0.847436 0.685645
Si Si3 0.697045 0.964222 0.626778
Si Si4 0.555306 0.311346 0.297474
Si Si5 0.721923 0.096888 0.826547
Si Si6 0.748778 0.455512 0.820205
O O1 0.562097 0.350655 0.143205
O O2 0.650238 0.484107 0.173281
O O3 0.952402 0.394165 0.210775
O O4 0.620086 0.425931 0.906221
O O5 0.631501 0.903726 0.712585
O O6 0.545013 0.772368 0.773643
O O7 0.321603 0.887775 0.759441
O O8 0.277474 0.834941 0.478754
O O9 0.784404 0.924566 0.519030
O O10 0.794987 0.031433 0.754670
O O11 0.465167 0.001943 0.473197
O O12 0.349312 0.337266 0.309786
#
# Coordination Sequence:
#
# PCOD9134202 Si02
#       6
#     4   4   4   4   4   4
#     4  10  20  43  71  99 133 181 230 283 335 406
#     4  12  25  46  68 104 143 183 222 293 340 410
#     4  10  19  43  73  96 131 177 229 284 331 397
#     4  12  28  44  67 102 146 180 230 276 357 408
#     4  10  22  42  70  99 131 179 231 276 337 405
#     4  10  18  40  75  94 132 180 226 286 332 392
#
# _framework density 23.215008000000001
#
# number of rings (size 3 to 8) (size 9 to 14) (size 15 to 20)
#    0.000    1.333    8.333    0.000    4.667    4.000 
#    0.000    0.000    0.000    0.000    0.000    0.000 
#    0.000    0.000    0.000    0.000    0.000    0.000 
#
# Total GULP energy -67143.727827 kJ/mol
# GULP energy per Si atom -5595.310652 kJ/mol
# Density = 2.316217 g / cm^3
# Si number density = 23.215008 Si / 1000 Ang^3
#
#
#
# Elastic Constant Matrix: (Units=GPa)
#
#
# Indices 1 2 3 4 5 6 
#
# 1 73.0277 2.5114 17.0788 0.0000 -14.7785 0.0000
# 2 2.5114 139.6407 31.5568 0.0000 -20.1156 0.0000
# 3 17.0788 31.5568 85.7716 0.0000 -41.4556 0.0000
# 4 0.0000 0.0000 0.0000 34.0606 0.0000 -3.5080
# 5 -14.7785 -20.1156 -41.4556 0.0000 44.1322 0.0000
# 6 0.0000 0.0000 0.0000 -3.5080 0.0000 1.6327
#
#
#
# Elastic Compliance Matrix: (Units=1/GPa)
#
#
# Indices 1 2 3 4 5 6 
#
# 1 0.014780 0.000592 -0.001169 0.000000 0.004121 0.000000
# 2 0.000592 0.007895 -0.002175 0.000000 0.001754 0.000000
# 3 -0.001169 -0.002175 0.022022 0.000000 0.019303 0.000000
# 4 0.000000 0.000000 0.000000 0.037703 0.000000 0.081011
# 5 0.004121 0.001754 0.019303 0.000000 0.042971 0.000000
# 6 0.000000 0.000000 0.000000 0.081011 0.000000 0.786563
#
#
# Mechanical properties :
#
#
# Convention : Reuss Voigt Hill
#
# Bulk Modulus (GPa) = 25.51467 44.52599 35.02033
# Shear Modulus (GPa) = 5.37345 32.45130 18.91237
#
# Velocity S-wave (km/s) = 1.52305 3.74285 2.85732
# Velocity P-wave (km/s) = 3.75597 6.15630 5.09938
#
# Compressibility (1/GPa) = 0.03919313
#
# Stress axis : x y z
#
# Youngs Moduli (GPa) = 67.65684 126.66716 45.41009
#
# Poissons Ratio (x) = -0.07499 0.05308
# Poissons Ratio (y) = -0.04006 0.09876
# Poissons Ratio (z) = 0.07909 0.27548
#
# Static dielectric constant tensor:
#      x y z
#    x 2.038720 0.000000 0.129590 
#    y 0.000000 1.760790 0.000000 
#    z 0.129590 0.000000 1.958190 
# 
# From -- ./inp_files/5146.got.cif
#   From: 2010.05.17/outbox.cif.g08.bks.cpg/sg9_3_cif.got.tgz:5146.got - 2010.06.03 20:04:27.
