data_PCOD9134194
_publ_section_title
;
Structure prediction by ZEFSAII (Michael W. Deem and Ramdas Pophale) SiO2 
 PCOD9134194
Probable space group: C C
;
_chemical_formula_sum "Si O2"
_cell_formula_units_Z 28
_cell_length_a 12.058229
_cell_length_b 9.355000
_cell_length_c 12.745814
_cell_angle_alpha 90.000000
_cell_angle_beta 107.784828
_cell_angle_gamma 90.000000
_cell_volume 1369.076684
_symmetry_space_group_name_H-M "C C"
_symmetry_group_IT_number 9
_symmetry_cell_setting 'monoclinic'
loop_
_space_group_symop_operation_xyz
x,y,z
x,-y,1/2+z
1/2+x,1/2+y,z
1/2+x,1/2-y,1/2+z
loop_
_atom_site_type_symbol
_atom_site_label
_atom_site_fract_x
_atom_site_fract_y
_atom_site_fract_z
Si Si1 0.206320 0.944240 0.980140
Si Si2 0.985727 0.934574 0.306594
Si Si3 0.251865 0.439595 0.756879
Si Si4 0.855955 0.309124 0.409985
Si Si5 0.523846 0.200673 0.143863
Si Si6 0.791251 0.771373 0.351322
Si Si7 0.836676 0.487501 0.715841
O O1 0.277928 0.078103 0.951692
O O2 0.258631 0.797231 0.951260
O O3 0.236011 0.952862 0.110935
O O4 0.079478 0.970881 0.894322
O O5 0.874470 0.026694 0.235379
O O6 0.922983 0.170122 0.873770
O O7 0.031026 0.836452 0.224593
O O8 0.284069 0.331012 0.859201
O O9 0.148722 0.370011 0.663349
O O10 0.216198 0.592697 0.794694
O O11 0.882633 0.392651 0.309508
O O12 0.962493 0.268531 0.515791
O O13 0.441075 0.085204 0.180180
O O14 0.781082 0.641432 0.266726
#
# Coordination Sequence:
#
# PCOD9134194 Si02
#       7
#     4   4   4   4   4   4   4
#     4  10  18  40  67  86 129 168 197 265 312 368
#     4   9  20  39  63  90 124 160 202 254 318 357
#     4  10  21  40  60  93 122 159 210 255 307 376
#     4  10  21  39  64  90 122 171 211 252 323 377
#     4  10  20  42  62  89 132 161 204 272 304 373
#     4   8  20  39  56  95 122 151 217 243 303 383
#     4   9  20  39  60  91 123 168 209 247 323 374
#
# _framework density 20.451740000000001
#
# number of rings (size 3 to 8) (size 9 to 14) (size 15 to 20)
#    0.857    1.714    1.429    0.000    0.000    2.286 
#   15.429    0.000    0.000    0.000    0.000    0.000 
#    0.000    0.000    0.000    0.000    0.000    0.000 
#
# Total GULP energy -78006.131120 kJ/mol
# GULP energy per Si atom -5571.866509 kJ/mol
# Density = 2.040519 g / cm^3
# Si number density = 20.451740 Si / 1000 Ang^3
#
#
#
# Elastic Constant Matrix: (Units=GPa)
#
#
# Indices 1 2 3 4 5 6 
#
# 1 59.4661 18.5959 33.1899 0.0000 13.8435 0.0000
# 2 18.5959 75.8368 27.3955 0.0000 -2.8424 0.0000
# 3 33.1899 27.3955 102.4466 0.0000 14.1249 0.0000
# 4 0.0000 0.0000 0.0000 14.6946 0.0000 8.2409
# 5 13.8435 -2.8424 14.1249 0.0000 27.2223 0.0000
# 6 0.0000 0.0000 0.0000 8.2409 0.0000 21.7513
#
#
#
# Elastic Compliance Matrix: (Units=1/GPa)
#
#
# Indices 1 2 3 4 5 6 
#
# 1 0.023199 -0.004220 -0.005062 0.000000 -0.009612 0.000000
# 2 -0.004220 0.015743 -0.003624 0.000000 0.005671 0.000000
# 3 -0.005062 -0.003624 0.012997 0.000000 -0.004548 0.000000
# 4 0.000000 0.000000 0.000000 0.086412 0.000000 -0.032739
# 5 -0.009612 0.005671 -0.004548 0.000000 0.044575 0.000000
# 6 0.000000 0.000000 0.000000 -0.032739 0.000000 0.058378
#
#
# Mechanical properties :
#
#
# Convention : Reuss Voigt Hill
#
# Bulk Modulus (GPa) = 38.27632 44.01245 41.14439
# Shear Modulus (GPa) = 18.12736 23.30485 20.71610
#
# Velocity S-wave (km/s) = 2.98039 3.37932 3.18610
# Velocity P-wave (km/s) = 5.53170 6.06574 5.80487
#
# Compressibility (1/GPa) = 0.02612581
#
# Stress axis : x y z
#
# Youngs Moduli (GPa) = 43.10564 63.52077 76.93804
#
# Poissons Ratio (x) = 0.26807 0.38946
# Poissons Ratio (y) = 0.18191 0.27886
# Poissons Ratio (z) = 0.21820 0.23023
#
# Static dielectric constant tensor:
#      x y z
#    x 1.770590 0.000000 -0.017510 
#    y 0.000000 1.733080 0.000000 
#    z -0.017510 0.000000 1.711120 
# 
# From -- ./inp_files/17852.got.cif
#   From: 2010.05.17/outbox.cif.g08.bks.cpg/sg9_9_cif.got.tgz:17852.got - 2010.06.03 20:04:27.
