data_PCOD9134944
_publ_section_title
;
Structure prediction by ZEFSAII (Michael W. Deem and Ramdas Pophale) SiO2 
 PCOD9134944
Probable space group: C C
;
_chemical_formula_sum "Si O2"
_cell_formula_units_Z 32
_cell_length_a 7.741121
_cell_length_b 18.518071
_cell_length_c 9.091958
_cell_angle_alpha 90.000000
_cell_angle_beta 101.850827
_cell_angle_gamma 90.000000
_cell_volume 1275.558021
_symmetry_space_group_name_H-M "C C"
_symmetry_group_IT_number 9
_symmetry_cell_setting 'monoclinic'
loop_
_space_group_symop_operation_xyz
x,y,z
x,-y,1/2+z
1/2+x,1/2+y,z
1/2+x,1/2-y,1/2+z
loop_
_atom_site_type_symbol
_atom_site_label
_atom_site_fract_x
_atom_site_fract_y
_atom_site_fract_z
Si Si1 0.801830 0.316810 0.091480
Si Si2 0.058413 0.544755 0.940772
Si Si3 0.564711 0.583746 0.346979
Si Si4 0.574467 0.175231 0.396603
Si Si5 0.843797 0.075187 0.556050
Si Si6 0.877840 0.549305 0.195140
Si Si7 0.355708 0.351277 0.558935
Si Si8 0.077201 0.157928 0.823849
O O1 0.805484 0.230358 0.089790
O O2 0.747733 0.345094 0.244183
O O3 0.663159 0.350538 0.949379
O O4 0.985165 0.334182 0.042495
O O5 0.893427 0.551484 0.023403
O O6 0.183583 0.613558 0.956840
O O7 0.184876 0.481299 0.028497
O O8 0.990133 0.517974 0.773755
O O9 0.486224 0.539838 0.469578
O O10 0.406051 0.606973 0.214603
O O11 0.701759 0.547346 0.260467
O O12 0.770755 0.147974 0.463612
O O13 0.480015 0.120325 0.269902
O O14 0.547046 0.254831 0.326655
O O15 0.938906 0.105365 0.716298
O O16 0.531141 0.356653 0.486933
#
# Coordination Sequence:
#
# PCOD9134944 Si02
#       8
#     4   4   4   4   4   4   4   4
#     4   9  20  38  59  89 125 155 194 252 312 357
#     4  11  22  41  63  87 123 163 205 246 302 370
#     4  10  22  41  62  86 123 160 196 254 315 352
#     4   9  19  36  58  83 121 158 193 245 311 354
#     4  10  21  39  62  86 120 162 197 247 308 362
#     4  10  22  40  59  85 119 160 200 250 305 353
#     4  11  22  38  64  92 119 163 209 246 297 369
#     4  10  20  35  59  90 114 149 206 250 288 357
#
# _framework density 25.087059
#
# number of rings (size 3 to 8) (size 9 to 14) (size 15 to 20)
#    0.000    2.000    0.000    3.750    0.000    7.000 
#    0.000   12.500    0.000    0.000    0.000    0.000 
#    0.000    0.000    0.000    0.000    0.000    0.000 
#
# Total GULP energy -89346.127650 kJ/mol
# GULP energy per Si atom -5584.132978 kJ/mol
# Density = 2.502996 g / cm^3
# Si number density = 25.087059 Si / 1000 Ang^3
#
#
#
# Elastic Constant Matrix: (Units=GPa)
#
#
# Indices 1 2 3 4 5 6 
#
# 1 76.5048 -2.2214 15.0098 0.0000 -36.7420 0.0000
# 2 -2.2214 69.4963 -0.1136 0.0000 8.5387 0.0000
# 3 15.0098 -0.1136 115.5355 0.0000 -41.7624 0.0000
# 4 0.0000 0.0000 0.0000 16.4079 0.0000 -7.7571
# 5 -36.7420 8.5387 -41.7624 0.0000 43.6577 0.0000
# 6 0.0000 0.0000 0.0000 -7.7571 0.0000 23.1975
#
#
#
# Elastic Compliance Matrix: (Units=1/GPa)
#
#
# Indices 1 2 3 4 5 6 
#
# 1 0.025340 -0.002691 0.007038 0.000000 0.028584 0.000000
# 2 -0.002691 0.015218 -0.002338 0.000000 -0.007478 0.000000
# 3 0.007038 -0.002338 0.015354 0.000000 0.021067 0.000000
# 4 0.000000 0.000000 0.000000 0.072390 0.000000 0.024207
# 5 0.028584 -0.007478 0.021067 0.000000 0.068577 0.000000
# 6 0.000000 0.000000 0.000000 0.024207 0.000000 0.051203
#
#
# Mechanical properties :
#
#
# Convention : Reuss Voigt Hill
#
# Bulk Modulus (GPa) = 16.68632 31.87625 24.28129
# Shear Modulus (GPa) = 18.93642 33.24342 26.08992
#
# Velocity S-wave (km/s) = 2.75039 3.64417 3.22836
# Velocity P-wave (km/s) = 4.09292 5.51729 4.85760
#
# Compressibility (1/GPa) = 0.05992934
#
# Stress axis : x y z
#
# Youngs Moduli (GPa) = 39.46337 65.71092 65.12968
#
# Poissons Ratio (x) = 0.17680 -0.45835
# Poissons Ratio (y) = 0.10618 0.15230
# Poissons Ratio (z) = -0.27773 0.15366
#
# Static dielectric constant tensor:
#      x y z
#    x 2.029790 0.000000 -0.034150 
#    y 0.000000 1.954870 0.000000 
#    z -0.034150 0.000000 1.926550 
# 
# From -- ./inp_files/5635.got.cif
#   From: 2010.05.17/outbox.cif.g08.bks.cpg/sg9_3_cif.got.tgz:5635.got - 2010.06.03 20:04:27.
