data_PCOD9134432
_publ_section_title
;
Structure prediction by ZEFSAII (Michael W. Deem and Ramdas Pophale) SiO2 
 PCOD9134432
Probable space group: C C
;
_chemical_formula_sum "Si O2"
_cell_formula_units_Z 16
_cell_length_a 9.146384
_cell_length_b 12.902983
_cell_length_c 5.453011
_cell_angle_alpha 90.000000
_cell_angle_beta 96.027799
_cell_angle_gamma 90.000000
_cell_volume 639.982473
_symmetry_space_group_name_H-M "C C"
_symmetry_group_IT_number 9
_symmetry_cell_setting 'monoclinic'
loop_
_space_group_symop_operation_xyz
x,y,z
x,-y,1/2+z
1/2+x,1/2+y,z
1/2+x,1/2-y,1/2+z
loop_
_atom_site_type_symbol
_atom_site_label
_atom_site_fract_x
_atom_site_fract_y
_atom_site_fract_z
Si Si1 0.837020 0.550200 0.799400
Si Si2 0.920217 0.218198 0.189355
Si Si3 0.218545 0.468015 0.655596
Si Si4 0.008644 0.117609 0.703985
O O1 0.892369 0.661780 0.719013
O O2 0.769409 0.849558 0.668315
O O3 0.658817 0.556950 0.760378
O O4 0.873409 0.530768 0.090123
O O5 0.990613 0.190606 0.939445
O O6 0.868468 0.960672 0.178473
O O7 0.006068 0.176723 0.443891
O O8 0.141936 0.497416 0.390134
#
# Coordination Sequence:
#
# PCOD9134432 Si02
#       4
#     4   4   4   4
#     4  12  23  37  60  91 118 153 199 242 288 348
#     4  10  20  34  56  84 116 148 188 242 293 336
#     4   8  14  27  49  73  99 131 175 226 269 312
#     4  10  19  36  59  84 111 148 196 244 284 340
#
# _framework density 25.000686000000002
#
# number of rings (size 3 to 8) (size 9 to 14) (size 15 to 20)
#    0.000    2.000    0.000    7.500    0.000    0.000 
#    0.000    0.000    0.000   27.000    0.000    0.000 
#    0.000    0.000    0.000    0.000    0.000    0.000 
#
# Total GULP energy -44816.480479 kJ/mol
# GULP energy per Si atom -5602.060060 kJ/mol
# Density = 2.494378 g / cm^3
# Si number density = 25.000686 Si / 1000 Ang^3
#
#
#
# Elastic Constant Matrix: (Units=GPa)
#
#
# Indices 1 2 3 4 5 6 
#
# 1 64.9284 -2.3233 26.3976 0.0000 -2.4678 0.0000
# 2 -2.3233 113.0145 41.1073 0.0000 -13.7521 0.0000
# 3 26.3976 41.1073 235.4116 0.0000 -16.3254 0.0000
# 4 0.0000 0.0000 0.0000 34.8464 0.0000 -33.6761
# 5 -2.4678 -13.7521 -16.3254 0.0000 35.4493 0.0000
# 6 0.0000 0.0000 0.0000 -33.6761 0.0000 -12.8118
#
#
#
# Elastic Compliance Matrix: (Units=1/GPa)
#
#
# Indices 1 2 3 4 5 6 
#
# 1 0.016271 0.001134 -0.001977 0.000000 0.000662 0.000000
# 2 0.001134 0.009847 -0.001628 0.000000 0.003149 0.000000
# 3 -0.001977 -0.001628 0.004856 0.000000 0.001467 0.000000
# 4 0.000000 0.000000 0.000000 0.008106 0.000000 -0.021307
# 5 0.000662 0.003149 0.001467 0.000000 0.030153 0.000000
# 6 0.000000 0.000000 0.000000 -0.021307 0.000000 -0.022047
#
#
# Mechanical properties :
#
#
# Convention : Reuss Voigt Hill
#
# Bulk Modulus (GPa) = 38.41417 60.41308 49.41362
# Shear Modulus (GPa) = 82.23137 34.70832 58.46985
#
# Velocity S-wave (km/s) = 5.74135 3.73003 4.84129
# Velocity P-wave (km/s) = 7.70385 6.53971 7.14553
#
# Compressibility (1/GPa) = 0.02603206
#
# Stress axis : x y z
#
# Youngs Moduli (GPa) = 61.45915 101.55166 205.94872
#
# Poissons Ratio (x) = -0.11517 0.40708
# Poissons Ratio (y) = -0.06970 0.33534
# Poissons Ratio (z) = 0.12148 0.16536
#
# Static dielectric constant tensor:
#      x y z
#    x 2.003280 0.000000 0.012410 
#    y 0.000000 1.950200 0.000000 
#    z 0.012410 0.000000 2.006670 
# 
# From -- ./inp_files/1496.got.cif
#   From: 2010.05.17/outbox.cif.g08.bks.cpg/sg9_1_cif.got.tgz:1496.got - 2010.06.03 20:04:27.
