data_PCOD9134927
_publ_section_title
;
Structure prediction by ZEFSAII (Michael W. Deem and Ramdas Pophale) SiO2 
 PCOD9134927
Probable space group: C C
;
_chemical_formula_sum "Si O2"
_cell_formula_units_Z 32
_cell_length_a 15.192214
_cell_length_b 7.353133
_cell_length_c 14.547207
_cell_angle_alpha 90.000000
_cell_angle_beta 51.192342
_cell_angle_gamma 90.000000
_cell_volume 1266.345657
_symmetry_space_group_name_H-M "C C"
_symmetry_group_IT_number 9
_symmetry_cell_setting 'monoclinic'
loop_
_space_group_symop_operation_xyz
x,y,z
x,-y,1/2+z
1/2+x,1/2+y,z
1/2+x,1/2-y,1/2+z
loop_
_atom_site_type_symbol
_atom_site_label
_atom_site_fract_x
_atom_site_fract_y
_atom_site_fract_z
Si Si1 0.066530 0.759421 0.875000
Si Si2 0.991804 0.295807 0.805405
Si Si3 0.697023 0.083516 0.295536
Si Si4 0.996979 0.879399 0.740628
Si Si5 0.942683 0.006884 0.592884
Si Si6 0.867974 0.400582 0.719350
Si Si7 0.256884 0.163955 0.914877
Si Si8 0.846301 0.494361 0.529588
O O1 0.165487 0.625948 0.842487
O O2 0.082636 0.795200 0.757169
O O3 0.956674 0.632708 0.952075
O O4 0.022836 0.938173 0.956383
O O5 0.970940 0.419474 0.727314
O O6 0.890800 0.331147 0.944524
O O7 0.107448 0.345695 0.779858
O O8 0.986933 0.088035 0.778934
O O9 0.686548 0.200640 0.395589
O O10 0.820828 0.088594 0.168074
O O11 0.877221 0.776114 0.830763
O O12 0.015063 0.894199 0.619940
O O13 0.901080 0.201225 0.661645
O O14 0.769523 0.474385 0.850348
O O15 0.835009 0.506491 0.646630
O O16 0.254031 0.100695 0.023342
#
# Coordination Sequence:
#
# PCOD9134927 Si02
#       8
#     4   4   4   4   4   4   4   4
#     4   9  18  35  58  83 117 155 191 239 296 344
#     4   9  18  32  53  81 111 148 188 237 292 336
#     4  10  20  35  57  85 117 151 196 249 290 344
#     4   9  18  34  55  80 115 154 192 235 285 347
#     4   9  19  36  58  84 114 153 194 239 295 346
#     4   9  17  34  57  79 111 152 190 233 289 347
#     4   9  18  33  57  83 111 151 193 237 290 341
#     4   8  16  33  55  79 108 148 192 231 283 347
#
# _framework density 25.269562000000001
#
# number of rings (size 3 to 8) (size 9 to 14) (size 15 to 20)
#    0.000    3.000    0.000    0.750    0.000    3.000 
#    0.000   20.000    0.000   24.000    0.000    0.000 
#    0.000    0.000    0.000    0.000    0.000    0.000 
#
# Total GULP energy -89069.275670 kJ/mol
# GULP energy per Si atom -5566.829729 kJ/mol
# Density = 2.521205 g / cm^3
# Si number density = 25.269562 Si / 1000 Ang^3
#
#
#
# Elastic Constant Matrix: (Units=GPa)
#
#
# Indices 1 2 3 4 5 6 
#
# 1 148.7315 38.3844 55.1644 0.0000 22.1155 0.0000
# 2 38.3844 94.1677 14.7683 0.0000 10.5572 0.0000
# 3 55.1644 14.7683 108.0091 0.0000 21.2278 0.0000
# 4 0.0000 0.0000 0.0000 31.6492 0.0000 8.3020
# 5 22.1155 10.5572 21.2278 0.0000 33.7760 0.0000
# 6 0.0000 0.0000 0.0000 8.3020 0.0000 38.7941
#
#
#
# Elastic Compliance Matrix: (Units=1/GPa)
#
#
# Indices 1 2 3 4 5 6 
#
# 1 0.009292 -0.002878 -0.003803 0.000000 -0.002795 0.000000
# 2 -0.002878 0.011982 0.000225 0.000000 -0.002002 0.000000
# 3 -0.003803 0.000225 0.012202 0.000000 -0.005249 0.000000
# 4 0.000000 0.000000 0.000000 0.033476 0.000000 -0.007164
# 5 -0.002795 -0.002002 -0.005249 0.000000 0.035361 0.000000
# 6 0.000000 0.000000 0.000000 -0.007164 0.000000 0.027310
#
#
# Mechanical properties :
#
#
# Convention : Reuss Voigt Hill
#
# Bulk Modulus (GPa) = 48.62977 63.06028 55.84502
# Shear Modulus (GPa) = 33.46956 37.01660 35.24308
#
# Velocity S-wave (km/s) = 3.64332 3.83151 3.73860
# Velocity P-wave (km/s) = 6.08149 6.67706 6.38622
#
# Compressibility (1/GPa) = 0.02056353
#
# Stress axis : x y z
#
# Youngs Moduli (GPa) = 107.61441 83.46107 81.95556
#
# Poissons Ratio (x) = 0.24020 0.31170
# Poissons Ratio (y) = 0.30971 -0.01845
# Poissons Ratio (z) = 0.40929 -0.01879
#
# Static dielectric constant tensor:
#      x y z
#    x 2.080750 0.000000 0.006110 
#    y 0.000000 2.039630 0.000000 
#    z 0.006110 0.000000 2.076470 
# 
# From -- ./inp_files/25677.got.cif
#   From: 2010.05.17/outbox.cif.g08.bks.cpg/sg9_13_cif.got.tgz:25677.got - 2010.06.03 20:04:27.
