data_PCOD9134071
_publ_section_title
;
Structure prediction by ZEFSAII (Michael W. Deem and Ramdas Pophale) SiO2 
 PCOD9134071
Probable space group: C C
;
_chemical_formula_sum "Si O2"
_cell_formula_units_Z 32
_cell_length_a 5.497273
_cell_length_b 16.616943
_cell_length_c 16.820099
_cell_angle_alpha 90.000000
_cell_angle_beta 126.482610
_cell_angle_gamma 90.000000
_cell_volume 1235.387525
_symmetry_space_group_name_H-M "C C"
_symmetry_group_IT_number 9
_symmetry_cell_setting 'monoclinic'
loop_
_space_group_symop_operation_xyz
x,y,z
x,-y,1/2+z
1/2+x,1/2+y,z
1/2+x,1/2-y,1/2+z
loop_
_atom_site_type_symbol
_atom_site_label
_atom_site_fract_x
_atom_site_fract_y
_atom_site_fract_z
Si Si1 0.923120 0.692165 0.769780
Si Si2 0.423132 0.940693 0.469517
Si Si3 0.880601 0.982047 0.807796
Si Si4 0.705816 0.349525 0.795493
Si Si5 0.250055 0.279834 0.177518
Si Si6 0.767542 0.923485 0.953373
Si Si7 0.362886 0.668802 0.004643
Si Si8 0.283189 0.010036 0.107022
O O1 0.568012 0.678281 0.717902
O O2 0.953295 0.789206 0.777583
O O3 0.058070 0.673380 0.708169
O O4 0.168694 0.669233 0.885438
O O5 0.592132 0.856534 0.513045
O O6 0.451082 0.992692 0.554655
O O7 0.587884 0.993115 0.434007
O O8 0.079566 0.941542 0.372747
O O9 0.897353 0.926271 0.889609
O O10 0.531294 0.992089 0.722331
O O11 0.043122 0.935744 0.766597
O O12 0.807165 0.305665 0.734660
O O13 0.009986 0.357186 0.906625
O O14 0.034273 0.249828 0.063848
O O15 0.046680 0.937135 0.065447
O O16 0.602157 0.594886 0.060441
#
# Coordination Sequence:
#
# PCOD9134071 Si02
#       8
#     4   4   4   4   4   4   4   4
#     4  10  24  38  64  93 127 163 225 272 313 374
#     4   9  21  34  58  93 123 161 205 267 322 381
#     4  10  18  35  61  89 126 154 216 258 322 387
#     4   9  18  34  58  85 120 159 207 267 307 376
#     4  10  23  40  64  97 116 170 220 266 321 374
#     4   9  18  33  53  84 125 154 204 255 320 380
#     4  11  22  39  67  87 131 169 222 267 329 389
#     4  10  20  33  61  92 116 170 207 260 322 401
#
# _framework density 25.902801
#
# number of rings (size 3 to 8) (size 9 to 14) (size 15 to 20)
#    0.750    1.500    0.000    3.000    3.500    3.000 
#    0.000    0.000   19.250    0.000    0.000    0.000 
#    0.000    0.000    0.000    0.000    0.000    0.000 
#
# Total GULP energy -89147.840833 kJ/mol
# GULP energy per Si atom -5571.740052 kJ/mol
# Density = 2.584384 g / cm^3
# Si number density = 25.902801 Si / 1000 Ang^3
#
#
#
# Elastic Constant Matrix: (Units=GPa)
#
#
# Indices 1 2 3 4 5 6 
#
# 1 134.3765 18.9629 56.9098 0.0000 16.1557 0.0000
# 2 18.9629 27.5693 32.2846 0.0000 -1.0085 0.0000
# 3 56.9098 32.2846 143.0714 0.0000 32.1235 0.0000
# 4 0.0000 0.0000 0.0000 34.5565 0.0000 2.3618
# 5 16.1557 -1.0085 32.1235 0.0000 38.7291 0.0000
# 6 0.0000 0.0000 0.0000 2.3618 0.0000 35.4128
#
#
#
# Elastic Compliance Matrix: (Units=1/GPa)
#
#
# Indices 1 2 3 4 5 6 
#
# 1 0.009202 -0.003558 -0.002427 0.000000 -0.001918 0.000000
# 2 -0.003558 0.056561 -0.014761 0.000000 0.015200 0.000000
# 3 -0.002427 -0.014761 0.013695 0.000000 -0.010731 0.000000
# 4 0.000000 0.000000 0.000000 0.029071 0.000000 -0.001939
# 5 -0.001918 0.015200 -0.010731 0.000000 0.035918 0.000000
# 6 0.000000 0.000000 0.000000 -0.001939 0.000000 0.028368
#
#
# Mechanical properties :
#
#
# Convention : Reuss Voigt Hill
#
# Bulk Modulus (GPa) = 26.33844 57.92577 42.13211
# Shear Modulus (GPa) = 22.03018 34.86367 28.44692
#
# Velocity S-wave (km/s) = 2.91949 3.67269 3.31753
# Velocity P-wave (km/s) = 4.64271 6.35580 5.56556
#
# Compressibility (1/GPa) = 0.03796732
#
# Stress axis : x y z
#
# Youngs Moduli (GPa) = 108.66863 17.68002 73.01833
#
# Poissons Ratio (x) = 0.06290 0.17720
# Poissons Ratio (y) = 0.38663 1.07782
# Poissons Ratio (z) = 0.26372 0.26097
#
# Static dielectric constant tensor:
#      x y z
#    x 2.119650 0.000000 -0.006030 
#    y 0.000000 2.049710 0.000000 
#    z -0.006030 0.000000 2.043620 
# 
# From -- ./inp_files/13662.got.cif
#   From: 2010.05.17/outbox.cif.g08.bks.cpg/sg9_7_cif.got.tgz:13662.got - 2010.06.03 20:04:27.
