data_PCOD9134035
_publ_section_title
;
Structure prediction by ZEFSAII (Michael W. Deem and Ramdas Pophale) SiO2 
 PCOD9134035
Probable space group: C C
;
_chemical_formula_sum "Si O2"
_cell_formula_units_Z 32
_cell_length_a 14.885965
_cell_length_b 14.941967
_cell_length_c 21.523319
_cell_angle_alpha 90.000000
_cell_angle_beta 19.495964
_cell_angle_gamma 90.000000
_cell_volume 1597.728072
_symmetry_space_group_name_H-M "C C"
_symmetry_group_IT_number 9
_symmetry_cell_setting 'monoclinic'
loop_
_space_group_symop_operation_xyz
x,y,z
x,-y,1/2+z
1/2+x,1/2+y,z
1/2+x,1/2-y,1/2+z
loop_
_atom_site_type_symbol
_atom_site_label
_atom_site_fract_x
_atom_site_fract_y
_atom_site_fract_z
Si Si1 0.663730 0.082318 0.868810
Si Si2 0.654270 0.854907 0.141797
Si Si3 0.395457 0.395357 0.754912
Si Si4 0.212635 0.847691 0.061495
Si Si5 0.981039 0.466148 0.354645
Si Si6 0.597424 0.327506 0.752644
Si Si7 0.671320 0.278903 0.224559
Si Si8 0.205417 0.799701 0.340493
O O1 0.636137 0.072672 0.812749
O O2 0.922388 0.139205 0.720162
O O3 0.715336 0.982252 0.860839
O O4 0.387469 0.127155 0.071002
O O5 0.646733 0.946751 0.184711
O O6 0.623052 0.774031 0.211538
O O7 0.405626 0.850131 0.255841
O O8 0.920135 0.835638 0.929330
O O9 0.694705 0.415087 0.534130
O O10 0.441690 0.376949 0.797643
O O11 0.285506 0.305745 0.794866
O O12 0.177422 0.838210 0.158701
O O13 0.380098 0.764253 0.926194
O O14 0.391783 0.933906 0.928364
O O15 0.740419 0.324744 0.245526
O O16 0.897141 0.202293 0.064309
#
# Coordination Sequence:
#
# PCOD9134035 Si02
#       8
#     4   4   4   4   4   4   4   4
#     4  10  20  38  60  82 124 164 191 239 288 340
#     4  11  21  37  60  91 120 146 200 251 289 350
#     4   9  18  36  60  87 116 154 200 239 292 345
#     4  10  23  40  59  87 117 156 200 237 289 356
#     4  10  21  38  60  84 113 153 200 247 295 346
#     4  10  21  36  60  90 117 157 200 239 293 349
#     4  10  20  35  57  85 116 150 195 233 285 362
#     4  10  18  34  62  88 113 150 190 251 301 328
#
# _framework density 20.02844
#
# number of rings (size 3 to 8) (size 9 to 14) (size 15 to 20)
#    0.000    2.000    0.000    6.000    0.000    3.000 
#    0.000   15.000    0.000    0.000    0.000    0.000 
#    0.000    0.000    0.000    0.000    0.000    0.000 
#
# Total GULP energy -89383.520783 kJ/mol
# GULP energy per Si atom -5586.470049 kJ/mol
# Density = 1.998285 g / cm^3
# Si number density = 20.028440 Si / 1000 Ang^3
#
#
#
# Elastic Constant Matrix: (Units=GPa)
#
#
# Indices 1 2 3 4 5 6 
#
# 1 106.7669 46.2479 66.9723 -0.0069 -0.3376 -0.0267
# 2 46.2479 54.9458 27.5666 0.2648 4.2414 0.0961
# 3 66.9723 27.5666 82.0136 0.3605 12.2595 0.0275
# 4 -0.0069 0.2648 0.3605 29.8905 0.0650 -2.6012
# 5 -0.3376 4.2414 12.2595 0.0650 43.6157 0.0136
# 6 -0.0267 0.0961 0.0275 -2.6012 0.0136 29.2583
#
#
#
# Elastic Compliance Matrix: (Units=1/GPa)
#
#
# Indices 1 2 3 4 5 6 
#
# 1 0.026923 -0.014009 -0.018281 0.000346 0.006709 0.000115
# 2 -0.014009 0.029182 0.002164 -0.000292 -0.003554 -0.000135
# 3 -0.018281 0.002164 0.027608 -0.000345 -0.008111 -0.000077
# 4 0.000346 -0.000292 -0.000345 0.033723 0.000077 0.003000
# 5 0.006709 -0.003554 -0.008111 0.000077 0.025605 0.000020
# 6 0.000115 -0.000135 -0.000077 0.003000 0.000020 0.034446
#
#
# Mechanical properties :
#
#
# Convention : Reuss Voigt Hill
#
# Bulk Modulus (GPa) = 42.62530 58.36665 50.49598
# Shear Modulus (GPa) = 20.36176 27.41555 23.88865
#
# Velocity S-wave (km/s) = 3.19194 3.70379 3.45735
# Velocity P-wave (km/s) = 5.90874 6.89172 6.41908
#
# Compressibility (1/GPa) = 0.02346024
#
# Stress axis : x y z
#
# Youngs Moduli (GPa) = 37.14312 34.26816 36.22142
#
# Poissons Ratio (x) = 0.48007 0.66216
# Poissons Ratio (y) = 0.52034 -0.07838
# Poissons Ratio (z) = 0.67901 -0.07415
#
# Static dielectric constant tensor:
#      x y z
#    x 1.705400 0.000020 -0.000240 
#    y 0.000020 1.723060 0.000060 
#    z -0.000240 0.000060 1.719380 
# 
# From -- ./inp_files/9726.got.cif
#   From: 2010.05.17/outbox.cif.g08.bks.cpg/sg9_5_cif.got.tgz:9726.got - 2010.06.03 20:04:27.
