data_PCOD9134667
_publ_section_title
;
Structure prediction by ZEFSAII (Michael W. Deem and Ramdas Pophale) SiO2 
 PCOD9134667
Probable space group: C C
;
_chemical_formula_sum "Si O2"
_cell_formula_units_Z 28
_cell_length_a 9.784124
_cell_length_b 10.249651
_cell_length_c 14.772864
_cell_angle_alpha 90.000000
_cell_angle_beta 69.936113
_cell_angle_gamma 90.000000
_cell_volume 1391.569758
_symmetry_space_group_name_H-M "C C"
_symmetry_group_IT_number 9
_symmetry_cell_setting 'monoclinic'
loop_
_space_group_symop_operation_xyz
x,y,z
x,-y,1/2+z
1/2+x,1/2+y,z
1/2+x,1/2-y,1/2+z
loop_
_atom_site_type_symbol
_atom_site_label
_atom_site_fract_x
_atom_site_fract_y
_atom_site_fract_z
Si Si1 0.185330 0.313046 0.876560
Si Si2 0.737177 0.932805 0.633591
Si Si3 0.404588 0.515600 0.773969
Si Si4 0.722481 0.591876 0.215812
Si Si5 0.451383 0.822992 0.796217
Si Si6 0.181282 0.298299 0.076833
Si Si7 0.840465 0.315652 0.166143
O O1 0.272059 0.450013 0.858797
O O2 0.260479 0.230511 0.777845
O O3 0.019488 0.335378 0.881079
O O4 0.197737 0.247127 0.971125
O O5 0.576084 0.900003 0.709764
O O6 0.794518 0.788495 0.599891
O O7 0.848148 0.986013 0.685442
O O8 0.731563 0.051698 0.567151
O O9 0.551266 0.436432 0.762614
O O10 0.437709 0.667812 0.780425
O O11 0.800567 0.618755 0.293939
O O12 0.750243 0.710175 0.139749
O O13 0.790259 0.460810 0.158836
O O14 0.011182 0.305104 0.138869
#
# Coordination Sequence:
#
# PCOD9134667 Si02
#       7
#     4   4   4   4   4   4   4
#     4  10  24  42  63  93 134 164 213 262 322 368
#     4  10  20  37  63  90 124 160 211 253 316 370
#     4  10  19  39  63  90 122 166 204 254 315 375
#     4  12  20  38  72  89 121 173 209 251 325 371
#     4  10  20  38  66  90 123 167 205 256 317 382
#     4  12  23  40  67  96 126 167 216 269 306 380
#     4  10  22  42  62  92 132 167 204 265 323 370
#
# _framework density 20.121161000000001
#
# number of rings (size 3 to 8) (size 9 to 14) (size 15 to 20)
#    0.000    1.714    8.571    0.000    0.000    1.143 
#    2.571    0.000    6.286    0.000    0.000    0.000 
#    0.000    0.000    0.000    0.000    0.000    0.000 
#
# Total GULP energy -77934.155996 kJ/mol
# GULP energy per Si atom -5566.725428 kJ/mol
# Density = 2.007536 g / cm^3
# Si number density = 20.121161 Si / 1000 Ang^3
#
#
#
# Elastic Constant Matrix: (Units=GPa)
#
#
# Indices 1 2 3 4 5 6 
#
# 1 122.2488 22.9209 21.5139 0.0000 4.2745 0.0000
# 2 22.9209 108.0561 9.2514 0.0000 -0.5609 0.0000
# 3 21.5139 9.2514 46.9907 0.0000 8.1787 0.0000
# 4 0.0000 0.0000 0.0000 61.4091 0.0000 131.6393
# 5 4.2745 -0.5609 8.1787 0.0000 6.4680 0.0000
# 6 0.0000 0.0000 0.0000 131.6393 0.0000 375.9361
#
#
#
# Elastic Compliance Matrix: (Units=1/GPa)
#
#
# Indices 1 2 3 4 5 6 
#
# 1 0.009179 -0.001649 -0.003586 0.000000 -0.001674 0.000000
# 2 -0.001649 0.009793 -0.001937 0.000000 0.004388 0.000000
# 3 -0.003586 -0.001937 0.029389 0.000000 -0.034959 0.000000
# 4 0.000000 0.000000 0.000000 0.065301 0.000000 -0.022866
# 5 -0.001674 0.004388 -0.034959 0.000000 0.200298 0.000000
# 6 0.000000 0.000000 0.000000 -0.022866 0.000000 0.010667
#
#
# Mechanical properties :
#
#
# Convention : Reuss Voigt Hill
#
# Bulk Modulus (GPa) = 29.39754 42.74092 36.06923
# Shear Modulus (GPa) = 14.27310 103.66994 58.97152
#
# Velocity S-wave (km/s) = 2.66627 7.18573 5.41958
# Velocity P-wave (km/s) = 4.91127 9.49390 7.55827
#
# Compressibility (1/GPa) = 0.03401645
#
# Stress axis : x y z
#
# Youngs Moduli (GPa) = 108.94622 102.11619 34.02655
#
# Poissons Ratio (x) = 0.16835 0.12203
# Poissons Ratio (y) = 0.17961 0.06591
# Poissons Ratio (z) = 0.39073 0.19779
#
# Static dielectric constant tensor:
#      x y z
#    x 1.742890 0.000000 0.014880 
#    y 0.000000 1.547170 0.000000 
#    z 0.014880 0.000000 1.744660 
# 
# From -- ./inp_files/22682.got.cif
#   From: 2010.05.17/outbox.cif.g08.bks.cpg/sg9_12_cif.got.tgz:22682.got - 2010.06.03 20:04:27.
