data_PCOD9134639
_publ_section_title
;
Structure prediction by ZEFSAII (Michael W. Deem and Ramdas Pophale) SiO2 
 PCOD9134639
Probable space group: C C
;
_chemical_formula_sum "Si O2"
_cell_formula_units_Z 32
_cell_length_a 12.206998
_cell_length_b 8.570005
_cell_length_c 18.531557
_cell_angle_alpha 90.000000
_cell_angle_beta 44.501240
_cell_angle_gamma 90.000000
_cell_volume 1358.855333
_symmetry_space_group_name_H-M "C C"
_symmetry_group_IT_number 9
_symmetry_cell_setting 'monoclinic'
loop_
_space_group_symop_operation_xyz
x,y,z
x,-y,1/2+z
1/2+x,1/2+y,z
1/2+x,1/2-y,1/2+z
loop_
_atom_site_type_symbol
_atom_site_label
_atom_site_fract_x
_atom_site_fract_y
_atom_site_fract_z
Si Si1 0.475950 0.888758 0.367030
Si Si2 0.446182 0.572787 0.298332
Si Si3 0.646224 0.145957 0.923805
Si Si4 0.258837 0.984575 0.857044
Si Si5 0.686313 0.123177 0.218386
Si Si6 0.652045 0.083321 0.072544
Si Si7 0.517598 0.636873 0.885253
Si Si8 0.466431 0.214358 0.659024
O O1 0.432044 0.719123 0.358446
O O2 0.503442 0.889794 0.438546
O O3 0.340488 0.993342 0.395371
O O4 0.644818 0.941532 0.253291
O O5 0.281139 0.486775 0.360334
O O6 0.555107 0.458119 0.293391
O O7 0.506260 0.647192 0.195871
O O8 0.730349 0.303421 0.857318
O O9 0.583652 0.168797 0.034636
O O10 0.584079 0.802599 0.831492
O O11 0.094418 0.067771 0.920550
O O12 0.854890 0.203595 0.151722
O O13 0.617465 0.141166 0.169909
O O14 0.611212 0.900513 0.076836
O O15 0.835051 0.118563 0.979741
O O16 0.860706 0.584972 0.751960
#
# Coordination Sequence:
#
# PCOD9134639 Si02
#       8
#     4   4   4   4   4   4   4   4
#     4  11  20  39  72  94 131 183 229 276 360 415
#     4  10  19  38  68  94 127 177 228 277 354 408
#     4  11  23  40  68 103 133 181 232 290 348 413
#     4  10  21  42  68  97 133 185 229 283 356 419
#     4  11  22  44  69  98 143 194 225 295 363 411
#     4  11  24  41  67 105 142 179 247 294 339 433
#     4  10  23  42  71  99 141 189 235 294 353 421
#     4  10  22  40  67 100 134 182 235 287 349 422
#
# _framework density 23.549233000000001
#
# number of rings (size 3 to 8) (size 9 to 14) (size 15 to 20)
#    0.000    1.500    5.000    1.500    0.000    2.000 
#    4.500    5.000    5.500    0.000    0.000    0.000 
#    0.000    0.000    0.000    0.000    0.000    0.000 
#
# Total GULP energy -89164.770113 kJ/mol
# GULP energy per Si atom -5572.798132 kJ/mol
# Density = 2.349563 g / cm^3
# Si number density = 23.549233 Si / 1000 Ang^3
#
#
#
# Elastic Constant Matrix: (Units=GPa)
#
#
# Indices 1 2 3 4 5 6 
#
# 1 187.6898 37.8774 37.3484 0.0000 18.2585 0.0000
# 2 37.8774 94.8144 12.4866 0.0000 1.3178 0.0000
# 3 37.3484 12.4866 32.2570 0.0000 11.0979 0.0000
# 4 0.0000 0.0000 0.0000 15.0655 0.0000 -1.3795
# 5 18.2585 1.3178 11.0979 0.0000 19.7124 0.0000
# 6 0.0000 0.0000 0.0000 -1.3795 0.0000 45.7751
#
#
#
# Elastic Compliance Matrix: (Units=1/GPa)
#
#
# Indices 1 2 3 4 5 6 
#
# 1 0.007357 -0.002010 -0.006749 0.000000 -0.002880 0.000000
# 2 -0.002010 0.011732 -0.003206 0.000000 0.002882 0.000000
# 3 -0.006749 -0.003206 0.046920 0.000000 -0.019950 0.000000
# 4 0.000000 0.000000 0.000000 0.066560 0.000000 0.002006
# 5 -0.002880 0.002882 -0.019950 0.000000 0.064436 0.000000
# 6 0.000000 0.000000 0.000000 0.002006 0.000000 0.021906
#
#
# Mechanical properties :
#
#
# Convention : Reuss Voigt Hill
#
# Bulk Modulus (GPa) = 23.76474 54.46510 39.11492
# Shear Modulus (GPa) = 19.46528 31.24718 25.35623
#
# Velocity S-wave (km/s) = 2.87815 3.64660 3.28492
# Velocity P-wave (km/s) = 4.59983 6.39599 5.57077
#
# Compressibility (1/GPa) = 0.04207914
#
# Stress axis : x y z
#
# Youngs Moduli (GPa) = 135.92963 85.23650 21.31300
#
# Poissons Ratio (x) = 0.17134 0.14384
# Poissons Ratio (y) = 0.27324 0.06832
# Poissons Ratio (z) = 0.91737 0.27324
#
# Static dielectric constant tensor:
#      x y z
#    x 1.927060 0.000000 0.000450 
#    y 0.000000 1.974230 0.000000 
#    z 0.000450 0.000000 1.986960 
# 
# From -- ./inp_files/33203.got.cif
#   From: 2010.05.17/outbox.cif.g08.bks.cpg/sg9_17_cif.got.tgz:33203.got - 2010.06.03 20:04:27.
