data_PCOD9134883
_publ_section_title
;
Structure prediction by ZEFSAII (Michael W. Deem and Ramdas Pophale) SiO2 
 PCOD9134883
Probable space group: C C
;
_chemical_formula_sum "Si O2"
_cell_formula_units_Z 32
_cell_length_a 14.719749
_cell_length_b 20.711653
_cell_length_c 8.435518
_cell_angle_alpha 90.000000
_cell_angle_beta 32.810928
_cell_angle_gamma 90.000000
_cell_volume 1393.544510
_symmetry_space_group_name_H-M "C C"
_symmetry_group_IT_number 9
_symmetry_cell_setting 'monoclinic'
loop_
_space_group_symop_operation_xyz
x,y,z
x,-y,1/2+z
1/2+x,1/2+y,z
1/2+x,1/2-y,1/2+z
loop_
_atom_site_type_symbol
_atom_site_label
_atom_site_fract_x
_atom_site_fract_y
_atom_site_fract_z
Si Si1 0.494210 0.108366 0.867170
Si Si2 0.685694 0.308317 0.662227
Si Si3 0.637814 0.859496 0.842322
Si Si4 0.271420 0.095728 0.803187
Si Si5 0.718027 0.518672 0.206933
Si Si6 0.071687 0.693279 0.002371
Si Si7 0.192156 0.768269 0.111711
Si Si8 0.001521 0.122672 0.693928
O O1 0.631017 0.116100 0.532416
O O2 0.555659 0.123342 0.952079
O O3 0.347823 0.160847 0.021137
O O4 0.401376 0.040411 0.999162
O O5 0.694618 0.336196 0.472742
O O6 0.651152 0.233706 0.738346
O O7 0.532916 0.338102 0.985372
O O8 0.633065 0.780839 0.836062
O O9 0.809165 0.884324 0.516956
O O10 0.469442 0.889207 0.011273
O O11 0.206742 0.057769 0.745629
O O12 0.220203 0.049352 0.028008
O O13 0.591412 0.556161 0.510956
O O14 0.183601 0.716778 0.980300
O O15 0.884462 0.710330 0.338403
O O16 0.085251 0.829867 0.205522
#
# Coordination Sequence:
#
# PCOD9134883 Si02
#       8
#     4   4   4   4   4   4   4   4
#     4   9  19  34  53  78 111 147 174 228 283 323
#     4   8  16  32  52  73 109 141 179 210 281 317
#     4  10  20  34  54  85 114 140 181 237 281 320
#     4   9  20  36  56  78 104 148 185 229 275 327
#     4   9  18  38  58  72 106 149 188 223 275 332
#     4  11  17  34  55  81 111 154 179 217 275 348
#     4  11  19  32  58  84 113 144 188 218 279 341
#     4   9  17  34  56  77 110 145 176 222 287 318
#
# _framework density 22.963025999999999
#
# number of rings (size 3 to 8) (size 9 to 14) (size 15 to 20)
#    0.000    3.000    6.250    0.000    0.000    3.000 
#    0.000    5.000    2.750    0.000    0.000    0.000 
#    0.000    0.000    0.000    0.000    0.000    0.000 
#
# Total GULP energy -89071.973841 kJ/mol
# GULP energy per Si atom -5566.998365 kJ/mol
# Density = 2.291076 g / cm^3
# Si number density = 22.963026 Si / 1000 Ang^3
#
#
#
# Elastic Constant Matrix: (Units=GPa)
#
#
# Indices 1 2 3 4 5 6 
#
# 1 31.9731 23.1175 15.9959 0.0001 0.3592 -0.0001
# 2 23.1175 57.7586 21.2566 0.0000 2.7859 0.0000
# 3 15.9959 21.2566 144.7225 0.0001 -16.3251 -0.0001
# 4 0.0001 0.0000 0.0001 13.2863 -0.0001 6.3308
# 5 0.3592 2.7859 -16.3251 -0.0001 16.5760 0.0001
# 6 -0.0001 0.0000 -0.0001 6.3308 0.0001 42.8139
#
#
#
# Elastic Compliance Matrix: (Units=1/GPa)
#
#
# Indices 1 2 3 4 5 6 
#
# 1 0.044826 -0.016981 -0.002529 0.000000 -0.000608 0.000000
# 2 -0.016981 0.025368 -0.002575 0.000000 -0.006431 0.000000
# 3 -0.002529 -0.002575 0.008575 0.000000 0.008933 0.000000
# 4 0.000000 0.000000 0.000000 0.080971 0.000000 -0.011973
# 5 -0.000608 -0.006431 0.008933 0.000000 0.070220 0.000000
# 6 0.000000 0.000000 0.000000 -0.011973 0.000000 0.025127
#
#
# Mechanical properties :
#
#
# Convention : Reuss Voigt Hill
#
# Bulk Modulus (GPa) = 28.90213 39.46602 34.18408
# Shear Modulus (GPa) = 16.08801 26.14084 21.11442
#
# Velocity S-wave (km/s) = 2.64977 3.37766 3.03561
# Velocity P-wave (km/s) = 4.68779 5.69522 5.21589
#
# Compressibility (1/GPa) = 0.03459952
#
# Stress axis : x y z
#
# Youngs Moduli (GPa) = 22.30828 39.42001 116.61693
#
# Poissons Ratio (x) = 0.66941 0.29492
# Poissons Ratio (y) = 0.37883 0.30023
# Poissons Ratio (z) = 0.05642 0.10149
#
# Static dielectric constant tensor:
#      x y z
#    x 1.956460 0.000000 0.069670 
#    y 0.000000 1.912070 0.000000 
#    z 0.069670 0.000000 1.877730 
# 
# From -- ./inp_files/11079.got.cif
#   From: 2010.05.17/outbox.cif.g08.bks.cpg/sg9_6_cif.got.tgz:11079.got - 2010.06.03 20:04:27.
