data_PCOD9134583
_publ_section_title
;
Structure prediction by ZEFSAII (Michael W. Deem and Ramdas Pophale) SiO2 
 PCOD9134583
Probable space group: C C
;
_chemical_formula_sum "Si O2"
_cell_formula_units_Z 32
_cell_length_a 12.094190
_cell_length_b 10.801950
_cell_length_c 11.128930
_cell_angle_alpha 90.000000
_cell_angle_beta 87.223034
_cell_angle_gamma 90.000000
_cell_volume 1452.185402
_symmetry_space_group_name_H-M "C C"
_symmetry_group_IT_number 9
_symmetry_cell_setting 'monoclinic'
loop_
_space_group_symop_operation_xyz
x,y,z
x,-y,1/2+z
1/2+x,1/2+y,z
1/2+x,1/2-y,1/2+z
loop_
_atom_site_type_symbol
_atom_site_label
_atom_site_fract_x
_atom_site_fract_y
_atom_site_fract_z
Si Si1 0.675620 0.715522 0.735670
Si Si2 0.694818 0.546248 0.510205
Si Si3 0.444247 0.395193 0.258306
Si Si4 0.467932 0.532296 0.005434
Si Si5 0.236211 0.693709 0.658697
Si Si6 0.336930 0.157969 0.938702
Si Si7 0.091438 0.719361 0.875456
Si Si8 0.728486 0.077032 0.050797
O O1 0.707749 0.603447 0.641933
O O2 0.549300 0.690126 0.779948
O O3 0.761562 0.715699 0.838505
O O4 0.680743 0.841127 0.660767
O O5 0.598401 0.440676 0.509355
O O6 0.804692 0.487542 0.448383
O O7 0.640290 0.657274 0.435959
O O8 0.458227 0.440663 0.120192
O O9 0.447933 0.497801 0.364311
O O10 0.327012 0.328911 0.258782
O O11 0.358699 0.615381 0.032233
O O12 0.293367 0.790528 0.567780
O O13 0.124038 0.726582 0.734065
O O14 0.222717 0.566361 0.585852
O O15 0.463088 0.195101 0.908939
O O16 0.157102 0.608174 0.938013
#
# Coordination Sequence:
#
# PCOD9134583 Si02
#       8
#     4   4   4   4   4   4   4   4
#     4  10  23  43  67  99 142 181 235 298 366 437
#     4  10  24  46  71  99 141 187 238 301 364 436
#     4  10  20  41  67 103 131 183 236 298 357 427
#     4  10  19  37  72  95 130 182 237 291 356 425
#     4  11  25  41  72 100 138 184 241 293 369 435
#     4  12  26  44  71 106 140 189 246 294 364 447
#     4  11  25  46  66 102 147 186 232 300 367 430
#     4  10  22  42  66  98 137 180 231 297 363 435
#
# _framework density 22.035754000000001
#
# number of rings (size 3 to 8) (size 9 to 14) (size 15 to 20)
#    0.000    1.500    2.500    3.000    3.500    5.000 
#    2.250    1.250    0.000    0.000    0.000    0.000 
#    0.000    0.000    0.000    0.000    0.000    0.000 
#
# Total GULP energy -89189.852748 kJ/mol
# GULP energy per Si atom -5574.365797 kJ/mol
# Density = 2.198560 g / cm^3
# Si number density = 22.035754 Si / 1000 Ang^3
#
#
#
# Elastic Constant Matrix: (Units=GPa)
#
#
# Indices 1 2 3 4 5 6 
#
# 1 138.7702 39.0387 48.5774 0.0000 -12.8255 0.0000
# 2 39.0387 41.2631 11.3883 0.0000 -7.9154 0.0000
# 3 48.5774 11.3883 95.2003 0.0000 -7.9648 0.0000
# 4 0.0000 0.0000 0.0000 17.9631 0.0000 0.0440
# 5 -12.8255 -7.9154 -7.9648 0.0000 40.7368 0.0000
# 6 0.0000 0.0000 0.0000 0.0440 0.0000 26.2490
#
#
#
# Elastic Compliance Matrix: (Units=1/GPa)
#
#
# Indices 1 2 3 4 5 6 
#
# 1 0.011616 -0.009519 -0.004715 0.000000 0.000886 0.000000
# 2 -0.009519 0.033646 0.001147 0.000000 0.003765 0.000000
# 3 -0.004715 0.001147 0.012878 0.000000 0.001256 0.000000
# 4 0.000000 0.000000 0.000000 0.055670 0.000000 -0.000093
# 5 0.000886 0.003765 0.001256 0.000000 0.025804 0.000000
# 6 0.000000 0.000000 0.000000 -0.000093 0.000000 0.038097
#
#
# Mechanical properties :
#
#
# Convention : Reuss Voigt Hill
#
# Bulk Modulus (GPa) = 31.28158 52.58248 41.93203
# Shear Modulus (GPa) = 23.30577 28.73839 26.02208
#
# Velocity S-wave (km/s) = 3.25566 3.61525 3.44015
# Velocity P-wave (km/s) = 5.32532 6.42969 5.90338
#
# Compressibility (1/GPa) = 0.03196770
#
# Stress axis : x y z
#
# Youngs Moduli (GPa) = 86.08619 29.72106 77.65349
#
# Poissons Ratio (x) = 0.28291 0.36610
# Poissons Ratio (y) = 0.81945 -0.08909
# Poissons Ratio (z) = 0.40586 -0.03410
#
# Static dielectric constant tensor:
#      x y z
#    x 1.851010 0.000000 -0.037500 
#    y 0.000000 1.862280 0.000000 
#    z -0.037500 0.000000 1.832970 
# 
# From -- ./inp_files/16164.got.cif
#   From: 2010.05.17/outbox.cif.g08.bks.cpg/sg9_9_cif.got.tgz:16164.got - 2010.06.03 20:04:27.
