data_PCOD9134640
_publ_section_title
;
Structure prediction by ZEFSAII (Michael W. Deem and Ramdas Pophale) SiO2 
 PCOD9134640
Probable space group: C C
;
_chemical_formula_sum "Si O2"
_cell_formula_units_Z 28
_cell_length_a 12.832287
_cell_length_b 5.492854
_cell_length_c 21.806541
_cell_angle_alpha 90.000000
_cell_angle_beta 133.908227
_cell_angle_gamma 90.000000
_cell_volume 1107.372352
_symmetry_space_group_name_H-M "C C"
_symmetry_group_IT_number 9
_symmetry_cell_setting 'monoclinic'
loop_
_space_group_symop_operation_xyz
x,y,z
x,-y,1/2+z
1/2+x,1/2+y,z
1/2+x,1/2-y,1/2+z
loop_
_atom_site_type_symbol
_atom_site_label
_atom_site_fract_x
_atom_site_fract_y
_atom_site_fract_z
Si Si1 0.083630 0.467349 0.900800
Si Si2 0.209437 0.729356 0.325762
Si Si3 0.856759 0.241731 0.558019
Si Si4 0.252592 0.164736 0.139116
Si Si5 0.182419 0.314013 0.673367
Si Si6 0.461865 0.402843 0.445335
Si Si7 0.711611 0.626022 0.408551
O O1 0.118327 0.386695 0.844777
O O2 0.070731 0.753309 0.881502
O O3 0.979757 0.282981 0.894217
O O4 0.236669 0.471346 0.002150
O O5 0.188492 0.649510 0.248545
O O6 0.378890 0.659650 0.404698
O O7 0.176997 0.008081 0.328332
O O8 0.873838 0.298652 0.636785
O O9 0.771181 0.439112 0.482745
O O10 0.015403 0.233122 0.594483
O O11 0.222411 0.426910 0.158551
O O12 0.272685 0.927320 0.190058
O O13 0.116299 0.094491 0.040301
O O14 0.351991 0.279057 0.448156
#
# Coordination Sequence:
#
# PCOD9134640 Si02
#       7
#     4   4   4   4   4   4   4
#     4   9  21  39  66  97 127 174 235 282 338 407
#     4  10  24  40  62  96 139 178 223 281 355 404
#     4  10  23  41  68  98 130 173 230 283 334 407
#     4  11  26  42  72  98 132 182 230 276 344 405
#     4  12  26  45  66  99 144 179 218 285 346 415
#     4  10  21  41  68  97 131 181 233 285 338 416
#     4  10  19  38  68  95 127 171 229 292 331 404
#
# _framework density 25.285081999999999
#
# number of rings (size 3 to 8) (size 9 to 14) (size 15 to 20)
#    0.000    1.714    1.429    2.571    8.000    3.429 
#    0.000    0.000    0.000    0.000    0.000    0.000 
#    0.000    0.000    0.000    0.000    0.000    0.000 
#
# Total GULP energy -78008.829125 kJ/mol
# GULP energy per Si atom -5572.059223 kJ/mol
# Density = 2.522753 g / cm^3
# Si number density = 25.285082 Si / 1000 Ang^3
#
#
#
# Elastic Constant Matrix: (Units=GPa)
#
#
# Indices 1 2 3 4 5 6 
#
# 1 153.1958 50.7335 21.2383 0.0000 -36.8848 0.0000
# 2 50.7335 88.0698 6.7614 0.0000 -11.3786 0.0001
# 3 21.2383 6.7614 74.5849 0.0000 -27.7641 0.0000
# 4 0.0000 0.0000 0.0000 18.8796 0.0000 -2.9193
# 5 -36.8848 -11.3786 -27.7641 0.0000 41.3821 0.0000
# 6 0.0000 0.0001 0.0000 -2.9193 0.0000 35.8041
#
#
#
# Elastic Compliance Matrix: (Units=1/GPa)
#
#
# Indices 1 2 3 4 5 6 
#
# 1 0.009925 -0.004738 0.000548 0.000000 0.007912 0.000000
# 2 -0.004738 0.014036 -0.000078 0.000000 -0.000416 0.000000
# 3 0.000548 -0.000078 0.017904 0.000000 0.012479 0.000000
# 4 0.000000 0.000000 0.000000 0.053644 0.000000 0.004374
# 5 0.007912 -0.000416 0.012479 0.000000 0.039476 0.000000
# 6 0.000000 0.000000 0.000000 0.004374 0.000000 0.028286
#
#
# Mechanical properties :
#
#
# Convention : Reuss Voigt Hill
#
# Bulk Modulus (GPa) = 30.00214 52.59075 41.29644
# Shear Modulus (GPa) = 27.33498 35.02099 31.17799
#
# Velocity S-wave (km/s) = 3.29153 3.72566 3.51530
# Velocity P-wave (km/s) = 5.13195 6.27309 5.73099
#
# Compressibility (1/GPa) = 0.03333096
#
# Stress axis : x y z
#
# Youngs Moduli (GPa) = 100.75083 71.24520 55.85368
#
# Poissons Ratio (x) = 0.33753 -0.03063
# Poissons Ratio (y) = 0.47731 0.00436
# Poissons Ratio (z) = -0.05526 0.00557
#
# Static dielectric constant tensor:
#      x y z
#    x 2.092660 0.000000 0.050880 
#    y 0.000000 2.391880 0.000000 
#    z 0.050880 0.000000 2.041840 
# 
# From -- ./inp_files/30282.got.cif
#   From: 2010.05.17/outbox.cif.g08.bks.cpg/sg9_16_cif.got.tgz:30282.got - 2010.06.03 20:04:27.
