data_PCOD9134989
_publ_section_title
;
Structure prediction by ZEFSAII (Michael W. Deem and Ramdas Pophale) SiO2 
 PCOD9134989
Probable space group: C C
;
_chemical_formula_sum "Si O2"
_cell_formula_units_Z 32
_cell_length_a 13.714478
_cell_length_b 19.751878
_cell_length_c 5.122555
_cell_angle_alpha 90.000000
_cell_angle_beta 89.068450
_cell_angle_gamma 90.000000
_cell_volume 1387.448599
_symmetry_space_group_name_H-M "C C"
_symmetry_group_IT_number 9
_symmetry_cell_setting 'monoclinic'
loop_
_space_group_symop_operation_xyz
x,y,z
x,-y,1/2+z
1/2+x,1/2+y,z
1/2+x,1/2-y,1/2+z
loop_
_atom_site_type_symbol
_atom_site_label
_atom_site_fract_x
_atom_site_fract_y
_atom_site_fract_z
Si Si1 0.793050 0.870522 0.372870
Si Si2 0.710637 0.747681 0.571391
Si Si3 0.691599 0.453863 0.487617
Si Si4 0.005301 0.137574 0.890892
Si Si5 0.797835 0.266472 0.568729
Si Si6 0.503744 0.730340 0.391162
Si Si7 0.104045 0.457283 0.433019
Si Si8 0.896788 0.545961 0.836407
O O1 0.768400 0.817950 0.604617
O O2 0.793326 0.813922 0.146031
O O3 0.703831 0.920574 0.358710
O O4 0.900338 0.899855 0.406315
O O5 0.510330 0.669106 0.601750
O O6 0.606870 0.765149 0.450591
O O7 0.716763 0.717383 0.856711
O O8 0.690306 0.484738 0.777300
O O9 0.596050 0.409659 0.447360
O O10 0.795853 0.418305 0.418584
O O11 0.999767 0.198615 0.102940
O O12 0.768166 0.296567 0.852199
O O13 0.907617 0.273772 0.460778
O O14 0.101991 0.478812 0.735128
O O15 0.001643 0.419994 0.377439
O O16 0.895791 0.517305 0.542621
#
# Coordination Sequence:
#
# PCOD9134989 Si02
#       8
#     4   4   4   4   4   4   4   4
#     4   9  22  36  56  79 117 148 184 223 291 340
#     4  10  20  36  60  77 106 151 188 228 285 342
#     4  10  20  36  58  82 113 151 192 230 278 335
#     4  11  22  36  59  84 118 151 188 233 292 338
#     4   9  19  36  56  79 106 149 181 224 290 338
#     4  11  20  38  58  82 111 147 195 233 284 346
#     4  10  21  33  55  82 111 149 188 231 274 332
#     4   8  16  33  52  71 102 144 180 224 276 315
#
# _framework density 23.063915999999999
#
# number of rings (size 3 to 8) (size 9 to 14) (size 15 to 20)
#    0.750    1.500    1.250    1.500    1.750    1.000 
#    0.000    2.500    0.000    0.000    0.000    0.000 
#    0.000    0.000    0.000    0.000    0.000    0.000 
#
# Total GULP energy -89186.987259 kJ/mol
# GULP energy per Si atom -5574.186704 kJ/mol
# Density = 2.301142 g / cm^3
# Si number density = 23.063916 Si / 1000 Ang^3
#
#
#
# Elastic Constant Matrix: (Units=GPa)
#
#
# Indices 1 2 3 4 5 6 
#
# 1 198.9891 29.2472 3.2916 0.0000 -7.4411 0.0000
# 2 29.2472 23.6077 -1.5735 0.0000 0.6870 0.0000
# 3 3.2916 -1.5735 97.5800 0.0000 5.2178 0.0000
# 4 0.0000 0.0000 0.0000 10.2621 0.0000 -0.4057
# 5 -7.4411 0.6870 5.2178 0.0000 26.8136 0.0000
# 6 0.0000 0.0000 0.0000 -0.4057 0.0000 39.8239
#
#
#
# Elastic Compliance Matrix: (Units=1/GPa)
#
#
# Indices 1 2 3 4 5 6 
#
# 1 0.006262 -0.007846 -0.000446 0.000000 0.002026 0.000000
# 2 -0.007846 0.052277 0.001309 0.000000 -0.003772 0.000000
# 3 -0.000446 0.001309 0.010401 0.000000 -0.002181 0.000000
# 4 0.000000 0.000000 0.000000 0.097486 0.000000 0.000993
# 5 0.002026 -0.003772 -0.002181 0.000000 0.038378 0.000000
# 6 0.000000 0.000000 0.000000 0.000993 0.000000 0.025121
#
#
# Mechanical properties :
#
#
# Convention : Reuss Voigt Hill
#
# Bulk Modulus (GPa) = 18.19069 42.45638 30.32353
# Shear Modulus (GPa) = 19.06844 34.66070 26.86457
#
# Velocity S-wave (km/s) = 2.87847 3.88082 3.41660
# Velocity P-wave (km/s) = 4.35335 6.20718 5.36100
#
# Compressibility (1/GPa) = 0.05497319
#
# Stress axis : x y z
#
# Youngs Moduli (GPa) = 159.69961 19.12901 96.14648
#
# Poissons Ratio (x) = 0.15009 0.04289
# Poissons Ratio (y) = 1.25304 -0.12589
# Poissons Ratio (z) = 0.07123 -0.02505
#
# Static dielectric constant tensor:
#      x y z
#    x 1.949190 0.000000 -0.040380 
#    y 0.000000 1.900620 0.000000 
#    z -0.040380 0.000000 1.878850 
# 
# From -- ./inp_files/2049.got.cif
#   From: 2010.05.17/outbox.cif.g08.bks.cpg/sg9_2_cif.got.tgz:2049.got - 2010.06.03 20:04:27.
