data_PCOD9134090
_publ_section_title
;
Structure prediction by ZEFSAII (Michael W. Deem and Ramdas Pophale) SiO2 
 PCOD9134090
Probable space group: C C
;
_chemical_formula_sum "Si O2"
_cell_formula_units_Z 32
_cell_length_a 16.499090
_cell_length_b 9.374650
_cell_length_c 25.440319
_cell_angle_alpha 90.000000
_cell_angle_beta 25.201197
_cell_angle_gamma 90.000000
_cell_volume 1675.488389
_symmetry_space_group_name_H-M "C C"
_symmetry_group_IT_number 9
_symmetry_cell_setting 'monoclinic'
loop_
_space_group_symop_operation_xyz
x,y,z
x,-y,1/2+z
1/2+x,1/2+y,z
1/2+x,1/2-y,1/2+z
loop_
_atom_site_type_symbol
_atom_site_label
_atom_site_fract_x
_atom_site_fract_y
_atom_site_fract_z
Si Si1 0.281480 0.990009 0.763490
Si Si2 0.857194 0.046000 0.255880
Si Si3 0.517568 0.709734 0.617240
Si Si4 0.101952 0.729119 0.559797
Si Si5 0.572345 0.287710 0.454956
Si Si6 0.338335 0.680027 0.862362
Si Si7 0.905324 0.026117 0.419139
Si Si8 0.194724 0.685940 0.112744
O O1 0.450755 0.098029 0.648514
O O2 0.173053 0.069195 0.874370
O O3 0.380544 0.839290 0.714079
O O4 0.116501 0.965113 0.817549
O O5 0.681236 0.153291 0.364398
O O6 0.031855 0.155575 0.143756
O O7 0.893916 0.933127 0.187410
O O8 0.839479 0.938667 0.315690
O O9 0.634918 0.753372 0.496859
O O10 0.668830 0.706642 0.577563
O O11 0.093803 0.783537 0.504883
O O12 0.307612 0.667165 0.453902
O O13 0.358803 0.278121 0.558052
O O14 0.404423 0.591316 0.874141
O O15 0.492182 0.801528 0.759708
O O16 0.761951 0.962638 0.547621
#
# Coordination Sequence:
#
# PCOD9134090 Si02
#       8
#     4   4   4   4   4   4   4   4
#     4  10  20  36  64  84 121 160 200 249 299 360
#     4  10  22  36  59  87 119 151 200 245 304 358
#     4  10  20  39  59  86 119 157 195 247 302 360
#     4  11  20  38  59  87 124 156 202 248 301 360
#     4  10  20  37  61  89 116 158 198 254 296 357
#     4  10  18  36  60  83 121 161 191 248 297 359
#     4  10  19  36  61  88 117 163 201 243 307 359
#     4   9  19  34  61  88 111 158 207 236 298 361
#
# _framework density 19.098908999999999
#
# number of rings (size 3 to 8) (size 9 to 14) (size 15 to 20)
#    0.000    2.000    3.750    0.750    0.000    3.000 
#    4.500    0.000    8.250    0.000    0.000    0.000 
#    0.000    0.000    0.000    0.000    0.000    0.000 
#
# Total GULP energy -89072.431750 kJ/mol
# GULP energy per Si atom -5567.026984 kJ/mol
# Density = 1.905544 g / cm^3
# Si number density = 19.098909 Si / 1000 Ang^3
#
#
#
# Elastic Constant Matrix: (Units=GPa)
#
#
# Indices 1 2 3 4 5 6 
#
# 1 64.5871 18.3886 26.7002 -0.0003 -1.3179 0.0000
# 2 18.3886 68.1643 33.9412 -0.0032 -1.6745 0.0002
# 3 26.7002 33.9412 74.8368 -0.0100 -3.9939 0.0022
# 4 -0.0003 -0.0032 -0.0100 29.4220 -0.0010 6.6497
# 5 -1.3179 -1.6745 -3.9939 -0.0010 20.0724 0.0000
# 6 0.0000 0.0002 0.0022 6.6497 0.0000 20.0305
#
#
#
# Elastic Compliance Matrix: (Units=1/GPa)
#
#
# Indices 1 2 3 4 5 6 
#
# 1 0.018412 -0.002191 -0.005580 -0.000002 -0.000084 0.000001
# 2 -0.002191 0.019211 -0.007938 -0.000001 -0.000121 0.000001
# 3 -0.005580 -0.007938 0.019101 0.000007 0.002772 -0.000004
# 4 -0.000002 -0.000001 0.000007 0.036745 0.000003 -0.012199
# 5 -0.000084 -0.000121 0.002772 0.000003 0.050356 -0.000001
# 6 0.000001 0.000001 -0.000004 -0.012199 -0.000001 0.053974
#
#
# Mechanical properties :
#
#
# Convention : Reuss Voigt Hill
#
# Bulk Modulus (GPa) = 39.51418 40.62759 40.07088
# Shear Modulus (GPa) = 21.03933 22.47553 21.75743
#
# Velocity S-wave (km/s) = 3.32263 3.43417 3.37886
# Velocity P-wave (km/s) = 5.95433 6.08630 6.02068
#
# Compressibility (1/GPa) = 0.02530737
#
# Stress axis : x y z
#
# Youngs Moduli (GPa) = 54.31348 52.05393 52.35285
#
# Poissons Ratio (x) = 0.11403 0.29212
# Poissons Ratio (y) = 0.11898 0.41556
# Poissons Ratio (z) = 0.30306 0.41319
#
# Static dielectric constant tensor:
#      x y z
#    x 1.686730 0.000000 0.030720 
#    y 0.000000 1.678160 0.000000 
#    z 0.030720 0.000000 1.687960 
# 
# From -- ./inp_files/17756.got.cif
#   From: 2010.05.17/outbox.cif.g08.bks.cpg/sg9_9_cif.got.tgz:17756.got - 2010.06.03 20:04:27.
