data_PCOD9134067
_publ_section_title
;
Structure prediction by ZEFSAII (Michael W. Deem and Ramdas Pophale) SiO2 
 PCOD9134067
Probable space group: C C
;
_chemical_formula_sum "Si O2"
_cell_formula_units_Z 32
_cell_length_a 16.875702
_cell_length_b 16.121319
_cell_length_c 11.525027
_cell_angle_alpha 90.000000
_cell_angle_beta 29.725967
_cell_angle_gamma 90.000000
_cell_volume 1554.736140
_symmetry_space_group_name_H-M "C C"
_symmetry_group_IT_number 9
_symmetry_cell_setting 'monoclinic'
loop_
_space_group_symop_operation_xyz
x,y,z
x,-y,1/2+z
1/2+x,1/2+y,z
1/2+x,1/2-y,1/2+z
loop_
_atom_site_type_symbol
_atom_site_label
_atom_site_fract_x
_atom_site_fract_y
_atom_site_fract_z
Si Si1 0.169030 0.857416 0.691150
Si Si2 0.024255 0.085960 0.618578
Si Si3 0.297236 0.990577 0.359939
Si Si4 0.252267 0.695934 0.322820
Si Si5 0.432603 0.723671 0.310485
Si Si6 0.879339 0.631647 0.570821
Si Si7 0.739121 0.155415 0.074900
Si Si8 0.250879 0.842889 0.003773
O O1 0.269578 0.933343 0.506883
O O2 0.290366 0.779478 0.545079
O O3 0.028506 0.830313 0.781865
O O4 0.089712 0.883242 0.912877
O O5 0.088739 0.148620 0.637598
O O6 0.119840 0.003653 0.531099
O O7 0.836889 0.088118 0.877760
O O8 0.395174 0.943744 0.138185
O O9 0.354920 0.084701 0.309812
O O10 0.354539 0.669703 0.305053
O O11 0.323383 0.787884 0.211184
O O12 0.264260 0.651092 0.183143
O O13 0.068122 0.712829 0.589210
O O14 0.745972 0.623027 0.640966
O O15 0.049861 0.648703 0.296825
O O16 0.792238 0.246991 0.963041
#
# Coordination Sequence:
#
# PCOD9134067 Si02
#       8
#     4   4   4   4   4   4   4   4
#     4  11  22  41  60  93 128 165 211 253 322 391
#     4  10  25  38  61  89 127 168 203 255 327 383
#     4  10  21  40  65  87 123 170 209 260 325 379
#     4  10  18  35  60  97 112 155 212 269 298 357
#     4  10  20  35  64  92 122 162 207 265 308 375
#     4  11  19  37  66  86 127 154 221 268 307 372
#     4  11  21  38  62  96 121 158 220 268 302 381
#     4   9  22  36  62  88 122 172 203 256 317 378
#
# _framework density 20.582270000000001
#
# number of rings (size 3 to 8) (size 9 to 14) (size 15 to 20)
#    0.750    1.000    3.750    2.250    3.500    0.000 
#    0.000    1.250   11.000    0.000    0.000    0.000 
#    0.000    0.000    0.000    0.000    0.000    0.000 
#
# Total GULP energy -89074.082253 kJ/mol
# GULP energy per Si atom -5567.130141 kJ/mol
# Density = 2.053542 g / cm^3
# Si number density = 20.582270 Si / 1000 Ang^3
#
#
#
# Elastic Constant Matrix: (Units=GPa)
#
#
# Indices 1 2 3 4 5 6 
#
# 1 88.6446 0.9049 26.5279 0.0001 1.6697 -0.0001
# 2 0.9049 45.7980 16.4258 -0.0001 1.4771 0.0001
# 3 26.5279 16.4258 81.4452 -0.0003 6.6751 0.0003
# 4 0.0001 -0.0001 -0.0003 12.1639 0.0003 4.9846
# 5 1.6697 1.4771 6.6751 0.0003 24.6204 -0.0002
# 6 -0.0001 0.0001 0.0003 4.9846 -0.0002 30.4120
#
#
#
# Elastic Compliance Matrix: (Units=1/GPa)
#
#
# Indices 1 2 3 4 5 6 
#
# 1 0.012574 0.001315 -0.004382 0.000000 0.000256 0.000000
# 2 0.001315 0.023675 -0.005195 0.000000 -0.000101 0.000000
# 3 -0.004382 -0.005195 0.015037 0.000000 -0.003468 0.000000
# 4 0.000000 0.000000 0.000000 0.088130 -0.000001 -0.014445
# 5 0.000256 -0.000101 -0.003468 -0.000001 0.041546 0.000000
# 6 0.000000 0.000000 0.000000 -0.014445 0.000000 0.035249
#
#
# Mechanical properties :
#
#
# Convention : Reuss Voigt Hill
#
# Bulk Modulus (GPa) = 28.76590 33.73389 31.24990
# Shear Modulus (GPa) = 20.46474 24.90787 22.68630
#
# Velocity S-wave (km/s) = 3.15666 3.48251 3.32358
# Velocity P-wave (km/s) = 5.22421 5.70928 5.47212
#
# Compressibility (1/GPa) = 0.03476338
#
# Stress axis : x y z
#
# Youngs Moduli (GPa) = 79.52892 42.23781 66.50119
#
# Poissons Ratio (x) = -0.05554 0.29139
# Poissons Ratio (y) = -0.10457 0.34546
# Poissons Ratio (z) = 0.34848 0.21942
#
# Static dielectric constant tensor:
#      x y z
#    x 1.810470 0.000000 -0.003380 
#    y 0.000000 1.736350 0.000000 
#    z -0.003380 0.000000 1.721350 
# 
# From -- ./inp_files/7973.got.cif
#   From: 2010.05.17/outbox.cif.g08.bks.cpg/sg9_4_cif.got.tgz:7973.got - 2010.06.03 20:04:27.
