data_PCOD9134081
_publ_section_title
;
Structure prediction by ZEFSAII (Michael W. Deem and Ramdas Pophale) SiO2 
 PCOD9134081
Probable space group: C C
;
_chemical_formula_sum "Si O2"
_cell_formula_units_Z 20
_cell_length_a 14.708213
_cell_length_b 11.241333
_cell_length_c 5.177478
_cell_angle_alpha 90.000000
_cell_angle_beta 116.809477
_cell_angle_gamma 90.000000
_cell_volume 764.028703
_symmetry_space_group_name_H-M "C C"
_symmetry_group_IT_number 9
_symmetry_cell_setting 'monoclinic'
loop_
_space_group_symop_operation_xyz
x,y,z
x,-y,1/2+z
1/2+x,1/2+y,z
1/2+x,1/2-y,1/2+z
loop_
_atom_site_type_symbol
_atom_site_label
_atom_site_fract_x
_atom_site_fract_y
_atom_site_fract_z
Si Si1 0.617280 0.639786 0.905970
Si Si2 0.315961 0.885885 0.388557
Si Si3 0.295646 0.262306 0.336287
Si Si4 0.515996 0.950233 0.150287
Si Si5 0.492882 0.330998 0.728963
O O1 0.714414 0.569177 0.908021
O O2 0.540635 0.655879 0.571763
O O3 0.680534 0.757851 0.082214
O O4 0.556279 0.604557 0.084300
O O5 0.350559 0.787714 0.644601
O O6 0.406846 0.979359 0.474595
O O7 0.289901 0.822567 0.084900
O O8 0.373553 0.361430 0.538532
O O9 0.502145 0.811954 0.190999
O O10 0.569775 0.012918 0.457436
#
# Coordination Sequence:
#
# PCOD9134081 Si02
#       5
#     4   4   4   4   4
#     4  10  21  34  48  79 115 159 189 232 295 362
#     4  10  18  36  48  70 122 157 173 236 299 353
#     4  10  19  34  51  73 114 159 181 236 290 353
#     4  12  20  32  52  84 114 150 181 235 301 345
#     4  12  20  32  57  80 113 155 194 237 291 357
#
# _framework density 26.177026999999999
#
# number of rings (size 3 to 8) (size 9 to 14) (size 15 to 20)
#    1.200    0.000    6.000    2.400    0.000    0.000 
#    0.000    0.000    0.000    0.000    0.000    0.000 
#    0.000   64.000    0.000    0.000    0.000    0.000 
#
# Total GULP energy -55720.151386 kJ/mol
# GULP energy per Si atom -5572.015139 kJ/mol
# Density = 2.611745 g / cm^3
# Si number density = 26.177027 Si / 1000 Ang^3
#
#
#
# Elastic Constant Matrix: (Units=GPa)
#
#
# Indices 1 2 3 4 5 6 
#
# 1 114.5494 12.0924 44.1951 0.0000 -6.4831 0.0000
# 2 12.0924 61.0086 14.6356 0.0000 -6.6550 0.0000
# 3 44.1951 14.6356 218.5226 0.0000 -31.1568 0.0000
# 4 0.0000 0.0000 0.0000 16.0438 0.0000 5.5869
# 5 -6.4831 -6.6550 -31.1568 0.0000 53.9685 0.0000
# 6 0.0000 0.0000 0.0000 5.5869 0.0000 42.8444
#
#
#
# Elastic Compliance Matrix: (Units=1/GPa)
#
#
# Indices 1 2 3 4 5 6 
#
# 1 0.009595 -0.001467 -0.001857 0.000000 -0.000100 0.000000
# 2 -0.001467 0.017001 -0.000619 0.000000 0.001563 0.000000
# 3 -0.001857 -0.000619 0.005394 0.000000 0.002815 0.000000
# 4 0.000000 0.000000 0.000000 0.065294 0.000000 -0.008514
# 5 -0.000100 0.001563 0.002815 0.000000 0.020335 0.000000
# 6 0.000000 0.000000 0.000000 -0.008514 0.000000 0.024451
#
#
# Mechanical properties :
#
#
# Convention : Reuss Voigt Hill
#
# Bulk Modulus (GPa) = 41.48571 59.54741 50.51656
# Shear Modulus (GPa) = 31.64719 44.11518 37.88118
#
# Velocity S-wave (km/s) = 3.48079 4.10965 3.80822
# Velocity P-wave (km/s) = 5.66013 6.73174 6.21906
#
# Compressibility (1/GPa) = 0.02410468
#
# Stress axis : x y z
#
# Youngs Moduli (GPa) = 104.21650 58.82025 185.37425
#
# Poissons Ratio (x) = 0.08631 0.34417
# Poissons Ratio (y) = 0.15293 0.11476
# Poissons Ratio (z) = 0.19349 0.03641
#
# Static dielectric constant tensor:
#      x y z
#    x 2.196780 0.000000 0.003050 
#    y 0.000000 2.169980 0.000000 
#    z 0.003050 0.000000 2.153590 
# 
# From -- ./inp_files/1560.got.cif
#   From: 2010.05.17/outbox.cif.g08.bks.cpg/sg9_1_cif.got.tgz:1560.got - 2010.06.03 20:04:27.
