data_PCOD9134523
_publ_section_title
;
Structure prediction by ZEFSAII (Michael W. Deem and Ramdas Pophale) SiO2 
 PCOD9134523
Probable space group: C C
;
_chemical_formula_sum "Si O2"
_cell_formula_units_Z 24
_cell_length_a 13.225673
_cell_length_b 5.842849
_cell_length_c 13.589030
_cell_angle_alpha 90.000000
_cell_angle_beta 121.863604
_cell_angle_gamma 90.000000
_cell_volume 891.857985
_symmetry_space_group_name_H-M "C C"
_symmetry_group_IT_number 9
_symmetry_cell_setting 'monoclinic'
loop_
_space_group_symop_operation_xyz
x,y,z
x,-y,1/2+z
1/2+x,1/2+y,z
1/2+x,1/2-y,1/2+z
loop_
_atom_site_type_symbol
_atom_site_label
_atom_site_fract_x
_atom_site_fract_y
_atom_site_fract_z
Si Si1 0.619230 0.947650 0.173780
Si Si2 0.378595 0.542363 0.482756
Si Si3 0.374963 0.969422 0.921363
Si Si4 0.769804 0.843660 0.597005
Si Si5 0.134448 0.052785 0.043614
Si Si6 0.558374 0.068395 0.363275
O O1 0.494064 0.958212 0.050453
O O2 0.725254 0.102175 0.183273
O O3 0.582007 0.012084 0.263455
O O4 0.661594 0.701135 0.155155
O O5 0.318314 0.785922 0.424227
O O6 0.373621 0.483602 0.597725
O O7 0.513717 0.572829 0.515777
O O8 0.330310 0.296716 0.413020
O O9 0.428880 0.992656 0.839117
O O10 0.755868 0.574795 0.578398
O O11 0.656744 0.925262 0.473804
O O12 0.087830 0.182309 0.922316
#
# Coordination Sequence:
#
# PCOD9134523 Si02
#       6
#     4   4   4   4   4   4
#     4   9  19  36  58  83 115 155 199 241 298 359
#     4  10  19  37  62  81 118 157 193 246 296 354
#     4   9  20  38  58  85 114 156 196 239 302 346
#     4  10  20  35  58  84 116 153 197 244 300 354
#     4   9  19  38  56  84 112 160 194 241 306 350
#     4   9  19  36  58  83 115 155 199 241 298 359
#
# _framework density 26.910112999999999
#
# number of rings (size 3 to 8) (size 9 to 14) (size 15 to 20)
#    0.000    3.333    3.333    0.000    4.667    1.333 
#    0.000    6.667    0.000    0.000    0.000    0.000 
#    0.000    0.000    0.000    0.000    0.000    0.000 
#
# Total GULP energy -66849.041806 kJ/mol
# GULP energy per Si atom -5570.753484 kJ/mol
# Density = 2.684886 g / cm^3
# Si number density = 26.910113 Si / 1000 Ang^3
#
#
#
# Elastic Constant Matrix: (Units=GPa)
#
#
# Indices 1 2 3 4 5 6 
#
# 1 89.2157 28.2585 18.7802 0.0000 -30.9204 0.0000
# 2 28.2585 154.1276 11.2964 0.0000 -31.0626 0.0000
# 3 18.7802 11.2964 106.5053 0.0000 -44.2285 0.0000
# 4 0.0000 0.0000 0.0000 -9.2213 0.0000 -17.2609
# 5 -30.9204 -31.0626 -44.2285 0.0000 56.7320 0.0000
# 6 0.0000 0.0000 0.0000 -17.2609 0.0000 40.3559
#
#
#
# Elastic Compliance Matrix: (Units=1/GPa)
#
#
# Indices 1 2 3 4 5 6 
#
# 1 0.014051 -0.001081 0.000845 0.000000 0.007725 0.000000
# 2 -0.001081 0.007501 0.001266 0.000000 0.004505 0.000000
# 3 0.000845 0.001266 0.014174 0.000000 0.012203 0.000000
# 4 0.000000 0.000000 0.000000 -0.060226 0.000000 -0.025760
# 5 0.007725 0.004505 0.012203 0.000000 0.033817 0.000000
# 6 0.000000 0.000000 0.000000 -0.025760 0.000000 0.013762
#
#
# Mechanical properties :
#
#
# Convention : Reuss Voigt Hill
#
# Bulk Modulus (GPa) = 26.46579 51.83545 39.15062
# Shear Modulus (GPa) = 148.74579 37.00755 92.87667
#
# Velocity S-wave (km/s) = 7.44279 3.71243 5.88121
# Velocity P-wave (km/s) = 9.14966 6.13844 7.79092
#
# Compressibility (1/GPa) = 0.03778463
#
# Stress axis : x y z
#
# Youngs Moduli (GPa) = 71.17130 133.30699 70.55329
#
# Poissons Ratio (x) = 0.14413 -0.05961
# Poissons Ratio (y) = 0.07695 -0.08930
# Poissons Ratio (z) = -0.06014 -0.16873
#
# Static dielectric constant tensor:
#      x y z
#    x 2.099180 0.000000 -0.038420 
#    y 0.000000 2.487440 0.000000 
#    z -0.038420 0.000000 2.163230 
# 
# From -- ./inp_files/25172.got.cif
#   From: 2010.05.17/outbox.cif.g08.bks.cpg/sg9_13_cif.got.tgz:25172.got - 2010.06.03 20:04:27.
