data_PCOD9134051
_publ_section_title
;
Structure prediction by ZEFSAII (Michael W. Deem and Ramdas Pophale) SiO2 
 PCOD9134051
Probable space group: C C
;
_chemical_formula_sum "Si O2"
_cell_formula_units_Z 32
_cell_length_a 34.878343
_cell_length_b 7.385811
_cell_length_c 5.519394
_cell_angle_alpha 90.000000
_cell_angle_beta 68.323957
_cell_angle_gamma 90.000000
_cell_volume 1321.281445
_symmetry_space_group_name_H-M "C C"
_symmetry_group_IT_number 9
_symmetry_cell_setting 'monoclinic'
loop_
_space_group_symop_operation_xyz
x,y,z
x,-y,1/2+z
1/2+x,1/2+y,z
1/2+x,1/2-y,1/2+z
loop_
_atom_site_type_symbol
_atom_site_label
_atom_site_fract_x
_atom_site_fract_y
_atom_site_fract_z
Si Si1 0.488550 0.828239 0.105400
Si Si2 0.744067 0.381067 0.762580
Si Si3 0.458756 0.229993 0.172483
Si Si4 0.084468 0.592252 0.482799
Si Si5 0.831279 0.212219 0.526440
Si Si6 0.364562 0.299499 0.448690
Si Si7 0.073137 0.006189 0.063171
Si Si8 0.159710 0.895731 0.844327
O O1 0.472368 0.713269 0.370340
O O2 0.534368 0.895572 0.072336
O O3 0.460901 0.009695 0.144801
O O4 0.486924 0.738756 0.844270
O O5 0.746456 0.521808 0.524497
O O6 0.782750 0.248228 0.650957
O O7 0.699979 0.279037 0.818631
O O8 0.413816 0.304113 0.335169
O O9 0.097769 0.501527 0.201033
O O10 0.095678 0.801297 0.482885
O O11 0.850810 0.288385 0.727964
O O12 0.844827 0.001092 0.491856
O O13 0.848628 0.288622 0.233537
O O14 0.049807 0.013298 0.368099
O O15 0.110440 0.861848 0.972188
O O16 0.165231 0.961315 0.554896
#
# Coordination Sequence:
#
# PCOD9134051 Si02
#       8
#     4   4   4   4   4   4   4   4
#     4  10  19  35  56  81 111 149 205 242 291 357
#     4  10  19  35  57  90 111 147 201 249 280 356
#     4  10  18  35  55  77 105 152 203 244 295 353
#     4  12  21  38  65  95 128 164 210 272 314 372
#     4  10  21  38  54  83 114 152 193 243 306 353
#     4  10  21  37  58  75 117 150 196 249 309 362
#     4  10  21  38  62  96 129 167 205 260 314 379
#     4   8  16  32  57  87 111 153 193 243 287 358
#
# _framework density 24.218914999999999
#
# number of rings (size 3 to 8) (size 9 to 14) (size 15 to 20)
#    0.000    2.000    2.500    2.250    0.000    0.000 
#   13.500    0.000   16.500    0.000  175.500    0.000 
#    0.000    0.000    0.000    0.000    0.000    0.000 
#
# Total GULP energy -89139.237809 kJ/mol
# GULP energy per Si atom -5571.202363 kJ/mol
# Density = 2.416379 g / cm^3
# Si number density = 24.218915 Si / 1000 Ang^3
#
#
#
# Elastic Constant Matrix: (Units=GPa)
#
#
# Indices 1 2 3 4 5 6 
#
# 1 92.5529 9.8826 27.9008 0.0000 21.2882 0.0000
# 2 9.8826 77.6762 18.9461 0.0000 3.5895 0.0000
# 3 27.9008 18.9461 209.1638 0.0000 65.3357 0.0000
# 4 0.0000 0.0000 0.0000 -47.0058 0.0000 94.3097
# 5 21.2882 3.5895 65.3357 0.0000 50.7061 0.0000
# 6 0.0000 0.0000 0.0000 94.3097 0.0000 -157.5399
#
#
#
# Elastic Compliance Matrix: (Units=1/GPa)
#
#
# Indices 1 2 3 4 5 6 
#
# 1 0.012092 -0.001328 0.000107 0.000000 -0.005120 0.000000
# 2 -0.001328 0.013342 -0.001524 0.000000 0.001576 0.000000
# 3 0.000107 -0.001524 0.008176 0.000000 -0.010471 0.000000
# 4 0.000000 0.000000 0.000000 0.105801 0.000000 0.063337
# 5 -0.005120 0.001576 -0.010471 0.000000 0.035252 0.000000
# 6 0.000000 0.000000 0.000000 0.063337 0.000000 0.031568
#
#
# Mechanical properties :
#
#
# Convention : Reuss Voigt Hill
#
# Bulk Modulus (GPa) = 35.56283 54.76133 45.16208
# Shear Modulus (GPa) = 22.61489 -9.25703 6.67893
#
# Velocity S-wave (km/s) = 3.05908 -1.95717 1.66244
# Velocity P-wave (km/s) = 5.21470 4.18959 4.73000
#
# Compressibility (1/GPa) = 0.02811925
#
# Stress axis : x y z
#
# Youngs Moduli (GPa) = 82.69976 74.95289 122.31460
#
# Poissons Ratio (x) = 0.09953 -0.01304
# Poissons Ratio (y) = 0.10981 0.18638
# Poissons Ratio (z) = -0.00882 0.11421
#
# Static dielectric constant tensor:
#      x y z
#    x 1.942840 0.000000 0.023390 
#    y 0.000000 1.990820 0.000000 
#    z 0.023390 0.000000 1.998260 
# 
# From -- ./inp_files/3439.got.cif
#   From: 2010.05.17/outbox.cif.g08.bks.cpg/sg9_2_cif.got.tgz:3439.got - 2010.06.03 20:04:27.
