data_PCOD9134179
_publ_section_title
;
Structure prediction by ZEFSAII (Michael W. Deem and Ramdas Pophale) SiO2 
 PCOD9134179
Probable space group: C C
;
_chemical_formula_sum "Si O2"
_cell_formula_units_Z 28
_cell_length_a 13.687718
_cell_length_b 5.358103
_cell_length_c 16.771096
_cell_angle_alpha 90.000000
_cell_angle_beta 73.940941
_cell_angle_gamma 90.000000
_cell_volume 1181.997546
_symmetry_space_group_name_H-M "C C"
_symmetry_group_IT_number 9
_symmetry_cell_setting 'monoclinic'
loop_
_space_group_symop_operation_xyz
x,y,z
x,-y,1/2+z
1/2+x,1/2+y,z
1/2+x,1/2-y,1/2+z
loop_
_atom_site_type_symbol
_atom_site_label
_atom_site_fract_x
_atom_site_fract_y
_atom_site_fract_z
Si Si1 0.559290 0.969312 0.255480
Si Si2 0.001276 0.851931 0.897823
Si Si3 0.335039 0.542896 0.680894
Si Si4 0.546406 0.532747 0.714260
Si Si5 0.685801 0.434813 0.962753
Si Si6 0.817154 0.460028 0.276068
Si Si7 0.275127 0.582719 0.513107
O O1 0.557051 0.898812 0.349498
O O2 0.599583 0.730675 0.198957
O O3 0.437904 0.971758 0.265727
O O4 0.605269 0.211362 0.204794
O O5 0.883457 0.847111 0.946403
O O6 0.006207 0.023192 0.816503
O O7 0.070393 0.931506 0.956182
O O8 0.456526 0.543361 0.671122
O O9 0.297431 0.309720 0.742425
O O10 0.308088 0.522161 0.595453
O O11 0.297185 0.805917 0.723803
O O12 0.752336 0.495465 0.869162
O O13 0.707926 0.667812 0.015793
O O14 0.722707 0.166053 0.987947
#
# Coordination Sequence:
#
# PCOD9134179 Si02
#       7
#     4   4   4   4   4   4   4
#     4   8  15  30  57  82 114 142 203 258 284 351
#     4  10  23  39  68  92 128 162 225 263 317 374
#     4  10  20  38  64  88 131 171 202 262 335 378
#     4   8  16  32  57  85 110 158 207 247 297 364
#     4  12  25  40  70  97 126 171 223 266 317 385
#     4  10  18  39  62  91 118 166 222 255 308 379
#     4  12  25  42  64  97 137 170 204 271 334 389
#
# _framework density 23.688714000000001
#
# number of rings (size 3 to 8) (size 9 to 14) (size 15 to 20)
#    0.857    1.143    1.429    3.429    2.000    0.000 
#    0.000    2.857    3.143    0.000    0.000    0.000 
#    0.000    0.000    0.000    0.000    0.000    0.000 
#
# Total GULP energy -78139.507667 kJ/mol
# GULP energy per Si atom -5581.393405 kJ/mol
# Density = 2.363480 g / cm^3
# Si number density = 23.688714 Si / 1000 Ang^3
#
#
#
# Elastic Constant Matrix: (Units=GPa)
#
#
# Indices 1 2 3 4 5 6 
#
# 1 139.2461 4.6141 10.1998 0.0000 32.2454 0.0000
# 2 4.6141 172.4101 12.8044 0.0001 16.2658 0.0001
# 3 10.1998 12.8044 82.3643 0.0001 17.6845 0.0001
# 4 0.0000 0.0001 0.0001 16.3519 0.0000 9.0567
# 5 32.2454 16.2658 17.6845 0.0000 39.5319 0.0000
# 6 0.0000 0.0001 0.0001 9.0567 0.0000 -29.3585
#
#
#
# Elastic Compliance Matrix: (Units=1/GPa)
#
#
# Indices 1 2 3 4 5 6 
#
# 1 0.008906 0.000449 0.000472 0.000000 -0.007661 0.000000
# 2 0.000449 0.006072 -0.000425 0.000000 -0.002675 0.000000
# 3 0.000472 -0.000425 0.013490 0.000000 -0.006245 0.000000
# 4 0.000000 0.000000 0.000000 0.052231 0.000000 0.016112
# 5 -0.007661 -0.002675 -0.006245 0.000000 0.035439 0.000000
# 6 0.000000 0.000000 0.000000 0.016112 0.000000 -0.029091
#
#
# Mechanical properties :
#
#
# Convention : Reuss Voigt Hill
#
# Bulk Modulus (GPa) = 33.94464 49.91744 41.93104
# Shear Modulus (GPa) = 52.15199 29.73188 40.94194
#
# Velocity S-wave (km/s) = 4.69716 3.54659 4.16183
# Velocity P-wave (km/s) = 6.61652 6.15541 6.39013
#
# Compressibility (1/GPa) = 0.02945973
#
# Stress axis : x y z
#
# Youngs Moduli (GPa) = 112.28357 164.68974 74.13109
#
# Poissons Ratio (x) = -0.07400 -0.03499
# Poissons Ratio (y) = -0.05045 0.03153
# Poissons Ratio (z) = -0.05300 0.07005
#
# Static dielectric constant tensor:
#      x y z
#    x 1.905060 0.000000 0.012570 
#    y 0.000000 2.044020 0.000000 
#    z 0.012570 0.000000 1.864700 
# 
# From -- ./inp_files/25240.got.cif
#   From: 2010.05.17/outbox.cif.g08.bks.cpg/sg9_13_cif.got.tgz:25240.got - 2010.06.03 20:04:27.
