data_PCOD9134170
_publ_section_title
;
Structure prediction by ZEFSAII (Michael W. Deem and Ramdas Pophale) SiO2 
 PCOD9134170
Probable space group: C C
;
_chemical_formula_sum "Si O2"
_cell_formula_units_Z 32
_cell_length_a 9.980638
_cell_length_b 12.335594
_cell_length_c 19.072270
_cell_angle_alpha 90.000000
_cell_angle_beta 37.474312
_cell_angle_gamma 90.000000
_cell_volume 1428.611080
_symmetry_space_group_name_H-M "C C"
_symmetry_group_IT_number 9
_symmetry_cell_setting 'monoclinic'
loop_
_space_group_symop_operation_xyz
x,y,z
x,-y,1/2+z
1/2+x,1/2+y,z
1/2+x,1/2-y,1/2+z
loop_
_atom_site_type_symbol
_atom_site_label
_atom_site_fract_x
_atom_site_fract_y
_atom_site_fract_z
Si Si1 0.363340 0.869598 0.338370
Si Si2 0.763055 0.616324 0.263731
Si Si3 0.817426 0.137267 0.403123
Si Si4 0.822307 0.437774 0.120829
Si Si5 0.704199 0.749151 0.764153
Si Si6 0.089952 0.115276 0.145759
Si Si7 0.307083 0.895164 0.902848
Si Si8 0.831215 0.203628 0.623948
O O1 0.321539 0.766493 0.404555
O O2 0.248949 0.829923 0.313041
O O3 0.623301 0.877159 0.211851
O O4 0.296196 0.974877 0.409197
O O5 0.498728 0.597783 0.383452
O O6 0.834302 0.523732 0.180041
O O7 0.869158 0.617610 0.294804
O O8 0.810972 0.728169 0.204194
O O9 0.574241 0.093763 0.504461
O O10 0.934433 0.109445 0.280614
O O11 0.692474 0.333023 0.203469
O O12 0.709818 0.498973 0.101473
O O13 0.492734 0.824768 0.864584
O O14 0.913384 0.830525 0.667229
O O15 0.270422 0.207192 0.089761
O O16 0.068321 0.846449 0.016877
#
# Coordination Sequence:
#
# PCOD9134170 Si02
#       8
#     4   4   4   4   4   4   4   4
#     4   9  21  45  59  90 133 164 214 270 315 393
#     4   9  21  38  62  98 125 160 224 263 310 399
#     4   8  18  37  64  85 124 170 205 262 327 369
#     4  10  18  38  67  90 121 175 209 260 330 366
#     4  10  22  40  61  97 132 156 224 265 303 401
#     4   8  20  42  57  92 130 161 211 272 305 388
#     4  12  22  39  69  96 124 178 208 268 331 371
#     4   8  20  41  63  88 131 166 211 264 327 381
#
# _framework density 22.399377999999999
#
# number of rings (size 3 to 8) (size 9 to 14) (size 15 to 20)
#    0.000    3.500    1.250    0.000    3.500    5.000 
#   11.250    2.500    0.000    0.000    0.000    0.000 
#    0.000    0.000    0.000    0.000    0.000    0.000 
#
# Total GULP energy -89185.921248 kJ/mol
# GULP energy per Si atom -5574.120078 kJ/mol
# Density = 2.234840 g / cm^3
# Si number density = 22.399378 Si / 1000 Ang^3
#
#
#
# Elastic Constant Matrix: (Units=GPa)
#
#
# Indices 1 2 3 4 5 6 
#
# 1 60.0108 33.1675 26.3025 0.0001 -7.1956 -0.0001
# 2 33.1675 128.1914 67.1201 0.0001 -34.6513 -0.0002
# 3 26.3025 67.1201 114.4310 -0.0002 -38.6648 -0.0005
# 4 0.0001 0.0001 -0.0002 29.9376 0.0000 -7.1511
# 5 -7.1956 -34.6513 -38.6648 0.0000 37.9309 0.0002
# 6 -0.0001 -0.0002 -0.0005 -7.1511 0.0002 13.8865
#
#
#
# Elastic Compliance Matrix: (Units=1/GPa)
#
#
# Indices 1 2 3 4 5 6 
#
# 1 0.020119 -0.004494 -0.003182 0.000000 -0.003533 0.000000
# 2 -0.004494 0.013044 -0.004393 0.000000 0.006586 0.000000
# 3 -0.003182 -0.004393 0.015997 0.000000 0.011690 0.000000
# 4 0.000000 0.000000 0.000000 0.038088 0.000000 0.019614
# 5 -0.003533 0.006586 0.011690 0.000000 0.043626 0.000000
# 6 0.000000 0.000000 0.000000 0.019614 0.000000 0.082113
#
#
# Mechanical properties :
#
#
# Convention : Reuss Voigt Hill
#
# Bulk Modulus (GPa) = 39.96550 61.75704 50.86127
# Shear Modulus (GPa) = 20.36957 28.08719 24.22838
#
# Velocity S-wave (km/s) = 3.01887 3.54493 3.29242
# Velocity P-wave (km/s) = 5.48018 6.66229 6.09994
#
# Compressibility (1/GPa) = 0.02502158
#
# Stress axis : x y z
#
# Youngs Moduli (GPa) = 49.70518 76.66472 62.51345
#
# Poissons Ratio (x) = 0.34455 0.19891
# Poissons Ratio (y) = 0.22339 0.27460
# Poissons Ratio (z) = 0.15815 0.33676
#
# Static dielectric constant tensor:
#      x y z
#    x 1.911720 0.000000 0.030500 
#    y 0.000000 1.907190 0.000000 
#    z 0.030500 0.000000 1.829030 
# 
# From -- ./inp_files/35385.got.cif
#   From: 2010.05.17/outbox.cif.g08.bks.cpg/sg9_18_cif.got.tgz:35385.got - 2010.06.03 20:04:27.
