data_PCOD9134543
_publ_section_title
;
Structure prediction by ZEFSAII (Michael W. Deem and Ramdas Pophale) SiO2 
 PCOD9134543
Probable space group: C C
;
_chemical_formula_sum "Si O2"
_cell_formula_units_Z 32
_cell_length_a 12.158902
_cell_length_b 13.435546
_cell_length_c 9.945496
_cell_angle_alpha 90.000000
_cell_angle_beta 76.268570
_cell_angle_gamma 90.000000
_cell_volume 1578.275240
_symmetry_space_group_name_H-M "C C"
_symmetry_group_IT_number 9
_symmetry_cell_setting 'monoclinic'
loop_
_space_group_symop_operation_xyz
x,y,z
x,-y,1/2+z
1/2+x,1/2+y,z
1/2+x,1/2-y,1/2+z
loop_
_atom_site_type_symbol
_atom_site_label
_atom_site_fract_x
_atom_site_fract_y
_atom_site_fract_z
Si Si1 0.125000 0.798178 0.542640
Si Si2 0.911961 0.404345 0.893736
Si Si3 0.235120 0.799448 0.134718
Si Si4 0.565893 0.815976 0.306199
Si Si5 0.992046 0.194855 0.808347
Si Si6 0.832005 0.385074 0.380381
Si Si7 0.624355 0.922481 0.029999
Si Si8 0.256337 0.622663 0.947944
O O1 0.071773 0.777773 0.703546
O O2 0.225583 0.876670 0.510323
O O3 0.174236 0.688010 0.489306
O O4 0.035273 0.816701 0.450780
O O5 0.959064 0.310874 0.796376
O O6 0.866788 0.502663 0.836500
O O7 0.805250 0.360497 0.005044
O O8 0.012793 0.432036 0.969375
O O9 0.292599 0.828520 0.258314
O O10 0.102295 0.825723 0.186644
O O11 0.254926 0.684731 0.087352
O O12 0.443406 0.831444 0.404329
O O13 0.586991 0.908664 0.196209
O O14 0.665243 0.818801 0.383304
O O15 0.877364 0.131184 0.838701
O O16 0.709058 0.012290 0.982227
#
# Coordination Sequence:
#
# PCOD9134543 Si02
#       8
#     4   4   4   4   4   4   4   4
#     4   8  20  38  57  85 120 152 196 241 301 350
#     4  10  19  37  63  91 113 155 211 242 291 358
#     4  10  22  38  56  92 121 155 196 251 305 352
#     4  10  20  35  57  89 118 143 202 243 294 344
#     4   9  20  38  61  84 125 156 192 246 305 354
#     4  11  19  37  65  85 117 157 202 249 294 351
#     4   9  19  37  58  88 117 146 204 245 286 356
#     4  11  21  36  61  90 117 158 199 245 300 361
#
# _framework density 20.275296999999998
#
# number of rings (size 3 to 8) (size 9 to 14) (size 15 to 20)
#    0.750    1.500    2.500    0.750    1.750    2.000 
#    4.500    3.750    2.750    0.000    0.000    0.000 
#    0.000    0.000    0.000    0.000    0.000    0.000 
#
# Total GULP energy -89137.808279 kJ/mol
# GULP energy per Si atom -5571.113017 kJ/mol
# Density = 2.022915 g / cm^3
# Si number density = 20.275297 Si / 1000 Ang^3
#
#
#
# Elastic Constant Matrix: (Units=GPa)
#
#
# Indices 1 2 3 4 5 6 
#
# 1 111.0356 39.9994 4.2917 0.0000 -21.8397 0.0000
# 2 39.9994 62.3850 7.7412 0.0000 -3.5085 0.0000
# 3 4.2917 7.7412 16.7715 0.0000 -3.9683 0.0000
# 4 0.0000 0.0000 0.0000 15.7152 0.0000 -4.6746
# 5 -21.8397 -3.5085 -3.9683 0.0000 26.7965 0.0000
# 6 0.0000 0.0000 0.0000 -4.6746 0.0000 32.5151
#
#
#
# Elastic Compliance Matrix: (Units=1/GPa)
#
#
# Indices 1 2 3 4 5 6 
#
# 1 0.014232 -0.008890 0.003037 0.000000 0.010885 0.000000
# 2 -0.008890 0.022588 -0.009498 0.000000 -0.005695 0.000000
# 3 0.003037 -0.009498 0.065830 0.000000 0.010980 0.000000
# 4 0.000000 0.000000 0.000000 0.066475 0.000000 0.009557
# 5 0.010885 -0.005695 0.010980 0.000000 0.047071 0.000000
# 6 0.000000 0.000000 0.000000 0.009557 0.000000 0.032129
#
#
# Mechanical properties :
#
#
# Convention : Reuss Voigt Hill
#
# Bulk Modulus (GPa) = 13.89905 32.69521 23.29713
# Shear Modulus (GPa) = 16.50109 24.21603 20.35856
#
# Velocity S-wave (km/s) = 2.85590 3.45970 3.17220
# Velocity P-wave (km/s) = 4.21248 5.66745 4.99325
#
# Compressibility (1/GPa) = 0.07194737
#
# Stress axis : x y z
#
# Youngs Moduli (GPa) = 70.26266 44.27159 15.19063
#
# Poissons Ratio (x) = 0.39357 -0.04613
# Poissons Ratio (y) = 0.62463 0.14429
# Poissons Ratio (z) = -0.21339 0.42051
#
# Static dielectric constant tensor:
#      x y z
#    x 1.722380 0.000000 -0.011080 
#    y 0.000000 1.752320 0.000000 
#    z -0.011080 0.000000 1.756570 
# 
# From -- ./inp_files/16695.got.cif
#   From: 2010.05.17/outbox.cif.g08.bks.cpg/sg9_9_cif.got.tgz:16695.got - 2010.06.03 20:04:27.
