data_PCOD9135655
_publ_section_title
;
Structure prediction by ZEFSAII (Michael W. Deem and Ramdas Pophale) SiO2 
 PCOD9135655
Probable space group: C C
;
_chemical_formula_sum "Si O2"
_cell_formula_units_Z 32
_cell_length_a 15.444208
_cell_length_b 20.078128
_cell_length_c 8.252309
_cell_angle_alpha 90.000000
_cell_angle_beta 146.946093
_cell_angle_gamma 90.000000
_cell_volume 1395.730793
_symmetry_space_group_name_H-M "C C"
_symmetry_group_IT_number 9
_symmetry_cell_setting 'monoclinic'
loop_
_space_group_symop_operation_xyz
x,y,z
x,-y,1/2+z
1/2+x,1/2+y,z
1/2+x,1/2-y,1/2+z
loop_
_atom_site_type_symbol
_atom_site_label
_atom_site_fract_x
_atom_site_fract_y
_atom_site_fract_z
Si Si1 0.368860 0.233973 0.692640
Si Si2 0.097866 0.335761 0.312439
Si Si3 0.874396 0.947069 0.338664
Si Si4 0.620880 0.372878 0.914851
Si Si5 0.771542 0.078064 0.343329
Si Si6 0.550805 0.324210 0.168858
Si Si7 0.707447 0.507673 0.744170
Si Si8 0.334175 0.101567 0.226675
O O1 0.253091 0.297301 0.496859
O O2 0.481021 0.216632 0.718263
O O3 0.250302 0.173134 0.535665
O O4 0.472364 0.252093 0.017015
O O5 0.143922 0.387204 0.527729
O O6 0.009716 0.371940 0.027881
O O7 0.961122 0.886661 0.565086
O O8 0.793672 0.001565 0.325966
O O9 0.757483 0.922991 0.014302
O O10 0.025244 0.987994 0.498868
O O11 0.582899 0.345215 0.033341
O O12 0.694672 0.445249 0.066227
O O13 0.929102 0.122630 0.554711
O O14 0.714087 0.335993 0.518796
O O15 0.792460 0.440622 0.821717
O O16 0.795359 0.552788 0.015732
#
# Coordination Sequence:
#
# PCOD9135655 Si02
#       8
#     4   4   4   4   4   4   4   4
#     4  11  24  47  68  94 136 189 229 283 338 393
#     4  11  27  46  68  97 145 179 233 296 334 402
#     4  12  18  37  68 104 130 181 217 279 350 429
#     4  11  20  38  70  95 136 176 224 272 347 403
#     4  11  22  39  68  99 138 175 229 281 345 407
#     4  10  20  42  66  98 128 181 231 278 323 410
#     4  11  19  36  68 104 133 175 217 277 353 419
#     4  11  22  41  68 103 136 180 226 282 348 415
#
# _framework density 22.927057000000001
#
# number of rings (size 3 to 8) (size 9 to 14) (size 15 to 20)
#    0.000    1.000    7.500    0.750    0.000    1.000 
#    6.750    0.000    2.750    0.000    0.000    0.000 
#    0.000    0.000    0.000    0.000    0.000    0.000 
#
# Total GULP energy -89409.116522 kJ/mol
# GULP energy per Si atom -5588.069783 kJ/mol
# Density = 2.287487 g / cm^3
# Si number density = 22.927057 Si / 1000 Ang^3
#
#
#
# Elastic Constant Matrix: (Units=GPa)
#
#
# Indices 1 2 3 4 5 6 
#
# 1 43.2658 11.2173 16.2684 0.0000 -0.2065 0.0000
# 2 11.2173 69.5608 40.0702 0.0000 -1.5202 0.0000
# 3 16.2684 40.0702 144.1635 0.0000 -14.5421 0.0000
# 4 0.0000 0.0000 0.0000 36.9485 0.0000 -0.4471
# 5 -0.2065 -1.5202 -14.5421 0.0000 26.3582 0.0000
# 6 0.0000 0.0000 0.0000 -0.4471 0.0000 25.7461
#
#
#
# Elastic Compliance Matrix: (Units=1/GPa)
#
#
# Indices 1 2 3 4 5 6 
#
# 1 0.024625 -0.002773 -0.002123 0.000000 -0.001138 0.000000
# 2 -0.002773 0.017504 -0.004715 0.000000 -0.001614 0.000000
# 3 -0.002123 -0.004715 0.008956 0.000000 0.004653 0.000000
# 4 0.000000 0.000000 0.000000 0.027070 0.000000 0.000470
# 5 -0.001138 -0.001614 0.004653 0.000000 0.040404 0.000000
# 6 0.000000 0.000000 0.000000 0.000470 0.000000 0.038849
#
#
# Mechanical properties :
#
#
# Convention : Reuss Voigt Hill
#
# Bulk Modulus (GPa) = 31.38458 43.56688 37.47573
# Shear Modulus (GPa) = 26.70221 30.43950 28.57085
#
# Velocity S-wave (km/s) = 3.41641 3.64767 3.53393
# Velocity P-wave (km/s) = 5.41120 6.06501 5.74741
#
# Compressibility (1/GPa) = 0.03186278
#
# Stress axis : x y z
#
# Youngs Moduli (GPa) = 40.60967 57.13010 111.65712
#
# Poissons Ratio (x) = 0.15842 0.23704
# Poissons Ratio (y) = 0.11261 0.52647
# Poissons Ratio (z) = 0.08621 0.26937
#
# Static dielectric constant tensor:
#      x y z
#    x 1.852660 0.000000 -0.007360 
#    y 0.000000 1.910590 0.000000 
#    z -0.007360 0.000000 1.868410 
# 
# From -- ./inp_files/11040.got.cif
#   From: 2010.05.17/outbox.cif.g08.bks.cpg/sg9_6_cif.got.tgz:11040.got - 2010.06.03 20:04:27.
