data_PCOD9135103
_publ_section_title
;
Structure prediction by ZEFSAII (Michael W. Deem and Ramdas Pophale) SiO2 
 PCOD9135103
Probable space group: C C
;
_chemical_formula_sum "Si O2"
_cell_formula_units_Z 32
_cell_length_a 10.781709
_cell_length_b 9.692770
_cell_length_c 20.329535
_cell_angle_alpha 90.000000
_cell_angle_beta 42.578648
_cell_angle_gamma 90.000000
_cell_volume 1437.460711
_symmetry_space_group_name_H-M "C C"
_symmetry_group_IT_number 9
_symmetry_cell_setting 'monoclinic'
loop_
_space_group_symop_operation_xyz
x,y,z
x,-y,1/2+z
1/2+x,1/2+y,z
1/2+x,1/2-y,1/2+z
loop_
_atom_site_type_symbol
_atom_site_label
_atom_site_fract_x
_atom_site_fract_y
_atom_site_fract_z
Si Si1 0.695990 0.349167 0.621430
Si Si2 0.098987 0.357081 0.862630
Si Si3 0.538577 0.272007 0.063316
Si Si4 0.413475 0.422643 0.246867
Si Si5 0.165163 0.065267 0.981256
Si Si6 0.377110 0.866025 0.275898
Si Si7 0.976806 0.655215 0.269233
Si Si8 0.822594 0.208106 0.050482
O O1 0.596032 0.486199 0.689206
O O2 0.693450 0.380090 0.544119
O O3 0.557855 0.220759 0.689170
O O4 0.889768 0.308108 0.577963
O O5 0.253100 0.467474 0.816791
O O6 0.204339 0.210968 0.810670
O O7 0.015805 0.397969 0.826014
O O8 0.944588 0.337690 0.978396
O O9 0.437018 0.353207 0.164644
O O10 0.641504 0.399849 0.988529
O O11 0.696292 0.178081 0.035718
O O12 0.361579 0.293993 0.312537
O O13 0.973183 0.109276 0.022632
O O14 0.316951 0.136183 0.875861
O O15 0.406077 0.028676 0.252527
O O16 0.168638 0.713641 0.166019
#
# Coordination Sequence:
#
# PCOD9135103 Si02
#       8
#     4   4   4   4   4   4   4   4
#     4  10  20  40  66  89 125 170 208 255 313 370
#     4  10  21  41  61  86 125 165 206 255 309 369
#     4  10  20  37  61  92 126 162 206 255 307 368
#     4   9  21  38  61  90 124 166 212 255 305 368
#     4  10  21  41  63  89 125 165 208 256 311 371
#     4  10  21  38  64  91 120 163 210 256 309 369
#     4  11  21  39  62  90 125 163 203 257 314 363
#     4  10  21  38  62  89 122 160 203 253 308 366
#
# _framework density 22.261478
#
# number of rings (size 3 to 8) (size 9 to 14) (size 15 to 20)
#    0.000    2.000    0.000    4.500    0.000    2.000 
#    0.000   33.750    0.000    0.000    0.000    0.000 
#    0.000    0.000    0.000    0.000    0.000    0.000 
#
# Total GULP energy -89162.225023 kJ/mol
# GULP energy per Si atom -5572.639064 kJ/mol
# Density = 2.221081 g / cm^3
# Si number density = 22.261478 Si / 1000 Ang^3
#
#
#
# Elastic Constant Matrix: (Units=GPa)
#
#
# Indices 1 2 3 4 5 6 
#
# 1 137.0636 51.9624 31.0578 0.0000 -23.0933 0.0000
# 2 51.9624 115.2437 23.1486 0.0000 -15.2643 0.0000
# 3 31.0578 23.1486 75.4012 0.0000 -11.6468 0.0000
# 4 0.0000 0.0000 0.0000 25.1444 0.0000 -0.8937
# 5 -23.0933 -15.2643 -11.6468 0.0000 27.2534 0.0000
# 6 0.0000 0.0000 0.0000 -0.8937 0.0000 32.6099
#
#
#
# Elastic Compliance Matrix: (Units=1/GPa)
#
#
# Indices 1 2 3 4 5 6 
#
# 1 0.010015 -0.003316 -0.002230 0.000000 0.005676 0.000000
# 2 -0.003316 0.010828 -0.001559 0.000000 0.002589 0.000000
# 3 -0.002230 -0.001559 0.015239 0.000000 0.003749 0.000000
# 4 0.000000 0.000000 0.000000 0.039809 0.000000 0.001091
# 5 0.005676 0.002589 0.003749 0.000000 0.044554 0.000000
# 6 0.000000 0.000000 0.000000 0.001091 0.000000 0.030695
#
#
# Mechanical properties :
#
#
# Convention : Reuss Voigt Hill
#
# Bulk Modulus (GPa) = 45.72038 60.00515 52.86276
# Shear Modulus (GPa) = 28.96185 31.77084 30.36635
#
# Velocity S-wave (km/s) = 3.61083 3.78188 3.69735
# Velocity P-wave (km/s) = 6.16170 6.78848 6.48267
#
# Compressibility (1/GPa) = 0.02187208
#
# Stress axis : x y z
#
# Youngs Moduli (GPa) = 99.85450 92.35047 65.62217
#
# Poissons Ratio (x) = 0.30621 0.14636
# Poissons Ratio (y) = 0.33109 0.10228
# Poissons Ratio (z) = 0.22271 0.14394
#
# Static dielectric constant tensor:
#      x y z
#    x 1.831140 0.000000 0.004060 
#    y 0.000000 1.893630 0.000000 
#    z 0.004060 0.000000 1.918990 
# 
# From -- ./inp_files/35303.got.cif
#   From: 2010.05.17/outbox.cif.g08.bks.cpg/sg9_18_cif.got.tgz:35303.got - 2010.06.03 20:04:27.
