data_PCOD9135205
_publ_section_title
;
Structure prediction by ZEFSAII (Michael W. Deem and Ramdas Pophale) SiO2 
 PCOD9135205
Probable space group: C C
;
_chemical_formula_sum "Si O2"
_cell_formula_units_Z 28
_cell_length_a 16.808217
_cell_length_b 14.244265
_cell_length_c 5.339360
_cell_angle_alpha 90.000000
_cell_angle_beta 114.475408
_cell_angle_gamma 90.000000
_cell_volume 1163.479416
_symmetry_space_group_name_H-M "C C"
_symmetry_group_IT_number 9
_symmetry_cell_setting 'monoclinic'
loop_
_space_group_symop_operation_xyz
x,y,z
x,-y,1/2+z
1/2+x,1/2+y,z
1/2+x,1/2-y,1/2+z
loop_
_atom_site_type_symbol
_atom_site_label
_atom_site_fract_x
_atom_site_fract_y
_atom_site_fract_z
Si Si1 0.626900 0.800361 0.316580
Si Si2 0.281585 0.199684 0.621304
Si Si3 0.378726 0.229380 0.254636
Si Si4 0.429520 0.442026 0.443317
Si Si5 0.170243 0.496982 0.842340
Si Si6 0.561435 0.193836 0.236402
Si Si7 0.639201 0.446984 0.732506
O O1 0.728563 0.796691 0.519474
O O2 0.568976 0.761947 0.470308
O O3 0.608315 0.911383 0.261241
O O4 0.616116 0.756922 0.027908
O O5 0.354750 0.190813 0.500149
O O6 0.205013 0.128720 0.439496
O O7 0.310977 0.200235 0.947192
O O8 0.388907 0.341206 0.312489
O O9 0.467706 0.191724 0.243120
O O10 0.410625 0.485081 0.692632
O O11 0.535483 0.426765 0.600212
O O12 0.224201 0.505355 0.663298
O O13 0.109500 0.405624 0.758704
O O14 0.655800 0.470310 0.461550
#
# Coordination Sequence:
#
# PCOD9135205 Si02
#       7
#     4   4   4   4   4   4   4
#     4  10  20  38  62  86 117 162 213 254 300 381
#     4  12  25  41  63  98 137 169 207 270 347 403
#     4  12  25  41  63  98 137 169 207 270 347 403
#     4  10  22  43  69  93 124 173 231 279 319 386
#     4   8  16  32  54  82 110 144 200 246 288 350
#     4  10  20  38  62  86 117 162 213 254 300 381
#     4  10  22  43  69  93 124 173 231 279 319 386
#
# _framework density 24.065747000000002
#
# number of rings (size 3 to 8) (size 9 to 14) (size 15 to 20)
#    0.000    1.714    0.000    4.286    0.000    3.429 
#    0.000   25.714    0.000    0.000    0.000    0.000 
#    0.000    0.000    0.000    0.000    0.000    0.000 
#
# Total GULP energy -78004.579842 kJ/mol
# GULP energy per Si atom -5571.755703 kJ/mol
# Density = 2.401097 g / cm^3
# Si number density = 24.065747 Si / 1000 Ang^3
#
#
#
# Elastic Constant Matrix: (Units=GPa)
#
#
# Indices 1 2 3 4 5 6 
#
# 1 111.7371 19.6681 29.0622 0.0000 -25.7617 0.0000
# 2 19.6681 53.2528 14.5778 0.0000 -8.0374 0.0000
# 3 29.0622 14.5778 151.8141 0.0000 -41.7040 0.0000
# 4 0.0000 0.0000 0.0000 38.3065 0.0000 1.2517
# 5 -25.7617 -8.0374 -41.7040 0.0000 47.7884 0.0000
# 6 0.0000 0.0000 0.0000 1.2517 0.0000 24.4381
#
#
#
# Elastic Compliance Matrix: (Units=1/GPa)
#
#
# Indices 1 2 3 4 5 6 
#
# 1 0.010735 -0.003112 -0.000408 0.000000 0.004907 0.000000
# 2 -0.003112 0.020356 -0.001157 0.000000 0.000736 0.000000
# 3 -0.000408 -0.001157 0.008763 0.000000 0.007233 0.000000
# 4 0.000000 0.000000 0.000000 0.026149 0.000000 -0.001339
# 5 0.004907 0.000736 0.007233 0.000000 0.030007 0.000000
# 6 0.000000 0.000000 0.000000 -0.001339 0.000000 0.040988
#
#
# Mechanical properties :
#
#
# Convention : Reuss Voigt Hill
#
# Bulk Modulus (GPa) = 32.78722 49.26893 41.02807
# Shear Modulus (GPa) = 31.94513 39.00634 35.47573
#
# Velocity S-wave (km/s) = 3.64732 4.03031 3.84359
# Velocity P-wave (km/s) = 5.60275 6.49423 6.06489
#
# Compressibility (1/GPa) = 0.03049969
#
# Stress axis : x y z
#
# Youngs Moduli (GPa) = 93.15322 49.12644 114.11529
#
# Poissons Ratio (x) = 0.15290 0.04657
# Poissons Ratio (y) = 0.28993 0.13197
# Poissons Ratio (z) = 0.03801 0.05681
#
# Static dielectric constant tensor:
#      x y z
#    x 1.934530 0.000000 0.010010 
#    y 0.000000 2.061940 0.000000 
#    z 0.010010 0.000000 2.082870 
# 
# From -- ./inp_files/2377.got.cif
#   From: 2010.05.17/outbox.cif.g08.bks.cpg/sg9_2_cif.got.tgz:2377.got - 2010.06.03 20:04:27.
