data_PCOD9135930
_publ_section_title
;
Structure prediction by ZEFSAII (Michael W. Deem and Ramdas Pophale) SiO2 
 PCOD9135930
Probable space group: C C
;
_chemical_formula_sum "Si O2"
_cell_formula_units_Z 24
_cell_length_a 10.215600
_cell_length_b 18.938021
_cell_length_c 4.976471
_cell_angle_alpha 90.000000
_cell_angle_beta 107.914844
_cell_angle_gamma 90.000000
_cell_volume 916.084368
_symmetry_space_group_name_H-M "C C"
_symmetry_group_IT_number 9
_symmetry_cell_setting 'monoclinic'
loop_
_space_group_symop_operation_xyz
x,y,z
x,-y,1/2+z
1/2+x,1/2+y,z
1/2+x,1/2-y,1/2+z
loop_
_atom_site_type_symbol
_atom_site_label
_atom_site_fract_x
_atom_site_fract_y
_atom_site_fract_z
Si Si1 0.375000 0.962230 0.542910
Si Si2 0.491464 0.227135 0.798531
Si Si3 0.813484 0.325448 0.771166
Si Si4 0.910978 0.114790 0.333840
Si Si5 0.575573 0.423926 0.469464
Si Si6 0.185179 0.697253 0.420394
O O1 0.403470 0.884960 0.675609
O O2 0.207292 0.970282 0.455299
O O3 0.427356 0.979417 0.283671
O O4 0.437673 0.307044 0.732643
O O5 0.303392 0.246315 0.092345
O O6 0.586493 0.224587 0.121478
O O7 0.357364 0.183969 0.605965
O O8 0.664745 0.360939 0.660021
O O9 0.594464 0.198483 0.631066
O O10 0.959551 0.061501 0.125957
O O11 0.757717 0.125973 0.358679
O O12 0.003267 0.100030 0.651757
#
# Coordination Sequence:
#
# PCOD9135930 Si02
#       6
#     4   4   4   4   4   4
#     4  10  21  37  60  88 113 147 199 251 308 343
#     4  12  21  37  54  81 120 161 193 229 286 357
#     4  10  23  38  58  87 125 150 196 249 292 345
#     4  12  21  38  54  84 122 162 189 241 279 360
#     4  10  22  37  59  82 121 149 193 242 304 333
#     4  12  24  35  57  86 119 165 194 218 291 366
#
# _framework density 26.198461000000002
#
# number of rings (size 3 to 8) (size 9 to 14) (size 15 to 20)
#    1.000    0.000    3.333    5.000    0.000    5.333 
#    0.000    0.000    0.000    0.000    0.000   23.333 
#    0.000    0.000    0.000    0.000    0.000    0.000 
#
# Total GULP energy -66946.231568 kJ/mol
# GULP energy per Si atom -5578.852631 kJ/mol
# Density = 2.613883 g / cm^3
# Si number density = 26.198461 Si / 1000 Ang^3
#
#
#
# Elastic Constant Matrix: (Units=GPa)
#
#
# Indices 1 2 3 4 5 6 
#
# 1 64.6652 -7.5746 8.0379 0.0000 -16.5496 0.0000
# 2 -7.5746 53.5929 15.4989 0.0000 7.8506 0.0000
# 3 8.0379 15.4989 184.2885 0.0000 1.4276 0.0000
# 4 0.0000 0.0000 0.0000 29.4802 0.0000 -4.3555
# 5 -16.5496 7.8506 1.4276 0.0000 28.5242 0.0000
# 6 0.0000 0.0000 0.0000 -4.3555 0.0000 36.5000
#
#
#
# Elastic Compliance Matrix: (Units=1/GPa)
#
#
# Indices 1 2 3 4 5 6 
#
# 1 0.018397 0.001373 -0.000998 0.000000 0.010346 0.000000
# 2 0.001373 0.020025 -0.001708 0.000000 -0.004629 0.000000
# 3 -0.000998 -0.001708 0.005616 0.000000 -0.000390 0.000000
# 4 0.000000 0.000000 0.000000 0.034530 0.000000 0.004120
# 5 0.010346 -0.004629 -0.000390 0.000000 0.042354 0.000000
# 6 0.000000 0.000000 0.000000 0.004120 0.000000 0.027889
#
#
# Mechanical properties :
#
#
# Convention : Reuss Voigt Hill
#
# Bulk Modulus (GPa) = 24.17042 37.16345 30.66694
# Shear Modulus (GPa) = 30.25378 38.00652 34.13015
#
# Velocity S-wave (km/s) = 3.40191 3.81296 3.61328
# Velocity P-wave (km/s) = 4.96755 5.79664 5.39804
#
# Compressibility (1/GPa) = 0.04137288
#
# Stress axis : x y z
#
# Youngs Moduli (GPa) = 54.35687 49.93654 178.04720
#
# Poissons Ratio (x) = -0.06858 0.17770
# Poissons Ratio (y) = -0.07465 0.30414
# Poissons Ratio (z) = 0.05425 0.08530
#
# Static dielectric constant tensor:
#      x y z
#    x 2.374160 0.000000 -0.025960 
#    y 0.000000 2.121140 0.000000 
#    z -0.025960 0.000000 2.000010 
# 
# From -- ./inp_files/2001.got.cif
#   From: 2010.05.17/outbox.cif.g08.bks.cpg/sg9_2_cif.got.tgz:2001.got - 2010.06.03 20:04:27.
