data_PCOD9135526
_publ_section_title
;
Structure prediction by ZEFSAII (Michael W. Deem and Ramdas Pophale) SiO2 
 PCOD9135526
Probable space group: C C
;
_chemical_formula_sum "Si O2"
_cell_formula_units_Z 20
_cell_length_a 24.684832
_cell_length_b 5.222971
_cell_length_c 14.674933
_cell_angle_alpha 90.000000
_cell_angle_beta 26.641653
_cell_angle_gamma 90.000000
_cell_volume 848.395276
_symmetry_space_group_name_H-M "C C"
_symmetry_group_IT_number 9
_symmetry_cell_setting 'monoclinic'
loop_
_space_group_symop_operation_xyz
x,y,z
x,-y,1/2+z
1/2+x,1/2+y,z
1/2+x,1/2-y,1/2+z
loop_
_atom_site_type_symbol
_atom_site_label
_atom_site_fract_x
_atom_site_fract_y
_atom_site_fract_z
Si Si1 0.028840 0.939368 0.733250
Si Si2 0.088832 0.868904 0.333702
Si Si3 0.140883 0.368154 0.324070
Si Si4 0.917971 0.949158 0.223639
Si Si5 0.179259 0.563319 0.964658
O O1 0.139790 0.413855 0.749216
O O2 0.082997 0.656718 0.637048
O O3 0.919194 0.998219 0.829299
O O4 0.016286 0.015715 0.857616
O O5 0.127559 0.850173 0.052943
O O6 0.182104 0.093701 0.221071
O O7 0.001678 0.835434 0.551313
O O8 0.207884 0.461125 0.313996
O O9 0.004426 0.289842 0.564500
O O10 0.795195 0.951253 0.353996
#
# Coordination Sequence:
#
# PCOD9135526 Si02
#       5
#     4   4   4   4   4
#     4  11  23  40  58  90 118 153 192 250 282 350
#     4  10  20  41  59  80 126 147 190 244 291 332
#     4   9  19  39  60  83 115 153 189 240 284 343
#     4   9  23  39  62  83 119 154 195 236 292 346
#     4  11  21  39  65  82 120 155 196 236 299 339
#
# _framework density 23.573920000000001
#
# number of rings (size 3 to 8) (size 9 to 14) (size 15 to 20)
#    1.200    0.800    2.000    1.200    2.800    0.000 
#    7.200    0.000    0.000    0.000    0.000    0.000 
#    0.000    0.000    0.000    0.000    0.000    0.000 
#
# Total GULP energy -55710.964466 kJ/mol
# GULP energy per Si atom -5571.096447 kJ/mol
# Density = 2.352026 g / cm^3
# Si number density = 23.573920 Si / 1000 Ang^3
#
#
#
# Elastic Constant Matrix: (Units=GPa)
#
#
# Indices 1 2 3 4 5 6 
#
# 1 191.7431 36.7516 25.0175 -0.0009 -9.0170 -0.0003
# 2 36.7516 121.7486 11.2304 -0.0076 1.6134 0.0136
# 3 25.0175 11.2304 30.2455 -0.0071 -5.7114 0.0028
# 4 -0.0009 -0.0076 -0.0071 14.1986 0.0006 9.5132
# 5 -9.0170 1.6134 -5.7114 0.0006 46.2750 -0.0011
# 6 -0.0003 0.0136 0.0028 9.5132 -0.0011 31.9203
#
#
#
# Elastic Compliance Matrix: (Units=1/GPa)
#
#
# Indices 1 2 3 4 5 6 
#
# 1 0.006096 -0.001446 -0.004373 -0.000004 0.000698 0.000002
# 2 -0.001446 0.008870 -0.002262 0.000007 -0.000870 -0.000006
# 3 -0.004373 -0.002262 0.038266 0.000024 0.003950 -0.000009
# 4 -0.000004 0.000007 0.000024 0.088002 0.000000 -0.026227
# 5 0.000698 -0.000870 0.003950 0.000000 0.022264 0.000001
# 6 0.000002 -0.000006 -0.000009 -0.026227 0.000001 0.039145
#
#
# Mechanical properties :
#
#
# Convention : Reuss Voigt Hill
#
# Bulk Modulus (GPa) = 26.97630 54.41511 40.69571
# Shear Modulus (GPa) = 21.62985 36.52797 29.07891
#
# Velocity S-wave (km/s) = 3.03237 3.94065 3.51596
# Velocity P-wave (km/s) = 4.87119 6.62101 5.81233
#
# Compressibility (1/GPa) = 0.03706958
#
# Stress axis : x y z
#
# Youngs Moduli (GPa) = 164.04394 112.73563 26.13289
#
# Poissons Ratio (x) = 0.16301 0.11429
# Poissons Ratio (y) = 0.23720 0.05911
# Poissons Ratio (z) = 0.71744 0.25500
#
# Static dielectric constant tensor:
#      x y z
#    x 1.976350 -0.000010 0.031150 
#    y -0.000010 1.922490 0.000000 
#    z 0.031150 0.000000 1.944360 
# 
# From -- ./inp_files/26972.got.cif
#   From: 2010.05.17/outbox.cif.g08.bks.cpg/sg9_14_cif.got.tgz:26972.got - 2010.06.03 20:04:27.
