data_PCOD9135177
_publ_section_title
;
Structure prediction by ZEFSAII (Michael W. Deem and Ramdas Pophale) SiO2 
 PCOD9135177
Probable space group: C C
;
_chemical_formula_sum "Si O2"
_cell_formula_units_Z 28
_cell_length_a 10.683072
_cell_length_b 14.325237
_cell_length_c 8.289825
_cell_angle_alpha 90.000000
_cell_angle_beta 115.561026
_cell_angle_gamma 90.000000
_cell_volume 1144.486425
_symmetry_space_group_name_H-M "C C"
_symmetry_group_IT_number 9
_symmetry_cell_setting 'monoclinic'
loop_
_space_group_symop_operation_xyz
x,y,z
x,-y,1/2+z
1/2+x,1/2+y,z
1/2+x,1/2-y,1/2+z
loop_
_atom_site_type_symbol
_atom_site_label
_atom_site_fract_x
_atom_site_fract_y
_atom_site_fract_z
Si Si1 0.966270 0.451626 0.810740
Si Si2 0.982412 0.232158 0.392700
Si Si3 0.804812 0.702638 0.083840
Si Si4 0.930738 0.053250 0.194762
Si Si5 0.116348 0.601714 0.078694
Si Si6 0.586007 0.818019 0.129078
Si Si7 0.898559 0.868981 0.333404
O O1 0.832050 0.405091 0.649103
O O2 0.903159 0.233241 0.754958
O O3 0.080418 0.424327 0.741230
O O4 0.994115 0.392868 0.986910
O O5 0.854142 0.265992 0.433398
O O6 0.991161 0.121900 0.366550
O O7 0.108052 0.287313 0.548319
O O8 0.995523 0.271673 0.218265
O O9 0.654892 0.739772 0.050745
O O10 0.000293 0.554706 0.895335
O O11 0.765638 0.063604 0.123817
O O12 0.954903 0.944307 0.236527
O O13 0.960350 0.094031 0.035278
O O14 0.728597 0.869917 0.264765
#
# Coordination Sequence:
#
# PCOD9135177 Si02
#       7
#     4   4   4   4   4   4   4
#     4  11  20  34  61  81 123 153 203 254 304 349
#     4  11  22  35  61  88 124 162 204 245 324 345
#     4   9  21  38  56  89 123 160 202 259 298 372
#     4  12  20  36  60  88 122 159 198 266 291 366
#     4  11  20  34  55  93 110 158 205 250 298 369
#     4  10  20  38  55  90 122 158 200 254 293 368
#     4  10  21  35  58  87 126 150 204 248 306 347
#
# _framework density 24.465122000000001
#
# number of rings (size 3 to 8) (size 9 to 14) (size 15 to 20)
#    0.857    0.571    2.857    4.286    0.000    0.000 
#    0.000    0.000    0.000   17.143    0.000    0.000 
#    0.000    0.000    0.000    0.000    0.000    0.000 
#
# Total GULP energy -77997.033097 kJ/mol
# GULP energy per Si atom -5571.216650 kJ/mol
# Density = 2.440944 g / cm^3
# Si number density = 24.465122 Si / 1000 Ang^3
#
#
#
# Elastic Constant Matrix: (Units=GPa)
#
#
# Indices 1 2 3 4 5 6 
#
# 1 51.3320 -0.5330 16.7916 0.0000 -22.4609 0.0000
# 2 -0.5330 99.3945 4.2384 0.0000 10.4957 0.0000
# 3 16.7916 4.2384 72.2167 0.0000 -21.4479 0.0000
# 4 0.0000 0.0000 0.0000 35.6650 0.0000 -3.4225
# 5 -22.4609 10.4957 -21.4479 0.0000 38.3485 0.0000
# 6 0.0000 0.0000 0.0000 -3.4225 0.0000 26.2021
#
#
#
# Elastic Compliance Matrix: (Units=1/GPa)
#
#
# Indices 1 2 3 4 5 6 
#
# 1 0.026578 -0.001375 -0.001636 0.000000 0.015028 0.000000
# 2 -0.001375 0.010617 -0.001686 0.000000 -0.004654 0.000000
# 3 -0.001636 -0.001686 0.017003 0.000000 0.009013 0.000000
# 4 0.000000 0.000000 0.000000 0.028395 0.000000 0.003709
# 5 0.015028 -0.004654 0.009013 0.000000 0.041193 0.000000
# 6 0.000000 0.000000 0.000000 0.003709 0.000000 0.038649
#
#
# Mechanical properties :
#
#
# Convention : Reuss Voigt Hill
#
# Bulk Modulus (GPa) = 22.31862 29.32635 25.82249
# Shear Modulus (GPa) = 26.77205 33.53953 30.15579
#
# Velocity S-wave (km/s) = 3.31160 3.70660 3.51465
# Velocity P-wave (km/s) = 4.87491 5.50741 5.20078
#
# Compressibility (1/GPa) = 0.04480563
#
# Stress axis : x y z
#
# Youngs Moduli (GPa) = 37.62577 94.19015 58.81211
#
# Poissons Ratio (x) = 0.12948 0.09621
# Poissons Ratio (y) = 0.05172 0.09913
# Poissons Ratio (z) = 0.06155 0.15876
#
# Static dielectric constant tensor:
#      x y z
#    x 1.937600 0.000000 0.028340 
#    y 0.000000 2.028560 0.000000 
#    z 0.028340 0.000000 2.029050 
# 
# From -- ./inp_files/7787.got.cif
#   From: 2010.05.17/outbox.cif.g08.bks.cpg/sg9_4_cif.got.tgz:7787.got - 2010.06.03 20:04:27.
