data_PCOD9135071
_publ_section_title
;
Structure prediction by ZEFSAII (Michael W. Deem and Ramdas Pophale) SiO2 
 PCOD9135071
Probable space group: C C
;
_chemical_formula_sum "Si O2"
_cell_formula_units_Z 32
_cell_length_a 5.426846
_cell_length_b 21.051442
_cell_length_c 14.353076
_cell_angle_alpha 90.000000
_cell_angle_beta 74.789912
_cell_angle_gamma 90.000000
_cell_volume 1582.298025
_symmetry_space_group_name_H-M "C C"
_symmetry_group_IT_number 9
_symmetry_cell_setting 'monoclinic'
loop_
_space_group_symop_operation_xyz
x,y,z
x,-y,1/2+z
1/2+x,1/2+y,z
1/2+x,1/2-y,1/2+z
loop_
_atom_site_type_symbol
_atom_site_label
_atom_site_fract_x
_atom_site_fract_y
_atom_site_fract_z
Si Si1 0.342900 0.354766 0.418610
Si Si2 0.026783 0.109840 0.405316
Si Si3 0.074649 0.015591 0.554994
Si Si4 0.838884 0.276313 0.811695
Si Si5 0.373044 0.681263 0.260312
Si Si6 0.715998 0.096442 0.120807
Si Si7 0.258428 0.979927 0.736091
Si Si8 0.877804 0.568682 0.881835
O O1 0.327939 0.285488 0.375890
O O2 0.233149 0.355346 0.534277
O O3 0.630824 0.384258 0.393559
O O4 0.140534 0.397672 0.382465
O O5 0.262927 0.158974 0.374269
O O6 0.066266 0.050091 0.331377
O O7 0.821912 0.152373 0.369344
O O8 0.007404 0.080829 0.509283
O O9 0.149105 0.014532 0.655997
O O10 0.295713 0.979958 0.472933
O O11 0.833538 0.968944 0.571719
O O12 0.627669 0.278105 0.750592
O O13 0.127772 0.281734 0.749736
O O14 0.392982 0.623703 0.185591
O O15 0.439986 0.078072 0.186197
O O16 0.413349 0.029797 0.783281
#
# Coordination Sequence:
#
# PCOD9135071 Si02
#       8
#     4   4   4   4   4   4   4   4
#     4  11  23  42  62  93 123 163 206 253 304 360
#     4   9  21  36  62  89 123 160 206 241 319 354
#     4  10  20  37  58  96 121 159 198 267 293 377
#     4  10  21  40  63  81 121 161 205 247 300 356
#     4  10  20  38  62  90 112 166 207 243 294 368
#     4  11  21  35  66  89 122 158 214 247 306 370
#     4  11  20  38  63  90 128 158 206 251 313 368
#     4  10  24  38  62  92 124 161 200 255 315 357
#
# _framework density 20.223752000000001
#
# number of rings (size 3 to 8) (size 9 to 14) (size 15 to 20)
#    0.750    1.000    3.750    0.750    1.750    2.000 
#    0.000    2.500    2.750    0.000    0.000    0.000 
#    0.000    0.000    0.000    0.000    0.000    0.000 
#
# Total GULP energy -89098.891317 kJ/mol
# GULP energy per Si atom -5568.680707 kJ/mol
# Density = 2.017772 g / cm^3
# Si number density = 20.223752 Si / 1000 Ang^3
#
#
#
# Elastic Constant Matrix: (Units=GPa)
#
#
# Indices 1 2 3 4 5 6 
#
# 1 98.8457 7.4604 16.4535 0.0000 18.7980 0.0000
# 2 7.4604 33.6527 12.5507 0.0000 9.4537 0.0000
# 3 16.4535 12.5507 58.0804 0.0000 18.9827 0.0000
# 4 0.0000 0.0000 0.0000 30.1835 0.0000 2.5402
# 5 18.7980 9.4537 18.9827 0.0000 28.7548 0.0000
# 6 0.0000 0.0000 0.0000 2.5402 0.0000 14.1604
#
#
#
# Elastic Compliance Matrix: (Units=1/GPa)
#
#
# Indices 1 2 3 4 5 6 
#
# 1 0.011604 -0.000282 -0.000991 0.000000 -0.006839 0.000000
# 2 -0.000282 0.033710 -0.004645 0.000000 -0.007833 0.000000
# 3 -0.000991 -0.004645 0.022686 0.000000 -0.012801 0.000000
# 4 0.000000 0.000000 0.000000 0.033638 0.000000 -0.006034
# 5 -0.006839 -0.007833 -0.012801 0.000000 0.050274 0.000000
# 6 0.000000 0.000000 0.000000 -0.006034 0.000000 0.071702
#
#
# Mechanical properties :
#
#
# Convention : Reuss Voigt Hill
#
# Bulk Modulus (GPa) = 17.80479 29.27867 23.54173
# Shear Modulus (GPa) = 19.67185 24.89402 22.28293
#
# Velocity S-wave (km/s) = 3.12221 3.51227 3.32297
# Velocity P-wave (km/s) = 4.67126 5.56389 5.13700
#
# Compressibility (1/GPa) = 0.05616467
#
# Stress axis : x y z
#
# Youngs Moduli (GPa) = 86.18028 29.66450 44.08029
#
# Poissons Ratio (x) = 0.00835 0.04369
# Poissons Ratio (y) = 0.02426 0.20474
# Poissons Ratio (z) = 0.08542 0.13779
#
# Static dielectric constant tensor:
#      x y z
#    x 1.779990 0.000000 -0.006330 
#    y 0.000000 1.748260 0.000000 
#    z -0.006330 0.000000 1.741020 
# 
# From -- ./inp_files/13632.got.cif
#   From: 2010.05.17/outbox.cif.g08.bks.cpg/sg9_7_cif.got.tgz:13632.got - 2010.06.03 20:04:27.
