data_PCOD9135836
_publ_section_title
;
Structure prediction by ZEFSAII (Michael W. Deem and Ramdas Pophale) SiO2 
 PCOD9135836
Probable space group: C C
;
_chemical_formula_sum "Si O2"
_cell_formula_units_Z 32
_cell_length_a 19.603796
_cell_length_b 8.468200
_cell_length_c 22.847910
_cell_angle_alpha 90.000000
_cell_angle_beta 160.096797
_cell_angle_gamma 90.000000
_cell_volume 1291.243900
_symmetry_space_group_name_H-M "C C"
_symmetry_group_IT_number 9
_symmetry_cell_setting 'monoclinic'
loop_
_space_group_symop_operation_xyz
x,y,z
x,-y,1/2+z
1/2+x,1/2+y,z
1/2+x,1/2-y,1/2+z
loop_
_atom_site_type_symbol
_atom_site_label
_atom_site_fract_x
_atom_site_fract_y
_atom_site_fract_z
Si Si1 0.271100 0.314098 0.360120
Si Si2 0.288144 0.930818 0.225576
Si Si3 0.581092 0.423872 0.943646
Si Si4 0.938978 0.496528 0.659418
Si Si5 0.616440 0.498349 0.206870
Si Si6 0.713598 0.986436 0.576273
Si Si7 0.448319 0.748316 0.882396
Si Si8 0.291504 0.334729 0.019300
O O1 0.071530 0.401610 0.221616
O O2 0.451082 0.390516 0.541720
O O3 0.328876 0.331810 0.338688
O O4 0.251567 0.124708 0.350171
O O5 0.225527 0.905226 0.242264
O O6 0.519658 0.883478 0.400795
O O7 0.124945 0.882226 0.046684
O O8 0.308368 0.122425 0.236826
O O9 0.784347 0.396605 0.071332
O O10 0.381469 0.392154 0.745700
O O11 0.547916 0.617198 0.922653
O O12 0.804555 0.354048 0.526134
O O13 0.099185 0.408735 0.831204
O O14 0.493738 0.388329 0.150261
O O15 0.610301 0.118969 0.534382
O O16 0.789058 0.084308 0.581270
#
# Coordination Sequence:
#
# PCOD9135836 Si02
#       8
#     4   4   4   4   4   4   4   4
#     4  10  22  36  59  88 123 164 197 249 312 367
#     4   9  19  33  54  87 114 150 195 260 302 350
#     4  12  18  32  58  89 116 153 199 264 301 353
#     4  11  22  37  57  90 124 162 205 250 308 371
#     4  10  22  38  59  85 127 159 199 256 313 364
#     4  10  21  31  58  90 117 148 211 260 305 346
#     4   9  18  31  52  85 114 141 199 253 291 344
#     4  11  22  38  57  90 125 163 201 258 308 363
#
# _framework density 24.782305999999998
#
# number of rings (size 3 to 8) (size 9 to 14) (size 15 to 20)
#    0.750    1.000    3.750    1.500    1.750    2.000 
#    0.000    0.000    0.000    1.500    3.250    0.000 
#    0.000    0.000    0.000    0.000    0.000    0.000 
#
# Total GULP energy -89360.788995 kJ/mol
# GULP energy per Si atom -5585.049312 kJ/mol
# Density = 2.472590 g / cm^3
# Si number density = 24.782306 Si / 1000 Ang^3
#
#
#
# Elastic Constant Matrix: (Units=GPa)
#
#
# Indices 1 2 3 4 5 6 
#
# 1 138.2601 26.5264 51.8760 -0.0057 26.9443 -0.0018
# 2 26.5264 44.8134 18.9707 0.0020 -10.2908 0.0003
# 3 51.8760 18.9707 112.0848 0.0070 2.2447 -0.0004
# 4 -0.0057 0.0020 0.0070 47.2561 0.0002 6.4838
# 5 26.9443 -10.2908 2.2447 0.0002 42.9840 -0.0011
# 6 -0.0018 0.0003 -0.0004 6.4838 -0.0011 30.2803
#
#
#
# Elastic Compliance Matrix: (Units=1/GPa)
#
#
# Indices 1 2 3 4 5 6 
#
# 1 0.011961 -0.007426 -0.004097 0.000002 -0.009062 0.000000
# 2 -0.007426 0.030284 -0.001929 -0.000002 0.012006 0.000000
# 3 -0.004097 -0.001929 0.011114 -0.000002 0.001526 0.000000
# 4 0.000002 -0.000002 -0.000002 0.021802 -0.000002 -0.004668
# 5 -0.009062 0.012006 0.001526 -0.000002 0.031739 0.000001
# 6 0.000000 0.000000 0.000000 -0.004668 0.000001 0.034024
#
#
# Mechanical properties :
#
#
# Convention : Reuss Voigt Hill
#
# Bulk Modulus (GPa) = 37.80186 54.43383 46.11785
# Shear Modulus (GPa) = 28.30486 37.28978 32.79732
#
# Velocity S-wave (km/s) = 3.38322 3.88325 3.64183
# Velocity P-wave (km/s) = 5.52705 6.48989 6.02772
#
# Compressibility (1/GPa) = 0.02645373
#
# Stress axis : x y z
#
# Youngs Moduli (GPa) = 83.60625 33.02050 89.97540
#
# Poissons Ratio (x) = 0.24522 0.36867
# Poissons Ratio (y) = 0.62088 0.17357
# Poissons Ratio (z) = 0.34257 0.06370
#
# Static dielectric constant tensor:
#      x y z
#    x 1.924990 0.000000 0.005910 
#    y 0.000000 2.109240 0.000000 
#    z 0.005910 0.000000 2.074150 
# 
# From -- ./inp_files/35985.got.cif
#   From: 2010.05.17/outbox.cif.g08.bks.cpg/sg9_18_cif.got.tgz:35985.got - 2010.06.03 20:04:27.
