data_PCOD9135595
_publ_section_title
;
Structure prediction by ZEFSAII (Michael W. Deem and Ramdas Pophale) SiO2 
 PCOD9135595
Probable space group: C C
;
_chemical_formula_sum "Si O2"
_cell_formula_units_Z 32
_cell_length_a 5.932833
_cell_length_b 18.128361
_cell_length_c 14.413777
_cell_angle_alpha 90.000000
_cell_angle_beta 89.462958
_cell_angle_gamma 90.000000
_cell_volume 1550.170206
_symmetry_space_group_name_H-M "C C"
_symmetry_group_IT_number 9
_symmetry_cell_setting 'monoclinic'
loop_
_space_group_symop_operation_xyz
x,y,z
x,-y,1/2+z
1/2+x,1/2+y,z
1/2+x,1/2-y,1/2+z
loop_
_atom_site_type_symbol
_atom_site_label
_atom_site_fract_x
_atom_site_fract_y
_atom_site_fract_z
Si Si1 0.382080 0.827959 0.375000
Si Si2 0.349891 0.991957 0.391591
Si Si3 0.775687 0.267154 0.793778
Si Si4 0.910952 0.407225 0.069921
Si Si5 0.662916 0.815979 0.934406
Si Si6 0.551211 0.653473 0.700531
Si Si7 0.200485 0.520896 0.726014
Si Si8 0.981180 0.094172 0.297085
O O1 0.338747 0.906702 0.421424
O O2 0.627133 0.797741 0.342744
O O3 0.284714 0.762167 0.436602
O O4 0.240166 0.836579 0.279934
O O5 0.564702 0.988261 0.322348
O O6 0.373725 0.042853 0.480519
O O7 0.145676 0.030002 0.335461
O O8 0.618779 0.334481 0.763765
O O9 0.946079 0.301766 0.868964
O O10 0.911322 0.228720 0.710278
O O11 0.686421 0.367834 0.107874
O O12 0.019599 0.456990 0.149552
O O13 0.087003 0.346340 0.033359
O O14 0.825427 0.873336 0.880372
O O15 0.383249 0.586337 0.724367
O O16 0.332313 0.443848 0.717994
#
# Coordination Sequence:
#
# PCOD9135595 Si02
#       8
#     4   4   4   4   4   4   4   4
#     4  10  21  42  72  94 132 181 228 283 355 413
#     4  12  23  44  71 102 136 183 234 291 354 423
#     4  10  20  41  70  96 130 179 233 281 350 426
#     4  12  25  40  71 102 139 183 245 284 351 419
#     4  10  23  40  71  98 131 181 228 285 351 421
#     4  11  22  40  71  97 137 183 233 287 352 417
#     4  12  23  42  69 102 140 185 235 291 355 418
#     4  11  21  41  73  97 133 183 234 284 356 415
#
# _framework density 20.642893000000001
#
# number of rings (size 3 to 8) (size 9 to 14) (size 15 to 20)
#    0.000    1.000    6.250    0.000    1.750    0.000 
#    0.000    0.000   52.250    0.000    0.000    0.000 
#    0.000    0.000    0.000    0.000    0.000    0.000 
#
# Total GULP energy -89322.563631 kJ/mol
# GULP energy per Si atom -5582.660227 kJ/mol
# Density = 2.059591 g / cm^3
# Si number density = 20.642893 Si / 1000 Ang^3
#
#
#
# Elastic Constant Matrix: (Units=GPa)
#
#
# Indices 1 2 3 4 5 6 
#
# 1 91.7439 45.4245 26.6480 0.0000 -25.3037 0.0000
# 2 45.4245 113.7855 47.4901 0.0000 -20.9580 0.0000
# 3 26.6480 47.4901 74.7085 0.0000 -22.6559 0.0000
# 4 0.0000 0.0000 0.0000 31.3027 0.0000 6.3894
# 5 -25.3037 -20.9580 -22.6559 0.0000 26.4173 0.0000
# 6 0.0000 0.0000 0.0000 6.3894 0.0000 35.3683
#
#
#
# Elastic Compliance Matrix: (Units=1/GPa)
#
#
# Indices 1 2 3 4 5 6 
#
# 1 0.016467 -0.004594 0.000979 0.000000 0.012968 0.000000
# 2 -0.004594 0.013567 -0.006833 0.000000 0.000503 0.000000
# 3 0.000979 -0.006833 0.021651 0.000000 0.014085 0.000000
# 4 0.000000 0.000000 0.000000 0.033169 0.000000 -0.005992
# 5 0.012968 0.000503 0.014085 0.000000 0.062754 0.000000
# 6 0.000000 0.000000 0.000000 -0.005992 0.000000 0.029356
#
#
# Mechanical properties :
#
#
# Convention : Reuss Voigt Hill
#
# Bulk Modulus (GPa) = 32.47874 57.70702 45.09288
# Shear Modulus (GPa) = 24.02432 29.32933 26.67683
#
# Velocity S-wave (km/s) = 3.41516 3.77343 3.59876
# Velocity P-wave (km/s) = 5.59633 6.85570 6.25778
#
# Compressibility (1/GPa) = 0.03078937
#
# Stress axis : x y z
#
# Youngs Moduli (GPa) = 60.72892 73.70902 46.18710
#
# Poissons Ratio (x) = 0.33861 -0.04523
# Poissons Ratio (y) = 0.27898 0.31559
# Poissons Ratio (z) = -0.05947 0.50365
#
# Static dielectric constant tensor:
#      x y z
#    x 1.798040 0.000000 0.003050 
#    y 0.000000 1.758120 0.000000 
#    z 0.003050 0.000000 1.697500 
# 
# From -- ./inp_files/21946.got.cif
#   From: 2010.05.17/outbox.cif.g08.bks.cpg/sg9_11_cif.got.tgz:21946.got - 2010.06.03 20:04:27.
