data_PCOD9135867
_publ_section_title
;
Structure prediction by ZEFSAII (Michael W. Deem and Ramdas Pophale) SiO2 
 PCOD9135867
Probable space group: C C
;
_chemical_formula_sum "Si O2"
_cell_formula_units_Z 32
_cell_length_a 19.777271
_cell_length_b 16.005801
_cell_length_c 8.050063
_cell_angle_alpha 90.000000
_cell_angle_beta 28.173496
_cell_angle_gamma 90.000000
_cell_volume 1203.141336
_symmetry_space_group_name_H-M "C C"
_symmetry_group_IT_number 9
_symmetry_cell_setting 'monoclinic'
loop_
_space_group_symop_operation_xyz
x,y,z
x,-y,1/2+z
1/2+x,1/2+y,z
1/2+x,1/2-y,1/2+z
loop_
_atom_site_type_symbol
_atom_site_label
_atom_site_fract_x
_atom_site_fract_y
_atom_site_fract_z
Si Si1 0.919650 0.764722 0.303860
Si Si2 0.599300 0.464616 0.537697
Si Si3 0.334663 0.426567 0.610262
Si Si4 0.706016 0.274515 0.851832
Si Si5 0.319577 0.397886 0.012994
Si Si6 0.420131 0.974184 0.249583
Si Si7 0.276803 0.144304 0.850634
Si Si8 0.445262 0.134361 0.006633
O O1 0.842658 0.853534 0.457768
O O2 0.808639 0.698706 0.620933
O O3 0.993858 0.722192 0.982855
O O4 0.036692 0.773569 0.197185
O O5 0.496608 0.542070 0.792849
O O6 0.492668 0.407286 0.659278
O O7 0.753724 0.500002 0.150649
O O8 0.635905 0.410026 0.619786
O O9 0.282081 0.392017 0.899778
O O10 0.264439 0.512627 0.700907
O O11 0.762178 0.179878 0.741260
O O12 0.761524 0.304818 0.551553
O O13 0.780907 0.336873 0.819484
O O14 0.405111 0.920052 0.113577
O O15 0.485256 0.913003 0.248373
O O16 0.477870 0.064053 0.072570
#
# Coordination Sequence:
#
# PCOD9135867 Si02
#       8
#     4   4   4   4   4   4   4   4
#     4  12  25  43  69 105 140 180 227 298 346 415
#     4  10  21  35  75  96 126 171 236 284 335 403
#     4  10  23  39  69  96 129 177 235 273 349 402
#     4  11  27  42  66 103 147 175 233 289 357 412
#     4  10  24  42  65  95 134 182 226 287 343 422
#     4  11  20  40  66 104 128 177 224 293 343 401
#     4  11  22  41  67  99 134 172 231 287 342 406
#     4  11  24  40  69 100 144 176 238 287 347 415
#
# _framework density 26.597042999999999
#
# number of rings (size 3 to 8) (size 9 to 14) (size 15 to 20)
#    0.750    0.500    3.750    2.250    7.000    0.000 
#    0.000    2.500    0.000    0.000    0.000    0.000 
#    0.000    0.000    0.000    0.000    0.000    0.000 
#
# Total GULP energy -89351.297656 kJ/mol
# GULP energy per Si atom -5584.456104 kJ/mol
# Density = 2.653651 g / cm^3
# Si number density = 26.597043 Si / 1000 Ang^3
#
#
#
# Elastic Constant Matrix: (Units=GPa)
#
#
# Indices 1 2 3 4 5 6 
#
# 1 106.9325 49.1489 27.3674 0.0000 19.5425 0.0000
# 2 49.1489 179.2531 6.7227 0.0000 7.2298 0.0000
# 3 27.3674 6.7227 56.1264 0.0000 -14.6123 0.0000
# 4 0.0000 0.0000 0.0000 27.3645 0.0000 4.7688
# 5 19.5425 7.2298 -14.6123 0.0000 26.5219 0.0000
# 6 0.0000 0.0000 0.0000 4.7688 0.0000 53.3494
#
#
#
# Elastic Compliance Matrix: (Units=1/GPa)
#
#
# Indices 1 2 3 4 5 6 
#
# 1 0.018133 -0.003663 -0.013568 0.000000 -0.019838 0.000000
# 2 -0.003663 0.006458 0.001467 0.000000 0.001747 0.000000
# 3 -0.013568 0.001467 0.031236 0.000000 0.026807 0.000000
# 4 0.000000 0.000000 0.000000 0.037122 0.000000 -0.003318
# 5 -0.019838 0.001747 0.026807 0.000000 0.066615 0.000000
# 6 0.000000 0.000000 0.000000 -0.003318 0.000000 0.019041
#
#
# Mechanical properties :
#
#
# Convention : Reuss Voigt Hill
#
# Bulk Modulus (GPa) = 41.15213 56.53222 48.84217
# Shear Modulus (GPa) = 22.91149 38.71873 30.81511
#
# Velocity S-wave (km/s) = 2.93820 3.81957 3.40750
# Velocity P-wave (km/s) = 5.19776 6.38384 5.82109
#
# Compressibility (1/GPa) = 0.02430008
#
# Stress axis : x y z
#
# Youngs Moduli (GPa) = 55.14748 154.85812 32.01444
#
# Poissons Ratio (x) = 0.56723 0.43437
# Poissons Ratio (y) = 0.20200 -0.04698
# Poissons Ratio (z) = 0.74823 -0.22725
#
# Static dielectric constant tensor:
#      x y z
#    x 2.085980 0.000000 -0.010660 
#    y 0.000000 2.108130 0.000000 
#    z -0.010660 0.000000 2.128310 
# 
# From -- ./inp_files/11699.got.cif
#   From: 2010.05.17/outbox.cif.g08.bks.cpg/sg9_6_cif.got.tgz:11699.got - 2010.06.03 20:04:27.
