data_PCOD9135128
_publ_section_title
;
Structure prediction by ZEFSAII (Michael W. Deem and Ramdas Pophale) SiO2 
 PCOD9135128
Probable space group: C C
;
_chemical_formula_sum "Si O2"
_cell_formula_units_Z 28
_cell_length_a 9.956408
_cell_length_b 20.147735
_cell_length_c 5.901816
_cell_angle_alpha 90.000000
_cell_angle_beta 65.693633
_cell_angle_gamma 90.000000
_cell_volume 1078.955100
_symmetry_space_group_name_H-M "C C"
_symmetry_group_IT_number 9
_symmetry_cell_setting 'monoclinic'
loop_
_space_group_symop_operation_xyz
x,y,z
x,-y,1/2+z
1/2+x,1/2+y,z
1/2+x,1/2-y,1/2+z
loop_
_atom_site_type_symbol
_atom_site_label
_atom_site_fract_x
_atom_site_fract_y
_atom_site_fract_z
Si Si1 0.622450 0.490391 0.914520
Si Si2 0.678800 0.743295 0.000466
Si Si3 0.413429 0.815313 0.033436
Si Si4 0.992356 0.468055 0.921032
Si Si5 0.322704 0.578318 0.156131
Si Si6 0.506417 0.644314 0.388346
Si Si7 0.297740 0.704410 0.840278
O O1 0.690616 0.493506 0.613259
O O2 0.589570 0.413156 0.956761
O O3 0.467983 0.532953 0.003311
O O4 0.576405 0.783913 0.899989
O O5 0.595966 0.676150 0.122916
O O6 0.682621 0.790346 0.217668
O O7 0.838047 0.717896 0.808830
O O8 0.426136 0.893646 0.002668
O O9 0.307052 0.778511 0.931640
O O10 0.959072 0.506066 0.184977
O O11 0.171797 0.461427 0.786709
O O12 0.364951 0.611461 0.365972
O O13 0.295945 0.639242 0.999333
O O14 0.453130 0.696191 0.605541
#
# Coordination Sequence:
#
# PCOD9135128 Si02
#       7
#     4   4   4   4   4   4   4
#     4  10  20  37  64 100 147 187 240 309 374 448
#     4  12  27  47  76 115 157 204 267 330 406 478
#     4  12  29  51  76 115 158 209 267 334 402 485
#     4  12  30  50  81 115 159 215 272 330 404 487
#     4  11  23  43  74 113 153 196 266 326 394 460
#     4  11  23  42  67 110 150 194 253 323 391 466
#     4  12  24  44  78 106 156 201 263 330 405 466
#
# _framework density 25.951035000000001
#
# number of rings (size 3 to 8) (size 9 to 14) (size 15 to 20)
#    0.000    0.571    4.286    3.429   10.000    0.000 
#    0.000    2.857    0.000    0.000    0.000    0.000 
#    0.000    0.000    0.000    0.000    0.000    0.000 
#
# Total GULP energy -78199.946204 kJ/mol
# GULP energy per Si atom -5585.710443 kJ/mol
# Density = 2.589197 g / cm^3
# Si number density = 25.951035 Si / 1000 Ang^3
#
#
#
# Elastic Constant Matrix: (Units=GPa)
#
#
# Indices 1 2 3 4 5 6 
#
# 1 98.6192 23.6193 44.9561 0.0000 13.4189 0.0000
# 2 23.6193 133.7280 50.2461 0.0000 -0.3087 0.0000
# 3 44.9561 50.2461 141.6660 0.0000 7.2294 0.0000
# 4 0.0000 0.0000 0.0000 48.6188 0.0000 2.9655
# 5 13.4189 -0.3087 7.2294 0.0000 42.3097 0.0000
# 6 0.0000 0.0000 0.0000 2.9655 0.0000 35.7554
#
#
#
# Elastic Compliance Matrix: (Units=1/GPa)
#
#
# Indices 1 2 3 4 5 6 
#
# 1 0.012378 -0.000902 -0.003437 0.000000 -0.003345 0.000000
# 2 -0.000902 0.008708 -0.002845 0.000000 0.000836 0.000000
# 3 -0.003437 -0.002845 0.009184 0.000000 -0.000500 0.000000
# 4 0.000000 0.000000 0.000000 0.020673 0.000000 -0.001715
# 5 -0.003345 0.000836 -0.000500 0.000000 0.024788 0.000000
# 6 0.000000 0.000000 0.000000 -0.001715 0.000000 0.028110
#
#
# Mechanical properties :
#
#
# Convention : Reuss Voigt Hill
#
# Bulk Modulus (GPa) = 62.88816 67.96179 65.42498
# Shear Modulus (GPa) = 40.48236 42.34957 41.41597
#
# Velocity S-wave (km/s) = 3.95391 4.04406 3.99924
# Velocity P-wave (km/s) = 6.71792 6.93190 6.82575
#
# Compressibility (1/GPa) = 0.01590125
#
# Stress axis : x y z
#
# Youngs Moduli (GPa) = 80.78697 114.83566 108.88310
#
# Poissons Ratio (x) = 0.10364 0.37426
# Poissons Ratio (y) = 0.07291 0.30976
# Poissons Ratio (z) = 0.27769 0.32669
#
# Static dielectric constant tensor:
#      x y z
#    x 2.071990 0.000000 -0.021490 
#    y 0.000000 1.978350 0.000000 
#    z -0.021490 0.000000 2.119840 
# 
# From -- ./inp_files/1763.got.cif
#   From: 2010.05.17/outbox.cif.g08.bks.cpg/sg9_1_cif.got.tgz:1763.got - 2010.06.03 20:04:27.
