data_PCOD9135875
_publ_section_title
;
Structure prediction by ZEFSAII (Michael W. Deem and Ramdas Pophale) SiO2 
 PCOD9135875
Probable space group: C C
;
_chemical_formula_sum "Si O2"
_cell_formula_units_Z 28
_cell_length_a 20.620696
_cell_length_b 9.377761
_cell_length_c 13.522883
_cell_angle_alpha 90.000000
_cell_angle_beta 156.563250
_cell_angle_gamma 90.000000
_cell_volume 1040.081040
_symmetry_space_group_name_H-M "C C"
_symmetry_group_IT_number 9
_symmetry_cell_setting 'monoclinic'
loop_
_space_group_symop_operation_xyz
x,y,z
x,-y,1/2+z
1/2+x,1/2+y,z
1/2+x,1/2-y,1/2+z
loop_
_atom_site_type_symbol
_atom_site_label
_atom_site_fract_x
_atom_site_fract_y
_atom_site_fract_z
Si Si1 0.222580 0.530531 0.415300
Si Si2 0.739458 0.844714 0.632601
Si Si3 0.605853 0.326814 0.201471
Si Si4 0.980628 0.475808 0.851546
Si Si5 0.695170 0.774104 0.259093
Si Si6 0.362022 0.997942 0.957103
Si Si7 0.638761 0.409301 0.878017
O O1 0.266535 0.464784 0.583928
O O2 0.226872 0.699893 0.407040
O O3 0.293543 0.412035 0.438724
O O4 0.027208 0.512886 0.127789
O O5 0.636884 0.919739 0.575109
O O6 0.616728 0.721783 0.422410
O O7 0.919754 0.793257 0.912089
O O8 0.701730 0.403609 0.244541
O O9 0.575755 0.438784 0.249781
O O10 0.047791 0.327468 0.985600
O O11 0.932789 0.478890 0.668206
O O12 0.815609 0.536040 0.665221
O O13 0.804057 0.661779 0.353880
O O14 0.647067 0.682101 0.287668
#
# Coordination Sequence:
#
# PCOD9135875 Si02
#       7
#     4   4   4   4   4   4   4
#     4  10  21  39  60  86 120 153 195 244 288 345
#     4  10  21  37  58  84 114 155 197 237 290 347
#     4  10  21  36  59  86 117 153 194 241 289 345
#     4   9  18  35  59  83 113 151 195 239 285 343
#     4   9  18  35  61  82 110 155 190 233 292 338
#     4   9  22  40  56  87 124 149 193 247 288 346
#     4   9  21  38  55  84 120 148 190 245 288 342
#
# _framework density 26.920978000000002
#
# number of rings (size 3 to 8) (size 9 to 14) (size 15 to 20)
#    0.000    2.857    0.000    0.857    0.000   12.571 
#    0.000    7.143    0.000    1.714    0.000    0.000 
#    0.000    0.000    0.000    0.000    0.000    0.000 
#
# Total GULP energy -78078.018388 kJ/mol
# GULP energy per Si atom -5577.001313 kJ/mol
# Density = 2.685970 g / cm^3
# Si number density = 26.920978 Si / 1000 Ang^3
#
#
#
# Elastic Constant Matrix: (Units=GPa)
#
#
# Indices 1 2 3 4 5 6 
#
# 1 41.8636 28.9613 -0.4049 0.0000 3.7550 0.0000
# 2 28.9613 181.2477 47.0727 0.0000 -11.6868 0.0000
# 3 -0.4049 47.0727 121.5582 0.0000 -8.3253 0.0000
# 4 0.0000 0.0000 0.0000 67.1436 0.0000 -1.6712
# 5 3.7550 -11.6868 -8.3253 0.0000 34.2819 0.0000
# 6 0.0000 0.0000 0.0000 -1.6712 0.0000 35.3690
#
#
#
# Elastic Compliance Matrix: (Units=1/GPa)
#
#
# Indices 1 2 3 4 5 6 
#
# 1 0.027905 -0.005212 0.001810 0.000000 -0.004394 0.000000
# 2 -0.005212 0.007189 -0.002638 0.000000 0.002381 0.000000
# 3 0.001810 -0.002638 0.009334 0.000000 0.001169 0.000000
# 4 0.000000 0.000000 0.000000 0.014911 0.000000 0.000705
# 5 -0.004394 0.002381 0.001169 0.000000 0.030747 0.000000
# 6 0.000000 0.000000 0.000000 0.000705 0.000000 0.028307
#
#
# Mechanical properties :
#
#
# Convention : Reuss Voigt Hill
#
# Bulk Modulus (GPa) = 30.91413 55.10309 43.00861
# Shear Modulus (GPa) = 35.39706 45.29492 40.34599
#
# Velocity S-wave (km/s) = 3.63002 4.10630 3.87548
# Velocity P-wave (km/s) = 5.39237 6.55707 6.00303
#
# Compressibility (1/GPa) = 0.03234766
#
# Stress axis : x y z
#
# Youngs Moduli (GPa) = 35.83639 139.10387 107.13273
#
# Poissons Ratio (x) = 0.72506 -0.19396
# Poissons Ratio (y) = 0.18679 0.28263
# Poissons Ratio (z) = -0.06488 0.36698
#
# Static dielectric constant tensor:
#      x y z
#    x 2.272340 0.000000 0.011510 
#    y 0.000000 2.280790 0.000000 
#    z 0.011510 0.000000 2.117620 
# 
# From -- ./inp_files/31831.got.cif
#   From: 2010.05.17/outbox.cif.g08.bks.cpg/sg9_16_cif.got.tgz:31831.got - 2010.06.03 20:04:27.
