data_PCOD9135949
_publ_section_title
;
Structure prediction by ZEFSAII (Michael W. Deem and Ramdas Pophale) SiO2 
 PCOD9135949
Probable space group: C C
;
_chemical_formula_sum "Si O2"
_cell_formula_units_Z 32
_cell_length_a 7.942552
_cell_length_b 19.755351
_cell_length_c 10.035919
_cell_angle_alpha 90.000000
_cell_angle_beta 66.074471
_cell_angle_gamma 90.000000
_cell_volume 1439.405012
_symmetry_space_group_name_H-M "C C"
_symmetry_group_IT_number 9
_symmetry_cell_setting 'monoclinic'
loop_
_space_group_symop_operation_xyz
x,y,z
x,-y,1/2+z
1/2+x,1/2+y,z
1/2+x,1/2-y,1/2+z
loop_
_atom_site_type_symbol
_atom_site_label
_atom_site_fract_x
_atom_site_fract_y
_atom_site_fract_z
Si Si1 0.328920 0.196206 0.185490
Si Si2 0.536611 0.375997 0.948364
Si Si3 0.862978 0.687771 0.741918
Si Si4 0.535890 0.520806 0.067821
Si Si5 0.712620 0.202949 0.485258
Si Si6 0.489251 0.320114 0.237786
Si Si7 0.936001 0.409332 0.456770
Si Si8 0.813078 0.954998 0.375275
O O1 0.166191 0.150892 0.293215
O O2 0.250575 0.246716 0.098152
O O3 0.413625 0.244386 0.271522
O O4 0.461995 0.144061 0.069090
O O5 0.588447 0.448246 0.988033
O O6 0.324107 0.366399 0.973309
O O7 0.558983 0.325010 0.064419
O O8 0.661529 0.661193 0.771908
O O9 0.952642 0.635539 0.817243
O O10 0.994564 0.693798 0.571417
O O11 0.809976 0.758624 0.831344
O O12 0.725880 0.562177 0.024058
O O13 0.392115 0.546473 0.000514
O O14 0.432993 0.504519 0.240889
O O15 0.343912 0.379301 0.306685
O O16 0.094463 0.465254 0.425971
#
# Coordination Sequence:
#
# PCOD9135949 Si02
#       8
#     4   4   4   4   4   4   4   4
#     4  10  21  39  64  96 130 175 224 281 350 413
#     4  10  21  41  62  92 134 173 223 284 336 411
#     4  11  21  39  64  98 134 177 222 285 349 421
#     4  11  24  46  69 100 139 187 241 287 343 428
#     4  10  21  37  62  92 132 173 219 279 354 401
#     4  10  23  38  65  95 138 173 223 284 353 413
#     4  11  24  44  72  94 138 186 233 287 354 410
#     4  11  25  46  72 101 143 186 235 293 353 419
#
# _framework density 22.231407999999998
#
# number of rings (size 3 to 8) (size 9 to 14) (size 15 to 20)
#    0.000    1.500    2.500    3.000    5.250    2.000 
#    4.500    0.000    0.000    0.000    0.000    0.000 
#    0.000    0.000    0.000    0.000    0.000    0.000 
#
# Total GULP energy -89235.122025 kJ/mol
# GULP energy per Si atom -5577.195127 kJ/mol
# Density = 2.218081 g / cm^3
# Si number density = 22.231408 Si / 1000 Ang^3
#
#
#
# Elastic Constant Matrix: (Units=GPa)
#
#
# Indices 1 2 3 4 5 6 
#
# 1 109.6679 8.5123 21.5439 0.0000 -9.4769 0.0000
# 2 8.5123 58.7280 14.1483 0.0000 -8.6390 0.0000
# 3 21.5439 14.1483 72.0075 0.0000 -8.8498 0.0000
# 4 0.0000 0.0000 0.0000 21.7120 0.0000 -0.9569
# 5 -9.4769 -8.6390 -8.8498 0.0000 24.0392 0.0000
# 6 0.0000 0.0000 0.0000 -0.9569 0.0000 31.4019
#
#
#
# Elastic Compliance Matrix: (Units=1/GPa)
#
#
# Indices 1 2 3 4 5 6 
#
# 1 0.009891 -0.000409 -0.002532 0.000000 0.002820 0.000000
# 2 -0.000409 0.018579 -0.002857 0.000000 0.005464 0.000000
# 3 -0.002532 -0.002857 0.015666 0.000000 0.003742 0.000000
# 4 0.000000 0.000000 0.000000 0.046120 0.000000 0.001405
# 5 0.002820 0.005464 0.003742 0.000000 0.046052 0.000000
# 6 0.000000 0.000000 0.000000 0.001405 0.000000 0.031888
#
#
# Mechanical properties :
#
#
# Convention : Reuss Voigt Hill
#
# Bulk Modulus (GPa) = 30.73055 36.53472 33.63263
# Shear Modulus (GPa) = 26.22762 28.51053 27.36908
#
# Velocity S-wave (km/s) = 3.43848 3.58501 3.51251
# Velocity P-wave (km/s) = 5.44217 5.79706 5.62242
#
# Compressibility (1/GPa) = 0.03254091
#
# Stress axis : x y z
#
# Youngs Moduli (GPa) = 101.09824 53.82465 63.83099
#
# Poissons Ratio (x) = 0.02200 0.16165
# Poissons Ratio (y) = 0.04132 0.18234
# Poissons Ratio (z) = 0.25603 0.15376
#
# Static dielectric constant tensor:
#      x y z
#    x 1.913380 0.000000 -0.013530 
#    y 0.000000 1.862340 0.000000 
#    z -0.013530 0.000000 1.829400 
# 
# From -- ./inp_files/15211.got.cif
#   From: 2010.05.17/outbox.cif.g08.bks.cpg/sg9_8_cif.got.tgz:15211.got - 2010.06.03 20:04:27.
