data_PCOD9135240
_publ_section_title
;
Structure prediction by ZEFSAII (Michael W. Deem and Ramdas Pophale) SiO2 
 PCOD9135240
Probable space group: C C
;
_chemical_formula_sum "Si O2"
_cell_formula_units_Z 32
_cell_length_a 11.811064
_cell_length_b 20.486387
_cell_length_c 5.585154
_cell_angle_alpha 90.000000
_cell_angle_beta 81.369346
_cell_angle_gamma 90.000000
_cell_volume 1336.114396
_symmetry_space_group_name_H-M "C C"
_symmetry_group_IT_number 9
_symmetry_cell_setting 'monoclinic'
loop_
_space_group_symop_operation_xyz
x,y,z
x,-y,1/2+z
1/2+x,1/2+y,z
1/2+x,1/2-y,1/2+z
loop_
_atom_site_type_symbol
_atom_site_label
_atom_site_fract_x
_atom_site_fract_y
_atom_site_fract_z
Si Si1 0.981460 0.351480 0.220020
Si Si2 0.596499 0.462237 0.219141
Si Si3 0.837516 0.539835 0.552822
Si Si4 0.909880 0.858131 0.606290
Si Si5 0.349540 0.502748 0.283978
Si Si6 0.051383 0.238646 0.831957
Si Si7 0.349431 0.751883 0.511534
Si Si8 0.694183 0.809367 0.418529
O O1 0.942731 0.412710 0.079026
O O2 0.871072 0.322771 0.394465
O O3 0.087292 0.354114 0.372575
O O4 0.021504 0.294734 0.028947
O O5 0.609505 0.488561 0.486002
O O6 0.714019 0.423236 0.127492
O O7 0.457761 0.452110 0.252134
O O8 0.842469 0.511363 0.278989
O O9 0.908100 0.926072 0.743774
O O10 0.802115 0.853258 0.458576
O O11 0.029940 0.832237 0.457488
O O12 0.875470 0.803198 0.809591
O O13 0.284806 0.503818 0.554853
O O14 0.160567 0.260989 0.646320
O O15 0.949447 0.242923 0.672715
O O16 0.233424 0.736600 0.686767
#
# Coordination Sequence:
#
# PCOD9135240 Si02
#       8
#     4   4   4   4   4   4   4   4
#     4  10  21  39  65  90 130 169 213 269 330 389
#     4   8  16  36  56  80 116 156 198 250 308 368
#     4  10  22  39  65  91 129 171 214 268 324 389
#     4  10  21  39  65  90 130 169 213 269 330 389
#     4  10  22  39  65  91 129 171 214 268 324 389
#     4   9  20  38  63  91 124 164 211 270 329 383
#     4   9  20  38  63  91 124 164 211 270 329 383
#     4  10  20  38  64  92 128 164 216 272 326 390
#
# _framework density 23.950047999999999
#
# number of rings (size 3 to 8) (size 9 to 14) (size 15 to 20)
#    0.000    2.500    0.000    0.750    7.000    0.000 
#    0.000   23.750   16.500    0.000    0.000    0.000 
#    0.000    0.000    0.000    0.000    0.000    0.000 
#
# Total GULP energy -89103.543374 kJ/mol
# GULP energy per Si atom -5568.971461 kJ/mol
# Density = 2.389554 g / cm^3
# Si number density = 23.950048 Si / 1000 Ang^3
#
#
#
# Elastic Constant Matrix: (Units=GPa)
#
#
# Indices 1 2 3 4 5 6 
#
# 1 89.0182 23.5233 11.3135 0.0000 -0.3424 0.0000
# 2 23.5233 48.7093 -3.3167 0.0000 0.7060 0.0000
# 3 11.3135 -3.3167 88.6307 0.0000 2.0226 0.0000
# 4 0.0000 0.0000 0.0000 23.0389 0.0000 6.7260
# 5 -0.3424 0.7060 2.0226 0.0000 35.5605 0.0000
# 6 0.0000 0.0000 0.0000 6.7260 0.0000 28.6111
#
#
#
# Elastic Compliance Matrix: (Units=1/GPa)
#
#
# Indices 1 2 3 4 5 6 
#
# 1 0.013202 -0.006513 -0.001937 0.000000 0.000367 0.000000
# 2 -0.006513 0.023803 0.001737 0.000000 -0.000634 0.000000
# 3 -0.001937 0.001737 0.011611 0.000000 -0.000714 0.000000
# 4 0.000000 0.000000 0.000000 0.046603 0.000000 -0.010956
# 5 0.000367 -0.000634 -0.000714 0.000000 0.028178 0.000000
# 6 0.000000 0.000000 0.000000 -0.010956 0.000000 0.037527
#
#
# Mechanical properties :
#
#
# Convention : Reuss Voigt Hill
#
# Bulk Modulus (GPa) = 28.41813 32.15538 30.28675
# Shear Modulus (GPa) = 26.86989 30.43130 28.65059
#
# Velocity S-wave (km/s) = 3.35313 3.56844 3.46246
# Velocity P-wave (km/s) = 5.18485 5.51665 5.35332
#
# Compressibility (1/GPa) = 0.03518880
#
# Stress axis : x y z
#
# Youngs Moduli (GPa) = 75.74381 42.01186 86.12268
#
# Poissons Ratio (x) = 0.27363 0.16685
# Poissons Ratio (y) = 0.49333 -0.14956
# Poissons Ratio (z) = 0.14674 -0.07296
#
# Static dielectric constant tensor:
#      x y z
#    x 1.963180 0.000000 -0.001410 
#    y 0.000000 1.976790 0.000000 
#    z -0.001410 0.000000 1.982130 
# 
# From -- ./inp_files/1786.got.cif
#   From: 2010.05.17/outbox.cif.g08.bks.cpg/sg9_1_cif.got.tgz:1786.got - 2010.06.03 20:04:27.
