data_PCOD9135027
_publ_section_title
;
Structure prediction by ZEFSAII (Michael W. Deem and Ramdas Pophale) SiO2 
 PCOD9135027
Probable space group: C C
;
_chemical_formula_sum "Si O2"
_cell_formula_units_Z 32
_cell_length_a 14.346148
_cell_length_b 10.689292
_cell_length_c 8.808056
_cell_angle_alpha 90.000000
_cell_angle_beta 87.960298
_cell_angle_gamma 90.000000
_cell_volume 1349.861033
_symmetry_space_group_name_H-M "C C"
_symmetry_group_IT_number 9
_symmetry_cell_setting 'monoclinic'
loop_
_space_group_symop_operation_xyz
x,y,z
x,-y,1/2+z
1/2+x,1/2+y,z
1/2+x,1/2-y,1/2+z
loop_
_atom_site_type_symbol
_atom_site_label
_atom_site_fract_x
_atom_site_fract_y
_atom_site_fract_z
Si Si1 0.964540 0.345948 0.618290
Si Si2 0.278869 0.313265 0.158944
Si Si3 0.308625 0.494920 0.913222
Si Si4 0.892930 0.578566 0.817105
Si Si5 0.016088 0.072229 0.282317
Si Si6 0.896255 0.209812 0.088927
Si Si7 0.103721 0.846734 0.098803
Si Si8 0.778508 0.631038 0.405124
O O1 0.886440 0.234893 0.632827
O O2 0.933311 0.470403 0.707078
O O3 0.964712 0.387502 0.443618
O O4 0.061298 0.283699 0.657427
O O5 0.258319 0.377909 0.998036
O O6 0.261220 0.419706 0.287739
O O7 0.240507 0.189853 0.249511
O O8 0.334626 0.590868 0.047917
O O9 0.410233 0.462213 0.838308
O O10 0.869312 0.703354 0.730515
O O11 0.801322 0.514270 0.892407
O O12 0.997870 0.161757 0.136553
O O13 0.059451 0.124688 0.434240
O O14 0.072630 0.953921 0.216600
O O15 0.876285 0.299764 0.945817
O O16 0.210951 0.842986 0.048270
#
# Coordination Sequence:
#
# PCOD9135027 Si02
#       8
#     4   4   4   4   4   4   4   4
#     4  11  21  38  62  89 120 167 214 259 302 387
#     4  10  20  36  62  90 121 164 211 261 304 387
#     4  11  17  35  63  96 112 153 222 260 295 361
#     4  11  22  38  63  87 121 171 218 242 309 398
#     4  12  21  37  69  95 122 162 220 261 317 379
#     4  11  20  37  63  91 118 166 212 257 298 398
#     4  12  25  40  64  99 132 160 208 286 329 369
#     4  10  26  41  60  93 136 163 205 268 334 369
#
# _framework density 23.706143999999998
#
# number of rings (size 3 to 8) (size 9 to 14) (size 15 to 20)
#    0.000    1.000    7.500    0.000    1.750    0.000 
#    0.000    2.500    0.000    0.000    0.000    0.000 
#    0.000    0.000    0.000    0.000    0.000    0.000 
#
# Total GULP energy -89208.309908 kJ/mol
# GULP energy per Si atom -5575.519369 kJ/mol
# Density = 2.365219 g / cm^3
# Si number density = 23.706144 Si / 1000 Ang^3
#
#
#
# Elastic Constant Matrix: (Units=GPa)
#
#
# Indices 1 2 3 4 5 6 
#
# 1 22.5319 10.4514 1.5217 0.0000 -8.2108 0.0000
# 2 10.4514 88.6531 35.7945 0.0000 -7.2780 0.0000
# 3 1.5217 35.7945 78.8630 0.0000 -1.7489 0.0000
# 4 0.0000 0.0000 0.0000 63.5163 0.0000 2.2545
# 5 -8.2108 -7.2780 -1.7489 0.0000 33.2763 0.0000
# 6 0.0000 0.0000 0.0000 2.2545 0.0000 6.6551
#
#
#
# Elastic Compliance Matrix: (Units=1/GPa)
#
#
# Indices 1 2 3 4 5 6 
#
# 1 0.051141 -0.005870 0.001931 0.000000 0.011437 0.000000
# 2 -0.005870 0.014730 -0.006541 0.000000 0.001430 0.000000
# 3 0.001931 -0.006541 0.015609 0.000000 -0.000134 0.000000
# 4 0.000000 0.000000 0.000000 0.015936 0.000000 -0.005398
# 5 0.011437 0.001430 -0.000134 0.000000 0.033179 0.000000
# 6 0.000000 0.000000 0.000000 -0.005398 0.000000 0.152089
#
#
# Mechanical properties :
#
#
# Convention : Reuss Voigt Hill
#
# Bulk Modulus (GPa) = 16.52320 31.73149 24.12735
# Shear Modulus (GPa) = 15.44082 30.17491 22.80786
#
# Velocity S-wave (km/s) = 2.55491 3.57160 3.10515
# Velocity P-wave (km/s) = 3.96088 5.51569 4.80164
#
# Compressibility (1/GPa) = 0.06052096
#
# Stress axis : x y z
#
# Youngs Moduli (GPa) = 19.55366 67.88776 64.06663
#
# Poissons Ratio (x) = 0.39850 -0.12372
# Poissons Ratio (y) = 0.11478 0.41905
# Poissons Ratio (z) = -0.03776 0.44404
#
# Static dielectric constant tensor:
#      x y z
#    x 1.959460 0.000000 0.006570 
#    y 0.000000 1.932230 0.000000 
#    z 0.006570 0.000000 1.978870 
# 
# From -- ./inp_files/10619.got.cif
#   From: 2010.05.17/outbox.cif.g08.bks.cpg/sg9_6_cif.got.tgz:10619.got - 2010.06.03 20:04:27.
