data_PCOD9135236
_publ_section_title
;
Structure prediction by ZEFSAII (Michael W. Deem and Ramdas Pophale) SiO2 
 PCOD9135236
Probable space group: C C
;
_chemical_formula_sum "Si O2"
_cell_formula_units_Z 20
_cell_length_a 7.456120
_cell_length_b 11.433850
_cell_length_c 12.184644
_cell_angle_alpha 90.000000
_cell_angle_beta 124.022537
_cell_angle_gamma 90.000000
_cell_volume 860.948481
_symmetry_space_group_name_H-M "C C"
_symmetry_group_IT_number 9
_symmetry_cell_setting 'monoclinic'
loop_
_space_group_symop_operation_xyz
x,y,z
x,-y,1/2+z
1/2+x,1/2+y,z
1/2+x,1/2-y,1/2+z
loop_
_atom_site_type_symbol
_atom_site_label
_atom_site_fract_x
_atom_site_fract_y
_atom_site_fract_z
Si Si1 0.035520 0.431731 0.193810
Si Si2 0.905835 0.901264 0.170263
Si Si3 0.173516 0.941830 0.458687
Si Si4 0.791994 0.889538 0.483379
Si Si5 0.099006 0.318734 0.628439
O O1 0.191930 0.362638 0.164091
O O2 0.085942 0.385977 0.331815
O O3 0.131474 0.566522 0.216495
O O4 0.794849 0.454273 0.066076
O O5 0.052144 0.795961 0.179723
O O6 0.053218 0.974733 0.306046
O O7 0.818932 0.980938 0.043046
O O8 0.367732 0.854389 0.496432
O O9 0.001431 0.877319 0.478208
O O10 0.763986 0.812888 0.583420
#
# Coordination Sequence:
#
# PCOD9135236 Si02
#       5
#     4   4   4   4   4
#     4   8  20  38  61  87 127 159 200 263 310 366
#     4  10  20  38  64  89 125 163 206 258 314 376
#     4   9  21  38  59  89 124 161 200 259 315 365
#     4  10  20  39  60  89 125 160 208 258 314 372
#     4   9  21  37  60  90 123 159 210 250 313 379
#
# _framework density 23.230194999999998
#
# number of rings (size 3 to 8) (size 9 to 14) (size 15 to 20)
#    1.200    1.600    0.000    0.000    5.600    0.000 
#    3.600    0.000    0.000    0.000    0.000    0.000 
#    0.000    0.000    0.000    0.000    0.000    0.000 
#
# Total GULP energy -55701.492758 kJ/mol
# GULP energy per Si atom -5570.149276 kJ/mol
# Density = 2.317732 g / cm^3
# Si number density = 23.230195 Si / 1000 Ang^3
#
#
#
# Elastic Constant Matrix: (Units=GPa)
#
#
# Indices 1 2 3 4 5 6 
#
# 1 101.2116 5.2338 11.9579 0.0000 -11.9878 0.0000
# 2 5.2338 57.9757 5.0019 0.0000 -16.3624 0.0000
# 3 11.9579 5.0019 91.3851 0.0000 3.5172 0.0000
# 4 0.0000 0.0000 0.0000 11.0878 0.0000 -8.9718
# 5 -11.9878 -16.3624 3.5172 0.0000 36.5517 0.0000
# 6 0.0000 0.0000 0.0000 -8.9718 0.0000 31.3296
#
#
#
# Elastic Compliance Matrix: (Units=1/GPa)
#
#
# Indices 1 2 3 4 5 6 
#
# 1 0.010486 0.000226 -0.001526 0.000000 0.003687 0.000000
# 2 0.000226 0.019935 -0.001472 0.000000 0.009139 0.000000
# 3 -0.001526 -0.001472 0.011310 0.000000 -0.002248 0.000000
# 4 0.000000 0.000000 0.000000 0.117390 0.000000 0.033617
# 5 0.003687 0.009139 -0.002248 0.000000 0.032875 0.000000
# 6 0.000000 0.000000 0.000000 0.033617 0.000000 0.041545
#
#
# Mechanical properties :
#
#
# Convention : Reuss Voigt Hill
#
# Bulk Modulus (GPa) = 27.63679 32.77329 30.20504
# Shear Modulus (GPa) = 19.90857 31.01908 25.46383
#
# Velocity S-wave (km/s) = 2.93065 3.65813 3.31441
# Velocity P-wave (km/s) = 4.83471 5.65519 5.26097
#
# Compressibility (1/GPa) = 0.03618366
#
# Stress axis : x y z
#
# Youngs Moduli (GPa) = 95.36860 50.16379 88.42103
#
# Poissons Ratio (x) = -0.01132 0.13496
# Poissons Ratio (y) = -0.02152 0.13019
# Poissons Ratio (z) = 0.14556 0.07386
#
# Static dielectric constant tensor:
#      x y z
#    x 1.908030 0.000000 0.000650 
#    y 0.000000 1.891010 0.000000 
#    z 0.000650 0.000000 1.833260 
# 
# From -- ./inp_files/14047.got.cif
#   From: 2010.05.17/outbox.cif.g08.bks.cpg/sg9_8_cif.got.tgz:14047.got - 2010.06.03 20:04:27.
