data_PCOD9135200
_publ_section_title
;
Structure prediction by ZEFSAII (Michael W. Deem and Ramdas Pophale) SiO2 
 PCOD9135200
Probable space group: C C
;
_chemical_formula_sum "Si O2"
_cell_formula_units_Z 28
_cell_length_a 8.919879
_cell_length_b 12.952404
_cell_length_c 13.397406
_cell_angle_alpha 90.000000
_cell_angle_beta 127.196433
_cell_angle_gamma 90.000000
_cell_volume 1232.970477
_symmetry_space_group_name_H-M "C C"
_symmetry_group_IT_number 9
_symmetry_cell_setting 'monoclinic'
loop_
_space_group_symop_operation_xyz
x,y,z
x,-y,1/2+z
1/2+x,1/2+y,z
1/2+x,1/2-y,1/2+z
loop_
_atom_site_type_symbol
_atom_site_label
_atom_site_fract_x
_atom_site_fract_y
_atom_site_fract_z
Si Si1 0.934610 0.601157 0.143040
Si Si2 0.905587 0.393249 0.244242
Si Si3 0.529035 0.672316 0.210448
Si Si4 0.796185 0.315604 0.394563
Si Si5 0.833889 0.913311 0.436193
Si Si6 0.893781 0.753371 0.292585
Si Si7 0.384565 0.389897 0.853691
O O1 0.864989 0.494806 0.163822
O O2 0.856564 0.704307 0.167671
O O3 0.159752 0.605518 0.245010
O O4 0.883374 0.607023 0.007743
O O5 0.759352 0.371098 0.274305
O O6 0.940075 0.286076 0.198501
O O7 0.113262 0.416727 0.374929
O O8 0.756302 0.678757 0.299824
O O9 0.474695 0.600622 0.281373
O O10 0.446247 0.640197 0.070425
O O11 0.617497 0.263794 0.376530
O O12 0.932705 0.221737 0.418433
O O13 0.841301 0.859228 0.329000
O O14 0.922516 0.023872 0.449949
#
# Coordination Sequence:
#
# PCOD9135200 Si02
#       7
#     4   4   4   4   4   4   4
#     4  10  20  38  61  88 121 159 200 255 312 359
#     4   9  21  38  61  89 117 158 210 248 302 380
#     4  10  20  39  61  86 124 160 199 252 305 362
#     4  10  20  39  61  86 124 160 199 252 305 362
#     4  10  20  38  61  88 121 159 200 255 312 359
#     4  10  22  36  56  88 120 154 202 246 296 370
#     4   9  21  38  61  89 117 158 210 248 302 380
#
# _framework density 22.709382999999999
#
# number of rings (size 3 to 8) (size 9 to 14) (size 15 to 20)
#    0.000    2.286    0.000    1.714    0.000    3.429 
#    0.000   22.857    0.000    3.429    0.000    0.000 
#    0.000    0.000    0.000    0.000    0.000    0.000 
#
# Total GULP energy -77970.750408 kJ/mol
# GULP energy per Si atom -5569.339315 kJ/mol
# Density = 2.265770 g / cm^3
# Si number density = 22.709383 Si / 1000 Ang^3
#
#
#
# Elastic Constant Matrix: (Units=GPa)
#
#
# Indices 1 2 3 4 5 6 
#
# 1 111.5964 14.2580 34.3450 0.0000 -8.8991 0.0000
# 2 14.2580 90.9648 58.0646 0.0000 -23.7780 0.0000
# 3 34.3450 58.0646 90.0888 0.0000 -14.7395 0.0000
# 4 0.0000 0.0000 0.0000 27.6017 0.0000 -3.7101
# 5 -8.8991 -23.7780 -14.7395 0.0000 30.4463 0.0000
# 6 0.0000 0.0000 0.0000 -3.7101 0.0000 21.9693
#
#
#
# Elastic Compliance Matrix: (Units=1/GPa)
#
#
# Indices 1 2 3 4 5 6 
#
# 1 0.010401 0.002146 -0.004971 0.000000 0.002310 0.000000
# 2 0.002146 0.022056 -0.013155 0.000000 0.011484 0.000000
# 3 -0.004971 -0.013155 0.021237 0.000000 -0.001445 0.000000
# 4 0.000000 0.000000 0.000000 0.037071 0.000000 0.006260
# 5 0.002310 0.011484 -0.001445 0.000000 0.041789 0.000000
# 6 0.000000 0.000000 0.000000 0.006260 0.000000 0.046575
#
#
# Mechanical properties :
#
#
# Convention : Reuss Voigt Hill
#
# Bulk Modulus (GPa) = 46.00746 56.22056 51.11401
# Shear Modulus (GPa) = 22.90087 28.40229 25.65158
#
# Velocity S-wave (km/s) = 3.17903 3.54034 3.36454
# Velocity P-wave (km/s) = 5.81190 6.44378 6.13598
#
# Compressibility (1/GPa) = 0.02173561
#
# Stress axis : x y z
#
# Youngs Moduli (GPa) = 96.14854 45.33965 47.08695
#
# Poissons Ratio (x) = -0.09732 0.23405
# Poissons Ratio (y) = -0.20637 0.61942
# Poissons Ratio (z) = 0.47791 0.59644
#
# Static dielectric constant tensor:
#      x y z
#    x 1.890220 0.000000 0.011680 
#    y 0.000000 1.893760 0.000000 
#    z 0.011680 0.000000 1.797260 
# 
# From -- ./inp_files/14514.got.cif
#   From: 2010.05.17/outbox.cif.g08.bks.cpg/sg9_8_cif.got.tgz:14514.got - 2010.06.03 20:04:27.
