data_PCOD9135460
_publ_section_title
;
Structure prediction by ZEFSAII (Michael W. Deem and Ramdas Pophale) SiO2 
 PCOD9135460
Probable space group: C C
;
_chemical_formula_sum "Si O2"
_cell_formula_units_Z 32
_cell_length_a 8.772465
_cell_length_b 15.784545
_cell_length_c 10.253853
_cell_angle_alpha 90.000000
_cell_angle_beta 98.816536
_cell_angle_gamma 90.000000
_cell_volume 1403.067933
_symmetry_space_group_name_H-M "C C"
_symmetry_group_IT_number 9
_symmetry_cell_setting 'monoclinic'
loop_
_space_group_symop_operation_xyz
x,y,z
x,-y,1/2+z
1/2+x,1/2+y,z
1/2+x,1/2-y,1/2+z
loop_
_atom_site_type_symbol
_atom_site_label
_atom_site_fract_x
_atom_site_fract_y
_atom_site_fract_z
Si Si1 0.601260 0.845631 0.914730
Si Si2 0.855413 0.405044 0.503093
Si Si3 0.430733 0.606268 0.534277
Si Si4 0.818379 0.232445 0.937405
Si Si5 0.584348 0.761447 0.644039
Si Si6 0.386727 0.012471 0.271731
Si Si7 0.607416 0.359781 0.790060
Si Si8 0.998421 0.910632 0.514755
O O1 0.469847 0.791378 0.968894
O O2 0.642259 0.792133 0.790954
O O3 0.522496 0.929611 0.846604
O O4 0.752153 0.869573 0.013227
O O5 0.896164 0.427993 0.359526
O O6 0.891734 0.480770 0.614607
O O7 0.670708 0.398035 0.484186
O O8 0.947246 0.324256 0.572948
O O9 0.521659 0.666026 0.645344
O O10 0.505576 0.631249 0.404731
O O11 0.459527 0.506660 0.544113
O O12 0.714937 0.277583 0.814072
O O13 0.715335 0.235139 0.052580
O O14 0.871297 0.137394 0.913711
O O15 0.226960 0.061179 0.289909
O O16 0.500690 0.361112 0.651536
#
# Coordination Sequence:
#
# PCOD9135460 Si02
#       8
#     4   4   4   4   4   4   4   4
#     4  10  22  41  64  92 135 171 223 281 335 402
#     4  10  20  40  65  95 133 178 225 274 344 399
#     4  11  22  40  64  97 126 172 226 274 335 400
#     4  10  22  41  65  92 130 176 215 269 336 406
#     4  10  23  43  65  91 134 181 219 275 344 405
#     4   9  19  38  62  91 132 174 219 284 328 403
#     4   9  20  41  61  90 133 165 218 273 336 398
#     4  11  22  38  68  96 129 171 223 284 326 399
#
# _framework density 22.807162999999999
#
# number of rings (size 3 to 8) (size 9 to 14) (size 15 to 20)
#    0.000    2.000    1.250    2.250    1.750    1.000 
#    4.500    6.250    0.000    0.000    0.000    0.000 
#    0.000    0.000    0.000    0.000    0.000    0.000 
#
# Total GULP energy -89411.455759 kJ/mol
# GULP energy per Si atom -5588.215985 kJ/mol
# Density = 2.275525 g / cm^3
# Si number density = 22.807163 Si / 1000 Ang^3
#
#
#
# Elastic Constant Matrix: (Units=GPa)
#
#
# Indices 1 2 3 4 5 6 
#
# 1 84.0911 32.3932 20.5159 0.0000 -1.4016 0.0000
# 2 32.3932 119.0805 26.8556 0.0000 15.6134 0.0000
# 3 20.5159 26.8556 55.0179 0.0000 -7.8451 0.0000
# 4 0.0000 0.0000 0.0000 30.1230 0.0000 -5.1656
# 5 -1.4016 15.6134 -7.8451 0.0000 25.8697 0.0000
# 6 0.0000 0.0000 0.0000 -5.1656 0.0000 14.4918
#
#
#
# Elastic Compliance Matrix: (Units=1/GPa)
#
#
# Indices 1 2 3 4 5 6 
#
# 1 0.014006 -0.003271 -0.003383 0.000000 0.001707 0.000000
# 2 -0.003271 0.011789 -0.005827 0.000000 -0.009060 0.000000
# 3 -0.003383 -0.005827 0.023785 0.000000 0.010546 0.000000
# 4 0.000000 0.000000 0.000000 0.035359 0.000000 0.012604
# 5 0.001707 -0.009060 0.010546 0.000000 0.047414 0.000000
# 6 0.000000 0.000000 0.000000 0.012604 0.000000 0.073497
#
#
# Mechanical properties :
#
#
# Convention : Reuss Voigt Hill
#
# Bulk Modulus (GPa) = 40.61791 46.41323 43.51557
# Shear Modulus (GPa) = 20.91899 25.99186 23.45543
#
# Velocity S-wave (km/s) = 3.03184 3.37951 3.21038
# Velocity P-wave (km/s) = 5.48671 5.96847 5.73265
#
# Compressibility (1/GPa) = 0.02461968
#
# Stress axis : x y z
#
# Youngs Moduli (GPa) = 71.40010 84.82194 42.04277
#
# Poissons Ratio (x) = 0.27744 0.14221
# Poissons Ratio (y) = 0.23354 0.24498
# Poissons Ratio (z) = 0.24152 0.49424
#
# Static dielectric constant tensor:
#      x y z
#    x 1.836540 0.000000 -0.000360 
#    y 0.000000 1.886970 0.000000 
#    z -0.000360 0.000000 1.881990 
# 
# From -- ./inp_files/14788.got.cif
#   From: 2010.05.17/outbox.cif.g08.bks.cpg/sg9_8_cif.got.tgz:14788.got - 2010.06.03 20:04:27.
