data_PCOD9135365
_publ_section_title
;
Structure prediction by ZEFSAII (Michael W. Deem and Ramdas Pophale) SiO2 
 PCOD9135365
Probable space group: C C
;
_chemical_formula_sum "Si O2"
_cell_formula_units_Z 32
_cell_length_a 19.182579
_cell_length_b 16.652417
_cell_length_c 10.951259
_cell_angle_alpha 90.000000
_cell_angle_beta 154.674306
_cell_angle_gamma 90.000000
_cell_volume 1496.414114
_symmetry_space_group_name_H-M "C C"
_symmetry_group_IT_number 9
_symmetry_cell_setting 'monoclinic'
loop_
_space_group_symop_operation_xyz
x,y,z
x,-y,1/2+z
1/2+x,1/2+y,z
1/2+x,1/2-y,1/2+z
loop_
_atom_site_type_symbol
_atom_site_label
_atom_site_fract_x
_atom_site_fract_y
_atom_site_fract_z
Si Si1 0.324040 0.105994 0.927550
Si Si2 0.922862 0.055943 0.476397
Si Si3 0.776932 0.029488 0.502632
Si Si4 0.463652 0.942839 0.080670
Si Si5 0.531252 0.700005 0.392966
Si Si6 0.239165 0.856462 0.542051
Si Si7 0.112017 0.304238 0.758100
Si Si8 0.719637 0.185027 0.042533
O O1 0.137477 0.121139 0.591908
O O2 0.355462 0.145602 0.108469
O O3 0.441922 0.154304 0.023730
O O4 0.374236 0.013574 0.009986
O O5 0.858931 0.017582 0.500907
O O6 0.849977 0.146630 0.342908
O O7 0.867721 0.006990 0.267075
O O8 0.110732 0.074851 0.798991
O O9 0.743992 0.124401 0.468344
O O10 0.598258 0.988491 0.211057
O O11 0.580029 0.882027 0.334108
O O12 0.334490 0.888563 0.807426
O O13 0.587107 0.763217 0.586679
O O14 0.616858 0.735328 0.407889
O O15 0.337000 0.689868 0.107611
O O16 0.161554 0.768466 0.426250
#
# Coordination Sequence:
#
# PCOD9135365 Si02
#       8
#     4   4   4   4   4   4   4   4
#     4  10  21  40  64  92 122 174 219 261 335 403
#     4  11  22  41  66  97 130 172 222 274 328 404
#     4  10  24  41  68  94 130 175 220 272 336 397
#     4  10  26  41  61  93 137 169 213 284 339 390
#     4  11  19  38  72  96 122 175 231 274 325 424
#     4  11  24  40  65  93 127 168 219 276 326 404
#     4  10  20  39  67  90 124 171 224 266 332 402
#     4  11  22  42  65  99 130 174 226 281 337 402
#
# _framework density 21.384456
#
# number of rings (size 3 to 8) (size 9 to 14) (size 15 to 20)
#    0.000    1.500    5.000    0.000    8.750    0.000 
#    2.250    1.250    0.000    0.000    0.000    0.000 
#    0.000    0.000    0.000    0.000    0.000    0.000 
#
# Total GULP energy -89091.218347 kJ/mol
# GULP energy per Si atom -5568.201147 kJ/mol
# Density = 2.133578 g / cm^3
# Si number density = 21.384456 Si / 1000 Ang^3
#
#
#
# Elastic Constant Matrix: (Units=GPa)
#
#
# Indices 1 2 3 4 5 6 
#
# 1 68.0956 6.8411 17.5074 0.0000 15.2719 0.0000
# 2 6.8411 88.7383 27.4955 0.0000 6.0087 0.0000
# 3 17.5074 27.4955 68.6882 0.0000 8.7048 0.0000
# 4 0.0000 0.0000 0.0000 22.0877 0.0000 6.5680
# 5 15.2719 6.0087 8.7048 0.0000 22.0593 0.0000
# 6 0.0000 0.0000 0.0000 6.5680 0.0000 25.9214
#
#
#
# Elastic Compliance Matrix: (Units=1/GPa)
#
#
# Indices 1 2 3 4 5 6 
#
# 1 0.018030 0.000405 -0.003328 0.000000 -0.011279 0.000000
# 2 0.000405 0.012924 -0.005048 0.000000 -0.001809 0.000000
# 3 -0.003328 -0.005048 0.017854 0.000000 -0.003366 0.000000
# 4 0.000000 0.000000 0.000000 0.048963 0.000000 -0.012406
# 5 -0.011279 -0.001809 -0.003366 0.000000 0.054962 0.000000
# 6 0.000000 0.000000 0.000000 -0.012406 0.000000 0.041722
#
#
# Mechanical properties :
#
#
# Convention : Reuss Voigt Hill
#
# Bulk Modulus (GPa) = 30.42591 36.57888 33.50240
# Shear Modulus (GPa) = 22.58842 25.59221 24.09032
#
# Velocity S-wave (km/s) = 3.25360 3.46318 3.36003
# Velocity P-wave (km/s) = 5.32668 5.75622 5.54561
#
# Compressibility (1/GPa) = 0.03286672
#
# Stress axis : x y z
#
# Youngs Moduli (GPa) = 55.46362 77.37346 56.01001
#
# Poissons Ratio (x) = -0.03134 0.18641
# Poissons Ratio (y) = -0.02246 0.28271
# Poissons Ratio (z) = 0.18459 0.39054
#
# Static dielectric constant tensor:
#      x y z
#    x 1.886160 0.000000 0.039200 
#    y 0.000000 1.859330 0.000000 
#    z 0.039200 0.000000 1.768360 
# 
# From -- ./inp_files/14815.got.cif
#   From: 2010.05.17/outbox.cif.g08.bks.cpg/sg9_8_cif.got.tgz:14815.got - 2010.06.03 20:04:27.
