data_PCOD9135279
_publ_section_title
;
Structure prediction by ZEFSAII (Michael W. Deem and Ramdas Pophale) SiO2 
 PCOD9135279
Probable space group: C C
;
_chemical_formula_sum "Si O2"
_cell_formula_units_Z 28
_cell_length_a 14.305511
_cell_length_b 9.861506
_cell_length_c 14.629012
_cell_angle_alpha 90.000000
_cell_angle_beta 143.700071
_cell_angle_gamma 90.000000
_cell_volume 1221.777877
_symmetry_space_group_name_H-M "C C"
_symmetry_group_IT_number 9
_symmetry_cell_setting 'monoclinic'
loop_
_space_group_symop_operation_xyz
x,y,z
x,-y,1/2+z
1/2+x,1/2+y,z
1/2+x,1/2-y,1/2+z
loop_
_atom_site_type_symbol
_atom_site_label
_atom_site_fract_x
_atom_site_fract_y
_atom_site_fract_z
Si Si1 0.609000 0.662489 0.234270
Si Si2 0.838000 0.048161 0.526790
Si Si3 0.217468 0.178642 0.530840
Si Si4 0.013842 0.455176 0.189788
Si Si5 0.912803 0.165474 0.406802
Si Si6 0.728909 0.017469 0.116202
Si Si7 0.885675 0.526706 0.900751
O O1 0.654147 0.661800 0.377457
O O2 0.581474 0.819767 0.193156
O O3 0.743084 0.580135 0.285365
O O4 0.445133 0.584043 0.093059
O O5 0.657831 0.027523 0.353016
O O6 0.830682 0.076957 0.629265
O O7 0.914685 0.152326 0.516934
O O8 0.382158 0.098436 0.657567
O O9 0.239532 0.336393 0.573072
O O10 0.079635 0.135361 0.490869
O O11 0.929028 0.537732 0.042909
O O12 0.796977 0.055760 0.268947
O O13 0.858306 0.319793 0.344011
O O14 0.547144 0.977465 0.980889
#
# Coordination Sequence:
#
# PCOD9135279 Si02
#       7
#     4   4   4   4   4   4   4
#     4  11  21  39  67  99 128 170 226 273 330 388
#     4  12  23  36  67  94 132 169 217 281 331 380
#     4  10  20  38  68  93 124 166 231 274 314 388
#     4  11  20  41  66  99 130 169 221 279 326 393
#     4  11  24  41  66 102 132 174 224 279 336 392
#     4  11  21  41  66  96 128 176 227 272 317 401
#     4  10  25  40  68  95 136 172 224 276 334 396
#
# _framework density 22.917421999999998
#
# number of rings (size 3 to 8) (size 9 to 14) (size 15 to 20)
#    0.000    1.143    5.714    0.857    6.000    0.000 
#    0.000    0.000   18.857    0.000    0.000    0.000 
#    0.000    0.000    0.000    0.000    0.000    0.000 
#
# Total GULP energy -78213.494353 kJ/mol
# GULP energy per Si atom -5586.678168 kJ/mol
# Density = 2.286526 g / cm^3
# Si number density = 22.917422 Si / 1000 Ang^3
#
#
#
# Elastic Constant Matrix: (Units=GPa)
#
#
# Indices 1 2 3 4 5 6 
#
# 1 162.0483 36.9529 13.3042 0.0000 14.6210 0.0000
# 2 36.9529 49.5150 6.9600 0.0000 0.2038 0.0000
# 3 13.3042 6.9600 60.4824 0.0000 5.9581 0.0000
# 4 0.0000 0.0000 0.0000 32.3031 0.0000 -6.5026
# 5 14.6210 0.2038 5.9581 0.0000 44.7477 0.0000
# 6 0.0000 0.0000 0.0000 -6.5026 0.0000 36.8092
#
#
#
# Elastic Compliance Matrix: (Units=1/GPa)
#
#
# Indices 1 2 3 4 5 6 
#
# 1 0.007744 -0.005654 -0.000817 0.000000 -0.002396 0.000000
# 2 -0.005654 0.024659 -0.001788 0.000000 0.001973 0.000000
# 3 -0.000817 -0.001788 0.017117 0.000000 -0.002004 0.000000
# 4 0.000000 0.000000 0.000000 0.032098 0.000000 0.005670
# 5 -0.002396 0.001973 -0.002004 0.000000 0.023388 0.000000
# 6 0.000000 0.000000 0.000000 0.005670 0.000000 0.028169
#
#
# Mechanical properties :
#
#
# Convention : Reuss Voigt Hill
#
# Bulk Modulus (GPa) = 30.30249 42.94220 36.62234
# Shear Modulus (GPa) = 31.11522 37.09390 34.10456
#
# Velocity S-wave (km/s) = 3.68871 4.02753 3.86184
# Velocity P-wave (km/s) = 5.60297 6.35661 5.99165
#
# Compressibility (1/GPa) = 0.03300059
#
# Stress axis : x y z
#
# Youngs Moduli (GPa) = 129.13893 40.55323 58.42290
#
# Poissons Ratio (x) = 0.22930 0.04771
# Poissons Ratio (y) = 0.73020 0.10447
# Poissons Ratio (z) = 0.10546 0.07252
#
# Static dielectric constant tensor:
#      x y z
#    x 1.912170 0.000000 -0.033690 
#    y 0.000000 1.852120 0.000000 
#    z -0.033690 0.000000 1.913970 
# 
# From -- ./inp_files/16532.got.cif
#   From: 2010.05.17/outbox.cif.g08.bks.cpg/sg9_9_cif.got.tgz:16532.got - 2010.06.03 20:04:27.
