data_PCOD9135172
_publ_section_title
;
Structure prediction by ZEFSAII (Michael W. Deem and Ramdas Pophale) SiO2 
 PCOD9135172
Probable space group: C C
;
_chemical_formula_sum "Si O2"
_cell_formula_units_Z 32
_cell_length_a 23.076160
_cell_length_b 7.547895
_cell_length_c 20.078167
_cell_angle_alpha 90.000000
_cell_angle_beta 22.974155
_cell_angle_gamma 90.000000
_cell_volume 1364.990599
_symmetry_space_group_name_H-M "C C"
_symmetry_group_IT_number 9
_symmetry_cell_setting 'monoclinic'
loop_
_space_group_symop_operation_xyz
x,y,z
x,-y,1/2+z
1/2+x,1/2+y,z
1/2+x,1/2-y,1/2+z
loop_
_atom_site_type_symbol
_atom_site_label
_atom_site_fract_x
_atom_site_fract_y
_atom_site_fract_z
Si Si1 0.264290 0.142164 0.331860
Si Si2 0.506151 0.262967 0.850238
Si Si3 0.289670 0.912617 0.477031
Si Si4 0.912246 0.316417 0.201011
Si Si5 0.213836 0.326482 0.560879
Si Si6 0.226188 0.459080 0.831782
Si Si7 0.985757 0.193259 0.704014
Si Si8 0.222451 0.515857 0.688066
O O1 0.228779 0.325062 0.331564
O O2 0.390339 0.206947 0.249914
O O3 0.115810 0.091749 0.529070
O O4 0.332323 0.959075 0.234904
O O5 0.404771 0.134604 0.913346
O O6 0.633557 0.328003 0.664859
O O7 0.597995 0.169818 0.812599
O O8 0.388524 0.406178 0.001905
O O9 0.346301 0.844780 0.345199
O O10 0.258560 0.121220 0.512999
O O11 0.867601 0.126028 0.218936
O O12 0.083883 0.371478 0.017764
O O13 0.363712 0.417845 0.373920
O O14 0.185468 0.394240 0.663903
O O15 0.076376 0.329436 0.655684
O O16 0.217331 0.417712 0.763235
#
# Coordination Sequence:
#
# PCOD9135172 Si02
#       8
#     4   4   4   4   4   4   4   4
#     4  11  23  45  70 102 141 191 232 301 366 420
#     4  10  25  44  71  99 143 183 231 306 363 415
#     4  11  21  43  70 107 139 174 234 308 366 421
#     4  12  27  46  74 110 145 191 242 307 365 433
#     4  11  21  38  71  99 134 178 237 290 360 422
#     4  12  30  48  70 108 147 203 246 290 356 449
#     4  10  20  37  73  98 133 178 232 297 370 418
#     4  11  27  47  69 103 140 198 238 291 354 446
#
# _framework density 23.443384999999999
#
# number of rings (size 3 to 8) (size 9 to 14) (size 15 to 20)
#    0.000    1.000    3.750    2.250    3.500    8.000 
#    2.250    0.000    0.000    0.000    0.000    0.000 
#    0.000    0.000    0.000    0.000    0.000    0.000 
#
# Total GULP energy -89424.097016 kJ/mol
# GULP energy per Si atom -5589.006063 kJ/mol
# Density = 2.339003 g / cm^3
# Si number density = 23.443385 Si / 1000 Ang^3
#
#
#
# Elastic Constant Matrix: (Units=GPa)
#
#
# Indices 1 2 3 4 5 6 
#
# 1 105.5424 16.7691 44.4669 0.0000 -9.6239 0.0000
# 2 16.7691 63.7209 5.6135 0.0002 -0.3277 0.0000
# 3 44.4669 5.6135 104.7978 -0.0001 -30.1733 0.0001
# 4 0.0000 0.0002 -0.0001 25.9516 0.0000 -3.6005
# 5 -9.6239 -0.3277 -30.1733 0.0000 32.5760 0.0000
# 6 0.0000 0.0000 0.0001 -3.6005 0.0000 34.6983
#
#
#
# Elastic Compliance Matrix: (Units=1/GPa)
#
#
# Indices 1 2 3 4 5 6 
#
# 1 0.012039 -0.002702 -0.005383 0.000000 -0.001456 0.000000
# 2 -0.002702 0.016391 0.000117 0.000000 -0.000525 0.000000
# 3 -0.005383 0.000117 0.015495 0.000000 0.012763 0.000000
# 4 0.000000 0.000000 0.000000 0.039096 0.000000 0.004057
# 5 -0.001456 -0.000525 0.012763 0.000000 0.042083 0.000000
# 6 0.000000 0.000000 0.000000 0.004057 0.000000 0.029241
#
#
# Mechanical properties :
#
#
# Convention : Reuss Voigt Hill
#
# Bulk Modulus (GPa) = 35.72634 45.30667 40.51651
# Shear Modulus (GPa) = 27.83806 32.45930 30.14868
#
# Velocity S-wave (km/s) = 3.44969 3.72503 3.59000
# Velocity P-wave (km/s) = 5.58029 6.15379 5.87404
#
# Compressibility (1/GPa) = 0.02799055
#
# Stress axis : x y z
#
# Youngs Moduli (GPa) = 83.06151 61.00771 64.53866
#
# Poissons Ratio (x) = 0.16482 0.34741
# Poissons Ratio (y) = 0.22440 -0.00757
# Poissons Ratio (z) = 0.44712 -0.00715
#
# Static dielectric constant tensor:
#      x y z
#    x 1.859400 0.000000 -0.004220 
#    y 0.000000 1.990910 0.000000 
#    z -0.004220 0.000000 1.971020 
# 
# From -- ./inp_files/34502.got.cif
#   From: 2010.05.17/outbox.cif.g08.bks.cpg/sg9_18_cif.got.tgz:34502.got - 2010.06.03 20:04:27.
