data_PCOD9135527
_publ_section_title
;
Structure prediction by ZEFSAII (Michael W. Deem and Ramdas Pophale) SiO2 
 PCOD9135527
Probable space group: C C
;
_chemical_formula_sum "Si O2"
_cell_formula_units_Z 28
_cell_length_a 12.221431
_cell_length_b 7.842901
_cell_length_c 13.970453
_cell_angle_alpha 90.000000
_cell_angle_beta 85.905425
_cell_angle_gamma 90.000000
_cell_volume 1335.670545
_symmetry_space_group_name_H-M "C C"
_symmetry_group_IT_number 9
_symmetry_cell_setting 'monoclinic'
loop_
_space_group_symop_operation_xyz
x,y,z
x,-y,1/2+z
1/2+x,1/2+y,z
1/2+x,1/2-y,1/2+z
loop_
_atom_site_type_symbol
_atom_site_label
_atom_site_fract_x
_atom_site_fract_y
_atom_site_fract_z
Si Si1 0.005650 0.691958 0.529450
Si Si2 0.305052 0.046649 0.085651
Si Si3 0.021799 0.257090 0.248422
Si Si4 0.425979 0.522688 0.887110
Si Si5 0.281200 0.100819 0.774300
Si Si6 0.266451 0.269894 0.262563
Si Si7 0.729220 0.197925 0.446566
O O1 0.016189 0.775770 0.634491
O O2 0.121208 0.609084 0.491891
O O3 0.913404 0.546458 0.542298
O O4 0.977402 0.835322 0.452615
O O5 0.317313 0.207968 0.157757
O O6 0.250984 0.912657 0.163849
O O7 0.237513 0.124631 0.003875
O O8 0.142218 0.334850 0.258176
O O9 0.912585 0.368740 0.273890
O O10 0.006732 0.095143 0.319314
O O11 0.346308 0.610831 0.814855
O O12 0.342318 0.403100 0.952040
O O13 0.223214 0.248285 0.836218
O O14 0.258263 0.913195 0.815727
#
# Coordination Sequence:
#
# PCOD9135527 Si02
#       7
#     4   4   4   4   4   4   4
#     4  11  22  40  63  91 121 164 202 240 305 358
#     4   9  21  38  62  84 122 160 194 245 297 360
#     4  10  21  41  62  88 123 161 196 251 302 350
#     4  11  26  36  64  95 119 154 210 251 290 367
#     4   8  19  36  61  82 117 158 195 239 292 354
#     4  10  20  41  60  83 119 163 191 249 302 345
#     4  11  21  40  60  91 123 156 200 251 296 348
#
# _framework density 20.963253999999999
#
# number of rings (size 3 to 8) (size 9 to 14) (size 15 to 20)
#    0.857    1.143    1.429    1.714    2.000    3.429 
#    0.000    1.429    0.000    0.000    0.000    0.000 
#    0.000    0.000    0.000    0.000    0.000    0.000 
#
# Total GULP energy -77956.080280 kJ/mol
# GULP energy per Si atom -5568.291449 kJ/mol
# Density = 2.091554 g / cm^3
# Si number density = 20.963254 Si / 1000 Ang^3
#
#
#
# Elastic Constant Matrix: (Units=GPa)
#
#
# Indices 1 2 3 4 5 6 
#
# 1 84.0253 21.7716 37.8985 0.0000 -12.2316 0.0000
# 2 21.7716 29.1574 12.4897 0.0000 -3.6117 0.0000
# 3 37.8985 12.4897 81.4855 0.0000 1.0426 0.0000
# 4 0.0000 0.0000 0.0000 30.6269 0.0000 4.9485
# 5 -12.2316 -3.6117 1.0426 0.0000 27.8179 0.0000
# 6 0.0000 0.0000 0.0000 4.9485 0.0000 13.1378
#
#
#
# Elastic Compliance Matrix: (Units=1/GPa)
#
#
# Indices 1 2 3 4 5 6 
#
# 1 0.018868 -0.010050 -0.007328 0.000000 0.007266 0.000000
# 2 -0.010050 0.042762 -0.001896 0.000000 0.001204 0.000000
# 3 -0.007328 -0.001896 0.016023 0.000000 -0.004069 0.000000
# 4 0.000000 0.000000 0.000000 0.034767 0.000000 -0.013095
# 5 0.007266 0.001204 -0.004069 0.000000 0.039452 0.000000
# 6 0.000000 0.000000 0.000000 -0.013095 0.000000 0.081049
#
#
# Mechanical properties :
#
#
# Convention : Reuss Voigt Hill
#
# Bulk Modulus (GPa) = 25.57147 37.66534 31.61840
# Shear Modulus (GPa) = 17.57453 22.48375 20.02914
#
# Velocity S-wave (km/s) = 2.89857 3.27851 3.09437
# Velocity P-wave (km/s) = 4.84014 5.68663 5.28038
#
# Compressibility (1/GPa) = 0.03910608
#
# Stress axis : x y z
#
# Youngs Moduli (GPa) = 52.99953 23.38538 62.41025
#
# Poissons Ratio (x) = 0.23501 0.45735
# Poissons Ratio (y) = 0.53262 0.11831
# Poissons Ratio (z) = 0.38838 0.04433
#
# Static dielectric constant tensor:
#      x y z
#    x 1.768490 0.000000 -0.026620 
#    y 0.000000 1.747670 0.000000 
#    z -0.026620 0.000000 1.808330 
# 
# From -- ./inp_files/24088.got.cif
#   From: 2010.05.17/outbox.cif.g08.bks.cpg/sg9_13_cif.got.tgz:24088.got - 2010.06.03 20:04:27.
