data_PCOD9136691
_publ_section_title
;
Structure prediction by ZEFSAII (Michael W. Deem and Ramdas Pophale) SiO2 
 PCOD9136691
Probable space group: C C
;
_chemical_formula_sum "Si O2"
_cell_formula_units_Z 24
_cell_length_a 13.128887
_cell_length_b 7.510980
_cell_length_c 13.902261
_cell_angle_alpha 90.000000
_cell_angle_beta 123.526284
_cell_angle_gamma 90.000000
_cell_volume 1142.837838
_symmetry_space_group_name_H-M "C C"
_symmetry_group_IT_number 9
_symmetry_cell_setting 'monoclinic'
loop_
_space_group_symop_operation_xyz
x,y,z
x,-y,1/2+z
1/2+x,1/2+y,z
1/2+x,1/2-y,1/2+z
loop_
_atom_site_type_symbol
_atom_site_label
_atom_site_fract_x
_atom_site_fract_y
_atom_site_fract_z
Si Si1 0.704400 0.583605 0.087610
Si Si2 0.417701 0.993042 0.053130
Si Si3 0.578135 0.235943 0.024595
Si Si4 0.843922 0.287037 0.828800
Si Si5 0.683706 0.953707 0.748629
Si Si6 0.106353 0.395626 0.914998
O O1 0.818965 0.520633 0.083415
O O2 0.596694 0.441875 0.013961
O O3 0.743141 0.599450 0.218444
O O4 0.669373 0.778218 0.030383
O O5 0.551675 0.945353 0.165203
O O6 0.453027 0.172059 0.010762
O O7 0.369339 0.854395 0.949482
O O8 0.679692 0.184481 0.158701
O O9 0.598522 0.100171 0.946806
O O10 0.795072 0.087709 0.801691
O O11 0.969636 0.319064 0.837669
O O12 0.672934 0.873220 0.848865
#
# Coordination Sequence:
#
# PCOD9136691 Si02
#       6
#     4   4   4   4   4   4
#     4  12  22  41  69  91 128 181 215 263 344 377
#     4   9  22  38  63  97 129 166 218 273 313 397
#     4   9  22  42  58  95 128 162 222 267 317 389
#     4  11  20  42  67  91 133 174 211 276 327 387
#     4  10  21  43  64  92 136 167 212 279 319 381
#     4  11  23  42  63  96 130 168 226 266 322 397
#
# _framework density 21.000354000000002
#
# number of rings (size 3 to 8) (size 9 to 14) (size 15 to 20)
#    1.000    0.667    3.333    1.000    2.333    1.333 
#    3.000    1.667    0.000    0.000    0.000    0.000 
#    0.000    0.000    0.000    0.000    0.000    0.000 
#
# Total GULP energy -66918.487651 kJ/mol
# GULP energy per Si atom -5576.540638 kJ/mol
# Density = 2.095256 g / cm^3
# Si number density = 21.000354 Si / 1000 Ang^3
#
#
#
# Elastic Constant Matrix: (Units=GPa)
#
#
# Indices 1 2 3 4 5 6 
#
# 1 41.6573 -0.1612 -4.0926 0.0000 -0.6179 0.0000
# 2 -0.1612 41.8571 8.1596 0.0000 4.3645 0.0000
# 3 -4.0926 8.1596 74.4114 0.0000 3.2441 0.0000
# 4 0.0000 0.0000 0.0000 23.4075 0.0000 8.6953
# 5 -0.6179 4.3645 3.2441 0.0000 23.8002 0.0000
# 6 0.0000 0.0000 0.0000 8.6953 0.0000 20.6587
#
#
#
# Elastic Compliance Matrix: (Units=1/GPa)
#
#
# Indices 1 2 3 4 5 6 
#
# 1 0.024142 -0.000217 0.001330 0.000000 0.000485 0.000000
# 2 -0.000217 0.024826 -0.002551 0.000000 -0.004211 0.000000
# 3 0.001330 -0.002551 0.013852 0.000000 -0.001386 0.000000
# 4 0.000000 0.000000 0.000000 0.050639 0.000000 -0.021314
# 5 0.000485 -0.004211 -0.001386 0.000000 0.042990 0.000000
# 6 0.000000 0.000000 0.000000 -0.021314 0.000000 0.057377
#
#
# Mechanical properties :
#
#
# Convention : Reuss Voigt Hill
#
# Bulk Modulus (GPa) = 16.68159 18.41528 17.54843
# Shear Modulus (GPa) = 21.12530 23.84129 22.48329
#
# Velocity S-wave (km/s) = 3.17511 3.37305 3.27558
# Velocity P-wave (km/s) = 4.62628 4.89469 4.76238
#
# Compressibility (1/GPa) = 0.05994634
#
# Stress axis : x y z
#
# Youngs Moduli (GPa) = 41.42080 40.27994 72.19127
#
# Poissons Ratio (x) = 0.00874 -0.09605
# Poissons Ratio (y) = 0.00899 0.18414
# Poissons Ratio (z) = -0.05511 0.10274
#
# Static dielectric constant tensor:
#      x y z
#    x 1.744690 0.000000 0.009010 
#    y 0.000000 1.760240 0.000000 
#    z 0.009010 0.000000 1.792550 
# 
# From -- ./inp_files/19967.got.cif
#   From: 2010.05.17/outbox.cif.g08.bks.cpg/sg9_10_cif.got.tgz:19967.got - 2010.06.03 20:04:27.
