data_PCOD9136887
_publ_section_title
;
Structure prediction by ZEFSAII (Michael W. Deem and Ramdas Pophale) SiO2 
 PCOD9136887
Probable space group: C C
;
_chemical_formula_sum "Si O2"
_cell_formula_units_Z 32
_cell_length_a 8.901385
_cell_length_b 11.197103
_cell_length_c 15.045549
_cell_angle_alpha 90.000000
_cell_angle_beta 85.414347
_cell_angle_gamma 90.000000
_cell_volume 1494.785447
_symmetry_space_group_name_H-M "C C"
_symmetry_group_IT_number 9
_symmetry_cell_setting 'monoclinic'
loop_
_space_group_symop_operation_xyz
x,y,z
x,-y,1/2+z
1/2+x,1/2+y,z
1/2+x,1/2-y,1/2+z
loop_
_atom_site_type_symbol
_atom_site_label
_atom_site_fract_x
_atom_site_fract_y
_atom_site_fract_z
Si Si1 0.717010 0.724015 0.909130
Si Si2 0.781762 0.354276 0.114153
Si Si3 0.261405 0.888302 0.706271
Si Si4 0.082895 0.010746 0.496752
Si Si5 0.369320 0.518001 0.674169
Si Si6 0.638187 0.174302 0.592425
Si Si7 0.043847 0.252913 0.736829
Si Si8 0.468922 0.633095 0.332160
O O1 0.681787 0.597872 0.955425
O O2 0.602870 0.740487 0.833312
O O3 0.884052 0.745350 0.862577
O O4 0.687312 0.820649 0.987571
O O5 0.757561 0.475719 0.173092
O O6 0.686388 0.249716 0.164316
O O7 0.957717 0.326362 0.103464
O O8 0.698348 0.387669 0.026197
O O9 0.211473 0.792969 0.633384
O O10 0.429479 0.860303 0.729091
O O11 0.138834 0.862493 0.788002
O O12 0.973736 0.979812 0.585300
O O13 0.981238 0.055361 0.420457
O O14 0.211590 0.563569 0.641836
O O15 0.448955 0.636220 0.711592
O O16 0.375810 0.427232 0.755985
#
# Coordination Sequence:
#
# PCOD9136887 Si02
#       8
#     4   4   4   4   4   4   4   4
#     4  12  23  41  65 100 134 168 228 277 333 402
#     4  11  23  45  68  93 137 175 219 282 333 398
#     4  11  23  44  68  93 132 178 221 273 341 401
#     4  11  22  43  67  94 136 176 219 275 341 390
#     4  10  21  45  66  94 139 178 219 276 340 393
#     4  11  24  42  68 102 130 177 232 272 338 412
#     4  10  23  41  67  96 129 174 221 272 332 406
#     4  12  23  41  69  96 133 184 217 285 338 398
#
# _framework density 21.407755000000002
#
# number of rings (size 3 to 8) (size 9 to 14) (size 15 to 20)
#    0.000    1.000    6.250    0.750    3.500    0.000 
#    0.000    3.750    0.000    0.000    0.000    0.000 
#    0.000    0.000    0.000    0.000    0.000    0.000 
#
# Total GULP energy -89394.974061 kJ/mol
# GULP energy per Si atom -5587.185879 kJ/mol
# Density = 2.135903 g / cm^3
# Si number density = 21.407755 Si / 1000 Ang^3
#
#
#
# Elastic Constant Matrix: (Units=GPa)
#
#
# Indices 1 2 3 4 5 6 
#
# 1 110.2298 21.8379 44.1831 0.0000 0.5251 0.0000
# 2 21.8379 48.7549 26.5076 0.0000 6.7392 0.0000
# 3 44.1831 26.5076 144.1453 0.0000 16.6799 0.0000
# 4 0.0000 0.0000 0.0000 16.4779 0.0000 -1.4782
# 5 0.5251 6.7392 16.6799 0.0000 25.1806 0.0000
# 6 0.0000 0.0000 0.0000 -1.4782 0.0000 40.1574
#
#
#
# Elastic Compliance Matrix: (Units=1/GPa)
#
#
# Indices 1 2 3 4 5 6 
#
# 1 0.010993 -0.003665 -0.003013 0.000000 0.002748 0.000000
# 2 -0.003665 0.024317 -0.002820 0.000000 -0.004563 0.000000
# 3 -0.003013 -0.002820 0.008973 0.000000 -0.005126 0.000000
# 4 0.000000 0.000000 0.000000 0.060888 0.000000 0.002241
# 5 0.002748 -0.004563 -0.005126 0.000000 0.044273 0.000000
# 6 0.000000 0.000000 0.000000 0.002241 0.000000 0.024985
#
#
# Mechanical properties :
#
#
# Convention : Reuss Voigt Hill
#
# Bulk Modulus (GPa) = 39.54981 54.24304 46.89642
# Shear Modulus (GPa) = 24.77038 30.40328 27.58683
#
# Velocity S-wave (km/s) = 3.40527 3.77264 3.59365
# Velocity P-wave (km/s) = 5.82888 6.66109 6.25883
#
# Compressibility (1/GPa) = 0.02528457
#
# Stress axis : x y z
#
# Youngs Moduli (GPa) = 90.96794 41.12420 111.44651
#
# Poissons Ratio (x) = 0.15073 0.33584
# Poissons Ratio (y) = 0.33342 0.31430
# Poissons Ratio (z) = 0.27413 0.11598
#
# Static dielectric constant tensor:
#      x y z
#    x 1.780690 0.000000 0.003130 
#    y 0.000000 1.814980 0.000000 
#    z 0.003130 0.000000 1.788290 
# 
# From -- ./inp_files/22752.got.cif
#   From: 2010.05.17/outbox.cif.g08.bks.cpg/sg9_12_cif.got.tgz:22752.got - 2010.06.03 20:04:27.
