data_PCOD9136493
_publ_section_title
;
Structure prediction by ZEFSAII (Michael W. Deem and Ramdas Pophale) SiO2 
 PCOD9136493
Probable space group: C C
;
_chemical_formula_sum "Si O2"
_cell_formula_units_Z 32
_cell_length_a 19.705382
_cell_length_b 12.026771
_cell_length_c 10.226370
_cell_angle_alpha 90.000000
_cell_angle_beta 34.830507
_cell_angle_gamma 90.000000
_cell_volume 1384.223186
_symmetry_space_group_name_H-M "C C"
_symmetry_group_IT_number 9
_symmetry_cell_setting 'monoclinic'
loop_
_space_group_symop_operation_xyz
x,y,z
x,-y,1/2+z
1/2+x,1/2+y,z
1/2+x,1/2-y,1/2+z
loop_
_atom_site_type_symbol
_atom_site_label
_atom_site_fract_x
_atom_site_fract_y
_atom_site_fract_z
Si Si1 0.189330 0.173182 0.868820
Si Si2 0.681696 0.092970 0.086807
Si Si3 0.386631 0.297472 0.417793
Si Si4 0.330642 0.924125 0.359900
Si Si5 0.353670 0.893310 0.621147
Si Si6 0.645850 0.234606 0.916181
Si Si7 0.613888 0.161634 0.690509
Si Si8 0.495295 0.728149 0.003743
O O1 0.301894 0.193847 0.596111
O O2 0.214606 0.093989 0.951455
O O3 0.072274 0.148037 0.972497
O O4 0.163768 0.292737 0.976121
O O5 0.805788 0.121694 0.960026
O O6 0.677957 0.120919 0.938953
O O7 0.587833 0.182791 0.293858
O O8 0.641573 0.967416 0.166272
O O9 0.432068 0.338124 0.487573
O O10 0.507351 0.261915 0.155189
O O11 0.327115 0.946383 0.519666
O O12 0.403419 0.809428 0.222014
O O13 0.386370 0.024586 0.188068
O O14 0.235769 0.823330 0.837631
O O15 0.472155 0.821385 0.414237
O O16 0.668779 0.226098 0.726464
#
# Coordination Sequence:
#
# PCOD9136493 Si02
#       8
#     4   4   4   4   4   4   4   4
#     4  10  21  41  67  99 133 169 225 280 340 392
#     4  10  22  39  67 104 126 173 223 276 336 405
#     4   9  21  41  64  94 140 171 214 270 342 403
#     4  11  23  42  65 102 131 178 226 276 337 406
#     4  12  26  42  71 101 138 181 233 281 340 408
#     4  11  25  45  65  98 140 182 218 280 346 402
#     4  12  24  40  74  99 133 169 231 285 331 406
#     4   9  18  38  67  95 131 169 214 276 334 394
#
# _framework density 23.117660999999998
#
# number of rings (size 3 to 8) (size 9 to 14) (size 15 to 20)
#    0.000    1.500    3.750    0.750    5.250    4.000 
#    0.000    5.000    2.750    0.000    0.000    0.000 
#    0.000    0.000    0.000    0.000    0.000    0.000 
#
# Total GULP energy -89347.650120 kJ/mol
# GULP energy per Si atom -5584.228133 kJ/mol
# Density = 2.306504 g / cm^3
# Si number density = 23.117661 Si / 1000 Ang^3
#
#
#
# Elastic Constant Matrix: (Units=GPa)
#
#
# Indices 1 2 3 4 5 6 
#
# 1 104.4935 -4.4695 24.6497 0.0000 -12.9401 0.0000
# 2 -4.4695 23.9061 21.6503 0.0000 -7.0686 0.0000
# 3 24.6497 21.6503 99.5080 0.0000 -12.8865 0.0000
# 4 0.0000 0.0000 0.0000 11.8105 0.0000 2.7515
# 5 -12.9401 -7.0686 -12.8865 0.0000 43.6785 0.0000
# 6 0.0000 0.0000 0.0000 2.7515 0.0000 27.1405
#
#
#
# Elastic Compliance Matrix: (Units=1/GPa)
#
#
# Indices 1 2 3 4 5 6 
#
# 1 0.011126 0.006417 -0.003734 0.000000 0.003233 0.000000
# 2 0.006417 0.056999 -0.013049 0.000000 0.007276 0.000000
# 3 -0.003734 -0.013049 0.013929 0.000000 0.000892 0.000000
# 4 0.000000 0.000000 0.000000 0.086719 0.000000 -0.008791
# 5 0.003233 0.007276 0.000892 0.000000 0.025293 0.000000
# 6 0.000000 0.000000 0.000000 -0.008791 0.000000 0.037737
#
#
# Mechanical properties :
#
#
# Convention : Reuss Voigt Hill
#
# Bulk Modulus (GPa) = 16.30712 34.61873 25.46292
# Shear Modulus (GPa) = 18.31684 28.93104 23.62394
#
# Velocity S-wave (km/s) = 2.81789 3.54145 3.20019
# Velocity P-wave (km/s) = 4.20198 5.63294 4.96924
#
# Compressibility (1/GPa) = 0.06132292
#
# Stress axis : x y z
#
# Youngs Moduli (GPa) = 89.88324 17.54420 71.79342
#
# Poissons Ratio (x) = -0.11258 0.26804
# Poissons Ratio (y) = -0.57680 0.93682
# Poissons Ratio (z) = 0.33558 0.22893
#
# Static dielectric constant tensor:
#      x y z
#    x 1.896680 0.000000 0.006090 
#    y 0.000000 1.872860 0.000000 
#    z 0.006090 0.000000 1.900100 
# 
# From -- ./inp_files/20269.got.cif
#   From: 2010.05.17/outbox.cif.g08.bks.cpg/sg9_11_cif.got.tgz:20269.got - 2010.06.03 20:04:27.
