data_PCOD9136903
_publ_section_title
;
Structure prediction by ZEFSAII (Michael W. Deem and Ramdas Pophale) SiO2 
 PCOD9136903
Probable space group: C C
;
_chemical_formula_sum "Si O2"
_cell_formula_units_Z 32
_cell_length_a 17.412364
_cell_length_b 7.250246
_cell_length_c 17.386434
_cell_angle_alpha 90.000000
_cell_angle_beta 143.817006
_cell_angle_gamma 90.000000
_cell_volume 1295.813283
_symmetry_space_group_name_H-M "C C"
_symmetry_group_IT_number 9
_symmetry_cell_setting 'monoclinic'
loop_
_space_group_symop_operation_xyz
x,y,z
x,-y,1/2+z
1/2+x,1/2+y,z
1/2+x,1/2-y,1/2+z
loop_
_atom_site_type_symbol
_atom_site_label
_atom_site_fract_x
_atom_site_fract_y
_atom_site_fract_z
Si Si1 0.627980 0.178104 0.204280
Si Si2 0.694239 0.097246 0.647787
Si Si3 0.433712 0.363855 0.227268
Si Si4 0.800048 0.988962 0.469251
Si Si5 0.719605 0.440765 0.767602
Si Si6 0.909650 0.629668 0.552031
Si Si7 0.464517 0.963231 0.853449
Si Si8 0.051614 0.752143 0.820263
O O1 0.689093 0.108291 0.174534
O O2 0.728942 0.121978 0.352332
O O3 0.504539 0.044447 0.113756
O O4 0.615824 0.395689 0.187093
O O5 0.824827 0.113011 0.705227
O O6 0.679215 0.236216 0.708093
O O7 0.570569 0.129719 0.494231
O O8 0.475458 0.157716 0.283516
O O9 0.540996 0.526077 0.317281
O O10 0.363457 0.393847 0.089111
O O11 0.900770 0.842672 0.512753
O O12 0.688253 0.849559 0.413019
O O13 0.830968 0.475634 0.792898
O O14 0.783041 0.441060 0.903273
O O15 0.948128 0.687801 0.670665
O O16 0.505734 0.167020 0.863285
#
# Coordination Sequence:
#
# PCOD9136903 Si02
#       8
#     4   4   4   4   4   4   4   4
#     4  11  23  42  68  98 134 177 226 272 335 400
#     4  11  22  44  67  96 139 169 224 278 334 393
#     4  10  23  42  67  99 129 179 215 283 335 386
#     4  10  21  45  70  95 140 176 219 277 333 400
#     4  11  24  43  67  99 130 181 220 282 332 395
#     4  10  22  44  64  99 135 171 223 276 327 402
#     4  11  23  43  69  97 135 172 230 270 335 402
#     4  10  22  43  68  99 132 175 223 274 331 400
#
# _framework density 24.694917
#
# number of rings (size 3 to 8) (size 9 to 14) (size 15 to 20)
#    0.000    1.500    3.750    0.750    1.750    1.000 
#   20.250    0.000    0.000    0.000    0.000    0.000 
#    0.000    0.000    0.000    0.000    0.000    0.000 
#
# Total GULP energy -89246.227459 kJ/mol
# GULP energy per Si atom -5577.889216 kJ/mol
# Density = 2.463871 g / cm^3
# Si number density = 24.694917 Si / 1000 Ang^3
#
#
#
# Elastic Constant Matrix: (Units=GPa)
#
#
# Indices 1 2 3 4 5 6 
#
# 1 78.2251 35.0724 6.5452 0.0000 11.8296 0.0000
# 2 35.0724 136.8539 43.6902 0.0000 9.6418 0.0000
# 3 6.5452 43.6902 95.7381 0.0000 -6.8356 0.0000
# 4 0.0000 0.0000 0.0000 24.2868 0.0000 -10.0404
# 5 11.8296 9.6418 -6.8356 0.0000 19.0387 0.0000
# 6 0.0000 0.0000 0.0000 -10.0404 0.0000 40.6860
#
#
#
# Elastic Compliance Matrix: (Units=1/GPa)
#
#
# Indices 1 2 3 4 5 6 
#
# 1 0.015512 -0.003389 -0.000082 0.000000 -0.007951 0.000000
# 2 -0.003389 0.009988 -0.004657 0.000000 -0.004624 0.000000
# 3 -0.000082 -0.004657 0.013083 0.000000 0.007106 0.000000
# 4 0.000000 0.000000 0.000000 0.045852 0.000000 0.011315
# 5 -0.007951 -0.004624 0.007106 0.000000 0.062358 0.000000
# 6 0.000000 0.000000 0.000000 0.011315 0.000000 0.027371
#
#
# Mechanical properties :
#
#
# Convention : Reuss Voigt Hill
#
# Bulk Modulus (GPa) = 44.78482 53.49252 49.13867
# Shear Modulus (GPa) = 25.27004 31.83628 28.55316
#
# Velocity S-wave (km/s) = 3.20236 3.59442 3.40404
# Velocity P-wave (km/s) = 5.64341 6.23978 5.94907
#
# Compressibility (1/GPa) = 0.02232900
#
# Stress axis : x y z
#
# Youngs Moduli (GPa) = 64.46430 100.12005 76.43439
#
# Poissons Ratio (x) = 0.33933 0.00623
# Poissons Ratio (y) = 0.21848 0.35592
# Poissons Ratio (z) = 0.00526 0.46621
#
# Static dielectric constant tensor:
#      x y z
#    x 2.013430 0.000000 0.068940 
#    y 0.000000 1.949170 0.000000 
#    z 0.068940 0.000000 2.009680 
# 
# From -- ./inp_files/19841.got.cif
#   From: 2010.05.17/outbox.cif.g08.bks.cpg/sg9_10_cif.got.tgz:19841.got - 2010.06.03 20:04:27.
