data_PCOD9136016
_publ_section_title
;
Structure prediction by ZEFSAII (Michael W. Deem and Ramdas Pophale) SiO2 
 PCOD9136016
Probable space group: C C
;
_chemical_formula_sum "Si O2"
_cell_formula_units_Z 32
_cell_length_a 5.259550
_cell_length_b 9.190370
_cell_length_c 26.622112
_cell_angle_alpha 90.000000
_cell_angle_beta 80.308427
_cell_angle_gamma 90.000000
_cell_volume 1268.473180
_symmetry_space_group_name_H-M "C C"
_symmetry_group_IT_number 9
_symmetry_cell_setting 'monoclinic'
loop_
_space_group_symop_operation_xyz
x,y,z
x,-y,1/2+z
1/2+x,1/2+y,z
1/2+x,1/2-y,1/2+z
loop_
_atom_site_type_symbol
_atom_site_label
_atom_site_fract_x
_atom_site_fract_y
_atom_site_fract_z
Si Si1 0.159570 0.911923 0.487790
Si Si2 0.913839 0.507780 0.795330
Si Si3 0.474457 0.383600 0.874497
Si Si4 0.069040 0.035257 0.181692
Si Si5 0.633364 0.743334 0.524791
Si Si6 0.075744 0.590243 0.895235
Si Si7 0.313617 0.698885 0.274565
Si Si8 0.597057 0.794936 0.644574
O O1 0.383949 0.827582 0.511282
O O2 0.295223 0.927953 0.428705
O O3 0.898953 0.818075 0.496969
O O4 0.119215 0.073022 0.511190
O O5 0.658487 0.480962 0.834972
O O6 0.104767 0.553843 0.834997
O O7 0.895145 0.638964 0.757293
O O8 0.029358 0.357720 0.771039
O O9 0.632513 0.260854 0.898650
O O10 0.327013 0.294725 0.834849
O O11 0.270380 0.474733 0.912734
O O12 0.995456 0.083301 0.240948
O O13 0.845358 0.118369 0.157443
O O14 0.344369 0.104942 0.159454
O O15 0.061975 0.863121 0.171910
O O16 0.634794 0.761732 0.584652
#
# Coordination Sequence:
#
# PCOD9136016 Si02
#       8
#     4   4   4   4   4   4   4   4
#     4  12  27  45  76 103 140 182 235 290 339 434
#     4  10  21  38  62  87 136 173 217 278 326 402
#     4  10  21  38  62  87 136 173 217 278 326 402
#     4  12  27  45  76 103 140 182 235 290 339 434
#     4  12  26  47  71 102 136 179 227 293 361 413
#     4  10  23  38  59  97 124 178 225 269 338 391
#     4  10  23  38  59  97 124 178 225 269 338 391
#     4  12  26  47  71 102 136 179 227 293 361 413
#
# _framework density 25.227177999999999
#
# number of rings (size 3 to 8) (size 9 to 14) (size 15 to 20)
#    0.000    1.000    0.000    6.000    7.000    0.000 
#    0.000    0.000    0.000    0.000    0.000    0.000 
#    0.000    0.000    0.000    0.000    0.000    0.000 
#
# Total GULP energy -89560.962952 kJ/mol
# GULP energy per Si atom -5597.560184 kJ/mol
# Density = 2.516976 g / cm^3
# Si number density = 25.227178 Si / 1000 Ang^3
#
#
#
# Elastic Constant Matrix: (Units=GPa)
#
#
# Indices 1 2 3 4 5 6 
#
# 1 143.1490 66.1843 13.5652 0.0000 -4.3317 0.0000
# 2 66.1843 174.9535 9.8992 0.0000 5.3829 0.0000
# 3 13.5652 9.8992 102.2292 0.0000 6.9446 0.0000
# 4 0.0000 0.0000 0.0000 41.4200 0.0000 -6.5260
# 5 -4.3317 5.3829 6.9446 0.0000 41.4103 0.0000
# 6 0.0000 0.0000 0.0000 -6.5260 0.0000 46.7096
#
#
#
# Elastic Compliance Matrix: (Units=1/GPa)
#
#
# Indices 1 2 3 4 5 6 
#
# 1 0.008624 -0.003255 -0.000930 0.000000 0.001481 0.000000
# 2 -0.003255 0.006994 -0.000162 0.000000 -0.001222 0.000000
# 3 -0.000930 -0.000162 0.010041 0.000000 -0.001760 0.000000
# 4 0.000000 0.000000 0.000000 0.024686 0.000000 0.003449
# 5 0.001481 -0.001222 -0.001760 0.000000 0.024758 0.000000
# 6 0.000000 0.000000 0.000000 0.003449 0.000000 0.021891
#
#
# Mechanical properties :
#
#
# Convention : Reuss Voigt Hill
#
# Bulk Modulus (GPa) = 58.94889 66.62545 62.78717
# Shear Modulus (GPa) = 44.90661 47.95351 46.43006
#
# Velocity S-wave (km/s) = 4.22369 4.36462 4.29473
# Velocity P-wave (km/s) = 6.87052 7.20190 7.03816
#
# Compressibility (1/GPa) = 0.01696385
#
# Stress axis : x y z
#
# Youngs Moduli (GPa) = 115.95925 142.97846 99.59581
#
# Poissons Ratio (x) = 0.46544 0.09260
# Poissons Ratio (y) = 0.37748 0.01616
# Poissons Ratio (z) = 0.10781 0.02320
#
# Static dielectric constant tensor:
#      x y z
#    x 2.068010 0.000000 0.109680 
#    y 0.000000 2.046040 0.000000 
#    z 0.109680 0.000000 2.023850 
# 
# From -- ./inp_files/37085.got.cif
#   From: 2010.05.17/outbox.cif.g08.bks.cpg/sg9_19_cif.got.tgz:37085.got - 2010.06.03 20:04:27.
