data_PCOD9136969
_publ_section_title
;
Structure prediction by ZEFSAII (Michael W. Deem and Ramdas Pophale) SiO2 
 PCOD9136969
Probable space group: C C
;
_chemical_formula_sum "Si O2"
_cell_formula_units_Z 28
_cell_length_a 10.902885
_cell_length_b 9.588432
_cell_length_c 18.375387
_cell_angle_alpha 90.000000
_cell_angle_beta 142.915881
_cell_angle_gamma 90.000000
_cell_volume 1158.332898
_symmetry_space_group_name_H-M "C C"
_symmetry_group_IT_number 9
_symmetry_cell_setting 'monoclinic'
loop_
_space_group_symop_operation_xyz
x,y,z
x,-y,1/2+z
1/2+x,1/2+y,z
1/2+x,1/2-y,1/2+z
loop_
_atom_site_type_symbol
_atom_site_label
_atom_site_fract_x
_atom_site_fract_y
_atom_site_fract_z
Si Si1 0.413840 0.989124 0.882790
Si Si2 0.408371 0.627167 0.706925
Si Si3 0.660627 0.586791 0.632215
Si Si4 0.962502 0.360810 0.054695
Si Si5 0.788946 0.168650 0.097385
Si Si6 0.193203 0.343674 0.894988
Si Si7 0.398123 0.094172 0.138483
O O1 0.234559 0.047848 0.747651
O O2 0.373487 0.887156 0.931788
O O3 0.558381 0.905888 0.895677
O O4 0.556832 0.116967 0.976302
O O5 0.206591 0.648788 0.660808
O O6 0.401774 0.469245 0.678396
O O7 0.609368 0.686210 0.841705
O O8 0.789781 0.715500 0.660640
O O9 0.427226 0.624469 0.513145
O O10 0.718964 0.461345 0.605471
O O11 0.377787 0.260310 0.127172
O O12 0.875647 0.236272 0.063957
O O13 0.912251 0.502353 0.074525
O O14 0.107373 0.423656 0.782655
#
# Coordination Sequence:
#
# PCOD9136969 Si02
#       7
#     4   4   4   4   4   4   4
#     4  10  23  47  72 115 151 205 254 315 397 455
#     4   9  21  47  76 110 144 199 257 315 392 448
#     4  10  21  48  78 109 161 200 262 317 391 470
#     4  10  21  47  77 113 149 194 262 322 385 466
#     4  10  23  47  77 113 148 208 256 326 382 460
#     4   9  21  46  75 112 150 209 258 319 388 474
#     4   8  20  44  79 110 149 207 257 320 395 455
#
# _framework density 24.17267
#
# number of rings (size 3 to 8) (size 9 to 14) (size 15 to 20)
#    0.857    1.714    0.000    0.000    2.000    0.000 
#   33.429    2.857    3.143    0.000    0.000    0.000 
#    0.000    0.000    0.000    0.000    0.000    0.000 
#
# Total GULP energy -78283.837597 kJ/mol
# GULP energy per Si atom -5591.702685 kJ/mol
# Density = 2.411765 g / cm^3
# Si number density = 24.172670 Si / 1000 Ang^3
#
#
#
# Elastic Constant Matrix: (Units=GPa)
#
#
# Indices 1 2 3 4 5 6 
#
# 1 100.7808 55.8300 47.9656 0.0000 8.9125 0.0000
# 2 55.8300 153.9768 50.6546 0.0000 4.9715 0.0000
# 3 47.9656 50.6546 156.1109 0.0001 18.8508 0.0000
# 4 0.0000 0.0000 0.0001 37.8687 0.0000 -5.5739
# 5 8.9125 4.9715 18.8508 0.0000 32.5147 0.0000
# 6 0.0000 0.0000 0.0000 -5.5739 0.0000 33.9801
#
#
#
# Elastic Compliance Matrix: (Units=1/GPa)
#
#
# Indices 1 2 3 4 5 6 
#
# 1 0.013539 -0.003977 -0.002683 0.000000 -0.001548 0.000000
# 2 -0.003977 0.008441 -0.001605 0.000000 0.000730 0.000000
# 3 -0.002683 -0.001605 0.008207 0.000000 -0.003777 0.000000
# 4 0.000000 0.000000 0.000000 0.027060 0.000000 0.004439
# 5 -0.001548 0.000730 -0.003777 0.000000 0.033258 0.000000
# 6 0.000000 0.000000 0.000000 0.004439 0.000000 0.030157
#
#
# Mechanical properties :
#
#
# Convention : Reuss Voigt Hill
#
# Bulk Modulus (GPa) = 73.21773 79.97432 76.59603
# Shear Modulus (GPa) = 35.27485 37.96724 36.62104
#
# Velocity S-wave (km/s) = 3.82420 3.96747 3.89649
# Velocity P-wave (km/s) = 7.06078 7.35827 7.21106
#
# Compressibility (1/GPa) = 0.01365789
#
# Stress axis : x y z
#
# Youngs Moduli (GPa) = 73.85978 118.47144 121.84783
#
# Poissons Ratio (x) = 0.47111 0.32689
# Poissons Ratio (y) = 0.29371 0.19559
# Poissons Ratio (z) = 0.19815 0.19017
#
# Static dielectric constant tensor:
#      x y z
#    x 1.947660 0.000000 -0.005210 
#    y 0.000000 1.942110 0.000000 
#    z -0.005210 0.000000 1.966250 
# 
# From -- ./inp_files/35350.got.cif
#   From: 2010.05.17/outbox.cif.g08.bks.cpg/sg9_18_cif.got.tgz:35350.got - 2010.06.03 20:04:27.
