data_PCOD9136732
_publ_section_title
;
Structure prediction by ZEFSAII (Michael W. Deem and Ramdas Pophale) SiO2 
 PCOD9136732
Probable space group: C C
;
_chemical_formula_sum "Si O2"
_cell_formula_units_Z 32
_cell_length_a 18.487159
_cell_length_b 5.236272
_cell_length_c 12.884438
_cell_angle_alpha 90.000000
_cell_angle_beta 71.216323
_cell_angle_gamma 90.000000
_cell_volume 1180.834558
_symmetry_space_group_name_H-M "C C"
_symmetry_group_IT_number 9
_symmetry_cell_setting 'monoclinic'
loop_
_space_group_symop_operation_xyz
x,y,z
x,-y,1/2+z
1/2+x,1/2+y,z
1/2+x,1/2-y,1/2+z
loop_
_atom_site_type_symbol
_atom_site_label
_atom_site_fract_x
_atom_site_fract_y
_atom_site_fract_z
Si Si1 0.056610 0.713487 0.045910
Si Si2 0.057695 0.047031 0.326040
Si Si3 0.358342 0.071065 0.422268
Si Si4 0.224207 0.279995 0.203870
Si Si5 0.695123 0.516161 0.022706
Si Si6 0.893266 0.687848 0.125139
Si Si7 0.149646 0.663376 0.363032
Si Si8 0.909696 0.917157 0.778384
O O1 0.977652 0.607027 0.128470
O O2 0.115487 0.879704 0.087125
O O3 0.112130 0.505720 0.970010
O O4 0.030984 0.875943 0.955193
O O5 0.078654 0.748773 0.324867
O O6 0.997194 0.129814 0.269867
O O7 0.140244 0.173048 0.270180
O O8 0.271234 0.149403 0.489154
O O9 0.393043 0.944136 0.511008
O O10 0.365059 0.832679 0.338333
O O11 0.391886 0.328858 0.356807
O O12 0.219158 0.254380 0.082803
O O13 0.303828 0.147815 0.197247
O O14 0.216943 0.547824 0.263957
O O15 0.683121 0.603475 0.911806
O O16 0.898687 0.987021 0.164654
#
# Coordination Sequence:
#
# PCOD9136732 Si02
#       8
#     4   4   4   4   4   4   4   4
#     4  10  21  43  67  98 140 179 239 289 357 424
#     4  10  22  42  67  98 140 180 234 295 356 424
#     4  11  27  47  70 110 147 185 244 302 356 429
#     4  10  23  42  64  99 140 176 239 288 355 424
#     4  10  23  41  67  99 137 184 230 293 357 419
#     4  11  24  46  70 106 142 193 242 298 359 434
#     4  10  22  41  71  94 133 183 230 292 352 422
#     4  12  26  46  76 102 149 192 236 299 368 420
#
# _framework density 27.09948
#
# number of rings (size 3 to 8) (size 9 to 14) (size 15 to 20)
#    0.000    1.500    1.250    2.250    8.750    3.000 
#   11.250    0.000    0.000    0.000    0.000    0.000 
#    0.000    0.000    0.000    0.000    0.000    0.000 
#
# Total GULP energy -89218.187527 kJ/mol
# GULP energy per Si atom -5576.136720 kJ/mol
# Density = 2.703780 g / cm^3
# Si number density = 27.099480 Si / 1000 Ang^3
#
#
#
# Elastic Constant Matrix: (Units=GPa)
#
#
# Indices 1 2 3 4 5 6 
#
# 1 196.0572 42.3296 51.2129 0.0000 -17.5768 0.0000
# 2 42.3296 84.5675 24.8415 0.0000 7.0382 0.0000
# 3 51.2129 24.8415 77.4385 0.0000 -7.5730 0.0000
# 4 0.0000 0.0000 0.0000 22.8317 0.0000 1.0774
# 5 -17.5768 7.0382 -7.5730 0.0000 44.7166 0.0000
# 6 0.0000 0.0000 0.0000 1.0774 0.0000 30.2150
#
#
#
# Elastic Compliance Matrix: (Units=1/GPa)
#
#
# Indices 1 2 3 4 5 6 
#
# 1 0.006774 -0.002599 -0.003402 0.000000 0.002496 0.000000
# 2 -0.002599 0.014409 -0.003279 0.000000 -0.003845 0.000000
# 3 -0.003402 -0.003279 0.016407 0.000000 0.001957 0.000000
# 4 0.000000 0.000000 0.000000 0.043873 0.000000 -0.001564
# 5 0.002496 -0.003845 0.001957 0.000000 0.024281 0.000000
# 6 0.000000 0.000000 0.000000 -0.001564 0.000000 0.033152
#
#
# Mechanical properties :
#
#
# Convention : Reuss Voigt Hill
#
# Bulk Modulus (GPa) = 52.55194 66.09233 59.32213
# Shear Modulus (GPa) = 30.52506 35.53125 33.02816
#
# Velocity S-wave (km/s) = 3.35984 3.62490 3.49488
# Velocity P-wave (km/s) = 5.87245 6.47777 6.18253
#
# Compressibility (1/GPa) = 0.01902879
#
# Stress axis : x y z
#
# Youngs Moduli (GPa) = 147.62036 69.40038 60.94990
#
# Poissons Ratio (x) = 0.18038 0.20736
# Poissons Ratio (y) = 0.38367 0.19988
# Poissons Ratio (z) = 0.50223 0.22760
#
# Static dielectric constant tensor:
#      x y z
#    x 2.117600 0.000000 -0.011100 
#    y 0.000000 2.388820 0.000000 
#    z -0.011100 0.000000 2.146010 
# 
# From -- ./inp_files/26337.got.cif
#   From: 2010.05.17/outbox.cif.g08.bks.cpg/sg9_14_cif.got.tgz:26337.got - 2010.06.03 20:04:27.
