data_PCOD9136156
_publ_section_title
;
Structure prediction by ZEFSAII (Michael W. Deem and Ramdas Pophale) SiO2 
 PCOD9136156
Probable space group: C C
;
_chemical_formula_sum "Si O2"
_cell_formula_units_Z 24
_cell_length_a 7.407706
_cell_length_b 13.365866
_cell_length_c 13.342052
_cell_angle_alpha 90.000000
_cell_angle_beta 139.503338
_cell_angle_gamma 90.000000
_cell_volume 857.863637
_symmetry_space_group_name_H-M "C C"
_symmetry_group_IT_number 9
_symmetry_cell_setting 'monoclinic'
loop_
_space_group_symop_operation_xyz
x,y,z
x,-y,1/2+z
1/2+x,1/2+y,z
1/2+x,1/2-y,1/2+z
loop_
_atom_site_type_symbol
_atom_site_label
_atom_site_fract_x
_atom_site_fract_y
_atom_site_fract_z
Si Si1 0.375000 0.876088 0.640110
Si Si2 0.773759 0.700073 0.297814
Si Si3 0.403060 0.497772 0.377913
Si Si4 0.932954 0.622912 0.919732
Si Si5 0.435696 0.491609 0.164564
Si Si6 0.801056 0.311928 0.025362
O O1 0.418452 0.798844 0.750507
O O2 0.410333 0.860863 0.533838
O O3 0.603113 0.957499 0.769474
O O4 0.059348 0.917800 0.511735
O O5 0.600151 0.596903 0.233329
O O6 0.933044 0.697440 0.469316
O O7 0.550633 0.789057 0.205322
O O8 0.380431 0.461109 0.255482
O O9 0.628991 0.587949 0.469357
O O10 0.662405 0.594466 0.737893
O O11 0.080124 0.722411 0.944019
O O12 0.138469 0.525783 0.996744
#
# Coordination Sequence:
#
# PCOD9136156 Si02
#       6
#     4   4   4   4   4   4
#     4  10  21  39  64  95 128 167 220 266 323 400
#     4  10  22  38  59  92 130 170 216 266 323 382
#     4   9  20  39  61  88 125 168 214 267 321 384
#     4   9  18  37  65  94 128 172 215 265 322 388
#     4   8  17  35  57  86 123 162 209 254 315 390
#     4  10  22  42  64  91 132 173 216 274 328 378
#
# _framework density 27.976476999999999
#
# number of rings (size 3 to 8) (size 9 to 14) (size 15 to 20)
#    0.000    2.667    0.000    1.000    0.000    6.667 
#    0.000   10.000    0.000    0.000    0.000    0.000 
#    0.000    0.000    0.000    0.000    0.000    0.000 
#
# Total GULP energy -67030.439446 kJ/mol
# GULP energy per Si atom -5585.869954 kJ/mol
# Density = 2.791280 g / cm^3
# Si number density = 27.976477 Si / 1000 Ang^3
#
#
#
# Elastic Constant Matrix: (Units=GPa)
#
#
# Indices 1 2 3 4 5 6 
#
# 1 99.3555 16.4042 43.2788 0.0017 -26.6391 0.0005
# 2 16.4042 90.2085 9.2220 0.0019 0.7950 0.0013
# 3 43.2788 9.2220 109.4732 0.0082 -21.1967 0.0052
# 4 0.0017 0.0019 0.0082 45.4100 0.0049 15.1804
# 5 -26.6391 0.7950 -21.1967 0.0049 54.5260 0.0020
# 6 0.0005 0.0013 0.0052 15.1804 0.0020 47.0466
#
#
#
# Elastic Compliance Matrix: (Units=1/GPa)
#
#
# Indices 1 2 3 4 5 6 
#
# 1 0.013599 -0.002085 -0.004226 0.000000 0.005031 0.000000
# 2 -0.002085 0.011518 -0.000406 0.000000 -0.001345 0.000000
# 3 -0.004226 -0.000406 0.011291 -0.000002 0.002330 -0.000001
# 4 0.000000 0.000000 -0.000002 0.024684 -0.000003 -0.007965
# 5 0.005031 -0.001345 0.002330 -0.000003 0.021724 0.000000
# 6 0.000000 0.000000 -0.000001 -0.007965 0.000000 0.023825
#
#
# Mechanical properties :
#
#
# Convention : Reuss Voigt Hill
#
# Bulk Modulus (GPa) = 43.53062 48.53859 46.03461
# Shear Modulus (GPa) = 39.14369 44.73868 41.94119
#
# Velocity S-wave (km/s) = 3.74460 4.00328 3.87610
# Velocity P-wave (km/s) = 5.85573 6.22541 6.04340
#
# Compressibility (1/GPa) = 0.02297233
#
# Stress axis : x y z
#
# Youngs Moduli (GPa) = 73.53393 86.82060 88.56654
#
# Poissons Ratio (x) = 0.18104 0.37432
# Poissons Ratio (y) = 0.15334 0.03598
# Poissons Ratio (z) = 0.31078 0.03527
#
# Static dielectric constant tensor:
#      x y z
#    x 2.280600 0.000000 -0.002040 
#    y 0.000000 2.154450 0.000000 
#    z -0.002040 0.000000 2.137730 
# 
# From -- ./inp_files/4924.got.cif
#   From: 2010.05.17/outbox.cif.g08.bks.cpg/sg9_3_cif.got.tgz:4924.got - 2010.06.03 20:04:27.
