data_PCOD9136416
_publ_section_title
;
Structure prediction by ZEFSAII (Michael W. Deem and Ramdas Pophale) SiO2 
 PCOD9136416
Probable space group: C C
;
_chemical_formula_sum "Si O2"
_cell_formula_units_Z 28
_cell_length_a 14.072845
_cell_length_b 7.535054
_cell_length_c 13.629454
_cell_angle_alpha 90.000000
_cell_angle_beta 68.825006
_cell_angle_gamma 90.000000
_cell_volume 1347.680592
_symmetry_space_group_name_H-M "C C"
_symmetry_group_IT_number 9
_symmetry_cell_setting 'monoclinic'
loop_
_space_group_symop_operation_xyz
x,y,z
x,-y,1/2+z
1/2+x,1/2+y,z
1/2+x,1/2-y,1/2+z
loop_
_atom_site_type_symbol
_atom_site_label
_atom_site_fract_x
_atom_site_fract_y
_atom_site_fract_z
Si Si1 0.878420 0.909927 0.880810
Si Si2 0.048563 0.576567 0.083760
Si Si3 0.445826 0.582367 0.566568
Si Si4 0.396536 0.768919 0.190568
Si Si5 0.703986 0.884777 0.350500
Si Si6 0.101667 0.972636 0.850150
Si Si7 0.690768 0.798555 0.705269
O O1 0.854214 0.743151 0.818425
O O2 0.808021 0.071054 0.869984
O O3 0.001046 0.920385 0.825472
O O4 0.868384 0.902687 0.002853
O O5 0.128322 0.654953 0.132111
O O6 0.961610 0.725005 0.104271
O O7 0.990111 0.399769 0.139088
O O8 0.110425 0.563493 0.958419
O O9 0.423933 0.432888 0.652799
O O10 0.552809 0.522890 0.476653
O O11 0.301014 0.795595 0.152789
O O12 0.702397 0.017341 0.259441
O O13 0.684528 0.684003 0.322383
O O14 0.133907 0.160103 0.796789
#
# Coordination Sequence:
#
# PCOD9136416 Si02
#       7
#     4   4   4   4   4   4   4
#     4   9  20  39  64  86 127 160 206 263 313 374
#     4  11  23  39  66  90 125 170 212 261 319 384
#     4   9  21  41  59  87 125 163 206 263 316 372
#     4  11  22  39  61  94 124 166 213 260 318 378
#     4  10  21  41  62  90 123 167 207 257 321 370
#     4   9  20  38  59  84 124 159 201 255 311 367
#     4  11  23  37  61  95 124 161 215 253 316 381
#
# _framework density 20.776437999999999
#
# number of rings (size 3 to 8) (size 9 to 14) (size 15 to 20)
#    0.857    1.143    0.000    3.429    0.000    3.429 
#    0.000   10.000    0.000    0.000    0.000    0.000 
#    0.000    0.000    0.000    0.000    0.000    0.000 
#
# Total GULP energy -77936.707685 kJ/mol
# GULP energy per Si atom -5566.907692 kJ/mol
# Density = 2.072915 g / cm^3
# Si number density = 20.776438 Si / 1000 Ang^3
#
#
#
# Elastic Constant Matrix: (Units=GPa)
#
#
# Indices 1 2 3 4 5 6 
#
# 1 92.8641 21.5351 8.7224 0.0000 23.6852 0.0000
# 2 21.5351 67.5962 23.5405 0.0000 1.2605 0.0000
# 3 8.7224 23.5405 53.8837 0.0000 11.0348 0.0000
# 4 0.0000 0.0000 0.0000 19.1057 0.0000 -0.7922
# 5 23.6852 1.2605 11.0348 0.0000 35.6567 0.0000
# 6 0.0000 0.0000 0.0000 -0.7922 0.0000 31.1773
#
#
#
# Elastic Compliance Matrix: (Units=1/GPa)
#
#
# Indices 1 2 3 4 5 6 
#
# 1 0.014281 -0.005032 0.001914 0.000000 -0.009900 0.000000
# 2 -0.005032 0.019337 -0.008731 0.000000 0.005361 0.000000
# 3 0.001914 -0.008731 0.023767 0.000000 -0.008318 0.000000
# 4 0.000000 0.000000 0.000000 0.052396 0.000000 0.001331
# 5 -0.009900 0.005361 -0.008318 0.000000 0.037006 0.000000
# 6 0.000000 0.000000 0.000000 0.001331 0.000000 0.032108
#
#
# Mechanical properties :
#
#
# Convention : Reuss Voigt Hill
#
# Bulk Modulus (GPa) = 29.68523 35.77112 32.72818
# Shear Modulus (GPa) = 23.38394 27.89101 25.63748
#
# Velocity S-wave (km/s) = 3.35849 3.66790 3.51660
# Velocity P-wave (km/s) = 5.41832 5.93233 5.68114
#
# Compressibility (1/GPa) = 0.03368678
#
# Stress axis : x y z
#
# Youngs Moduli (GPa) = 70.02521 51.71306 42.07573
#
# Poissons Ratio (x) = 0.26020 -0.08053
# Poissons Ratio (y) = 0.35233 0.36738
# Poissons Ratio (z) = -0.13403 0.45153
#
# Static dielectric constant tensor:
#      x y z
#    x 1.806560 0.000000 0.012320 
#    y 0.000000 1.714160 0.000000 
#    z 0.012320 0.000000 1.806130 
# 
# From -- ./inp_files/25242.got.cif
#   From: 2010.05.17/outbox.cif.g08.bks.cpg/sg9_13_cif.got.tgz:25242.got - 2010.06.03 20:04:27.
