data_PCOD9136040
_publ_section_title
;
Structure prediction by ZEFSAII (Michael W. Deem and Ramdas Pophale) SiO2 
 PCOD9136040
Probable space group: C C
;
_chemical_formula_sum "Si O2"
_cell_formula_units_Z 32
_cell_length_a 18.495790
_cell_length_b 6.987112
_cell_length_c 13.604983
_cell_angle_alpha 90.000000
_cell_angle_beta 126.298060
_cell_angle_gamma 90.000000
_cell_volume 1417.019387
_symmetry_space_group_name_H-M "C C"
_symmetry_group_IT_number 9
_symmetry_cell_setting 'monoclinic'
loop_
_space_group_symop_operation_xyz
x,y,z
x,-y,1/2+z
1/2+x,1/2+y,z
1/2+x,1/2-y,1/2+z
loop_
_atom_site_type_symbol
_atom_site_label
_atom_site_fract_x
_atom_site_fract_y
_atom_site_fract_z
Si Si1 0.190400 0.800798 0.297760
Si Si2 0.928361 0.528538 0.662486
Si Si3 0.265332 0.446009 0.259163
Si Si4 0.595222 0.477406 0.052523
Si Si5 0.937630 0.882422 0.805118
Si Si6 0.995596 0.714813 0.358361
Si Si7 0.239445 0.836764 0.557506
Si Si8 0.356329 0.082455 0.402049
O O1 0.196128 0.592149 0.252126
O O2 0.114347 0.922635 0.179579
O O3 0.188151 0.794291 0.414192
O O4 0.283045 0.915640 0.347581
O O5 0.917442 0.729652 0.707520
O O6 0.013075 0.571929 0.282968
O O7 0.839163 0.400679 0.608901
O O8 0.926778 0.559843 0.546034
O O9 0.353002 0.570312 0.304145
O O10 0.240406 0.335720 0.137635
O O11 0.297879 0.278107 0.358776
O O12 0.557234 0.689636 0.992832
O O13 0.689464 0.485528 0.070611
O O14 0.522943 0.337935 0.943704
O O15 0.963440 0.088515 0.781251
O O16 0.915854 0.607369 0.352838
#
# Coordination Sequence:
#
# PCOD9136040 Si02
#       8
#     4   4   4   4   4   4   4   4
#     4  11  24  40  66  94 123 170 209 255 322 370
#     4  11  20  38  66  92 117 162 216 249 312 365
#     4  11  21  42  61  93 123 164 216 263 304 365
#     4  10  21  43  60  89 136 160 199 260 315 373
#     4   9  21  36  65  86 124 167 198 255 315 361
#     4   9  20  40  57  91 126 158 198 263 299 365
#     4  11  22  41  65  92 129 158 212 264 304 377
#     4  10  21  38  64  93 116 161 210 261 299 374
#
# _framework density 22.582611
#
# number of rings (size 3 to 8) (size 9 to 14) (size 15 to 20)
#    0.750    1.000    3.750    1.500    1.750    2.000 
#    0.000    2.500    0.000    0.000    0.000    0.000 
#    0.000    0.000    0.000    0.000    0.000    0.000 
#
# Total GULP energy -89128.454122 kJ/mol
# GULP energy per Si atom -5570.528383 kJ/mol
# Density = 2.253121 g / cm^3
# Si number density = 22.582611 Si / 1000 Ang^3
#
#
#
# Elastic Constant Matrix: (Units=GPa)
#
#
# Indices 1 2 3 4 5 6 
#
# 1 18.4025 6.2959 25.1547 0.0000 0.2896 0.0000
# 2 6.2959 71.8604 40.8916 0.0000 -20.1425 0.0000
# 3 25.1547 40.8916 172.9225 0.0000 -25.7790 0.0000
# 4 0.0000 0.0000 0.0000 17.6962 0.0000 5.8129
# 5 0.2896 -20.1425 -25.7790 0.0000 28.4823 0.0000
# 6 0.0000 0.0000 0.0000 5.8129 0.0000 23.3807
#
#
#
# Elastic Compliance Matrix: (Units=1/GPa)
#
#
# Indices 1 2 3 4 5 6 
#
# 1 0.071677 -0.003506 -0.011648 0.000000 -0.013750 0.000000
# 2 -0.003506 0.018628 -0.002226 0.000000 0.011194 0.000000
# 3 -0.011648 -0.002226 0.009001 0.000000 0.006691 0.000000
# 4 0.000000 0.000000 0.000000 0.061535 0.000000 -0.015299
# 5 -0.013750 0.011194 0.006691 0.000000 0.049222 0.000000
# 6 0.000000 0.000000 0.000000 -0.015299 0.000000 0.046574
#
#
# Mechanical properties :
#
#
# Convention : Reuss Voigt Hill
#
# Bulk Modulus (GPa) = 15.49268 45.31886 30.40577
# Shear Modulus (GPa) = 15.97896 26.63471 21.30684
#
# Velocity S-wave (km/s) = 2.66292 3.43802 3.07499
# Velocity P-wave (km/s) = 4.04106 5.98929 5.10890
#
# Compressibility (1/GPa) = 0.06454663
#
# Stress axis : x y z
#
# Youngs Moduli (GPa) = 13.95140 53.68405 111.09654
#
# Poissons Ratio (x) = 0.18822 1.29400
# Poissons Ratio (y) = 0.04892 0.24731
# Poissons Ratio (z) = 0.16250 0.11951
#
# Static dielectric constant tensor:
#      x y z
#    x 1.872150 0.000000 0.061260 
#    y 0.000000 1.842530 0.000000 
#    z 0.061260 0.000000 1.908240 
# 
# From -- ./inp_files/27616.got.cif
#   From: 2010.05.17/outbox.cif.g08.bks.cpg/sg9_14_cif.got.tgz:27616.got - 2010.06.03 20:04:27.
