data_PCOD9136951
_publ_section_title
;
Structure prediction by ZEFSAII (Michael W. Deem and Ramdas Pophale) SiO2 
 PCOD9136951
Probable space group: C C
;
_chemical_formula_sum "Si O2"
_cell_formula_units_Z 24
_cell_length_a 26.357344
_cell_length_b 5.146448
_cell_length_c 14.524000
_cell_angle_alpha 90.000000
_cell_angle_beta 28.631052
_cell_angle_gamma 90.000000
_cell_volume 944.023783
_symmetry_space_group_name_H-M "C C"
_symmetry_group_IT_number 9
_symmetry_cell_setting 'monoclinic'
loop_
_space_group_symop_operation_xyz
x,y,z
x,-y,1/2+z
1/2+x,1/2+y,z
1/2+x,1/2-y,1/2+z
loop_
_atom_site_type_symbol
_atom_site_label
_atom_site_fract_x
_atom_site_fract_y
_atom_site_fract_z
Si Si1 0.125000 0.840543 0.274780
Si Si2 0.447981 0.200753 0.410560
Si Si3 0.500070 0.307380 0.720638
Si Si4 0.736470 0.159925 0.351220
Si Si5 0.178826 0.320028 0.293377
Si Si6 0.314660 0.160396 0.917559
O O1 0.138600 0.583015 0.311278
O O2 0.031024 0.805513 0.353173
O O3 0.107253 0.083739 0.371965
O O4 0.236818 0.909739 0.044273
O O5 0.461471 0.401311 0.304471
O O6 0.330046 0.223041 0.639262
O O7 0.477689 0.908121 0.336255
O O8 0.626964 0.312646 0.517126
O O9 0.440678 0.175717 0.727190
O O10 0.776104 0.173799 0.392409
O O11 0.707002 0.881222 0.353436
O O12 0.284744 0.269078 0.066030
#
# Coordination Sequence:
#
# PCOD9136951 Si02
#       6
#     4   4   4   4   4   4
#     4  10  21  46  72 103 149 191 242 321 361 434
#     4  12  25  50  76 106 155 193 250 321 368 446
#     4  12  27  50  72 114 154 192 256 320 358 459
#     4  12  26  49  79 112 145 214 246 301 402 440
#     4  10  23  45  72 107 151 185 254 312 360 449
#     4  10  24  48  73 112 150 197 254 307 371 456
#
# _framework density 25.423086999999999
#
# number of rings (size 3 to 8) (size 9 to 14) (size 15 to 20)
#    1.000    0.000    3.333    3.000    2.333    2.667 
#    6.000    0.000    0.000    0.000    0.000    0.000 
#    0.000    0.000    0.000    0.000    0.000    0.000 
#
# Total GULP energy -67062.745864 kJ/mol
# GULP energy per Si atom -5588.562155 kJ/mol
# Density = 2.536522 g / cm^3
# Si number density = 25.423087 Si / 1000 Ang^3
#
#
#
# Elastic Constant Matrix: (Units=GPa)
#
#
# Indices 1 2 3 4 5 6 
#
# 1 179.0493 32.5375 27.0280 0.0025 -23.0998 -0.0031
# 2 32.5375 137.9791 26.4498 0.0013 -0.8794 -0.0103
# 3 27.0280 26.4498 136.2964 -0.0002 -30.9758 -0.0015
# 4 0.0025 0.0013 -0.0002 18.3169 -0.0004 1.6147
# 5 -23.0998 -0.8794 -30.9758 -0.0004 43.8079 0.0015
# 6 -0.0031 -0.0103 -0.0015 1.6147 0.0015 43.7020
#
#
#
# Elastic Compliance Matrix: (Units=1/GPa)
#
#
# Indices 1 2 3 4 5 6 
#
# 1 0.006281 -0.001410 -0.000269 -0.000001 0.003094 0.000000
# 2 -0.001410 0.007885 -0.001648 -0.000001 -0.001751 0.000002
# 3 -0.000269 -0.001648 0.009139 0.000000 0.006287 0.000000
# 4 -0.000001 -0.000001 0.000000 0.054773 0.000000 -0.002024
# 5 0.003094 -0.001751 0.006287 0.000000 0.028869 -0.000001
# 6 0.000000 0.000002 0.000000 -0.002024 -0.000001 0.022957
#
#
# Mechanical properties :
#
#
# Convention : Reuss Voigt Hill
#
# Bulk Modulus (GPa) = 60.05857 69.48394 64.77126
# Shear Modulus (GPa) = 35.18460 45.65265 40.41863
#
# Velocity S-wave (km/s) = 3.72420 4.24219 3.99160
# Velocity P-wave (km/s) = 6.49367 7.16835 6.83934
#
# Compressibility (1/GPa) = 0.01665041
#
# Stress axis : x y z
#
# Youngs Moduli (GPa) = 159.21137 126.82658 109.42065
#
# Poissons Ratio (x) = 0.17881 0.02942
# Poissons Ratio (y) = 0.22447 0.18037
# Poissons Ratio (z) = 0.04281 0.20906
#
# Static dielectric constant tensor:
#      x y z
#    x 1.995170 0.000000 0.019900 
#    y 0.000000 1.991360 0.000000 
#    z 0.019900 0.000000 2.130580 
# 
# From -- ./inp_files/27865.got.cif
#   From: 2010.05.17/outbox.cif.g08.bks.cpg/sg9_14_cif.got.tgz:27865.got - 2010.06.03 20:04:27.
