data_PCOD9136538
_publ_section_title
;
Structure prediction by ZEFSAII (Michael W. Deem and Ramdas Pophale) SiO2 
 PCOD9136538
Probable space group: C C
;
_chemical_formula_sum "Si O2"
_cell_formula_units_Z 28
_cell_length_a 18.535842
_cell_length_b 7.601324
_cell_length_c 10.353217
_cell_angle_alpha 90.000000
_cell_angle_beta 129.557395
_cell_angle_gamma 90.000000
_cell_volume 1124.666980
_symmetry_space_group_name_H-M "C C"
_symmetry_group_IT_number 9
_symmetry_cell_setting 'monoclinic'
loop_
_space_group_symop_operation_xyz
x,y,z
x,-y,1/2+z
1/2+x,1/2+y,z
1/2+x,1/2-y,1/2+z
loop_
_atom_site_type_symbol
_atom_site_label
_atom_site_fract_x
_atom_site_fract_y
_atom_site_fract_z
Si Si1 0.038070 0.750663 0.257000
Si Si2 0.380661 0.648906 0.421181
Si Si3 0.296426 0.042915 0.667317
Si Si4 0.952565 0.363049 0.159423
Si Si5 0.700587 0.923803 0.852138
Si Si6 0.637395 0.198037 0.996310
Si Si7 0.906140 0.804339 0.339881
O O1 0.147859 0.736652 0.364115
O O2 0.026437 0.283875 0.346828
O O3 0.992693 0.794805 0.341075
O O4 0.986141 0.861977 0.089834
O O5 0.349972 0.837850 0.335342
O O6 0.310209 0.603433 0.457255
O O7 0.499037 0.947167 0.686013
O O8 0.349735 0.104260 0.598568
O O9 0.191668 0.116211 0.558496
O O10 0.327642 0.843057 0.722544
O O11 0.944758 0.247714 0.024355
O O12 0.677196 0.090886 0.916080
O O13 0.864914 0.001263 0.798438
O O14 0.659711 0.906635 0.656558
#
# Coordination Sequence:
#
# PCOD9136538 Si02
#       7
#     4   4   4   4   4   4   4
#     4  10  23  42  69 103 142 187 246 304 363 451
#     4  11  23  43  74  98 141 194 240 310 371 448
#     4  10  22  44  68 101 144 182 241 310 370 442
#     4  10  21  41  72  97 144 191 237 301 373 439
#     4  10  23  40  71 105 141 194 242 306 376 432
#     4  10  22  39  73 101 142 195 245 304 370 447
#     4  11  24  41  75 105 138 197 249 301 385 443
#
# _framework density 24.896260000000002
#
# number of rings (size 3 to 8) (size 9 to 14) (size 15 to 20)
#    0.000    1.714    1.429    1.714   16.000    0.000 
#    0.000    2.857   25.143    0.000    0.000    0.000 
#    0.000    0.000    0.000    0.000    0.000    0.000 
#
# Total GULP energy -78278.352251 kJ/mol
# GULP energy per Si atom -5591.310875 kJ/mol
# Density = 2.483959 g / cm^3
# Si number density = 24.896260 Si / 1000 Ang^3
#
#
#
# Elastic Constant Matrix: (Units=GPa)
#
#
# Indices 1 2 3 4 5 6 
#
# 1 88.8276 28.0165 16.1666 0.0000 1.5726 0.0000
# 2 28.0165 85.1270 20.3583 0.0000 -1.0876 0.0000
# 3 16.1666 20.3583 96.2843 0.0000 -12.4471 0.0000
# 4 0.0000 0.0000 0.0000 22.9483 0.0000 0.7860
# 5 1.5726 -1.0876 -12.4471 0.0000 37.1175 0.0000
# 6 0.0000 0.0000 0.0000 0.7860 0.0000 31.5897
#
#
#
# Elastic Compliance Matrix: (Units=1/GPa)
#
#
# Indices 1 2 3 4 5 6 
#
# 1 0.012765 -0.003863 -0.001475 0.000000 -0.001149 0.000000
# 2 -0.003863 0.013552 -0.002242 0.000000 -0.000191 0.000000
# 3 -0.001475 -0.002242 0.011610 0.000000 0.003890 0.000000
# 4 0.000000 0.000000 0.000000 0.043613 0.000000 -0.001085
# 5 -0.001149 -0.000191 0.003890 0.000000 0.028289 0.000000
# 6 0.000000 0.000000 0.000000 -0.001085 0.000000 0.031683
#
#
# Mechanical properties :
#
#
# Convention : Reuss Voigt Hill
#
# Bulk Modulus (GPa) = 43.92046 44.36909 44.14478
# Shear Modulus (GPa) = 30.43927 32.04427 31.24177
#
# Velocity S-wave (km/s) = 3.50043 3.59153 3.54627
# Velocity P-wave (km/s) = 5.83241 5.92107 5.87691
#
# Compressibility (1/GPa) = 0.02276843
#
# Stress axis : x y z
#
# Youngs Moduli (GPa) = 78.33939 73.78890 86.12951
#
# Poissons Ratio (x) = 0.28505 0.12704
# Poissons Ratio (y) = 0.30263 0.19306
# Poissons Ratio (z) = 0.11555 0.16540
#
# Static dielectric constant tensor:
#      x y z
#    x 1.984150 0.000000 0.004160 
#    y 0.000000 1.959720 0.000000 
#    z 0.004160 0.000000 2.020730 
# 
# From -- ./inp_files/19963.got.cif
#   From: 2010.05.17/outbox.cif.g08.bks.cpg/sg9_10_cif.got.tgz:19963.got - 2010.06.03 20:04:27.
