data_PCOD9136295
_publ_section_title
;
Structure prediction by ZEFSAII (Michael W. Deem and Ramdas Pophale) SiO2 
 PCOD9136295
Probable space group: C C
;
_chemical_formula_sum "Si O2"
_cell_formula_units_Z 32
_cell_length_a 9.371166
_cell_length_b 18.698411
_cell_length_c 9.892567
_cell_angle_alpha 90.000000
_cell_angle_beta 138.670601
_cell_angle_gamma 90.000000
_cell_volume 1144.737444
_symmetry_space_group_name_H-M "C C"
_symmetry_group_IT_number 9
_symmetry_cell_setting 'monoclinic'
loop_
_space_group_symop_operation_xyz
x,y,z
x,-y,1/2+z
1/2+x,1/2+y,z
1/2+x,1/2-y,1/2+z
loop_
_atom_site_type_symbol
_atom_site_label
_atom_site_fract_x
_atom_site_fract_y
_atom_site_fract_z
Si Si1 0.812410 0.223455 0.718700
Si Si2 0.818404 0.077219 0.550932
Si Si3 0.707698 0.267389 0.395398
Si Si4 0.349082 0.646891 0.299673
Si Si5 0.363096 0.057340 0.314381
Si Si6 0.027835 0.358509 0.192557
Si Si7 0.872960 0.610969 0.857754
Si Si8 0.937262 0.923790 0.605986
O O1 0.817774 0.142629 0.656590
O O2 0.934460 0.259658 0.663781
O O3 0.673418 0.210574 0.756380
O O4 0.081320 0.239948 0.963887
O O5 0.908312 0.094940 0.466055
O O6 0.555983 0.069037 0.347531
O O7 0.920761 0.001798 0.665446
O O8 0.821252 0.221631 0.355691
O O9 0.720947 0.348650 0.354653
O O10 0.474491 0.634217 0.250041
O O11 0.111466 0.625707 0.081714
O O12 0.421622 0.104643 0.487545
O O13 0.117814 0.080468 0.118452
O O14 0.351884 0.973685 0.336353
O O15 0.208371 0.413399 0.374040
O O16 0.866023 0.353566 0.203512
#
# Coordination Sequence:
#
# PCOD9136295 Si02
#       8
#     4   4   4   4   4   4   4   4
#     4  10  23  42  64  93 131 172 225 283 327 400
#     4  10  21  40  64  97 139 161 225 285 327 415
#     4  11  22  44  67  94 126 185 231 267 337 409
#     4  10  22  42  65  94 135 172 222 281 328 406
#     4  11  23  41  69 103 132 177 217 276 355 408
#     4  10  24  46  62 102 141 164 225 287 334 402
#     4  11  22  42  69  92 135 180 218 276 340 402
#     4  11  23  41  68 101 133 177 213 279 354 392
#
# _framework density 27.954007000000001
#
# number of rings (size 3 to 8) (size 9 to 14) (size 15 to 20)
#    0.000    1.500    3.750    1.500    1.750    4.000 
#    6.750    0.000    0.000    0.000    0.000    0.000 
#    0.000    0.000    0.000    0.000    0.000    0.000 
#
# Total GULP energy -89302.030538 kJ/mol
# GULP energy per Si atom -5581.376909 kJ/mol
# Density = 2.789038 g / cm^3
# Si number density = 27.954007 Si / 1000 Ang^3
#
#
#
# Elastic Constant Matrix: (Units=GPa)
#
#
# Indices 1 2 3 4 5 6 
#
# 1 151.4034 35.1895 -8.7890 0.0000 28.3952 0.0000
# 2 35.1895 104.9447 5.4685 0.0000 -0.5607 0.0000
# 3 -8.7890 5.4685 65.9251 0.0000 19.3585 0.0000
# 4 0.0000 0.0000 0.0000 34.6699 0.0000 -4.0305
# 5 28.3952 -0.5607 19.3585 0.0000 39.4406 0.0000
# 6 0.0000 0.0000 0.0000 -4.0305 0.0000 41.7676
#
#
#
# Elastic Compliance Matrix: (Units=1/GPa)
#
#
# Indices 1 2 3 4 5 6 
#
# 1 0.009256 -0.003362 0.004070 0.000000 -0.008710 0.000000
# 2 -0.003362 0.010804 -0.002454 0.000000 0.003779 0.000000
# 3 0.004070 -0.002454 0.019612 0.000000 -0.012592 0.000000
# 4 0.000000 0.000000 0.000000 0.029171 0.000000 0.002815
# 5 -0.008710 0.003779 -0.012592 0.000000 0.037859 0.000000
# 6 0.000000 0.000000 0.000000 0.002815 0.000000 0.024214
#
#
# Mechanical properties :
#
#
# Convention : Reuss Voigt Hill
#
# Bulk Modulus (GPa) = 27.63899 42.89015 35.26457
# Shear Modulus (GPa) = 34.13701 42.53590 38.33646
#
# Velocity S-wave (km/s) = 3.49834 3.90505 3.70728
# Velocity P-wave (km/s) = 5.12119 5.97570 5.56487
#
# Compressibility (1/GPa) = 0.03618077
#
# Stress axis : x y z
#
# Youngs Moduli (GPa) = 108.03689 92.55540 50.98814
#
# Poissons Ratio (x) = 0.31120 -0.20754
# Poissons Ratio (y) = 0.36326 0.12513
# Poissons Ratio (z) = -0.43975 0.22714
#
# Static dielectric constant tensor:
#      x y z
#    x 2.178720 0.000000 0.149290 
#    y 0.000000 2.117330 0.000000 
#    z 0.149290 0.000000 2.479760 
# 
# From -- ./inp_files/11047.got.cif
#   From: 2010.05.17/outbox.cif.g08.bks.cpg/sg9_6_cif.got.tgz:11047.got - 2010.06.03 20:04:27.
