data_PCOD9136334
_publ_section_title
;
Structure prediction by ZEFSAII (Michael W. Deem and Ramdas Pophale) SiO2 
 PCOD9136334
Probable space group: C C
;
_chemical_formula_sum "Si O2"
_cell_formula_units_Z 32
_cell_length_a 13.064854
_cell_length_b 8.382881
_cell_length_c 21.630381
_cell_angle_alpha 90.000000
_cell_angle_beta 137.430865
_cell_angle_gamma 90.000000
_cell_volume 1602.568375
_symmetry_space_group_name_H-M "C C"
_symmetry_group_IT_number 9
_symmetry_cell_setting 'monoclinic'
loop_
_space_group_symop_operation_xyz
x,y,z
x,-y,1/2+z
1/2+x,1/2+y,z
1/2+x,1/2-y,1/2+z
loop_
_atom_site_type_symbol
_atom_site_label
_atom_site_fract_x
_atom_site_fract_y
_atom_site_fract_z
Si Si1 0.991600 0.332190 0.209800
Si Si2 0.204031 0.297615 0.527726
Si Si3 0.748992 0.123556 0.487195
Si Si4 0.018618 0.801087 0.315165
Si Si5 0.298776 0.150814 0.122803
Si Si6 0.510951 0.552072 0.516495
Si Si7 0.326129 0.321447 0.351191
Si Si8 0.664605 0.352751 0.879581
O O1 0.872329 0.205903 0.130725
O O2 0.907374 0.498206 0.166451
O O3 0.154994 0.342593 0.250616
O O4 0.038907 0.274711 0.299557
O O5 0.174997 0.474865 0.490217
O O6 0.204866 0.185294 0.467479
O O7 0.088745 0.212865 0.524128
O O8 0.652020 0.172486 0.383716
O O9 0.761764 0.269139 0.540820
O O10 0.914758 0.079079 0.535330
O O11 0.894729 0.770767 0.207654
O O12 0.932580 0.784050 0.341963
O O13 0.097218 0.972228 0.342804
O O14 0.144457 0.078817 0.082574
O O15 0.395511 0.475753 0.415474
O O16 0.302704 0.187330 0.394225
#
# Coordination Sequence:
#
# PCOD9136334 Si02
#       8
#     4   4   4   4   4   4   4   4
#     4   9  22  43  62  92 129 172 215 273 329 383
#     4  11  21  41  68  91 129 175 219 269 327 396
#     4  12  25  44  66  99 136 170 223 277 331 397
#     4  12  23  41  66 100 133 174 223 277 330 407
#     4  11  24  43  63  96 135 166 228 278 323 404
#     4  11  23  45  66  95 133 180 219 273 334 394
#     4  10  21  41  66  95 128 175 216 270 333 387
#     4  10  21  40  67  90 133 170 215 271 335 384
#
# _framework density 19.967948
#
# number of rings (size 3 to 8) (size 9 to 14) (size 15 to 20)
#    0.750    0.500    3.750    3.000    1.750    1.000 
#    6.750    0.000    0.000    0.000    0.000    0.000 
#    0.000    0.000    0.000    0.000    0.000    0.000 
#
# Total GULP energy -89209.331065 kJ/mol
# GULP energy per Si atom -5575.583192 kJ/mol
# Density = 1.992250 g / cm^3
# Si number density = 19.967948 Si / 1000 Ang^3
#
#
#
# Elastic Constant Matrix: (Units=GPa)
#
#
# Indices 1 2 3 4 5 6 
#
# 1 88.5104 18.0558 9.7378 0.0000 13.5961 0.0000
# 2 18.0558 58.7897 -7.8774 0.0000 7.9214 0.0000
# 3 9.7378 -7.8774 69.4279 0.0000 4.2414 0.0000
# 4 0.0000 0.0000 0.0000 36.4002 0.0000 2.2944
# 5 13.5961 7.9214 4.2414 0.0000 25.6743 0.0000
# 6 0.0000 0.0000 0.0000 2.2944 0.0000 27.0559
#
#
#
# Elastic Compliance Matrix: (Units=1/GPa)
#
#
# Indices 1 2 3 4 5 6 
#
# 1 0.013074 -0.003525 -0.001896 0.000000 -0.005523 0.000000
# 2 -0.003525 0.019094 0.002936 0.000000 -0.004509 0.000000
# 3 -0.001896 0.002936 0.015149 0.000000 -0.002404 0.000000
# 4 0.000000 0.000000 0.000000 0.027620 0.000000 -0.002342
# 5 -0.005523 -0.004509 -0.002404 0.000000 0.043662 0.000000
# 6 0.000000 0.000000 0.000000 -0.002342 0.000000 0.037159
#
#
# Mechanical properties :
#
#
# Convention : Reuss Voigt Hill
#
# Bulk Modulus (GPa) = 23.61483 28.50673 26.06078
# Shear Modulus (GPa) = 28.59671 30.94686 29.77179
#
# Velocity S-wave (km/s) = 3.78846 3.94105 3.86551
# Velocity P-wave (km/s) = 5.56674 5.91747 5.74478
#
# Compressibility (1/GPa) = 0.04234627
#
# Stress axis : x y z
#
# Youngs Moduli (GPa) = 76.48624 52.37373 66.00897
#
# Poissons Ratio (x) = 0.18464 0.12518
# Poissons Ratio (y) = 0.26965 -0.19382
# Poissons Ratio (z) = 0.14505 -0.15379
#
# Static dielectric constant tensor:
#      x y z
#    x 1.693150 0.000000 0.034120 
#    y 0.000000 1.718210 0.000000 
#    z 0.034120 0.000000 1.760990 
# 
# From -- ./inp_files/33214.got.cif
#   From: 2010.05.17/outbox.cif.g08.bks.cpg/sg9_17_cif.got.tgz:33214.got - 2010.06.03 20:04:27.
