data_PCOD9136102
_publ_section_title
;
Structure prediction by ZEFSAII (Michael W. Deem and Ramdas Pophale) SiO2 
 PCOD9136102
Probable space group: C C
;
_chemical_formula_sum "Si O2"
_cell_formula_units_Z 28
_cell_length_a 13.323398
_cell_length_b 5.271447
_cell_length_c 16.892023
_cell_angle_alpha 90.000000
_cell_angle_beta 108.070202
_cell_angle_gamma 90.000000
_cell_volume 1127.871384
_symmetry_space_group_name_H-M "C C"
_symmetry_group_IT_number 9
_symmetry_cell_setting 'monoclinic'
loop_
_space_group_symop_operation_xyz
x,y,z
x,-y,1/2+z
1/2+x,1/2+y,z
1/2+x,1/2-y,1/2+z
loop_
_atom_site_type_symbol
_atom_site_label
_atom_site_fract_x
_atom_site_fract_y
_atom_site_fract_z
Si Si1 0.525050 0.983293 0.118390
Si Si2 0.927792 0.339876 0.436384
Si Si3 0.314158 0.580432 0.286042
Si Si4 0.756342 0.425021 0.807313
Si Si5 0.652379 0.397420 0.945835
Si Si6 0.949834 0.962327 0.179241
Si Si7 0.719794 0.916044 0.049432
O O1 0.517098 0.209009 0.180664
O O2 0.631866 0.975235 0.094082
O O3 0.497360 0.709249 0.147756
O O4 0.441119 0.066556 0.028437
O O5 0.877795 0.569003 0.371977
O O6 0.036299 0.211053 0.436331
O O7 0.840347 0.137704 0.385131
O O8 0.259551 0.842664 0.247710
O O9 0.418923 0.533894 0.261219
O O10 0.240228 0.341461 0.263768
O O11 0.676562 0.449934 0.859976
O O12 0.722052 0.160189 0.992499
O O13 0.681053 0.656305 0.998504
O O14 0.834442 0.899659 0.115479
#
# Coordination Sequence:
#
# PCOD9136102 Si02
#       7
#     4   4   4   4   4   4   4
#     4  11  24  40  70  90 126 170 217 260 329 362
#     4   9  23  39  65  93 122 158 215 269 299 384
#     4  10  24  41  62  90 132 164 214 253 327 376
#     4  10  21  39  60  91 122 166 199 262 319 369
#     4  11  22  38  66  96 121 159 215 264 317 357
#     4  12  24  45  62  93 133 174 204 270 318 386
#     4  11  24  40  63  99 124 161 218 262 307 394
#
# _framework density 24.825524000000001
#
# number of rings (size 3 to 8) (size 9 to 14) (size 15 to 20)
#    0.857    0.571    0.000    6.000    8.000    0.000 
#    5.143    0.000    0.000    0.000    0.000    0.000 
#    0.000    0.000    0.000    0.000    0.000    0.000 
#
# Total GULP energy -78209.504988 kJ/mol
# GULP energy per Si atom -5586.393213 kJ/mol
# Density = 2.476902 g / cm^3
# Si number density = 24.825524 Si / 1000 Ang^3
#
#
#
# Elastic Constant Matrix: (Units=GPa)
#
#
# Indices 1 2 3 4 5 6 
#
# 1 85.1403 17.3489 1.5668 0.0000 -18.7897 0.0000
# 2 17.3489 162.5724 26.5490 0.0000 -29.5331 0.0000
# 3 1.5668 26.5490 59.5500 0.0000 -16.3703 0.0000
# 4 0.0000 0.0000 0.0000 38.4994 0.0000 -17.5431
# 5 -18.7897 -29.5331 -16.3703 0.0000 50.8746 0.0000
# 6 0.0000 0.0000 0.0000 -17.5431 0.0000 33.1715
#
#
#
# Elastic Compliance Matrix: (Units=1/GPa)
#
#
# Indices 1 2 3 4 5 6 
#
# 1 0.012921 -0.000724 0.001294 0.000000 0.004768 0.000000
# 2 -0.000724 0.007180 -0.002314 0.000000 0.003156 0.000000
# 3 0.001294 -0.002314 0.019256 0.000000 0.005330 0.000000
# 4 0.000000 0.000000 0.000000 0.034221 0.000000 0.018098
# 5 0.004768 0.003156 0.005330 0.000000 0.024964 0.000000
# 6 0.000000 0.000000 0.000000 0.018098 0.000000 0.039718
#
#
# Mechanical properties :
#
#
# Convention : Reuss Voigt Hill
#
# Bulk Modulus (GPa) = 27.88055 44.24355 36.06205
# Shear Modulus (GPa) = 32.52979 41.96230 37.24604
#
# Velocity S-wave (km/s) = 3.62378 4.11577 3.87759
# Velocity P-wave (km/s) = 5.36321 6.35976 5.88263
#
# Compressibility (1/GPa) = 0.03586730
#
# Stress axis : x y z
#
# Youngs Moduli (GPa) = 77.39127 139.28410 51.93281
#
# Poissons Ratio (x) = 0.10083 -0.06718
# Poissons Ratio (y) = 0.05603 0.12019
# Poissons Ratio (z) = -0.10011 0.32234
#
# Static dielectric constant tensor:
#      x y z
#    x 1.976270 0.000000 0.052880 
#    y 0.000000 2.019450 0.000000 
#    z 0.052880 0.000000 2.021880 
# 
# From -- ./inp_files/30286.got.cif
#   From: 2010.05.17/outbox.cif.g08.bks.cpg/sg9_16_cif.got.tgz:30286.got - 2010.06.03 20:04:27.
