data_PCOD9136184
_publ_section_title
;
Structure prediction by ZEFSAII (Michael W. Deem and Ramdas Pophale) SiO2 
 PCOD9136184
Probable space group: C C
;
_chemical_formula_sum "Si O2"
_cell_formula_units_Z 32
_cell_length_a 6.996408
_cell_length_b 22.336662
_cell_length_c 8.994884
_cell_angle_alpha 90.000000
_cell_angle_beta 107.113690
_cell_angle_gamma 90.000000
_cell_volume 1343.448066
_symmetry_space_group_name_H-M "C C"
_symmetry_group_IT_number 9
_symmetry_cell_setting 'monoclinic'
loop_
_space_group_symop_operation_xyz
x,y,z
x,-y,1/2+z
1/2+x,1/2+y,z
1/2+x,1/2-y,1/2+z
loop_
_atom_site_type_symbol
_atom_site_label
_atom_site_fract_x
_atom_site_fract_y
_atom_site_fract_z
Si Si1 0.205100 0.445088 0.982190
Si Si2 0.339933 0.767768 0.283863
Si Si3 0.142797 0.090629 0.238246
Si Si4 0.638007 0.547409 0.701606
Si Si5 0.191066 0.684931 0.019106
Si Si6 0.165293 0.432103 0.632760
Si Si7 0.902759 0.629676 0.569299
Si Si8 0.072489 0.147247 0.923129
O O1 0.125201 0.438152 0.797421
O O2 0.117682 0.390098 0.056874
O O3 0.445515 0.450465 0.046960
O O4 0.129022 0.506048 0.040837
O O5 0.271028 0.706126 0.197267
O O6 0.537010 0.765328 0.428317
O O7 0.175416 0.802818 0.343403
O O8 0.397924 0.808177 0.154088
O O9 0.248017 0.124046 0.397636
O O10 0.902032 0.084191 0.183399
O O11 0.197977 0.020345 0.249810
O O12 0.187915 0.127503 0.099134
O O13 0.820740 0.581320 0.667928
O O14 0.562429 0.585799 0.825715
O O15 0.074078 0.622866 0.020321
O O16 0.362038 0.672475 0.936942
#
# Coordination Sequence:
#
# PCOD9136184 Si02
#       8
#     4   4   4   4   4   4   4   4
#     4  11  24  39  65  99 139 178 218 289 347 422
#     4  11  28  47  72 100 137 181 247 285 346 410
#     4  10  21  39  66  98 137 180 216 280 348 418
#     4  10  21  40  62  99 137 181 218 270 349 420
#     4  11  27  47  73 100 137 188 237 295 345 416
#     4  10  25  42  67  98 142 176 231 280 361 415
#     4  11  24  39  67  97 133 178 230 279 346 409
#     4  10  24  43  70  99 142 174 233 288 342 412
#
# _framework density 23.819306999999998
#
# number of rings (size 3 to 8) (size 9 to 14) (size 15 to 20)
#    0.000    1.500    1.250    1.500   17.500    3.000 
#    0.000    0.000    0.000    0.000    0.000    0.000 
#    0.000    0.000    0.000    0.000    0.000    0.000 
#
# Total GULP energy -89544.672477 kJ/mol
# GULP energy per Si atom -5596.542030 kJ/mol
# Density = 2.376509 g / cm^3
# Si number density = 23.819307 Si / 1000 Ang^3
#
#
#
# Elastic Constant Matrix: (Units=GPa)
#
#
# Indices 1 2 3 4 5 6 
#
# 1 83.4405 -2.8729 16.4029 0.0000 -12.6545 0.0000
# 2 -2.8729 60.8661 14.9828 0.0000 -11.7189 0.0000
# 3 16.4029 14.9828 114.4814 0.0000 -7.4323 0.0000
# 4 0.0000 0.0000 0.0000 38.5337 0.0000 -0.0194
# 5 -12.6545 -11.7189 -7.4323 0.0000 40.2466 0.0000
# 6 0.0000 0.0000 0.0000 -0.0194 0.0000 16.7065
#
#
#
# Elastic Compliance Matrix: (Units=1/GPa)
#
#
# Indices 1 2 3 4 5 6 
#
# 1 0.013067 0.001902 -0.001841 0.000000 0.004323 0.000000
# 2 0.001902 0.018134 -0.002292 0.000000 0.005455 0.000000
# 3 -0.001841 -0.002292 0.009330 0.000000 0.000477 0.000000
# 4 0.000000 0.000000 0.000000 0.025951 0.000000 0.000030
# 5 0.004323 0.005455 0.000477 0.000000 0.027882 0.000000
# 6 0.000000 0.000000 0.000000 0.000030 0.000000 0.059857
#
#
# Mechanical properties :
#
#
# Convention : Reuss Voigt Hill
#
# Bulk Modulus (GPa) = 27.72343 35.09041 31.40692
# Shear Modulus (GPa) = 29.29024 34.44904 31.86964
#
# Velocity S-wave (km/s) = 3.51049 3.80711 3.66180
# Velocity P-wave (km/s) = 5.30054 5.83860 5.57607
#
# Compressibility (1/GPa) = 0.03607058
#
# Stress axis : x y z
#
# Youngs Moduli (GPa) = 76.52582 55.14604 107.18517
#
# Poissons Ratio (x) = -0.10490 0.19729
# Poissons Ratio (y) = -0.14556 0.24563
# Poissons Ratio (z) = 0.14085 0.12638
#
# Static dielectric constant tensor:
#      x y z
#    x 1.947200 0.000000 0.019710 
#    y 0.000000 1.897250 0.000000 
#    z 0.019710 0.000000 1.896290 
# 
# From -- ./inp_files/6077.got.cif
#   From: 2010.05.17/outbox.cif.g08.bks.cpg/sg9_4_cif.got.tgz:6077.got - 2010.06.03 20:04:27.
