data_PCOD9136561
_publ_section_title
;
Structure prediction by ZEFSAII (Michael W. Deem and Ramdas Pophale) SiO2 
 PCOD9136561
Probable space group: C C
;
_chemical_formula_sum "Si O2"
_cell_formula_units_Z 28
_cell_length_a 9.140162
_cell_length_b 12.038823
_cell_length_c 12.935633
_cell_angle_alpha 90.000000
_cell_angle_beta 129.123173
_cell_angle_gamma 90.000000
_cell_volume 1104.257852
_symmetry_space_group_name_H-M "C C"
_symmetry_group_IT_number 9
_symmetry_cell_setting 'monoclinic'
loop_
_space_group_symop_operation_xyz
x,y,z
x,-y,1/2+z
1/2+x,1/2+y,z
1/2+x,1/2-y,1/2+z
loop_
_atom_site_type_symbol
_atom_site_label
_atom_site_fract_x
_atom_site_fract_y
_atom_site_fract_z
Si Si1 0.765190 0.655736 0.698540
Si Si2 0.406160 0.952037 0.470968
Si Si3 0.872331 0.923478 0.423194
Si Si4 0.298170 0.611660 0.245059
Si Si5 0.805996 0.139522 0.481871
Si Si6 0.927974 0.683988 0.392342
Si Si7 0.780882 0.577697 0.127310
O O1 0.854618 0.610117 0.843749
O O2 0.847809 0.776414 0.704729
O O3 0.532130 0.659124 0.599671
O O4 0.822945 0.554574 0.648959
O O5 0.360120 0.080855 0.430448
O O6 0.617379 0.937045 0.607292
O O7 0.295117 0.893987 0.514329
O O8 0.824779 0.798912 0.371747
O O9 0.068507 0.911381 0.569321
O O10 0.905091 0.001720 0.335190
O O11 0.760476 0.005608 0.449347
O O12 0.266976 0.669747 0.344176
O O13 0.657540 0.185218 0.498399
O O14 0.896960 0.647689 0.260024
#
# Coordination Sequence:
#
# PCOD9136561 Si02
#       7
#     4   4   4   4   4   4   4
#     4  10  22  41  66  94 129 169 213 277 330 380
#     4  11  24  39  67  97 123 177 220 258 342 392
#     4   9  23  38  66  95 128 171 221 267 330 388
#     4  10  21  42  63  95 128 163 224 266 319 404
#     4   9  21  42  65 100 131 166 222 274 319 405
#     4  11  23  42  68  93 137 173 209 282 333 385
#     4  10  22  42  61  94 132 163 223 276 319 398
#
# _framework density 25.356397000000001
#
# number of rings (size 3 to 8) (size 9 to 14) (size 15 to 20)
#    0.857    1.143    1.429    0.857    6.000    1.143 
#    2.571    1.429    0.000    0.000    0.000    0.000 
#    0.000    0.000    0.000    0.000    0.000    0.000 
#
# Total GULP energy -77974.480380 kJ/mol
# GULP energy per Si atom -5569.605741 kJ/mol
# Density = 2.529868 g / cm^3
# Si number density = 25.356397 Si / 1000 Ang^3
#
#
#
# Elastic Constant Matrix: (Units=GPa)
#
#
# Indices 1 2 3 4 5 6 
#
# 1 28.3134 -0.1714 11.8217 0.0000 0.9865 0.0000
# 2 -0.1714 189.8866 2.4082 0.0000 7.2643 0.0000
# 3 11.8217 2.4082 119.1073 0.0000 15.3311 0.0000
# 4 0.0000 0.0000 0.0000 13.4838 0.0000 2.5562
# 5 0.9865 7.2643 15.3311 0.0000 25.2534 0.0000
# 6 0.0000 0.0000 0.0000 2.5562 0.0000 13.5272
#
#
#
# Elastic Compliance Matrix: (Units=1/GPa)
#
#
# Indices 1 2 3 4 5 6 
#
# 1 0.036863 0.000049 -0.003767 0.000000 0.000833 0.000000
# 2 0.000049 0.005326 0.000092 0.000000 -0.001590 0.000000
# 3 -0.003767 0.000092 0.009494 0.000000 -0.005643 0.000000
# 4 0.000000 0.000000 0.000000 0.076919 0.000000 -0.014535
# 5 0.000833 -0.001590 -0.005643 0.000000 0.043449 0.000000
# 6 0.000000 0.000000 0.000000 -0.014535 0.000000 0.076672
#
#
# Mechanical properties :
#
#
# Convention : Reuss Voigt Hill
#
# Bulk Modulus (GPa) = 22.50633 40.60270 31.55452
# Shear Modulus (GPa) = 18.46481 32.00278 25.23380
#
# Velocity S-wave (km/s) = 2.70147 3.55648 3.15805
# Velocity P-wave (km/s) = 4.31577 5.73693 5.07633
#
# Compressibility (1/GPa) = 0.04443194
#
# Stress axis : x y z
#
# Youngs Moduli (GPa) = 27.12739 187.75816 105.32769
#
# Poissons Ratio (x) = -0.00924 0.39676
# Poissons Ratio (y) = -0.00133 -0.00970
# Poissons Ratio (z) = 0.10219 -0.01729
#
# Static dielectric constant tensor:
#      x y z
#    x 2.055050 0.000000 0.004580 
#    y 0.000000 2.246130 0.000000 
#    z 0.004580 0.000000 1.951010 
# 
# From -- ./inp_files/24687.got.cif
#   From: 2010.05.17/outbox.cif.g08.bks.cpg/sg9_13_cif.got.tgz:24687.got - 2010.06.03 20:04:27.
