data_PCOD9136392
_publ_section_title
;
Structure prediction by ZEFSAII (Michael W. Deem and Ramdas Pophale) SiO2 
 PCOD9136392
Probable space group: C C
;
_chemical_formula_sum "Si O2"
_cell_formula_units_Z 32
_cell_length_a 15.486569
_cell_length_b 11.315516
_cell_length_c 12.680149
_cell_angle_alpha 90.000000
_cell_angle_beta 143.507681
_cell_angle_gamma 90.000000
_cell_volume 1321.486823
_symmetry_space_group_name_H-M "C C"
_symmetry_group_IT_number 9
_symmetry_cell_setting 'monoclinic'
loop_
_space_group_symop_operation_xyz
x,y,z
x,-y,1/2+z
1/2+x,1/2+y,z
1/2+x,1/2-y,1/2+z
loop_
_atom_site_type_symbol
_atom_site_label
_atom_site_fract_x
_atom_site_fract_y
_atom_site_fract_z
Si Si1 0.226420 0.246535 0.776880
Si Si2 0.222670 0.541055 0.135338
Si Si3 0.471028 0.811990 0.656292
Si Si4 0.500910 0.053910 0.584211
Si Si5 0.435667 0.334139 0.325706
Si Si6 0.059200 0.711338 0.813594
Si Si7 0.742258 0.618117 0.199838
Si Si8 0.755966 0.391765 0.093551
O O1 0.281913 0.371161 0.784478
O O2 0.059744 0.260423 0.643831
O O3 0.243100 0.153692 0.700814
O O4 0.306670 0.210447 0.961550
O O5 0.341194 0.450541 0.208879
O O6 0.088636 0.477383 0.064171
O O7 0.159592 0.627504 0.984849
O O8 0.500863 0.739102 0.790685
O O9 0.511367 0.949773 0.682289
O O10 0.569804 0.169408 0.704146
O O11 0.332699 0.068117 0.387863
O O12 0.569549 0.369681 0.531652
O O13 0.320956 0.242672 0.260849
O O14 0.895421 0.675698 0.683834
O O15 0.115043 0.842593 0.893676
O O16 0.771148 0.531446 0.126810
#
# Coordination Sequence:
#
# PCOD9136392 Si02
#       8
#     4   4   4   4   4   4   4   4
#     4  10  21  40  72 104 138 182 246 303 355 425
#     4  10  24  44  72 105 151 186 235 315 371 426
#     4  11  23  41  71 108 139 188 254 299 356 445
#     4  11  24  47  75 103 145 196 243 302 369 443
#     4  12  28  44  73 104 155 196 241 304 385 435
#     4  11  25  43  76 105 143 185 249 298 371 426
#     4  12  26  47  70 102 150 195 242 300 378 435
#     4  11  23  46  71 105 143 190 240 311 365 433
#
# _framework density 24.215150000000001
#
# number of rings (size 3 to 8) (size 9 to 14) (size 15 to 20)
#    0.000    1.000    2.500    3.750   10.500    2.000 
#    0.000    1.250    0.000    0.000    0.000    0.000 
#    0.000    0.000    0.000    0.000    0.000    0.000 
#
# Total GULP energy -89454.190429 kJ/mol
# GULP energy per Si atom -5590.886902 kJ/mol
# Density = 2.416003 g / cm^3
# Si number density = 24.215150 Si / 1000 Ang^3
#
#
#
# Elastic Constant Matrix: (Units=GPa)
#
#
# Indices 1 2 3 4 5 6 
#
# 1 57.8219 17.5635 5.5641 0.0000 3.3240 0.0000
# 2 17.5635 73.3468 33.6714 0.0000 -1.9558 0.0000
# 3 5.5641 33.6714 90.0166 0.0000 0.9434 0.0000
# 4 0.0000 0.0000 0.0000 37.4751 0.0000 -1.2242
# 5 3.3240 -1.9558 0.9434 0.0000 35.2352 0.0000
# 6 0.0000 0.0000 0.0000 -1.2242 0.0000 39.1523
#
#
#
# Elastic Compliance Matrix: (Units=1/GPa)
#
#
# Indices 1 2 3 4 5 6 
#
# 1 0.018829 -0.004877 0.000682 0.000000 -0.002065 0.000000
# 2 -0.004877 0.017765 -0.006361 0.000000 0.001616 0.000000
# 3 0.000682 -0.006361 0.013454 0.000000 -0.000778 0.000000
# 4 0.000000 0.000000 0.000000 0.026712 0.000000 0.000835
# 5 -0.002065 0.001616 -0.000778 0.000000 0.028686 0.000000
# 6 0.000000 0.000000 0.000000 0.000835 0.000000 0.025567
#
#
# Mechanical properties :
#
#
# Convention : Reuss Voigt Hill
#
# Bulk Modulus (GPa) = 34.55767 37.19812 35.87790
# Shear Modulus (GPa) = 30.90816 33.33161 32.11988
#
# Velocity S-wave (km/s) = 3.57655 3.71412 3.64598
# Velocity P-wave (km/s) = 5.59979 5.81272 5.70725
#
# Compressibility (1/GPa) = 0.02893714
#
# Stress axis : x y z
#
# Youngs Moduli (GPa) = 53.10970 56.29134 74.32593
#
# Poissons Ratio (x) = 0.27453 -0.05069
# Poissons Ratio (y) = 0.25901 0.47275
# Poissons Ratio (z) = -0.03622 0.35804
#
# Static dielectric constant tensor:
#      x y z
#    x 1.924230 0.000000 0.003100 
#    y 0.000000 1.997950 0.000000 
#    z 0.003100 0.000000 1.868940 
# 
# From -- ./inp_files/9321.got.cif
#   From: 2010.05.17/outbox.cif.g08.bks.cpg/sg9_5_cif.got.tgz:9321.got - 2010.06.03 20:04:27.
