data_PCOD9136310
_publ_section_title
;
Structure prediction by ZEFSAII (Michael W. Deem and Ramdas Pophale) SiO2 
 PCOD9136310
Probable space group: C C
;
_chemical_formula_sum "Si O2"
_cell_formula_units_Z 32
_cell_length_a 6.667916
_cell_length_b 17.427265
_cell_length_c 17.202304
_cell_angle_alpha 90.000000
_cell_angle_beta 53.146495
_cell_angle_gamma 90.000000
_cell_volume 1599.517969
_symmetry_space_group_name_H-M "C C"
_symmetry_group_IT_number 9
_symmetry_cell_setting 'monoclinic'
loop_
_space_group_symop_operation_xyz
x,y,z
x,-y,1/2+z
1/2+x,1/2+y,z
1/2+x,1/2-y,1/2+z
loop_
_atom_site_type_symbol
_atom_site_label
_atom_site_fract_x
_atom_site_fract_y
_atom_site_fract_z
Si Si1 0.435180 0.852854 0.101080
Si Si2 0.022750 0.522296 0.846253
Si Si3 0.280778 0.456469 0.930945
Si Si4 0.999653 0.939421 0.515421
Si Si5 0.763997 0.623830 0.328456
Si Si6 0.636278 0.202504 0.122706
Si Si7 0.458860 0.313897 0.042551
Si Si8 0.028379 0.052216 0.645238
O O1 0.281596 0.775321 0.124645
O O2 0.663572 0.831534 0.104584
O O3 0.238628 0.923311 0.159816
O O4 0.596722 0.885687 0.991098
O O5 0.141376 0.510447 0.903513
O O6 0.248988 0.554619 0.743121
O O7 0.934993 0.439540 0.832688
O O8 0.769330 0.571085 0.912196
O O9 0.542781 0.424246 0.837855
O O10 0.350797 0.498908 0.995728
O O11 0.833861 0.864388 0.560321
O O12 0.051467 0.975304 0.588834
O O13 0.612386 0.674970 0.426852
O O14 0.929522 0.671713 0.230648
O O15 0.512562 0.234003 0.072260
O O16 0.560309 0.381033 0.074415
#
# Coordination Sequence:
#
# PCOD9136310 Si02
#       8
#     4   4   4   4   4   4   4   4
#     4  10  21  42  65  85 124 178 205 256 330 378
#     4  11  21  38  65  98 127 165 218 267 318 387
#     4  10  21  40  66  87 126 175 209 252 332 386
#     4  11  22  41  63  99 129 159 216 281 311 384
#     4  10  21  41  66  89 127 172 214 259 327 391
#     4  11  24  41  64  99 128 163 214 273 325 377
#     4  10  22  46  62  88 134 171 211 265 320 400
#     4  11  20  39  69  87 127 171 215 259 321 389
#
# _framework density 20.006028000000001
#
# number of rings (size 3 to 8) (size 9 to 14) (size 15 to 20)
#    0.000    1.500    6.250    0.750    0.000    5.000 
#   15.750    0.000    0.000    0.000    0.000    0.000 
#    0.000    0.000    0.000    0.000    0.000    0.000 
#
# Total GULP energy -89191.659321 kJ/mol
# GULP energy per Si atom -5574.478708 kJ/mol
# Density = 1.996049 g / cm^3
# Si number density = 20.006028 Si / 1000 Ang^3
#
#
#
# Elastic Constant Matrix: (Units=GPa)
#
#
# Indices 1 2 3 4 5 6 
#
# 1 100.5975 35.9949 39.0798 0.0000 -30.7051 0.0000
# 2 35.9949 71.5346 35.8197 0.0000 -9.3156 0.0000
# 3 39.0798 35.8197 126.4467 0.0000 -26.9842 0.0000
# 4 0.0000 0.0000 0.0000 30.9534 0.0000 -11.1492
# 5 -30.7051 -9.3156 -26.9842 0.0000 28.3510 0.0000
# 6 0.0000 0.0000 0.0000 -11.1492 0.0000 34.6527
#
#
#
# Elastic Compliance Matrix: (Units=1/GPa)
#
#
# Indices 1 2 3 4 5 6 
#
# 1 0.017379 -0.006601 0.000066 0.000000 0.016716 0.000000
# 2 -0.006601 0.018830 -0.004391 0.000000 -0.005141 0.000000
# 3 0.000066 -0.004391 0.011092 0.000000 0.009186 0.000000
# 4 0.000000 0.000000 0.000000 0.036541 0.000000 0.011757
# 5 0.016716 -0.005141 0.009186 0.000000 0.060430 0.000000
# 6 0.000000 0.000000 0.000000 0.011757 0.000000 0.032640
#
#
# Mechanical properties :
#
#
# Convention : Reuss Voigt Hill
#
# Bulk Modulus (GPa) = 39.29445 57.81862 48.55653
# Shear Modulus (GPa) = 24.12560 31.30371 27.71465
#
# Velocity S-wave (km/s) = 3.47640 3.95994 3.72602
# Velocity P-wave (km/s) = 5.98312 7.06197 6.54482
#
# Compressibility (1/GPa) = 0.02544889
#
# Stress axis : x y z
#
# Youngs Moduli (GPa) = 57.54053 53.10654 90.15183
#
# Poissons Ratio (x) = 0.35056 -0.00595
# Poissons Ratio (y) = 0.37983 0.39588
# Poissons Ratio (z) = -0.00380 0.23320
#
# Static dielectric constant tensor:
#      x y z
#    x 1.785460 0.000000 -0.000580 
#    y 0.000000 1.701030 0.000000 
#    z -0.000580 0.000000 1.693380 
# 
# From -- ./inp_files/32234.got.cif
#   From: 2010.05.17/outbox.cif.g08.bks.cpg/sg9_17_cif.got.tgz:32234.got - 2010.06.03 20:04:27.
