data_PCOD9136896
_publ_section_title
;
Structure prediction by ZEFSAII (Michael W. Deem and Ramdas Pophale) SiO2 
 PCOD9136896
Probable space group: C C
;
_chemical_formula_sum "Si O2"
_cell_formula_units_Z 32
_cell_length_a 7.273814
_cell_length_b 12.469756
_cell_length_c 14.303233
_cell_angle_alpha 90.000000
_cell_angle_beta 78.397232
_cell_angle_gamma 90.000000
_cell_volume 1270.831165
_symmetry_space_group_name_H-M "C C"
_symmetry_group_IT_number 9
_symmetry_cell_setting 'monoclinic'
loop_
_space_group_symop_operation_xyz
x,y,z
x,-y,1/2+z
1/2+x,1/2+y,z
1/2+x,1/2-y,1/2+z
loop_
_atom_site_type_symbol
_atom_site_label
_atom_site_fract_x
_atom_site_fract_y
_atom_site_fract_z
Si Si1 0.761340 0.234390 0.990390
Si Si2 0.886151 0.885809 0.321499
Si Si3 0.268059 0.729941 0.199690
Si Si4 0.329690 0.965568 0.984586
Si Si5 0.338223 0.806232 0.499623
Si Si6 0.258591 0.965606 0.208454
Si Si7 0.818597 0.704074 0.216023
Si Si8 0.240641 0.603821 0.384853
O O1 0.919852 0.201184 0.900096
O O2 0.705476 0.359630 0.986795
O O3 0.564029 0.176854 0.989342
O O4 0.837431 0.214354 0.086801
O O5 0.743659 0.810904 0.275650
O O6 0.039028 0.936078 0.236283
O O7 0.833958 0.988807 0.387699
O O8 0.331300 0.847240 0.230371
O O9 0.301301 0.643572 0.275585
O O10 0.042181 0.722496 0.205442
O O11 0.523478 0.927398 0.919814
O O12 0.268809 0.083202 0.958744
O O13 0.341482 0.979287 0.096123
O O14 0.263475 0.793282 0.613267
O O15 0.295074 0.699130 0.448093
O O16 0.282073 0.081871 0.254262
#
# Coordination Sequence:
#
# PCOD9136896 Si02
#       8
#     4   4   4   4   4   4   4   4
#     4  10  21  45  70  90 138 183 216 273 338 392
#     4  11  23  39  65 100 134 173 227 268 331 401
#     4   9  21  41  66  94 130 176 218 273 331 390
#     4  10  21  45  68  97 132 176 221 273 337 397
#     4  10  23  45  68 100 132 173 225 276 329 401
#     4   9  20  41  66  94 127 172 225 264 328 404
#     4   9  20  43  68  89 130 177 217 265 338 395
#     4  12  25  41  65 106 137 166 233 278 326 402
#
# _framework density 25.18037
#
# number of rings (size 3 to 8) (size 9 to 14) (size 15 to 20)
#    0.000    2.000    1.250    2.250    1.750    3.000 
#   13.500    0.000    0.000    0.000    0.000    0.000 
#    0.000    0.000    0.000    0.000    0.000    0.000 
#
# Total GULP energy -89190.784592 kJ/mol
# GULP energy per Si atom -5574.424037 kJ/mol
# Density = 2.512306 g / cm^3
# Si number density = 25.180370 Si / 1000 Ang^3
#
#
#
# Elastic Constant Matrix: (Units=GPa)
#
#
# Indices 1 2 3 4 5 6 
#
# 1 48.9745 37.4862 5.0163 0.0000 9.7374 0.0000
# 2 37.4862 213.0172 58.9363 0.0000 6.8697 0.0000
# 3 5.0163 58.9363 131.0246 0.0000 3.9344 0.0000
# 4 0.0000 0.0000 0.0000 46.0433 0.0000 2.5999
# 5 9.7374 6.8697 3.9344 0.0000 18.3595 0.0000
# 6 0.0000 0.0000 0.0000 2.5999 0.0000 35.8221
#
#
#
# Elastic Compliance Matrix: (Units=1/GPa)
#
#
# Indices 1 2 3 4 5 6 
#
# 1 0.026302 -0.004626 0.001450 0.000000 -0.012530 0.000000
# 2 -0.004626 0.006217 -0.002640 0.000000 0.000693 0.000000
# 3 0.001450 -0.002640 0.008814 0.000000 -0.001670 0.000000
# 4 0.000000 0.000000 0.000000 0.021808 0.000000 -0.001583
# 5 -0.012530 0.000693 -0.001670 0.000000 0.061212 0.000000
# 6 0.000000 0.000000 0.000000 -0.001583 0.000000 0.028031
#
#
# Mechanical properties :
#
#
# Convention : Reuss Voigt Hill
#
# Bulk Modulus (GPa) = 33.66833 66.21044 49.93938
# Shear Modulus (GPa) = 28.74966 39.48350 34.11658
#
# Velocity S-wave (km/s) = 3.38264 3.96413 3.68487
# Velocity P-wave (km/s) = 5.35315 6.87779 6.16280
#
# Compressibility (1/GPa) = 0.02970150
#
# Stress axis : x y z
#
# Youngs Moduli (GPa) = 38.01979 160.86138 113.45226
#
# Poissons Ratio (x) = 0.74409 -0.16450
# Poissons Ratio (y) = 0.17587 0.29951
# Poissons Ratio (z) = -0.05513 0.42467
#
# Static dielectric constant tensor:
#      x y z
#    x 2.038350 0.000000 -0.042840 
#    y 0.000000 2.014660 0.000000 
#    z -0.042840 0.000000 2.099210 
# 
# From -- ./inp_files/22856.got.cif
#   From: 2010.05.17/outbox.cif.g08.bks.cpg/sg9_12_cif.got.tgz:22856.got - 2010.06.03 20:04:27.
