data_PCOD9136220
_publ_section_title
;
Structure prediction by ZEFSAII (Michael W. Deem and Ramdas Pophale) SiO2 
 PCOD9136220
Probable space group: C C
;
_chemical_formula_sum "Si O2"
_cell_formula_units_Z 32
_cell_length_a 9.681573
_cell_length_b 19.511182
_cell_length_c 15.192892
_cell_angle_alpha 90.000000
_cell_angle_beta 148.985826
_cell_angle_gamma 90.000000
_cell_volume 1478.727149
_symmetry_space_group_name_H-M "C C"
_symmetry_group_IT_number 9
_symmetry_cell_setting 'monoclinic'
loop_
_space_group_symop_operation_xyz
x,y,z
x,-y,1/2+z
1/2+x,1/2+y,z
1/2+x,1/2-y,1/2+z
loop_
_atom_site_type_symbol
_atom_site_label
_atom_site_fract_x
_atom_site_fract_y
_atom_site_fract_z
Si Si1 0.501580 0.424980 0.789250
Si Si2 0.455678 0.061860 0.278452
Si Si3 0.451923 0.962331 0.571200
Si Si4 0.702617 0.156516 0.821819
Si Si5 0.267829 0.210381 0.449415
Si Si6 0.083333 0.164708 0.861275
Si Si7 0.881192 0.960272 0.531487
Si Si8 0.124810 0.692275 0.469909
O O1 0.535078 0.345667 0.835100
O O2 0.451957 0.421847 0.658846
O O3 0.247591 0.463573 0.691898
O O4 0.770772 0.470001 0.954867
O O5 0.490022 0.053154 0.194299
O O6 0.483716 0.139322 0.326569
O O7 0.170897 0.028501 0.146713
O O8 0.707689 0.025560 0.461715
O O9 0.290152 0.895099 0.450472
O O10 0.467261 0.188923 0.635801
O O11 0.727010 0.208701 0.917917
O O12 0.931567 0.146821 0.871253
O O13 0.695446 0.083312 0.864222
O O14 0.407766 0.200431 0.430054
O O15 0.882188 0.171256 0.668665
O O16 0.187984 0.239916 0.947155
#
# Coordination Sequence:
#
# PCOD9136220 Si02
#       8
#     4   4   4   4   4   4   4   4
#     4  12  26  43  65  98 137 176 220 275 333 391
#     4  12  24  42  64  96 130 173 224 268 327 394
#     4  12  26  43  65  98 137 176 220 275 333 391
#     4  10  21  39  69  96 128 173 220 270 325 398
#     4  10  21  40  66  98 130 170 222 268 327 392
#     4  10  21  40  66  98 130 170 222 268 327 392
#     4  12  24  42  64  96 130 173 224 268 327 394
#     4  10  21  39  69  96 128 173 220 270 325 398
#
# _framework density 21.640234
#
# number of rings (size 3 to 8) (size 9 to 14) (size 15 to 20)
#    0.000    1.000    2.500    4.500    7.000    0.000 
#    0.000    6.250    0.000    0.000    0.000    0.000 
#    0.000    0.000    0.000    0.000    0.000    0.000 
#
# Total GULP energy -89252.083815 kJ/mol
# GULP energy per Si atom -5578.255238 kJ/mol
# Density = 2.159098 g / cm^3
# Si number density = 21.640234 Si / 1000 Ang^3
#
#
#
# Elastic Constant Matrix: (Units=GPa)
#
#
# Indices 1 2 3 4 5 6 
#
# 1 54.0239 -2.0006 17.9034 -0.0064 -1.3511 0.0040
# 2 -2.0006 55.2854 7.8941 0.0030 4.3551 -0.0024
# 3 17.9034 7.8941 67.9511 -0.0866 -4.1621 0.0490
# 4 -0.0064 0.0030 -0.0866 -187.3398 -0.0228 120.0503
# 5 -1.3511 4.3551 -4.1621 -0.0228 34.3626 0.0146
# 6 0.0040 -0.0024 0.0490 120.0503 0.0146 -42.6416
#
#
#
# Elastic Compliance Matrix: (Units=1/GPa)
#
#
# Indices 1 2 3 4 5 6 
#
# 1 0.020408 0.001538 -0.005560 0.000001 -0.000066 -0.000001
# 2 0.001538 0.018744 -0.002745 0.000002 -0.002648 0.000000
# 3 -0.005560 -0.002745 0.016631 -0.000006 0.002144 0.000003
# 4 0.000001 0.000002 -0.000006 0.006638 -0.000004 0.018689
# 5 -0.000066 -0.002648 0.002144 -0.000004 0.029694 0.000000
# 6 -0.000001 0.000000 0.000003 0.018689 0.000000 0.029164
#
#
# Mechanical properties :
#
#
# Convention : Reuss Voigt Hill
#
# Bulk Modulus (GPa) = 23.66880 24.98381 24.32631
# Shear Modulus (GPa) = 33.58015 -28.89287 2.34364
#
# Velocity S-wave (km/s) = 3.94349 -3.65793 1.04180
# Velocity P-wave (km/s) = 5.62992 2.50409 3.56550
#
# Compressibility (1/GPa) = 0.04224971
#
# Stress axis : x y z
#
# Youngs Moduli (GPa) = 49.00013 53.35013 60.12690
#
# Poissons Ratio (x) = -0.08203 0.33429
# Poissons Ratio (y) = -0.07534 0.16504
# Poissons Ratio (z) = 0.27243 0.14644
#
# Static dielectric constant tensor:
#      x y z
#    x 1.779940 -0.000070 0.021400 
#    y -0.000070 1.942710 -0.000020 
#    z 0.021400 -0.000020 1.819060 
# 
# From -- ./inp_files/23804.got.cif
#   From: 2010.05.17/outbox.cif.g08.bks.cpg/sg9_12_cif.got.tgz:23804.got - 2010.06.03 20:04:27.
