data_PCOD9136094
_publ_section_title
;
Structure prediction by ZEFSAII (Michael W. Deem and Ramdas Pophale) SiO2 
 PCOD9136094
Probable space group: C C
;
_chemical_formula_sum "Si O2"
_cell_formula_units_Z 32
_cell_length_a 14.858467
_cell_length_b 5.267933
_cell_length_c 16.772196
_cell_angle_alpha 90.000000
_cell_angle_beta 112.635672
_cell_angle_gamma 90.000000
_cell_volume 1211.691683
_symmetry_space_group_name_H-M "C C"
_symmetry_group_IT_number 9
_symmetry_cell_setting 'monoclinic'
loop_
_space_group_symop_operation_xyz
x,y,z
x,-y,1/2+z
1/2+x,1/2+y,z
1/2+x,1/2-y,1/2+z
loop_
_atom_site_type_symbol
_atom_site_label
_atom_site_fract_x
_atom_site_fract_y
_atom_site_fract_z
Si Si1 0.439880 0.173256 0.839100
Si Si2 0.743204 0.846155 0.639732
Si Si3 0.323047 0.109071 0.421979
Si Si4 0.695580 0.020766 0.786866
Si Si5 0.517507 0.692658 0.940022
Si Si6 0.494931 0.749294 0.182204
Si Si7 0.744205 0.659235 0.050748
Si Si8 0.548904 0.242794 0.151757
O O1 0.484504 0.415898 0.898878
O O2 0.441003 0.256025 0.747711
O O3 0.342119 0.071473 0.850429
O O4 0.508521 0.921468 0.871444
O O5 0.763904 0.974001 0.733173
O O6 0.769903 0.561568 0.623351
O O7 0.624199 0.818854 0.607206
O O8 0.774042 0.057512 0.586721
O O9 0.255744 0.351542 0.377490
O O10 0.432213 0.214180 0.470043
O O11 0.279410 0.943780 0.477576
O O12 0.622128 0.778460 0.754827
O O13 0.612057 0.225881 0.736812
O O14 0.626430 0.677127 0.007765
O O15 0.490860 0.498012 0.130570
O O16 0.473382 0.016780 0.135273
#
# Coordination Sequence:
#
# PCOD9136094 Si02
#       8
#     4   4   4   4   4   4   4   4
#     4  10  21  39  56  96 139 161 216 282 339 399
#     4   9  22  39  68  93 130 179 233 271 348 415
#     4  10  25  40  68 101 135 174 231 289 345 409
#     4   8  20  39  65  96 129 165 228 280 340 400
#     4  10  24  39  59  95 135 171 226 275 344 407
#     4   9  16  32  61  87 125 164 204 264 336 396
#     4  12  22  43  71  92 133 191 222 284 347 420
#     4   8  18  33  62  92 122 163 224 265 329 404
#
# _framework density 26.409355999999999
#
# number of rings (size 3 to 8) (size 9 to 14) (size 15 to 20)
#    2.250    0.000    0.000    3.750    1.750    1.000 
#    0.000    0.000   13.750    0.000    0.000    0.000 
#    0.000    0.000    0.000    0.000    0.000    0.000 
#
# Total GULP energy -89283.172422 kJ/mol
# GULP energy per Si atom -5580.198276 kJ/mol
# Density = 2.634925 g / cm^3
# Si number density = 26.409356 Si / 1000 Ang^3
#
#
#
# Elastic Constant Matrix: (Units=GPa)
#
#
# Indices 1 2 3 4 5 6 
#
# 1 137.4640 38.4487 33.3903 0.0000 -5.3707 0.0000
# 2 38.4487 155.2285 21.4085 0.0000 -21.4890 0.0000
# 3 33.3903 21.4085 71.5902 0.0000 -16.3177 0.0000
# 4 0.0000 0.0000 0.0000 37.7406 0.0000 -9.2172
# 5 -5.3707 -21.4890 -16.3177 0.0000 37.0459 0.0000
# 6 0.0000 0.0000 0.0000 -9.2172 0.0000 15.7477
#
#
#
# Elastic Compliance Matrix: (Units=1/GPa)
#
#
# Indices 1 2 3 4 5 6 
#
# 1 0.008657 -0.001822 -0.003832 0.000000 -0.001490 0.000000
# 2 -0.001822 0.007498 -0.000513 0.000000 0.003860 0.000000
# 3 -0.003832 -0.000513 0.017469 0.000000 0.006841 0.000000
# 4 0.000000 0.000000 0.000000 0.030916 0.000000 0.018095
# 5 -0.001490 0.003860 0.006841 0.000000 0.032030 0.000000
# 6 0.000000 0.000000 0.000000 0.018095 0.000000 0.074092
#
#
# Mechanical properties :
#
#
# Convention : Reuss Voigt Hill
#
# Bulk Modulus (GPa) = 46.97154 61.19751 54.08453
# Shear Modulus (GPa) = 26.30291 36.17588 31.23940
#
# Velocity S-wave (km/s) = 3.15932 3.70511 3.44305
# Velocity P-wave (km/s) = 5.57969 6.44413 6.02743
#
# Compressibility (1/GPa) = 0.02128949
#
# Stress axis : x y z
#
# Youngs Moduli (GPa) = 115.51452 133.36153 57.24561
#
# Poissons Ratio (x) = 0.24298 0.21939
# Poissons Ratio (y) = 0.21046 0.02936
# Poissons Ratio (z) = 0.44270 0.06840
#
# Static dielectric constant tensor:
#      x y z
#    x 2.122610 0.000000 0.073480 
#    y 0.000000 2.051900 0.000000 
#    z 0.073480 0.000000 2.151860 
# 
# From -- ./inp_files/30868.got.cif
#   From: 2010.05.17/outbox.cif.g08.bks.cpg/sg9_16_cif.got.tgz:30868.got - 2010.06.03 20:04:27.
