data_PCOD9136318
_publ_section_title
;
Structure prediction by ZEFSAII (Michael W. Deem and Ramdas Pophale) SiO2 
 PCOD9136318
Probable space group: C C
;
_chemical_formula_sum "Si O2"
_cell_formula_units_Z 32
_cell_length_a 19.477652
_cell_length_b 7.476486
_cell_length_c 11.434758
_cell_angle_alpha 90.000000
_cell_angle_beta 51.134275
_cell_angle_gamma 90.000000
_cell_volume 1296.539983
_symmetry_space_group_name_H-M "C C"
_symmetry_group_IT_number 9
_symmetry_cell_setting 'monoclinic'
loop_
_space_group_symop_operation_xyz
x,y,z
x,-y,1/2+z
1/2+x,1/2+y,z
1/2+x,1/2-y,1/2+z
loop_
_atom_site_type_symbol
_atom_site_label
_atom_site_fract_x
_atom_site_fract_y
_atom_site_fract_z
Si Si1 0.555520 0.590875 0.862740
Si Si2 0.826703 0.340177 0.467070
Si Si3 0.890991 0.740700 0.664344
Si Si4 0.313357 0.243277 0.494678
Si Si5 0.677003 0.276466 0.792825
Si Si6 0.965025 0.627164 0.174188
Si Si7 0.506259 0.768590 0.380544
Si Si8 0.143312 0.362026 0.586745
O O1 0.636191 0.477528 0.832341
O O2 0.509380 0.434953 0.833810
O O3 0.595788 0.737102 0.734390
O O4 0.484272 0.668202 0.030260
O O5 0.836891 0.219105 0.340754
O O6 0.783960 0.537242 0.495036
O O7 0.771254 0.261763 0.632685
O O8 0.927066 0.369794 0.404470
O O9 0.833258 0.756664 0.610304
O O10 0.912624 0.534418 0.670199
O O11 0.405460 0.241697 0.325691
O O12 0.239491 0.385890 0.540541
O O13 0.607738 0.166965 0.781808
O O14 0.675159 0.218625 0.927538
O O15 0.054906 0.542010 0.131093
O O16 0.987160 0.749061 0.039452
#
# Coordination Sequence:
#
# PCOD9136318 Si02
#       8
#     4   4   4   4   4   4   4   4
#     4  10  22  39  65  98 132 170 221 278 342 403
#     4  11  21  38  65  97 128 173 226 279 327 408
#     4  11  24  39  66  96 136 172 221 284 343 405
#     4  11  21  37  66  94 122 176 227 267 332 410
#     4   9  22  38  65  97 124 171 221 270 332 406
#     4  10  21  40  66  93 133 172 220 280 347 402
#     4   9  20  38  66  93 128 171 223 275 338 402
#     4  11  21  39  69  94 127 175 225 277 331 414
#
# _framework density 24.681073000000001
#
# number of rings (size 3 to 8) (size 9 to 14) (size 15 to 20)
#    0.750    1.000    3.750    0.750    3.500    0.000 
#    2.250    0.000   13.750    0.000    0.000    0.000 
#    0.000    0.000    0.000    0.000    0.000    0.000 
#
# Total GULP energy -89115.256468 kJ/mol
# GULP energy per Si atom -5569.703529 kJ/mol
# Density = 2.462490 g / cm^3
# Si number density = 24.681073 Si / 1000 Ang^3
#
#
#
# Elastic Constant Matrix: (Units=GPa)
#
#
# Indices 1 2 3 4 5 6 
#
# 1 136.8371 7.0687 43.0628 0.0000 1.6714 0.0000
# 2 7.0687 41.7434 6.5022 0.0000 -15.3204 0.0000
# 3 43.0628 6.5022 156.3570 0.0000 -18.6472 0.0000
# 4 0.0000 0.0000 0.0000 29.6085 0.0000 -8.0839
# 5 1.6714 -15.3204 -18.6472 0.0000 36.4427 0.0000
# 6 0.0000 0.0000 0.0000 -8.0839 0.0000 21.0184
#
#
#
# Elastic Compliance Matrix: (Units=1/GPa)
#
#
# Indices 1 2 3 4 5 6 
#
# 1 0.008215 -0.001902 -0.002475 0.000000 -0.002443 0.000000
# 2 -0.001902 0.028777 0.000831 0.000000 0.012610 0.000000
# 3 -0.002475 0.000831 0.007559 0.000000 0.004331 0.000000
# 4 0.000000 0.000000 0.000000 0.037737 0.000000 0.014514
# 5 -0.002443 0.012610 0.004331 0.000000 0.035070 0.000000
# 6 0.000000 0.000000 0.000000 0.014514 0.000000 0.053160
#
#
# Mechanical properties :
#
#
# Convention : Reuss Voigt Hill
#
# Bulk Modulus (GPa) = 26.69580 49.80055 38.24817
# Shear Modulus (GPa) = 26.30275 35.96752 31.13513
#
# Velocity S-wave (km/s) = 3.26806 3.82159 3.55561
# Velocity P-wave (km/s) = 5.00800 6.30033 5.69097
#
# Compressibility (1/GPa) = 0.03745908
#
# Stress axis : x y z
#
# Youngs Moduli (GPa) = 121.73093 34.75045 132.29073
#
# Poissons Ratio (x) = 0.06610 0.32738
# Poissons Ratio (y) = 0.23154 -0.10994
# Poissons Ratio (z) = 0.30125 -0.02888
#
# Static dielectric constant tensor:
#      x y z
#    x 2.000320 0.000000 -0.050250 
#    y 0.000000 2.064330 0.000000 
#    z -0.050250 0.000000 2.039840 
# 
# From -- ./inp_files/20008.got.cif
#   From: 2010.05.17/outbox.cif.g08.bks.cpg/sg9_11_cif.got.tgz:20008.got - 2010.06.03 20:04:27.
