data_PCOD9137423
_publ_section_title
;
Structure prediction by ZEFSAII (Michael W. Deem and Ramdas Pophale) SiO2 
 PCOD9137423
Probable space group: C C
;
_chemical_formula_sum "Si O2"
_cell_formula_units_Z 28
_cell_length_a 10.000222
_cell_length_b 15.762772
_cell_length_c 11.793441
_cell_angle_alpha 90.000000
_cell_angle_beta 141.845718
_cell_angle_gamma 90.000000
_cell_volume 1148.464088
_symmetry_space_group_name_H-M "C C"
_symmetry_group_IT_number 9
_symmetry_cell_setting 'monoclinic'
loop_
_space_group_symop_operation_xyz
x,y,z
x,-y,1/2+z
1/2+x,1/2+y,z
1/2+x,1/2-y,1/2+z
loop_
_atom_site_type_symbol
_atom_site_label
_atom_site_fract_x
_atom_site_fract_y
_atom_site_fract_z
Si Si1 0.742930 0.173181 0.786800
Si Si2 0.005612 0.373095 0.679709
Si Si3 0.392063 0.012133 0.776654
Si Si4 0.559310 0.696559 0.795512
Si Si5 0.961575 0.102399 0.518331
Si Si6 0.782447 0.632381 0.388451
Si Si7 0.349282 0.566182 0.077310
O O1 0.746653 0.273408 0.814305
O O2 0.497805 0.142099 0.606500
O O3 0.888968 0.158600 0.772050
O O4 0.843275 0.123090 0.959097
O O5 0.039296 0.298072 0.795732
O O6 0.946124 0.461244 0.698857
O O7 0.793434 0.345024 0.470636
O O8 0.251779 0.383760 0.800538
O O9 0.187068 0.071306 0.619965
O O10 0.334977 0.939687 0.830177
O O11 0.604472 0.062725 0.958723
O O12 0.506016 0.682049 0.628511
O O13 0.899098 0.029031 0.568152
O O14 0.550690 0.601887 0.282266
#
# Coordination Sequence:
#
# PCOD9137423 Si02
#       7
#     4   4   4   4   4   4   4
#     4  12  21  36  67  97 116 156 213 262 298 355
#     4  11  21  38  66  93 119 159 210 256 303 356
#     4  10  22  42  60  90 134 162 194 256 314 364
#     4  12  21  36  67  97 116 156 213 262 298 355
#     4  10  23  40  59  92 132 158 200 256 310 363
#     4  11  21  38  66  93 119 159 210 256 303 356
#     4  10  23  40  59  92 132 158 200 256 310 363
#
# _framework density 24.380388
#
# number of rings (size 3 to 8) (size 9 to 14) (size 15 to 20)
#    0.000    1.143    4.286    4.286    0.000    4.571 
#    0.000    8.571    0.000    0.000    0.000    0.000 
#    0.000    0.000    0.000    0.000    0.000    0.000 
#
# Total GULP energy -78267.696052 kJ/mol
# GULP energy per Si atom -5590.549718 kJ/mol
# Density = 2.432490 g / cm^3
# Si number density = 24.380388 Si / 1000 Ang^3
#
#
#
# Elastic Constant Matrix: (Units=GPa)
#
#
# Indices 1 2 3 4 5 6 
#
# 1 75.5006 33.5160 52.0939 -0.0001 31.4163 -0.0001
# 2 33.5160 79.2315 22.6856 0.0000 8.1521 0.0000
# 3 52.0939 22.6856 183.6037 -0.0001 35.3928 -0.0002
# 4 -0.0001 0.0000 -0.0001 45.4532 0.0000 16.4428
# 5 31.4163 8.1521 35.3928 0.0000 44.9779 -0.0001
# 6 -0.0001 0.0000 -0.0002 16.4428 -0.0001 19.1640
#
#
#
# Elastic Compliance Matrix: (Units=1/GPa)
#
#
# Indices 1 2 3 4 5 6 
#
# 1 0.024659 -0.008094 -0.003488 0.000000 -0.013012 0.000000
# 2 -0.008094 0.015805 -0.000229 0.000000 0.002969 0.000000
# 3 -0.003488 -0.000229 0.007057 0.000000 -0.003075 0.000000
# 4 0.000000 0.000000 0.000000 0.031903 0.000000 -0.027373
# 5 -0.013012 0.002969 -0.003075 0.000000 0.033204 0.000000
# 6 0.000000 0.000000 0.000000 -0.027373 0.000000 0.075667
#
#
# Mechanical properties :
#
#
# Convention : Reuss Voigt Hill
#
# Bulk Modulus (GPa) = 41.84011 61.65854 51.74933
# Shear Modulus (GPa) = 22.73946 37.25506 29.99726
#
# Velocity S-wave (km/s) = 3.05732 3.91330 3.51149
# Velocity P-wave (km/s) = 5.44624 6.76489 6.14106
#
# Compressibility (1/GPa) = 0.02390051
#
# Stress axis : x y z
#
# Youngs Moduli (GPa) = 40.55322 63.27137 141.69689
#
# Poissons Ratio (x) = 0.51209 0.49426
# Poissons Ratio (y) = 0.32822 0.03240
# Poissons Ratio (z) = 0.14146 0.01447
#
# Static dielectric constant tensor:
#      x y z
#    x 1.976990 0.000000 0.010220 
#    y 0.000000 1.899270 0.000000 
#    z 0.010220 0.000000 1.984040 
# 
# From -- ./inp_files/24886.got.cif
#   From: 2010.05.17/outbox.cif.g08.bks.cpg/sg9_13_cif.got.tgz:24886.got - 2010.06.03 20:04:27.
