data_PCOD9137899
_publ_section_title
;
Structure prediction by ZEFSAII (Michael W. Deem and Ramdas Pophale) SiO2 
 PCOD9137899
Probable space group: C C
;
_chemical_formula_sum "Si O2"
_cell_formula_units_Z 32
_cell_length_a 8.201379
_cell_length_b 23.029624
_cell_length_c 13.907277
_cell_angle_alpha 90.000000
_cell_angle_beta 146.505194
_cell_angle_gamma 90.000000
_cell_volume 1449.592202
_symmetry_space_group_name_H-M "C C"
_symmetry_group_IT_number 9
_symmetry_cell_setting 'monoclinic'
loop_
_space_group_symop_operation_xyz
x,y,z
x,-y,1/2+z
1/2+x,1/2+y,z
1/2+x,1/2-y,1/2+z
loop_
_atom_site_type_symbol
_atom_site_label
_atom_site_fract_x
_atom_site_fract_y
_atom_site_fract_z
Si Si1 0.769420 0.169487 0.540120
Si Si2 0.654730 0.893946 0.711461
Si Si3 0.849018 0.292365 0.663249
Si Si4 0.308855 0.969194 0.702450
Si Si5 0.903088 0.478982 0.447573
Si Si6 0.784825 0.928843 0.193304
Si Si7 0.362218 0.378068 0.435924
Si Si8 0.175093 0.098985 0.591151
O O1 0.886458 0.226202 0.651998
O O2 0.519072 0.191806 0.344606
O O3 0.677010 0.123727 0.575122
O O4 0.997311 0.133532 0.586211
O O5 0.493321 0.833156 0.651980
O O6 0.521907 0.936573 0.730984
O O7 0.573383 0.921890 0.569169
O O8 0.998820 0.886872 0.906383
O O9 0.514202 0.315197 0.512170
O O10 0.470597 0.991694 0.878257
O O11 0.051630 0.921824 0.595914
O O12 0.170277 0.029246 0.597457
O O13 0.557801 0.464301 0.281579
O O14 0.015369 0.527761 0.576440
O O15 0.913014 0.904988 0.355080
O O16 0.011938 0.381106 0.271509
#
# Coordination Sequence:
#
# PCOD9137899 Si02
#       8
#     4   4   4   4   4   4   4   4
#     4  11  24  45  73  94 132 182 231 278 345 402
#     4  10  23  42  61  95 134 180 218 278 346 395
#     4  10  22  45  69  93 129 178 231 280 334 405
#     4  11  21  38  63  95 139 175 219 278 335 412
#     4  12  24  37  63  95 137 175 228 267 343 410
#     4  12  24  41  62 102 136 182 223 275 342 411
#     4  11  24  41  68  98 139 176 227 281 345 394
#     4  11  22  39  65  98 130 172 221 277 342 397
#
# _framework density 22.075172999999999
#
# number of rings (size 3 to 8) (size 9 to 14) (size 15 to 20)
#    0.000    1.000    3.750    5.250    3.500    0.000 
#    0.000    5.000    0.000    0.000    0.000    0.000 
#    0.000    0.000    0.000    0.000    0.000    0.000 
#
# Total GULP energy -89398.563177 kJ/mol
# GULP energy per Si atom -5587.410199 kJ/mol
# Density = 2.202493 g / cm^3
# Si number density = 22.075173 Si / 1000 Ang^3
#
#
#
# Elastic Constant Matrix: (Units=GPa)
#
#
# Indices 1 2 3 4 5 6 
#
# 1 35.9851 19.4049 17.8669 0.0000 -2.7468 0.0000
# 2 19.4049 129.8828 21.0744 0.0000 4.6280 0.0000
# 3 17.8669 21.0744 108.1731 0.0000 5.2599 0.0000
# 4 0.0000 0.0000 0.0000 36.8432 0.0000 -9.1877
# 5 -2.7468 4.6280 5.2599 0.0000 32.4020 0.0000
# 6 0.0000 0.0000 0.0000 -9.1877 0.0000 29.1330
#
#
#
# Elastic Compliance Matrix: (Units=1/GPa)
#
#
# Indices 1 2 3 4 5 6 
#
# 1 0.032786 -0.004270 -0.004786 0.000000 0.004166 0.000000
# 2 -0.004270 0.008532 -0.000887 0.000000 -0.001437 0.000000
# 3 -0.004786 -0.000887 0.010303 0.000000 -0.001951 0.000000
# 4 0.000000 0.000000 0.000000 0.029459 0.000000 0.009290
# 5 0.004166 -0.001437 -0.001951 0.000000 0.031737 0.000000
# 6 0.000000 0.000000 0.000000 0.009290 0.000000 0.037255
#
#
# Mechanical properties :
#
#
# Convention : Reuss Voigt Hill
#
# Bulk Modulus (GPa) = 31.51128 43.41481 37.46304
# Shear Modulus (GPa) = 27.69505 34.05530 30.87518
#
# Velocity S-wave (km/s) = 3.54585 3.93198 3.74389
# Velocity P-wave (km/s) = 5.57401 6.35007 5.97466
#
# Compressibility (1/GPa) = 0.03173467
#
# Stress axis : x y z
#
# Youngs Moduli (GPa) = 30.50057 117.20076 97.06235
#
# Poissons Ratio (x) = 0.50048 0.46454
# Poissons Ratio (y) = 0.13025 0.08610
# Poissons Ratio (z) = 0.14597 0.10397
#
# Static dielectric constant tensor:
#      x y z
#    x 1.872060 0.000000 -0.007350 
#    y 0.000000 1.775000 0.000000 
#    z -0.007350 0.000000 1.871980 
# 
# From -- ./inp_files/10140.got.cif
#   From: 2010.05.17/outbox.cif.g08.bks.cpg/sg9_6_cif.got.tgz:10140.got - 2010.06.03 20:04:27.
