data_PCOD9137208
_publ_section_title
;
Structure prediction by ZEFSAII (Michael W. Deem and Ramdas Pophale) SiO2 
 PCOD9137208
Probable space group: C C
;
_chemical_formula_sum "Si O2"
_cell_formula_units_Z 32
_cell_length_a 25.269988
_cell_length_b 4.906083
_cell_length_c 11.417672
_cell_angle_alpha 90.000000
_cell_angle_beta 66.013071
_cell_angle_gamma 90.000000
_cell_volume 1293.277584
_symmetry_space_group_name_H-M "C C"
_symmetry_group_IT_number 9
_symmetry_cell_setting 'monoclinic'
loop_
_space_group_symop_operation_xyz
x,y,z
x,-y,1/2+z
1/2+x,1/2+y,z
1/2+x,1/2-y,1/2+z
loop_
_atom_site_type_symbol
_atom_site_label
_atom_site_fract_x
_atom_site_fract_y
_atom_site_fract_z
Si Si1 0.618910 0.860928 0.271450
Si Si2 0.898432 0.541053 0.460609
Si Si3 0.340866 0.530256 0.427319
Si Si4 0.745697 0.114035 0.701789
Si Si5 0.083357 0.413120 0.049772
Si Si6 0.804753 0.630998 0.739789
Si Si7 0.506188 0.416824 0.126848
Si Si8 0.990100 0.168441 0.387406
O O1 0.684164 0.756680 0.227701
O O2 0.611425 0.032651 0.398404
O O3 0.560690 0.679434 0.326501
O O4 0.616986 0.981696 0.140416
O O5 0.882905 0.220972 0.465933
O O6 0.858778 0.644778 0.601554
O O7 0.966699 0.484248 0.406523
O O8 0.870895 0.736503 0.385801
O O9 0.280734 0.543570 0.551648
O O10 0.330498 0.716871 0.326406
O O11 0.781581 0.324154 0.750804
O O12 0.749272 0.819694 0.758520
O O13 0.025800 0.602632 0.110706
O O14 0.064001 0.100337 0.068549
O O15 0.477938 0.521958 0.273118
O O16 0.474362 0.454025 0.030121
#
# Coordination Sequence:
#
# PCOD9137208 Si02
#       8
#     4   4   4   4   4   4   4   4
#     4  10  23  43  67 104 143 190 236 296 358 445
#     4  10  23  44  71 102 133 185 236 298 365 419
#     4  10  22  45  69  99 134 179 240 296 360 426
#     4  10  23  40  68 104 131 181 231 295 365 424
#     4  10  22  40  64  96 144 190 242 284 353 427
#     4  10  22  45  70  97 137 177 238 296 362 425
#     4  10  22  42  69  96 142 197 236 294 348 438
#     4  10  23  47  70 104 152 193 245 293 369 436
#
# _framework density 24.743335999999999
#
# number of rings (size 3 to 8) (size 9 to 14) (size 15 to 20)
#    0.000    2.000    0.000    1.500    1.750    8.000 
#   22.500    0.000    0.000    0.000    0.000    0.000 
#    0.000    0.000    0.000    0.000    0.000    0.000 
#
# Total GULP energy -89109.806273 kJ/mol
# GULP energy per Si atom -5569.362892 kJ/mol
# Density = 2.468702 g / cm^3
# Si number density = 24.743336 Si / 1000 Ang^3
#
#
#
# Elastic Constant Matrix: (Units=GPa)
#
#
# Indices 1 2 3 4 5 6 
#
# 1 103.5906 32.7858 63.1625 0.0000 5.5083 0.0000
# 2 32.7858 105.8370 18.6825 0.0000 2.5773 0.0000
# 3 63.1625 18.6825 101.0869 0.0000 42.4855 0.0000
# 4 0.0000 0.0000 0.0000 30.0473 0.0000 5.3518
# 5 5.5083 2.5773 42.4855 0.0000 46.0131 0.0000
# 6 0.0000 0.0000 0.0000 5.3518 0.0000 31.2707
#
#
#
# Elastic Compliance Matrix: (Units=1/GPa)
#
#
# Indices 1 2 3 4 5 6 
#
# 1 0.021979 -0.003722 -0.019654 0.000000 0.015725 0.000000
# 2 -0.003722 0.010493 0.000729 0.000000 -0.000815 0.000000
# 3 -0.019654 0.000729 0.034427 0.000000 -0.029475 0.000000
# 4 0.000000 0.000000 0.000000 0.034327 0.000000 -0.005875
# 5 0.015725 -0.000815 -0.029475 0.000000 0.047112 0.000000
# 6 0.000000 0.000000 0.000000 -0.005875 0.000000 0.032984
#
#
# Mechanical properties :
#
#
# Convention : Reuss Voigt Hill
#
# Bulk Modulus (GPa) = 46.28840 59.97513 53.13177
# Shear Modulus (GPa) = 21.38419 34.52512 27.95466
#
# Velocity S-wave (km/s) = 2.94299 3.73946 3.36487
# Velocity P-wave (km/s) = 5.50420 6.55258 6.05114
#
# Compressibility (1/GPa) = 0.02160368
#
# Stress axis : x y z
#
# Youngs Moduli (GPa) = 45.49763 95.30484 29.04736
#
# Poissons Ratio (x) = 0.35473 0.57091
# Poissons Ratio (y) = 0.16935 -0.02118
# Poissons Ratio (z) = 0.89423 -0.06950
#
# Static dielectric constant tensor:
#      x y z
#    x 2.167490 0.000000 -0.014860 
#    y 0.000000 1.986650 0.000000 
#    z -0.014860 0.000000 2.046550 
# 
# From -- ./inp_files/20565.got.cif
#   From: 2010.05.17/outbox.cif.g08.bks.cpg/sg9_11_cif.got.tgz:20565.got - 2010.06.03 20:04:27.
