data_PCOD9137487
_publ_section_title
;
Structure prediction by ZEFSAII (Michael W. Deem and Ramdas Pophale) SiO2 
 PCOD9137487
Probable space group: C C
;
_chemical_formula_sum "Si O2"
_cell_formula_units_Z 32
_cell_length_a 9.226129
_cell_length_b 10.938283
_cell_length_c 15.031016
_cell_angle_alpha 90.000000
_cell_angle_beta 70.267269
_cell_angle_gamma 90.000000
_cell_volume 1427.824536
_symmetry_space_group_name_H-M "C C"
_symmetry_group_IT_number 9
_symmetry_cell_setting 'monoclinic'
loop_
_space_group_symop_operation_xyz
x,y,z
x,-y,1/2+z
1/2+x,1/2+y,z
1/2+x,1/2-y,1/2+z
loop_
_atom_site_type_symbol
_atom_site_label
_atom_site_fract_x
_atom_site_fract_y
_atom_site_fract_z
Si Si1 0.288540 0.897903 0.204150
Si Si2 0.419685 0.083073 0.494356
Si Si3 0.986139 0.997533 0.317275
Si Si4 0.314435 0.291604 0.244146
Si Si5 0.538636 0.154962 0.065208
Si Si6 0.153797 0.871294 0.917917
Si Si7 0.122994 0.493238 0.188105
Si Si8 0.203211 0.334782 0.833675
O O1 0.448232 0.949987 0.208536
O O2 0.229516 0.795618 0.284050
O O3 0.332181 0.855227 0.096013
O O4 0.144492 0.990287 0.227568
O O5 0.306437 0.080335 0.434234
O O6 0.577272 0.153126 0.437488
O O7 0.457595 0.945485 0.518931
O O8 0.867358 0.107172 0.324466
O O9 0.044436 0.020159 0.405859
O O10 0.894906 0.876963 0.302984
O O11 0.434204 0.209573 0.165613
O O12 0.198612 0.205998 0.321436
O O13 0.229921 0.378981 0.190617
O O14 0.664537 0.072445 0.091817
O O15 0.585237 0.271126 0.998421
O O16 0.135665 0.579295 0.270426
#
# Coordination Sequence:
#
# PCOD9137487 Si02
#       8
#     4   4   4   4   4   4   4   4
#     4  11  23  43  67  95 134 180 223 277 337 398
#     4  11  24  42  68 100 135 179 229 274 334 409
#     4  11  24  41  65  96 129 170 221 269 330 400
#     4  11  24  43  66  93 130 172 217 277 333 390
#     4  11  24  43  67  95 133 175 222 282 336 392
#     4  12  24  41  65  96 131 172 217 272 335 394
#     4  10  22  42  67  94 129 175 225 273 332 400
#     4  11  23  43  67  97 135 175 222 280 337 395
#
# _framework density 22.411719000000002
#
# number of rings (size 3 to 8) (size 9 to 14) (size 15 to 20)
#    0.000    1.000    0.000    8.250    0.000    4.000 
#    0.000    8.750    0.000    0.000    0.000    0.000 
#    0.000    0.000    0.000    0.000    0.000    0.000 
#
# Total GULP energy -89410.311942 kJ/mol
# GULP energy per Si atom -5588.144496 kJ/mol
# Density = 2.236071 g / cm^3
# Si number density = 22.411719 Si / 1000 Ang^3
#
#
#
# Elastic Constant Matrix: (Units=GPa)
#
#
# Indices 1 2 3 4 5 6 
#
# 1 137.4020 46.2165 35.3446 0.0000 7.0262 0.0000
# 2 46.2165 96.2490 45.9212 0.0000 7.5098 0.0000
# 3 35.3446 45.9212 97.1331 0.0000 -9.2123 0.0000
# 4 0.0000 0.0000 0.0000 35.1223 0.0000 9.7859
# 5 7.0262 7.5098 -9.2123 0.0000 25.9202 0.0000
# 6 0.0000 0.0000 0.0000 9.7859 0.0000 29.4832
#
#
#
# Elastic Compliance Matrix: (Units=1/GPa)
#
#
# Indices 1 2 3 4 5 6 
#
# 1 0.008971 -0.003201 -0.001960 0.000000 -0.002201 0.000000
# 2 -0.003201 0.015652 -0.006812 0.000000 -0.006088 0.000000
# 3 -0.001960 -0.006812 0.014971 0.000000 0.007826 0.000000
# 4 0.000000 0.000000 0.000000 0.031373 0.000000 -0.010413
# 5 -0.002201 -0.006088 0.007826 0.000000 0.043722 0.000000
# 6 0.000000 0.000000 0.000000 -0.010413 0.000000 0.037374
#
#
# Mechanical properties :
#
#
# Convention : Reuss Voigt Hill
#
# Bulk Modulus (GPa) = 63.90601 65.08319 64.49460
# Shear Modulus (GPa) = 27.58979 31.65859 29.62419
#
# Velocity S-wave (km/s) = 3.51243 3.76252 3.63962
# Velocity P-wave (km/s) = 6.71014 6.92664 6.81925
#
# Compressibility (1/GPa) = 0.01564798
#
# Stress axis : x y z
#
# Youngs Moduli (GPa) = 111.46649 63.88930 66.79480
#
# Poissons Ratio (x) = 0.20451 0.13091
# Poissons Ratio (y) = 0.35680 0.45503
# Poissons Ratio (z) = 0.21846 0.43524
#
# Static dielectric constant tensor:
#      x y z
#    x 1.857090 0.000000 0.003420 
#    y 0.000000 1.852860 0.000000 
#    z 0.003420 0.000000 1.837180 
# 
# From -- ./inp_files/22693.got.cif
#   From: 2010.05.17/outbox.cif.g08.bks.cpg/sg9_12_cif.got.tgz:22693.got - 2010.06.03 20:04:27.
