data_PCOD9137740
_publ_section_title
;
Structure prediction by ZEFSAII (Michael W. Deem and Ramdas Pophale) SiO2 
 PCOD9137740
Probable space group: C C
;
_chemical_formula_sum "Si O2"
_cell_formula_units_Z 24
_cell_length_a 12.090538
_cell_length_b 7.032685
_cell_length_c 22.215784
_cell_angle_alpha 90.000000
_cell_angle_beta 146.819513
_cell_angle_gamma 90.000000
_cell_volume 1033.800170
_symmetry_space_group_name_H-M "C C"
_symmetry_group_IT_number 9
_symmetry_cell_setting 'monoclinic'
loop_
_space_group_symop_operation_xyz
x,y,z
x,-y,1/2+z
1/2+x,1/2+y,z
1/2+x,1/2-y,1/2+z
loop_
_atom_site_type_symbol
_atom_site_label
_atom_site_fract_x
_atom_site_fract_y
_atom_site_fract_z
Si Si1 0.928590 0.283090 0.974020
Si Si2 0.487002 0.581406 0.296964
Si Si3 0.311015 0.552024 0.600412
Si Si4 0.556029 0.231097 0.666437
Si Si5 0.209734 0.134624 0.734229
Si Si6 0.861891 0.042135 0.365842
O O1 0.697753 0.347514 0.867258
O O2 0.932819 0.059333 0.958250
O O3 0.001689 0.323888 0.074414
O O4 0.083639 0.381769 0.999008
O O5 0.396939 0.436925 0.207622
O O6 0.326860 0.754783 0.234897
O O7 0.507660 0.505934 0.374615
O O8 0.357290 0.332968 0.603582
O O9 0.467093 0.665384 0.628789
O O10 0.715751 0.407542 0.735643
O O11 0.656845 0.064944 0.750284
O O12 0.310066 0.235787 0.838460
#
# Coordination Sequence:
#
# PCOD9137740 Si02
#       6
#     4   4   4   4   4   4
#     4  12  22  40  72 100 132 190 216 272 348 388
#     4  10  22  44  66  96 136 172 223 281 322 402
#     4  10  22  44  66  96 136 172 223 281 322 402
#     4  10  22  44  67  94 136 174 226 275 325 401
#     4   8  22  44  60  98 126 172 214 276 326 388
#     4  10  22  44  67  94 136 174 226 275 325 401
#
# _framework density 23.215319000000001
#
# number of rings (size 3 to 8) (size 9 to 14) (size 15 to 20)
#    2.000    0.000    3.333    0.000    0.000    6.667 
#    6.000    1.667    0.000    0.000    0.000    0.000 
#    0.000    0.000    0.000    0.000    0.000    0.000 
#
# Total GULP energy -66803.140047 kJ/mol
# GULP energy per Si atom -5566.928337 kJ/mol
# Density = 2.316248 g / cm^3
# Si number density = 23.215319 Si / 1000 Ang^3
#
#
#
# Elastic Constant Matrix: (Units=GPa)
#
#
# Indices 1 2 3 4 5 6 
#
# 1 92.7847 -0.4233 41.1491 0.0000 38.8534 -0.0001
# 2 -0.4233 59.6969 19.1769 0.0000 18.7318 -0.0002
# 3 41.1491 19.1769 70.7778 0.0001 26.9223 -0.0002
# 4 0.0000 0.0000 0.0001 23.5918 0.0000 -2.6852
# 5 38.8534 18.7318 26.9223 0.0000 47.4201 0.0000
# 6 -0.0001 -0.0002 -0.0002 -2.6852 0.0000 36.8821
#
#
#
# Elastic Compliance Matrix: (Units=1/GPa)
#
#
# Indices 1 2 3 4 5 6 
#
# 1 0.021045 0.007723 -0.008429 0.000000 -0.015509 0.000000
# 2 0.007723 0.022449 -0.006112 0.000000 -0.011725 0.000000
# 3 -0.008429 -0.006112 0.021861 0.000000 -0.003091 0.000000
# 4 0.000000 0.000000 0.000000 0.042742 0.000000 0.003112
# 5 -0.015509 -0.011725 -0.003091 0.000000 0.040182 0.000000
# 6 0.000000 0.000000 0.000000 0.003112 0.000000 0.027340
#
#
# Mechanical properties :
#
#
# Convention : Reuss Voigt Hill
#
# Bulk Modulus (GPa) = 19.33529 38.11832 28.72681
# Shear Modulus (GPa) = 24.21378 32.46924 28.34151
#
# Velocity S-wave (km/s) = 3.23307 3.74386 3.49780
# Velocity P-wave (km/s) = 4.72057 5.92822 5.35852
#
# Compressibility (1/GPa) = 0.05171889
#
# Stress axis : x y z
#
# Youngs Moduli (GPa) = 47.51672 44.54572 45.74394
#
# Poissons Ratio (x) = -0.34404 0.38556
# Poissons Ratio (y) = -0.36698 0.27961
# Poissons Ratio (z) = 0.40051 0.27229
#
# Static dielectric constant tensor:
#      x y z
#    x 1.907480 0.000000 0.005380 
#    y 0.000000 1.894120 0.000000 
#    z 0.005380 0.000000 1.877320 
# 
# From -- ./inp_files/35342.got.cif
#   From: 2010.05.17/outbox.cif.g08.bks.cpg/sg9_18_cif.got.tgz:35342.got - 2010.06.03 20:04:27.
