data_PCOD9137121
_publ_section_title
;
Structure prediction by ZEFSAII (Michael W. Deem and Ramdas Pophale) SiO2 
 PCOD9137121
Probable space group: C C
;
_chemical_formula_sum "Si O2"
_cell_formula_units_Z 28
_cell_length_a 17.436730
_cell_length_b 8.323823
_cell_length_c 8.972375
_cell_angle_alpha 90.000000
_cell_angle_beta 121.938632
_cell_angle_gamma 90.000000
_cell_volume 1105.111500
_symmetry_space_group_name_H-M "C C"
_symmetry_group_IT_number 9
_symmetry_cell_setting 'monoclinic'
loop_
_space_group_symop_operation_xyz
x,y,z
x,-y,1/2+z
1/2+x,1/2+y,z
1/2+x,1/2-y,1/2+z
loop_
_atom_site_type_symbol
_atom_site_label
_atom_site_fract_x
_atom_site_fract_y
_atom_site_fract_z
Si Si1 0.750000 0.329608 0.894840
Si Si2 0.075715 0.478956 0.876776
Si Si3 0.543506 0.667465 0.665808
Si Si4 0.455286 0.474509 0.343558
Si Si5 0.246779 0.842294 0.249210
Si Si6 0.280373 0.477035 0.964861
Si Si7 0.550959 0.218720 0.631538
O O1 0.787410 0.491736 0.857996
O O2 0.646437 0.310459 0.732874
O O3 0.789665 0.153196 0.900489
O O4 0.753623 0.344927 0.077908
O O5 0.031697 0.333854 0.739270
O O6 0.182236 0.481120 0.944627
O O7 0.033891 0.643991 0.775300
O O8 0.065646 0.434341 0.037579
O O9 0.472886 0.627220 0.464754
O O10 0.528979 0.540664 0.786114
O O11 0.642004 0.659690 0.694543
O O12 0.477825 0.328604 0.478454
O O13 0.360686 0.462726 0.164935
O O14 0.281924 0.676796 0.358426
#
# Coordination Sequence:
#
# PCOD9137121 Si02
#       7
#     4   4   4   4   4   4   4
#     4  11  25  41  74 101 134 185 236 282 340 410
#     4   9  22  39  65  94 130 174 233 271 327 417
#     4  10  22  39  65  90 130 173 221 275 332 408
#     4  11  23  41  64  97 136 168 221 283 348 398
#     4  11  24  46  70 102 136 184 239 281 334 424
#     4  10  26  42  70 101 142 177 225 291 351 403
#     4  10  22  40  68  97 130 179 233 277 342 406
#
# _framework density 25.33681
#
# number of rings (size 3 to 8) (size 9 to 14) (size 15 to 20)
#    0.000    1.714    1.429    0.857   18.000    0.000 
#    2.571    0.000    0.000    0.000    0.000    0.000 
#    0.000    0.000    0.000    0.000    0.000    0.000 
#
# Total GULP energy -78423.949365 kJ/mol
# GULP energy per Si atom -5601.710669 kJ/mol
# Density = 2.527914 g / cm^3
# Si number density = 25.336810 Si / 1000 Ang^3
#
#
#
# Elastic Constant Matrix: (Units=GPa)
#
#
# Indices 1 2 3 4 5 6 
#
# 1 78.5995 29.5413 47.0472 0.0000 -3.5301 0.0000
# 2 29.5413 175.7842 90.6976 0.0000 -7.1289 0.0000
# 3 47.0472 90.6976 169.9306 0.0000 11.7513 0.0000
# 4 0.0000 0.0000 0.0000 70.4353 0.0000 -13.8192
# 5 -3.5301 -7.1289 11.7513 0.0000 41.4343 0.0000
# 6 0.0000 0.0000 0.0000 -13.8192 0.0000 6.7354
#
#
#
# Elastic Compliance Matrix: (Units=1/GPa)
#
#
# Indices 1 2 3 4 5 6 
#
# 1 0.015527 -0.000277 -0.004324 0.000000 0.002502 0.000000
# 2 -0.000277 0.008138 -0.004449 0.000000 0.002638 0.000000
# 3 -0.004324 -0.004449 0.009726 0.000000 -0.003892 0.000000
# 4 0.000000 0.000000 0.000000 0.023763 0.000000 0.048755
# 5 0.002502 0.002638 -0.003892 0.000000 0.025906 0.000000
# 6 0.000000 0.000000 0.000000 0.048755 0.000000 0.248500
#
#
# Mechanical properties :
#
#
# Convention : Reuss Voigt Hill
#
# Bulk Modulus (GPa) = 65.39981 84.32072 74.86026
# Shear Modulus (GPa) = 14.09415 40.85622 27.47519
#
# Velocity S-wave (km/s) = 2.36110 4.01998 3.29659
# Velocity P-wave (km/s) = 5.77072 7.40940 6.64080
#
# Compressibility (1/GPa) = 0.01529056
#
# Stress axis : x y z
#
# Youngs Moduli (GPa) = 64.40201 122.88040 102.81875
#
# Poissons Ratio (x) = 0.03403 0.44460
# Poissons Ratio (y) = 0.01783 0.45747
# Poissons Ratio (z) = 0.27848 0.54673
#
# Static dielectric constant tensor:
#      x y z
#    x 2.000950 0.000000 -0.014720 
#    y 0.000000 2.060140 0.000000 
#    z -0.014720 0.000000 1.930140 
# 
# From -- ./inp_files/11400.got.cif
#   From: 2010.05.17/outbox.cif.g08.bks.cpg/sg9_6_cif.got.tgz:11400.got - 2010.06.03 20:04:27.
