data_PCOD9137120
_publ_section_title
;
Structure prediction by ZEFSAII (Michael W. Deem and Ramdas Pophale) SiO2 
 PCOD9137120
Probable space group: C C
;
_chemical_formula_sum "Si O2"
_cell_formula_units_Z 20
_cell_length_a 15.289730
_cell_length_b 7.578621
_cell_length_c 13.720583
_cell_angle_alpha 90.000000
_cell_angle_beta 28.373901
_cell_angle_gamma 90.000000
_cell_volume 755.545198
_symmetry_space_group_name_H-M "C C"
_symmetry_group_IT_number 9
_symmetry_cell_setting 'monoclinic'
loop_
_space_group_symop_operation_xyz
x,y,z
x,-y,1/2+z
1/2+x,1/2+y,z
1/2+x,1/2-y,1/2+z
loop_
_atom_site_type_symbol
_atom_site_label
_atom_site_fract_x
_atom_site_fract_y
_atom_site_fract_z
Si Si1 0.125000 0.378841 0.645560
Si Si2 0.798535 0.571652 0.849193
Si Si3 0.516939 0.981887 0.961015
Si Si4 0.143296 0.854050 0.835111
Si Si5 0.518801 0.519569 0.259209
O O1 0.107109 0.396517 0.780112
O O2 0.311978 0.474910 0.429607
O O3 0.118840 0.168071 0.644960
O O4 0.953122 0.463612 0.757648
O O5 0.651815 0.464780 0.925579
O O6 0.931625 0.641627 0.629557
O O7 0.655366 0.653316 0.067561
O O8 0.637860 0.150587 0.873681
O O9 0.338362 0.088703 0.098382
O O10 0.010748 0.917849 0.879167
#
# Coordination Sequence:
#
# PCOD9137120 Si02
#       5
#     4   4   4   4   4
#     4  12  23  40  67  92 125 163 207 255 307 364
#     4  10  22  42  64  94 118 168 206 258 286 394
#     4  10  22  39  65  90 128 157 206 252 310 358
#     4  10  22  39  65  90 128 157 206 252 310 358
#     4  12  23  40  67  92 125 163 207 255 307 364
#
# _framework density 26.470952
#
# number of rings (size 3 to 8) (size 9 to 14) (size 15 to 20)
#    1.200    0.000    4.000    2.400    0.000    1.600 
#    0.000    2.000    0.000    0.000    0.000    0.000 
#    0.000    0.000    0.000    0.000    0.000    0.000 
#
# Total GULP energy -55681.751651 kJ/mol
# GULP energy per Si atom -5568.175165 kJ/mol
# Density = 2.641070 g / cm^3
# Si number density = 26.470952 Si / 1000 Ang^3
#
#
#
# Elastic Constant Matrix: (Units=GPa)
#
#
# Indices 1 2 3 4 5 6 
#
# 1 118.7623 27.1218 42.6813 -0.0001 11.9634 0.0000
# 2 27.1218 75.3078 20.9966 -0.0007 -9.7427 0.0003
# 3 42.6813 20.9966 162.9692 -0.0001 -5.8323 0.0001
# 4 -0.0001 -0.0007 -0.0001 -2.8708 0.0000 15.9160
# 5 11.9634 -9.7427 -5.8323 0.0000 46.6735 0.0000
# 6 0.0000 0.0003 0.0001 15.9160 0.0000 32.5046
#
#
#
# Elastic Compliance Matrix: (Units=1/GPa)
#
#
# Indices 1 2 3 4 5 6 
#
# 1 0.010484 -0.003585 -0.002418 0.000000 -0.003738 0.000000
# 2 -0.003585 0.015338 -0.000894 -0.000001 0.004009 0.000000
# 3 -0.002418 -0.000894 0.006931 0.000000 0.001299 0.000000
# 4 0.000000 -0.000001 0.000000 -0.093772 0.000000 0.045916
# 5 -0.003738 0.004009 0.001299 0.000000 0.023383 0.000000
# 6 0.000000 0.000000 0.000000 0.045916 0.000000 0.008282
#
#
# Mechanical properties :
#
#
# Convention : Reuss Voigt Hill
#
# Bulk Modulus (GPa) = 52.74309 59.84875 56.29592
# Shear Modulus (GPa) = -541.09270 33.01077 -254.04097
#
# Velocity S-wave (km/s) = -14.31271 3.53520 -9.80704
# Velocity P-wave (km/s) = 15.91132 6.27071 10.34042
#
# Compressibility (1/GPa) = 0.01895983
#
# Stress axis : x y z
#
# Youngs Moduli (GPa) = 95.37993 65.19789 144.28059
#
# Poissons Ratio (x) = 0.23376 0.34882
# Poissons Ratio (y) = 0.34198 0.12893
# Poissons Ratio (z) = 0.23060 0.05826
#
# Static dielectric constant tensor:
#      x y z
#    x 2.130460 0.000000 -0.030690 
#    y 0.000000 2.162290 0.000000 
#    z -0.030690 0.000000 2.103480 
# 
# From -- ./inp_files/10316.got.cif
#   From: 2010.05.17/outbox.cif.g08.bks.cpg/sg9_6_cif.got.tgz:10316.got - 2010.06.03 20:04:27.
