data_PCOD9137037
_publ_section_title
;
Structure prediction by ZEFSAII (Michael W. Deem and Ramdas Pophale) SiO2 
 PCOD9137037
Probable space group: C C
;
_chemical_formula_sum "Si O2"
_cell_formula_units_Z 32
_cell_length_a 16.783740
_cell_length_b 16.748686
_cell_length_c 5.389428
_cell_angle_alpha 90.000000
_cell_angle_beta 121.193189
_cell_angle_gamma 90.000000
_cell_volume 1295.968722
_symmetry_space_group_name_H-M "C C"
_symmetry_group_IT_number 9
_symmetry_cell_setting 'monoclinic'
loop_
_space_group_symop_operation_xyz
x,y,z
x,-y,1/2+z
1/2+x,1/2+y,z
1/2+x,1/2-y,1/2+z
loop_
_atom_site_type_symbol
_atom_site_label
_atom_site_fract_x
_atom_site_fract_y
_atom_site_fract_z
Si Si1 0.114230 0.291671 0.873090
Si Si2 0.325822 0.534652 0.120993
Si Si3 0.584462 0.678884 0.212130
Si Si4 0.118811 0.527247 0.302861
Si Si5 0.390451 0.204690 0.045674
Si Si6 0.710812 0.369118 0.311286
Si Si7 0.387999 0.704830 0.056450
Si Si8 0.059628 0.954839 0.319975
O O1 0.146831 0.379776 0.855750
O O2 0.168797 0.220170 0.817139
O O3 0.001213 0.304147 0.689022
O O4 0.127856 0.259915 0.176661
O O5 0.360068 0.526885 0.460971
O O6 0.346429 0.618454 0.030171
O O7 0.215218 0.522294 0.961809
O O8 0.659987 0.622922 0.463258
O O9 0.499910 0.696496 0.257839
O O10 0.535346 0.631071 0.903695
O O11 0.068004 0.499679 0.471109
O O12 0.372773 0.258009 0.262297
O O13 0.321175 0.131021 0.978152
O O14 0.354799 0.242319 0.731597
O O15 0.667860 0.432791 0.431575
O O16 0.032335 0.985715 0.000937
#
# Coordination Sequence:
#
# PCOD9137037 Si02
#       8
#     4   4   4   4   4   4   4   4
#     4  10  24  45  66 102 142 176 241 285 341 436
#     4  10  22  38  56  93 133 172 214 258 343 411
#     4  10  23  43  71 101 133 188 227 286 357 410
#     4  10  24  39  65  94 131 182 220 271 349 403
#     4  11  26  41  70  99 130 184 226 296 343 403
#     4  11  24  42  73 101 130 185 234 291 358 413
#     4  11  24  42  63  99 142 168 231 284 339 424
#     4  11  23  42  66  95 133 173 227 285 350 422
#
# _framework density 24.691953999999999
#
# number of rings (size 3 to 8) (size 9 to 14) (size 15 to 20)
#    0.000    1.500    2.500    0.750   12.250    1.000 
#    0.000    1.250    0.000    0.000    0.000    0.000 
#    0.000    0.000    0.000    0.000    0.000    0.000 
#
# Total GULP energy -89251.731087 kJ/mol
# GULP energy per Si atom -5578.233193 kJ/mol
# Density = 2.463575 g / cm^3
# Si number density = 24.691954 Si / 1000 Ang^3
#
#
#
# Elastic Constant Matrix: (Units=GPa)
#
#
# Indices 1 2 3 4 5 6 
#
# 1 78.3882 -1.4006 54.0456 0.0000 -3.0649 0.0000
# 2 -1.4006 41.6749 5.1769 0.0000 -16.7490 0.0000
# 3 54.0456 5.1769 105.9518 0.0000 -30.8401 0.0000
# 4 0.0000 0.0000 0.0000 11.8777 0.0000 -11.3802
# 5 -3.0649 -16.7490 -30.8401 0.0000 42.2004 0.0000
# 6 0.0000 0.0000 0.0000 -11.3802 0.0000 41.9342
#
#
#
# Elastic Compliance Matrix: (Units=1/GPa)
#
#
# Indices 1 2 3 4 5 6 
#
# 1 0.021787 -0.001120 -0.013626 0.000000 -0.008820 0.000000
# 2 -0.001120 0.029103 0.003160 0.000000 0.013778 0.000000
# 3 -0.013626 0.003160 0.020719 0.000000 0.015406 0.000000
# 4 0.000000 0.000000 0.000000 0.113774 0.000000 0.030876
# 5 -0.008820 0.013778 0.015406 0.000000 0.039783 0.000000
# 6 0.000000 0.000000 0.000000 0.030876 0.000000 0.032226
#
#
# Mechanical properties :
#
#
# Convention : Reuss Voigt Hill
#
# Bulk Modulus (GPa) = 20.64578 37.96210 29.30394
# Shear Modulus (GPa) = 16.85159 30.41534 23.63346
#
# Velocity S-wave (km/s) = 2.61525 3.51350 3.09711
# Velocity P-wave (km/s) = 4.18317 5.64510 4.96820
#
# Compressibility (1/GPa) = 0.04843604
#
# Stress axis : x y z
#
# Youngs Moduli (GPa) = 45.89973 34.36120 48.26594
#
# Poissons Ratio (x) = 0.03848 0.65766
# Poissons Ratio (y) = 0.05140 -0.15251
# Poissons Ratio (z) = 0.62542 -0.10858
#
# Static dielectric constant tensor:
#      x y z
#    x 1.991890 0.000000 0.022170 
#    y 0.000000 1.966330 0.000000 
#    z 0.022170 0.000000 2.150550 
# 
# From -- ./inp_files/2549.got.cif
#   From: 2010.05.17/outbox.cif.g08.bks.cpg/sg9_2_cif.got.tgz:2549.got - 2010.06.03 20:04:27.
