data_PCOD9137724
_publ_section_title
;
Structure prediction by ZEFSAII (Michael W. Deem and Ramdas Pophale) SiO2 
 PCOD9137724
Probable space group: C C
;
_chemical_formula_sum "Si O2"
_cell_formula_units_Z 28
_cell_length_a 20.167608
_cell_length_b 11.033216
_cell_length_c 9.649343
_cell_angle_alpha 90.000000
_cell_angle_beta 142.611847
_cell_angle_gamma 90.000000
_cell_volume 1303.749911
_symmetry_space_group_name_H-M "C C"
_symmetry_group_IT_number 9
_symmetry_cell_setting 'monoclinic'
loop_
_space_group_symop_operation_xyz
x,y,z
x,-y,1/2+z
1/2+x,1/2+y,z
1/2+x,1/2-y,1/2+z
loop_
_atom_site_type_symbol
_atom_site_label
_atom_site_fract_x
_atom_site_fract_y
_atom_site_fract_z
Si Si1 0.699840 0.771472 0.261800
Si Si2 0.068069 0.168233 0.267001
Si Si3 0.676672 0.520762 0.125013
Si Si4 0.820395 0.558777 0.110351
Si Si5 0.530824 0.914407 0.358668
Si Si6 0.158000 0.528865 0.320550
Si Si7 0.355198 0.674123 0.769933
O O1 0.683409 0.706049 0.384872
O O2 0.646388 0.663282 0.082283
O O3 0.656355 0.902576 0.232689
O O4 0.802875 0.801428 0.336156
O O5 0.022445 0.288948 0.262989
O O6 0.086839 0.062133 0.405788
O O7 0.977823 0.132084 0.003582
O O8 0.781804 0.519223 0.198324
O O9 0.718909 0.462724 0.338133
O O10 0.853981 0.699425 0.183285
O O11 0.919169 0.476593 0.220547
O O12 0.590724 0.003749 0.348642
O O13 0.600061 0.885981 0.612384
O O14 0.275740 0.579259 0.560973
#
# Coordination Sequence:
#
# PCOD9137724 Si02
#       7
#     4   4   4   4   4   4   4
#     4  10  22  44  62 100 140 174 226 286 340 414
#     4  11  24  41  69  99 140 183 227 291 351 409
#     4  11  22  42  70  96 140 178 230 287 343 412
#     4  11  22  42  68 101 132 183 237 285 342 413
#     4  11  22  42  68 101 132 183 237 285 342 413
#     4  11  22  42  70  96 140 178 230 287 343 412
#     4  11  24  41  69  99 140 183 227 291 351 409
#
# _framework density 21.476510999999999
#
# number of rings (size 3 to 8) (size 9 to 14) (size 15 to 20)
#    0.000    1.143    2.857    5.143    0.000    1.143 
#    0.000    0.000    0.000    0.000    0.000    0.000 
#    0.000    0.000    0.000    0.000    0.000    0.000 
#
# Total GULP energy -77993.320530 kJ/mol
# GULP energy per Si atom -5570.951466 kJ/mol
# Density = 2.142763 g / cm^3
# Si number density = 21.476511 Si / 1000 Ang^3
#
#
#
# Elastic Constant Matrix: (Units=GPa)
#
#
# Indices 1 2 3 4 5 6 
#
# 1 103.5143 16.0602 10.5493 0.0000 -9.3970 0.0000
# 2 16.0602 79.0799 11.5455 0.0000 -1.6466 0.0000
# 3 10.5493 11.5455 106.5620 0.0000 -6.9895 0.0000
# 4 0.0000 0.0000 0.0000 32.1079 0.0000 -5.6997
# 5 -9.3970 -1.6466 -6.9895 0.0000 26.4058 0.0000
# 6 0.0000 0.0000 0.0000 -5.6997 0.0000 33.2179
#
#
#
# Elastic Compliance Matrix: (Units=1/GPa)
#
#
# Indices 1 2 3 4 5 6 
#
# 1 0.010330 -0.001941 -0.000589 0.000000 0.003399 0.000000
# 2 -0.001941 0.013218 -0.001253 0.000000 -0.000198 0.000000
# 3 -0.000589 -0.001253 0.009728 0.000000 0.002287 0.000000
# 4 0.000000 0.000000 0.000000 0.032123 0.000000 0.005512
# 5 0.003399 -0.000198 0.002287 0.000000 0.039673 0.000000
# 6 0.000000 0.000000 0.000000 0.005512 0.000000 0.031050
#
#
# Mechanical properties :
#
#
# Convention : Reuss Voigt Hill
#
# Bulk Modulus (GPa) = 38.89530 40.60735 39.75133
# Shear Modulus (GPa) = 32.83843 35.07976 33.95909
#
# Velocity S-wave (km/s) = 3.91454 4.04592 3.98077
# Velocity P-wave (km/s) = 6.21139 6.38552 6.29906
#
# Compressibility (1/GPa) = 0.02571005
#
# Stress axis : x y z
#
# Youngs Moduli (GPa) = 96.80252 75.65177 102.79257
#
# Poissons Ratio (x) = 0.14685 0.06059
# Poissons Ratio (y) = 0.18791 0.12880
# Poissons Ratio (z) = 0.05706 0.09479
#
# Static dielectric constant tensor:
#      x y z
#    x 1.826050 0.000000 0.020050 
#    y 0.000000 1.787110 0.000000 
#    z 0.020050 0.000000 1.781880 
# 
# From -- ./inp_files/11614.got.cif
#   From: 2010.05.17/outbox.cif.g08.bks.cpg/sg9_6_cif.got.tgz:11614.got - 2010.06.03 20:04:27.
