data_PCOD9137258
_publ_section_title
;
Structure prediction by ZEFSAII (Michael W. Deem and Ramdas Pophale) SiO2 
 PCOD9137258
Probable space group: C C
;
_chemical_formula_sum "Si O2"
_cell_formula_units_Z 28
_cell_length_a 21.400093
_cell_length_b 8.283964
_cell_length_c 9.943328
_cell_angle_alpha 90.000000
_cell_angle_beta 131.193320
_cell_angle_gamma 90.000000
_cell_volume 1326.439184
_symmetry_space_group_name_H-M "C C"
_symmetry_group_IT_number 9
_symmetry_cell_setting 'monoclinic'
loop_
_space_group_symop_operation_xyz
x,y,z
x,-y,1/2+z
1/2+x,1/2+y,z
1/2+x,1/2-y,1/2+z
loop_
_atom_site_type_symbol
_atom_site_label
_atom_site_fract_x
_atom_site_fract_y
_atom_site_fract_z
Si Si1 0.481830 0.894358 0.847190
Si Si2 0.536377 0.363749 0.621624
Si Si3 0.128630 0.810916 0.223481
Si Si4 0.624244 0.871324 0.448607
Si Si5 0.262724 0.598468 0.536033
Si Si6 0.366743 0.483663 0.918494
Si Si7 0.945256 0.340580 0.502864
O O1 0.429706 0.879466 0.636949
O O2 0.566372 0.989872 0.930389
O O3 0.437855 0.005538 0.896628
O O4 0.506067 0.721229 0.941769
O O5 0.604478 0.502030 0.694958
O O6 0.570771 0.224575 0.764853
O O7 0.456281 0.442022 0.578768
O O8 0.203525 0.751670 0.423801
O O9 0.150045 0.748787 0.104396
O O10 0.041731 0.719059 0.134800
O O11 0.700333 0.953236 0.482549
O O12 0.321508 0.601712 0.749440
O O13 0.313412 0.552915 0.474497
O O14 0.388955 0.311217 0.881245
#
# Coordination Sequence:
#
# PCOD9137258 Si02
#       7
#     4   4   4   4   4   4   4
#     4  11  20  41  71  99 135 175 242 285 333 409
#     4  11  25  42  73 102 133 184 241 290 341 425
#     4  10  23  40  68  98 136 181 238 282 338 428
#     4  11  22  42  71 103 130 186 237 279 348 422
#     4  12  23  47  67  97 145 186 226 290 361 413
#     4  11  27  42  70 103 144 182 224 292 361 407
#     4  10  22  40  68 102 133 184 234 276 342 424
#
# _framework density 21.109147
#
# number of rings (size 3 to 8) (size 9 to 14) (size 15 to 20)
#    0.000    1.143    4.286    1.714   10.000    0.000 
#    0.000    4.286    3.143    0.000    0.000    0.000 
#    0.000    0.000    0.000    0.000    0.000    0.000 
#
# Total GULP energy -78268.150855 kJ/mol
# GULP energy per Si atom -5590.582204 kJ/mol
# Density = 2.106110 g / cm^3
# Si number density = 21.109147 Si / 1000 Ang^3
#
#
#
# Elastic Constant Matrix: (Units=GPa)
#
#
# Indices 1 2 3 4 5 6 
#
# 1 96.2610 47.5845 22.6117 0.0000 0.3923 0.0000
# 2 47.5845 80.1818 11.4878 0.0000 0.1773 0.0000
# 3 22.6117 11.4878 46.4706 0.0000 -4.8185 0.0000
# 4 0.0000 0.0000 0.0000 30.8166 0.0000 6.4910
# 5 0.3923 0.1773 -4.8185 0.0000 30.6169 0.0000
# 6 0.0000 0.0000 0.0000 6.4910 0.0000 29.0385
#
#
#
# Elastic Compliance Matrix: (Units=1/GPa)
#
#
# Indices 1 2 3 4 5 6 
#
# 1 0.016045 -0.008693 -0.005768 0.000000 -0.001063 0.000000
# 2 -0.008693 0.017650 -0.000134 0.000000 -0.000012 0.000000
# 3 -0.005768 -0.000134 0.024771 0.000000 0.003973 0.000000
# 4 0.000000 0.000000 0.000000 0.034053 0.000000 -0.007612
# 5 -0.001063 -0.000012 0.003973 0.000000 0.033301 0.000000
# 6 0.000000 0.000000 0.000000 -0.007612 0.000000 0.036139
#
#
# Mechanical properties :
#
#
# Convention : Reuss Voigt Hill
#
# Bulk Modulus (GPa) = 34.16025 42.92016 38.54021
# Shear Modulus (GPa) = 24.88689 27.50970 26.19829
#
# Velocity S-wave (km/s) = 3.43733 3.61392 3.52673
# Velocity P-wave (km/s) = 5.65433 6.14740 5.90601
#
# Compressibility (1/GPa) = 0.02927379
#
# Stress axis : x y z
#
# Youngs Moduli (GPa) = 62.32429 56.65706 40.36983
#
# Poissons Ratio (x) = 0.49254 0.23287
# Poissons Ratio (y) = 0.54180 0.00543
# Poissons Ratio (z) = 0.35951 0.00762
#
# Static dielectric constant tensor:
#      x y z
#    x 1.752620 0.000000 -0.001560 
#    y 0.000000 1.759360 0.000000 
#    z -0.001560 0.000000 1.784260 
# 
# From -- ./inp_files/11261.got.cif
#   From: 2010.05.17/outbox.cif.g08.bks.cpg/sg9_6_cif.got.tgz:11261.got - 2010.06.03 20:04:27.
