data_PCOD9137695
_publ_section_title
;
Structure prediction by ZEFSAII (Michael W. Deem and Ramdas Pophale) SiO2 
 PCOD9137695
Probable space group: C C
;
_chemical_formula_sum "Si O2"
_cell_formula_units_Z 20
_cell_length_a 6.925143
_cell_length_b 21.197580
_cell_length_c 9.709408
_cell_angle_alpha 90.000000
_cell_angle_beta 147.596948
_cell_angle_gamma 90.000000
_cell_volume 763.780661
_symmetry_space_group_name_H-M "C C"
_symmetry_group_IT_number 9
_symmetry_cell_setting 'monoclinic'
loop_
_space_group_symop_operation_xyz
x,y,z
x,-y,1/2+z
1/2+x,1/2+y,z
1/2+x,1/2-y,1/2+z
loop_
_atom_site_type_symbol
_atom_site_label
_atom_site_fract_x
_atom_site_fract_y
_atom_site_fract_z
Si Si1 0.251130 0.494397 0.431510
Si Si2 0.150991 0.278706 0.019276
Si Si3 0.735533 0.229937 0.161846
Si Si4 0.403182 0.082177 0.386175
Si Si5 0.758030 0.917419 0.677771
O O1 0.622076 0.456854 0.621469
O O2 0.076233 0.439024 0.423254
O O3 0.166220 0.535878 0.246360
O O4 0.271254 0.547301 0.567074
O O5 0.862129 0.228408 0.789221
O O6 0.955092 0.345212 0.888481
O O7 0.470894 0.271407 0.098772
O O8 0.682226 0.155877 0.157007
O O9 0.128082 0.251369 0.444070
O O10 0.190535 0.077331 0.402607
#
# Coordination Sequence:
#
# PCOD9137695 Si02
#       5
#     4   4   4   4   4
#     4  10  24  43  69 103 158 204 261 321 396 471
#     4  10  22  43  71 107 148 199 256 321 394 460
#     4  10  22  45  76 113 152 205 261 330 400 465
#     4  10  25  44  70 111 152 208 256 328 389 480
#     4  10  25  45  72 112 158 206 264 324 399 478
#
# _framework density 26.185528999999999
#
# number of rings (size 3 to 8) (size 9 to 14) (size 15 to 20)
#    1.200    0.800    0.000    2.400    2.800    8.000 
#    0.000    0.000    0.000    0.000    0.000    0.000 
#    0.000    0.000    0.000    0.000    0.000    0.000 
#
# Total GULP energy -55693.409884 kJ/mol
# GULP energy per Si atom -5569.340988 kJ/mol
# Density = 2.612593 g / cm^3
# Si number density = 26.185529 Si / 1000 Ang^3
#
#
#
# Elastic Constant Matrix: (Units=GPa)
#
#
# Indices 1 2 3 4 5 6 
#
# 1 159.9592 27.7032 26.1579 0.0000 -3.5066 0.0000
# 2 27.7032 138.1609 13.6599 0.0000 -12.2273 0.0000
# 3 26.1579 13.6599 104.8940 0.0000 -28.4819 0.0000
# 4 0.0000 0.0000 0.0000 40.3879 0.0000 10.9843
# 5 -3.5066 -12.2273 -28.4819 0.0000 50.5164 0.0000
# 6 0.0000 0.0000 0.0000 10.9843 0.0000 38.8483
#
#
#
# Elastic Compliance Matrix: (Units=1/GPa)
#
#
# Indices 1 2 3 4 5 6 
#
# 1 0.006735 -0.001251 -0.001738 0.000000 -0.000815 0.000000
# 2 -0.001251 0.007657 -0.000243 0.000000 0.001630 0.000000
# 3 -0.001738 -0.000243 0.011748 0.000000 0.006444 0.000000
# 4 0.000000 0.000000 0.000000 0.026823 0.000000 -0.007584
# 5 -0.000815 0.001630 0.006444 0.000000 0.023767 0.000000
# 6 0.000000 0.000000 0.000000 -0.007584 0.000000 0.027885
#
#
# Mechanical properties :
#
#
# Convention : Reuss Voigt Hill
#
# Bulk Modulus (GPa) = 50.82028 59.78401 55.30215
# Shear Modulus (GPa) = 42.50387 48.31674 45.41031
#
# Velocity S-wave (km/s) = 4.03324 4.30020 4.16886
# Velocity P-wave (km/s) = 6.41399 6.89465 6.65866
#
# Compressibility (1/GPa) = 0.01967718
#
# Stress axis : x y z
#
# Youngs Moduli (GPa) = 148.48865 130.60045 85.11869
#
# Poissons Ratio (x) = 0.16334 0.14792
# Poissons Ratio (y) = 0.18571 0.02066
# Poissons Ratio (z) = 0.25805 0.03170
#
# Static dielectric constant tensor:
#      x y z
#    x 2.169670 0.000000 0.068730 
#    y 0.000000 2.007410 0.000000 
#    z 0.068730 0.000000 2.333780 
# 
# From -- ./inp_files/564.got.cif
#   From: 2010.05.17/outbox.cif.g08.bks.cpg/sg9_1_cif.got.tgz:564.got - 2010.06.03 20:04:27.
