data_PCOD9137058
_publ_section_title
;
Structure prediction by ZEFSAII (Michael W. Deem and Ramdas Pophale) SiO2 
 PCOD9137058
Probable space group: C C
;
_chemical_formula_sum "Si O2"
_cell_formula_units_Z 32
_cell_length_a 22.882307
_cell_length_b 8.001111
_cell_length_c 8.405516
_cell_angle_alpha 90.000000
_cell_angle_beta 56.662833
_cell_angle_gamma 90.000000
_cell_volume 1285.687696
_symmetry_space_group_name_H-M "C C"
_symmetry_group_IT_number 9
_symmetry_cell_setting 'monoclinic'
loop_
_space_group_symop_operation_xyz
x,y,z
x,-y,1/2+z
1/2+x,1/2+y,z
1/2+x,1/2-y,1/2+z
loop_
_atom_site_type_symbol
_atom_site_label
_atom_site_fract_x
_atom_site_fract_y
_atom_site_fract_z
Si Si1 0.247550 0.004035 0.677890
Si Si2 0.644485 0.848405 0.658569
Si Si3 0.234821 0.553057 0.312334
Si Si4 0.140558 0.999949 0.586132
Si Si5 0.961205 0.424546 0.709349
Si Si6 0.548877 0.829728 0.289062
Si Si7 0.311164 0.332880 0.992923
Si Si8 0.378107 0.166039 0.629888
O O1 0.293689 0.836127 0.609952
O O2 0.220889 0.018248 0.536082
O O3 0.302024 0.140903 0.661757
O O4 0.168223 0.993075 0.864497
O O5 0.690025 0.845928 0.751519
O O6 0.605475 0.675111 0.686562
O O7 0.691230 0.889069 0.433040
O O8 0.597594 0.010395 0.747081
O O9 0.247676 0.635051 0.463625
O O10 0.305218 0.485596 0.122454
O O11 0.093799 0.835783 0.683707
O O12 0.897906 0.500370 0.700491
O O13 0.005162 0.316370 0.517944
O O14 0.001810 0.590143 0.716661
O O15 0.933083 0.325748 0.904619
O O16 0.373756 0.304811 0.775532
#
# Coordination Sequence:
#
# PCOD9137058 Si02
#       8
#     4   4   4   4   4   4   4   4
#     4  12  23  39  69 113 139 177 235 308 377 447
#     4  11  23  40  67  99 146 188 226 289 368 440
#     4  10  22  38  64 105 151 191 218 287 386 462
#     4  12  26  40  69 109 152 178 232 300 382 449
#     4  10  24  46  73  94 133 201 263 296 348 434
#     4  11  26  45  68 100 141 197 248 295 356 435
#     4  11  21  40  64 103 146 182 237 292 372 439
#     4  11  21  44  76  97 134 188 255 303 359 426
#
# _framework density 24.889405
#
# number of rings (size 3 to 8) (size 9 to 14) (size 15 to 20)
#    0.000    1.000    3.750    3.000    5.250    0.000 
#    0.000    0.000   11.000    0.000    0.000    0.000 
#    0.000    0.000    0.000    0.000    0.000    0.000 
#
# Total GULP energy -89272.917642 kJ/mol
# GULP energy per Si atom -5579.557353 kJ/mol
# Density = 2.483276 g / cm^3
# Si number density = 24.889405 Si / 1000 Ang^3
#
#
#
# Elastic Constant Matrix: (Units=GPa)
#
#
# Indices 1 2 3 4 5 6 
#
# 1 92.0758 13.9585 -1.6920 0.0000 -0.0210 0.0000
# 2 13.9585 121.6120 42.2989 0.0000 0.6335 0.0000
# 3 -1.6920 42.2989 150.9688 0.0000 -4.7808 0.0000
# 4 0.0000 0.0000 0.0000 47.8727 0.0000 -0.7407
# 5 -0.0210 0.6335 -4.7808 0.0000 22.2961 0.0000
# 6 0.0000 0.0000 0.0000 -0.7407 0.0000 30.7161
#
#
#
# Elastic Compliance Matrix: (Units=1/GPa)
#
#
# Indices 1 2 3 4 5 6 
#
# 1 0.011092 -0.001462 0.000539 0.000000 0.000168 0.000000
# 2 -0.001462 0.009318 -0.002654 0.000000 -0.000835 0.000000
# 3 0.000539 -0.002654 0.007426 0.000000 0.001668 0.000000
# 4 0.000000 0.000000 0.000000 0.020897 0.000000 0.000504
# 5 0.000168 -0.000835 0.001668 0.000000 0.045233 0.000000
# 6 0.000000 0.000000 0.000000 0.000504 0.000000 0.032568
#
#
# Mechanical properties :
#
#
# Convention : Reuss Voigt Hill
#
# Bulk Modulus (GPa) = 48.34570 52.64304 50.49437
# Shear Modulus (GPa) = 35.56682 40.84972 38.20827
#
# Velocity S-wave (km/s) = 3.78431 4.05563 3.92231
# Velocity P-wave (km/s) = 6.20975 6.56716 6.39095
#
# Compressibility (1/GPa) = 0.02068436
#
# Stress axis : x y z
#
# Youngs Moduli (GPa) = 90.15406 107.31992 134.65766
#
# Poissons Ratio (x) = 0.15685 -0.07260
# Poissons Ratio (y) = 0.13176 0.35732
# Poissons Ratio (z) = -0.04860 0.28478
#
# Static dielectric constant tensor:
#      x y z
#    x 2.006080 0.000000 -0.037780 
#    y 0.000000 2.063040 0.000000 
#    z -0.037780 0.000000 2.000500 
# 
# From -- ./inp_files/12377.got.cif
#   From: 2010.05.17/outbox.cif.g08.bks.cpg/sg9_7_cif.got.tgz:12377.got - 2010.06.03 20:04:27.
