data_PCOD9137998
_publ_section_title
;
Structure prediction by ZEFSAII (Michael W. Deem and Ramdas Pophale) SiO2 
 PCOD9137998
Probable space group: C C
;
_chemical_formula_sum "Si O2"
_cell_formula_units_Z 32
_cell_length_a 10.416590
_cell_length_b 10.601070
_cell_length_c 11.726193
_cell_angle_alpha 90.000000
_cell_angle_beta 89.461943
_cell_angle_gamma 90.000000
_cell_volume 1294.831215
_symmetry_space_group_name_H-M "C C"
_symmetry_group_IT_number 9
_symmetry_cell_setting 'monoclinic'
loop_
_space_group_symop_operation_xyz
x,y,z
x,-y,1/2+z
1/2+x,1/2+y,z
1/2+x,1/2-y,1/2+z
loop_
_atom_site_type_symbol
_atom_site_label
_atom_site_fract_x
_atom_site_fract_y
_atom_site_fract_z
Si Si1 0.804520 0.763252 0.180010
Si Si2 0.303741 0.177611 0.626516
Si Si3 0.754202 0.033184 0.516789
Si Si4 0.137836 0.951344 0.647339
Si Si5 0.894622 0.213060 0.917864
Si Si6 0.119637 0.056185 0.890378
Si Si7 0.052670 0.668116 0.047857
Si Si8 0.354334 0.232563 0.871084
O O1 0.801679 0.906603 0.135922
O O2 0.678631 0.693098 0.135458
O O3 0.806192 0.749205 0.314488
O O4 0.931792 0.696016 0.130404
O O5 0.393255 0.187361 0.517457
O O6 0.170069 0.246392 0.592906
O O7 0.360536 0.245731 0.735702
O O8 0.266254 0.035812 0.653689
O O9 0.783169 0.148266 0.429920
O O10 0.836428 0.915347 0.470827
O O11 0.614246 0.970798 0.535161
O O12 0.086973 0.989511 0.520470
O O13 0.084795 0.976236 0.776393
O O14 0.034015 0.180549 0.871815
O O15 0.265420 0.107756 0.892756
O O16 0.991885 0.711643 0.928103
#
# Coordination Sequence:
#
# PCOD9137998 Si02
#       8
#     4   4   4   4   4   4   4   4
#     4  11  23  48  69 104 142 188 241 307 369 437
#     4  10  24  45  68 104 141 192 244 296 376 443
#     4  10  24  43  73 102 139 188 244 295 378 431
#     4  11  23  45  69  99 144 185 242 297 363 449
#     4  11  26  43  72 103 141 187 243 301 367 455
#     4  11  24  43  68 103 139 191 240 296 367 446
#     4  10  22  46  72 101 144 184 238 315 357 434
#     4  10  22  47  69 104 146 185 246 301 367 435
#
# _framework density 24.713643999999999
#
# number of rings (size 3 to 8) (size 9 to 14) (size 15 to 20)
#    0.000    1.500    2.500    2.250    8.750    1.000 
#   13.500    0.000    0.000    0.000    0.000    0.000 
#    0.000    0.000    0.000    0.000    0.000    0.000 
#
# Total GULP energy -89320.180554 kJ/mol
# GULP energy per Si atom -5582.511285 kJ/mol
# Density = 2.465739 g / cm^3
# Si number density = 24.713644 Si / 1000 Ang^3
#
#
#
# Elastic Constant Matrix: (Units=GPa)
#
#
# Indices 1 2 3 4 5 6 
#
# 1 88.1618 27.1056 33.9399 0.0000 6.7678 0.0000
# 2 27.1056 57.8181 17.6001 0.0000 9.5121 0.0000
# 3 33.9399 17.6001 172.5388 0.0000 20.9724 0.0000
# 4 0.0000 0.0000 0.0000 29.4536 0.0000 -6.3223
# 5 6.7678 9.5121 20.9724 0.0000 20.5485 0.0000
# 6 0.0000 0.0000 0.0000 -6.3223 0.0000 36.8448
#
#
#
# Elastic Compliance Matrix: (Units=1/GPa)
#
#
# Indices 1 2 3 4 5 6 
#
# 1 0.013987 -0.005954 -0.002191 0.000000 0.000385 0.000000
# 2 -0.005954 0.021401 -0.000053 0.000000 -0.007892 0.000000
# 3 -0.002191 -0.000053 0.007011 0.000000 -0.006410 0.000000
# 4 0.000000 0.000000 0.000000 0.035250 0.000000 0.006049
# 5 0.000385 -0.007892 -0.006410 0.000000 0.058734 0.000000
# 6 0.000000 0.000000 0.000000 0.006049 0.000000 0.028179
#
#
# Mechanical properties :
#
#
# Convention : Reuss Voigt Hill
#
# Bulk Modulus (GPa) = 38.45402 52.86775 45.66089
# Shear Modulus (GPa) = 26.36779 33.36091 29.86435
#
# Velocity S-wave (km/s) = 3.26994 3.67808 3.48000
# Velocity P-wave (km/s) = 5.46354 6.28302 5.88755
#
# Compressibility (1/GPa) = 0.02600508
#
# Stress axis : x y z
#
# Youngs Moduli (GPa) = 71.49424 46.72636 142.62738
#
# Poissons Ratio (x) = 0.27820 0.31248
# Poissons Ratio (y) = 0.42566 0.00750
# Poissons Ratio (z) = 0.15664 0.00246
#
# Static dielectric constant tensor:
#      x y z
#    x 1.972510 0.000000 -0.023800 
#    y 0.000000 1.973530 0.000000 
#    z -0.023800 0.000000 2.042190 
# 
# From -- ./inp_files/16456.got.cif
#   From: 2010.05.17/outbox.cif.g08.bks.cpg/sg9_9_cif.got.tgz:16456.got - 2010.06.03 20:04:27.
