data_PCOD9137551
_publ_section_title
;
Structure prediction by ZEFSAII (Michael W. Deem and Ramdas Pophale) SiO2 
 PCOD9137551
Probable space group: C C
;
_chemical_formula_sum "Si O2"
_cell_formula_units_Z 24
_cell_length_a 8.127370
_cell_length_b 6.919874
_cell_length_c 20.965259
_cell_angle_alpha 90.000000
_cell_angle_beta 60.977655
_cell_angle_gamma 90.000000
_cell_volume 1031.035885
_symmetry_space_group_name_H-M "C C"
_symmetry_group_IT_number 9
_symmetry_cell_setting 'monoclinic'
loop_
_space_group_symop_operation_xyz
x,y,z
x,-y,1/2+z
1/2+x,1/2+y,z
1/2+x,1/2-y,1/2+z
loop_
_atom_site_type_symbol
_atom_site_label
_atom_site_fract_x
_atom_site_fract_y
_atom_site_fract_z
Si Si1 0.611880 0.978254 0.478550
Si Si2 0.412992 0.827983 0.902973
Si Si3 0.648316 0.052057 0.612051
Si Si4 0.632731 0.179938 0.231222
Si Si5 0.562945 0.467437 0.662083
Si Si6 0.048558 0.065226 0.521928
O O1 0.555790 0.114846 0.431803
O O2 0.572924 0.070842 0.554813
O O3 0.820272 0.884756 0.429970
O O4 0.497650 0.776064 0.502550
O O5 0.507055 0.844284 0.817048
O O6 0.236856 0.975994 0.947201
O O7 0.664712 0.261854 0.640242
O O8 0.852620 0.955548 0.561125
O O9 0.548224 0.927962 0.684929
O O10 0.630899 0.400722 0.207344
O O11 0.839854 0.089477 0.205469
O O12 0.602510 0.572371 0.586629
#
# Coordination Sequence:
#
# PCOD9137551 Si02
#       6
#     4   4   4   4   4   4
#     4  10  22  42  70  99 135 190 237 304 354 441
#     4  10  22  43  70  97 153 180 243 306 373 428
#     4  11  24  41  74  98 137 191 252 295 366 439
#     4  11  24  45  65 106 144 193 232 313 370 438
#     4  11  24  41  73 101 141 188 248 297 364 441
#     4   9  22  40  68  97 132 182 238 301 345 439
#
# _framework density 23.277560999999999
#
# number of rings (size 3 to 8) (size 9 to 14) (size 15 to 20)
#    1.000    0.667    1.667    2.000    9.333    0.000 
#    3.000    3.333    0.000    0.000    0.000    0.000 
#    0.000    0.000    0.000    0.000    0.000    0.000 
#
# Total GULP energy -66911.095964 kJ/mol
# GULP energy per Si atom -5575.924664 kJ/mol
# Density = 2.322458 g / cm^3
# Si number density = 23.277561 Si / 1000 Ang^3
#
#
#
# Elastic Constant Matrix: (Units=GPa)
#
#
# Indices 1 2 3 4 5 6 
#
# 1 81.0369 40.7551 61.9788 0.0000 3.1486 0.0000
# 2 40.7551 98.5783 57.3736 0.0000 10.8697 0.0000
# 3 61.9788 57.3736 239.8174 0.0000 1.5716 0.0000
# 4 0.0000 0.0000 0.0000 17.6802 0.0000 -2.3846
# 5 3.1486 10.8697 1.5716 0.0000 31.5912 0.0000
# 6 0.0000 0.0000 0.0000 -2.3846 0.0000 39.9927
#
#
#
# Elastic Compliance Matrix: (Units=1/GPa)
#
#
# Indices 1 2 3 4 5 6 
#
# 1 0.017516 -0.005385 -0.003240 0.000000 0.000268 0.000000
# 2 -0.005385 0.013946 -0.001917 0.000000 -0.004166 0.000000
# 3 -0.003240 -0.001917 0.005461 0.000000 0.000711 0.000000
# 4 0.000000 0.000000 0.000000 0.057019 0.000000 0.003400
# 5 0.000268 -0.004166 0.000711 0.000000 0.033026 0.000000
# 6 0.000000 0.000000 0.000000 0.003400 0.000000 0.025207
#
#
# Mechanical properties :
#
#
# Convention : Reuss Voigt Hill
#
# Bulk Modulus (GPa) = 63.14115 82.18306 72.66210
# Shear Modulus (GPa) = 28.00476 35.14116 31.57296
#
# Velocity S-wave (km/s) = 3.47231 3.88965 3.68689
# Velocity P-wave (km/s) = 6.57724 7.45351 7.02904
#
# Compressibility (1/GPa) = 0.01583753
#
# Stress axis : x y z
#
# Youngs Moduli (GPa) = 57.08956 71.70510 183.10668
#
# Poissons Ratio (x) = 0.38617 0.59332
# Poissons Ratio (y) = 0.30745 0.35107
# Poissons Ratio (z) = 0.18499 0.13748
#
# Static dielectric constant tensor:
#      x y z
#    x 1.995810 0.000000 -0.030160 
#    y 0.000000 1.964500 0.000000 
#    z -0.030160 0.000000 1.817410 
# 
# From -- ./inp_files/28895.got.cif
#   From: 2010.05.17/outbox.cif.g08.bks.cpg/sg9_15_cif.got.tgz:28895.got - 2010.06.03 20:04:27.
