data_PCOD9137735
_publ_section_title
;
Structure prediction by ZEFSAII (Michael W. Deem and Ramdas Pophale) SiO2 
 PCOD9137735
Probable space group: C C
;
_chemical_formula_sum "Si O2"
_cell_formula_units_Z 20
_cell_length_a 24.458357
_cell_length_b 7.868350
_cell_length_c 7.953905
_cell_angle_alpha 90.000000
_cell_angle_beta 150.177380
_cell_angle_gamma 90.000000
_cell_volume 761.244603
_symmetry_space_group_name_H-M "C C"
_symmetry_group_IT_number 9
_symmetry_cell_setting 'monoclinic'
loop_
_space_group_symop_operation_xyz
x,y,z
x,-y,1/2+z
1/2+x,1/2+y,z
1/2+x,1/2-y,1/2+z
loop_
_atom_site_type_symbol
_atom_site_label
_atom_site_fract_x
_atom_site_fract_y
_atom_site_fract_z
Si Si1 0.708300 0.430376 0.453180
Si Si2 0.770461 0.235599 0.314716
Si Si3 0.472068 0.598467 0.738161
Si Si4 0.517253 0.856545 0.163653
Si Si5 0.524598 0.771809 0.561828
O O1 0.788998 0.336342 0.540181
O O2 0.762436 0.600091 0.669820
O O3 0.588152 0.497746 0.062920
O O4 0.653959 0.281533 0.421493
O O5 0.649020 0.165732 0.018931
O O6 0.844044 0.080602 0.444695
O O7 0.487523 0.751610 0.915904
O O8 0.466975 0.632718 0.525122
O O9 0.484132 0.793815 0.262248
O O10 0.498477 0.053363 0.083478
#
# Coordination Sequence:
#
# PCOD9137735 Si02
#       5
#     4   4   4   4   4
#     4  10  22  44  65  93 134 176 218 282 326 397
#     4  10  23  41  65  96 129 174 224 266 342 395
#     4  11  23  44  66  93 134 174 223 274 332 398
#     4  10  23  41  63  96 130 171 218 277 327 397
#     4  11  21  42  69  88 135 173 211 281 333 381
#
# _framework density 26.272762
#
# number of rings (size 3 to 8) (size 9 to 14) (size 15 to 20)
#    0.000    1.600    4.000    0.000    2.800    0.000 
#    7.200    2.000    0.000    0.000    0.000    0.000 
#    0.000    0.000    0.000    0.000    0.000    0.000 
#
# Total GULP energy -55693.816490 kJ/mol
# GULP energy per Si atom -5569.381649 kJ/mol
# Density = 2.621296 g / cm^3
# Si number density = 26.272762 Si / 1000 Ang^3
#
#
#
# Elastic Constant Matrix: (Units=GPa)
#
#
# Indices 1 2 3 4 5 6 
#
# 1 149.3094 6.2018 40.2133 0.0000 3.9103 0.0000
# 2 6.2018 59.2787 6.0541 0.0000 -5.3466 0.0000
# 3 40.2133 6.0541 49.2755 0.0000 -6.7945 0.0000
# 4 0.0000 0.0000 0.0000 33.3782 0.0000 3.0029
# 5 3.9103 -5.3466 -6.7945 0.0000 33.4145 0.0000
# 6 0.0000 0.0000 0.0000 3.0029 0.0000 31.2705
#
#
#
# Elastic Compliance Matrix: (Units=1/GPa)
#
#
# Indices 1 2 3 4 5 6 
#
# 1 0.008801 -0.000391 -0.007495 0.000000 -0.002617 0.000000
# 2 -0.000391 0.017286 -0.001458 0.000000 0.002515 0.000000
# 3 -0.007495 -0.001458 0.027448 0.000000 0.006225 0.000000
# 4 0.000000 0.000000 0.000000 0.030221 0.000000 -0.002902
# 5 -0.002617 0.002515 0.006225 0.000000 0.031902 0.000000
# 6 0.000000 0.000000 0.000000 -0.002902 0.000000 0.032258
#
#
# Mechanical properties :
#
#
# Convention : Reuss Voigt Hill
#
# Bulk Modulus (GPa) = 28.69671 40.31135 34.50403
# Shear Modulus (GPa) = 28.05536 33.30561 30.68049
#
# Velocity S-wave (km/s) = 3.27134 3.56432 3.42097
# Velocity P-wave (km/s) = 5.02148 5.68471 5.36335
#
# Compressibility (1/GPa) = 0.03484720
#
# Stress axis : x y z
#
# Youngs Moduli (GPa) = 113.62451 57.84986 36.43225
#
# Poissons Ratio (x) = 0.02264 0.27306
# Poissons Ratio (y) = 0.04446 0.05311
# Poissons Ratio (z) = 0.85162 0.08432
#
# Static dielectric constant tensor:
#      x y z
#    x 2.108890 0.000000 -0.021380 
#    y 0.000000 2.203500 0.000000 
#    z -0.021380 0.000000 2.291270 
# 
# From -- ./inp_files/6613.got.cif
#   From: 2010.05.17/outbox.cif.g08.bks.cpg/sg9_4_cif.got.tgz:6613.got - 2010.06.03 20:04:27.
