data_PCOD9137698
_publ_section_title
;
Structure prediction by ZEFSAII (Michael W. Deem and Ramdas Pophale) SiO2 
 PCOD9137698
Probable space group: C C
;
_chemical_formula_sum "Si O2"
_cell_formula_units_Z 32
_cell_length_a 22.298001
_cell_length_b 4.927003
_cell_length_c 13.686301
_cell_angle_alpha 90.000000
_cell_angle_beta 59.249859
_cell_angle_gamma 90.000000
_cell_volume 1292.209108
_symmetry_space_group_name_H-M "C C"
_symmetry_group_IT_number 9
_symmetry_cell_setting 'monoclinic'
loop_
_space_group_symop_operation_xyz
x,y,z
x,-y,1/2+z
1/2+x,1/2+y,z
1/2+x,1/2-y,1/2+z
loop_
_atom_site_type_symbol
_atom_site_label
_atom_site_fract_x
_atom_site_fract_y
_atom_site_fract_z
Si Si1 0.714720 0.655939 0.542860
Si Si2 0.598048 0.693570 0.046792
Si Si3 0.512729 0.110965 0.245767
Si Si4 0.487319 0.622575 0.566958
Si Si5 0.202142 0.339310 0.185327
Si Si6 0.574065 0.081389 0.396279
Si Si7 0.860307 0.482756 0.443574
Si Si8 0.346825 0.482234 0.590639
O O1 0.650352 0.537260 0.535599
O O2 0.711287 0.469527 0.643936
O O3 0.791819 0.577293 0.440067
O O4 0.706617 0.964525 0.584540
O O5 0.557592 0.866391 0.160873
O O6 0.541931 0.623035 0.002255
O O7 0.632245 0.889313 0.939537
O O8 0.507036 0.329687 0.163420
O O9 0.544508 0.224357 0.319273
O O10 0.433522 0.018558 0.329639
O O11 0.408765 0.545613 0.613266
O O12 0.511497 0.879259 0.485967
O O13 0.127583 0.376145 0.292669
O O14 0.269343 0.443058 0.189560
O O15 0.857145 0.681697 0.540529
O O16 0.856329 0.179454 0.488437
#
# Coordination Sequence:
#
# PCOD9137698 Si02
#       8
#     4   4   4   4   4   4   4   4
#     4  10  22  44  68  99 133 172 227 273 340 401
#     4  11  25  40  65 100 136 172 230 285 328 414
#     4  11  23  42  66  97 131 183 226 278 345 399
#     4  11  25  40  65 100 136 172 230 285 328 414
#     4  10  22  43  71  96 133 180 216 278 337 405
#     4  11  23  42  66  97 131 183 226 278 345 399
#     4  10  22  43  71  96 133 180 216 278 337 405
#     4  10  22  44  68  99 133 172 227 273 340 401
#
# _framework density 24.763795999999999
#
# number of rings (size 3 to 8) (size 9 to 14) (size 15 to 20)
#    0.000    1.500    2.500    1.500    7.000    1.000 
#    4.500    0.000    0.000    0.000    0.000    0.000 
#    0.000    0.000    0.000    0.000    0.000    0.000 
#
# Total GULP energy -89268.094357 kJ/mol
# GULP energy per Si atom -5579.255897 kJ/mol
# Density = 2.470743 g / cm^3
# Si number density = 24.763796 Si / 1000 Ang^3
#
#
#
# Elastic Constant Matrix: (Units=GPa)
#
#
# Indices 1 2 3 4 5 6 
#
# 1 182.0681 26.7479 44.9634 -0.0001 -0.2612 0.0019
# 2 26.7479 83.3093 16.7128 -0.0051 8.6141 0.0228
# 3 44.9634 16.7128 61.6796 0.0000 10.9502 0.0012
# 4 -0.0001 -0.0051 0.0000 2.3800 -0.0009 -0.3140
# 5 -0.2612 8.6141 10.9502 -0.0009 42.4363 -0.0008
# 6 0.0019 0.0228 0.0012 -0.3140 -0.0008 39.0546
#
#
#
# Elastic Compliance Matrix: (Units=1/GPa)
#
#
# Indices 1 2 3 4 5 6 
#
# 1 0.006923 -0.001395 -0.004954 -0.000002 0.001604 0.000001
# 2 -0.001395 0.013103 -0.002159 0.000026 -0.002111 -0.000007
# 3 -0.004954 -0.002159 0.021313 -0.000007 -0.005092 0.000001
# 4 -0.000002 0.000026 -0.000007 0.420615 0.000005 0.003382
# 5 0.001604 -0.002111 -0.005092 0.000005 0.025317 0.000002
# 6 0.000001 -0.000007 0.000001 0.003382 0.000002 0.025632
#
#
# Mechanical properties :
#
#
# Convention : Reuss Voigt Hill
#
# Bulk Modulus (GPa) = 41.11122 55.98946 48.55034
# Shear Modulus (GPa) = 9.29325 32.68305 20.98815
#
# Velocity S-wave (km/s) = 1.93931 3.63683 2.91440
# Velocity P-wave (km/s) = 4.65316 6.34775 5.56533
#
# Compressibility (1/GPa) = 0.02432426
#
# Stress axis : x y z
#
# Youngs Moduli (GPa) = 144.44616 76.32041 46.92028
#
# Poissons Ratio (x) = 0.10646 0.23242
# Poissons Ratio (y) = 0.20148 0.10129
# Poissons Ratio (z) = 0.71552 0.16475
#
# Static dielectric constant tensor:
#      x y z
#    x 2.229750 0.000000 -0.015840 
#    y 0.000000 2.169780 0.000000 
#    z -0.015840 0.000000 1.982210 
# 
# From -- ./inp_files/27129.got.cif
#   From: 2010.05.17/outbox.cif.g08.bks.cpg/sg9_14_cif.got.tgz:27129.got - 2010.06.03 20:04:27.
