data_PCOD9137646
_publ_section_title
;
Structure prediction by ZEFSAII (Michael W. Deem and Ramdas Pophale) SiO2 
 PCOD9137646
Probable space group: C C
;
_chemical_formula_sum "Si O2"
_cell_formula_units_Z 32
_cell_length_a 7.229518
_cell_length_b 22.090238
_cell_length_c 12.542666
_cell_angle_alpha 90.000000
_cell_angle_beta 48.042562
_cell_angle_gamma 90.000000
_cell_volume 1489.578243
_symmetry_space_group_name_H-M "C C"
_symmetry_group_IT_number 9
_symmetry_cell_setting 'monoclinic'
loop_
_space_group_symop_operation_xyz
x,y,z
x,-y,1/2+z
1/2+x,1/2+y,z
1/2+x,1/2-y,1/2+z
loop_
_atom_site_type_symbol
_atom_site_label
_atom_site_fract_x
_atom_site_fract_y
_atom_site_fract_z
Si Si1 0.137750 0.857177 0.053470
Si Si2 0.451950 0.890774 0.490342
Si Si3 0.266363 0.982734 0.064793
Si Si4 0.734857 0.939515 0.001070
Si Si5 0.448457 0.556322 0.881917
Si Si6 0.107216 0.289689 0.270884
Si Si7 0.190703 0.847429 0.801350
Si Si8 0.331560 0.147401 0.717906
O O1 0.118809 0.930694 0.059121
O O2 0.265656 0.844465 0.118630
O O3 0.882334 0.818887 0.149209
O O4 0.283780 0.844850 0.887812
O O5 0.465249 0.833104 0.409366
O O6 0.372519 0.871345 0.639868
O O7 0.729426 0.916564 0.394494
O O8 0.286086 0.948539 0.518947
O O9 0.137377 0.980137 0.231271
O O10 0.548827 0.957639 0.974650
O O11 0.953735 0.892727 0.890600
O O12 0.550686 0.902299 0.147488
O O13 0.833417 0.004874 0.000791
O O14 0.596071 0.615258 0.863422
O O15 0.121843 0.221221 0.301465
O O16 0.943039 0.293765 0.227560
#
# Coordination Sequence:
#
# PCOD9137646 Si02
#       8
#     4   4   4   4   4   4   4   4
#     4  10  22  47  67  93 131 179 220 276 341 389
#     4  11  22  40  69 101 136 171 227 280 338 395
#     4   9  19  39  68  95 128 173 225 275 340 396
#     4   9  18  36  65  92 129 167 209 276 323 394
#     4   9  17  39  66  96 131 163 221 278 329 401
#     4  12  24  44  66  97 135 184 221 273 332 406
#     4  12  24  40  67 101 136 174 228 272 333 408
#     4  10  22  43  68  93 130 179 219 266 338 395
#
# _framework density 21.482592
#
# number of rings (size 3 to 8) (size 9 to 14) (size 15 to 20)
#    0.000    2.000    5.000    0.750    0.000    1.000 
#    4.500    2.500    0.000    0.000    0.000    0.000 
#    0.000    0.000    0.000    0.000    0.000    0.000 
#
# Total GULP energy -89130.888076 kJ/mol
# GULP energy per Si atom -5570.680505 kJ/mol
# Density = 2.143370 g / cm^3
# Si number density = 21.482592 Si / 1000 Ang^3
#
#
#
# Elastic Constant Matrix: (Units=GPa)
#
#
# Indices 1 2 3 4 5 6 
#
# 1 86.9764 35.3788 24.1942 0.0000 9.8976 0.0000
# 2 35.3788 123.1757 8.7185 0.0000 8.0203 0.0000
# 3 24.1942 8.7185 61.4058 0.0000 3.2767 0.0000
# 4 0.0000 0.0000 0.0000 17.8037 0.0000 8.3667
# 5 9.8976 8.0203 3.2767 0.0000 28.5738 0.0000
# 6 0.0000 0.0000 0.0000 8.3667 0.0000 27.0196
#
#
#
# Elastic Compliance Matrix: (Units=1/GPa)
#
#
# Indices 1 2 3 4 5 6 
#
# 1 0.014814 -0.003663 -0.005129 0.000000 -0.003515 0.000000
# 2 -0.003663 0.009244 0.000203 0.000000 -0.001349 0.000000
# 3 -0.005129 0.000203 0.018297 0.000000 -0.000378 0.000000
# 4 0.000000 0.000000 0.000000 0.065734 0.000000 -0.020355
# 5 -0.003515 -0.001349 -0.000378 0.000000 0.036637 0.000000
# 6 0.000000 0.000000 0.000000 -0.020355 0.000000 0.043313
#
#
# Mechanical properties :
#
#
# Convention : Reuss Voigt Hill
#
# Bulk Modulus (GPa) = 39.71925 45.34902 42.53413
# Shear Modulus (GPa) = 23.40711 28.23052 25.81881
#
# Velocity S-wave (km/s) = 3.30447 3.62900 3.47053
# Velocity P-wave (km/s) = 5.75226 6.22214 5.99181
#
# Compressibility (1/GPa) = 0.02517671
#
# Stress axis : x y z
#
# Youngs Moduli (GPa) = 67.50304 108.17736 54.65240
#
# Poissons Ratio (x) = 0.39626 0.28032
# Poissons Ratio (y) = 0.24727 -0.01108
# Poissons Ratio (z) = 0.34624 -0.02193
#
# Static dielectric constant tensor:
#      x y z
#    x 1.832630 0.000000 -0.003970 
#    y 0.000000 1.783190 0.000000 
#    z -0.003970 0.000000 1.817580 
# 
# From -- ./inp_files/23765.got.cif
#   From: 2010.05.17/outbox.cif.g08.bks.cpg/sg9_12_cif.got.tgz:23765.got - 2010.06.03 20:04:27.
