data_PCOD9137745
_publ_section_title
;
Structure prediction by ZEFSAII (Michael W. Deem and Ramdas Pophale) SiO2 
 PCOD9137745
Probable space group: C C
;
_chemical_formula_sum "Si O2"
_cell_formula_units_Z 32
_cell_length_a 5.033808
_cell_length_b 30.369336
_cell_length_c 8.080575
_cell_angle_alpha 90.000000
_cell_angle_beta 93.796358
_cell_angle_gamma 90.000000
_cell_volume 1232.594371
_symmetry_space_group_name_H-M "C C"
_symmetry_group_IT_number 9
_symmetry_cell_setting 'monoclinic'
loop_
_space_group_symop_operation_xyz
x,y,z
x,-y,1/2+z
1/2+x,1/2+y,z
1/2+x,1/2-y,1/2+z
loop_
_atom_site_type_symbol
_atom_site_label
_atom_site_fract_x
_atom_site_fract_y
_atom_site_fract_z
Si Si1 0.477760 0.337130 0.056630
Si Si2 0.082638 0.668783 0.980552
Si Si3 0.900720 0.977821 0.209189
Si Si4 0.064873 0.219992 0.849958
Si Si5 0.589577 0.570770 0.187984
Si Si6 0.729483 0.399934 0.344099
Si Si7 0.965473 0.676966 0.358806
Si Si8 0.629062 0.052290 0.387539
O O1 0.499248 0.290952 0.156266
O O2 0.593109 0.370490 0.197296
O O3 0.175902 0.344972 0.992329
O O4 0.334615 0.419316 0.787680
O O5 0.362893 0.690490 0.949547
O O6 0.859750 0.702452 0.899483
O O7 0.019771 0.621974 0.886856
O O8 0.030222 0.665501 0.173059
O O9 0.142658 0.948448 0.284870
O O10 0.038848 0.020108 0.128275
O O11 0.702528 0.002545 0.328091
O O12 0.717071 0.949404 0.079752
O O13 0.015783 0.270890 0.879314
O O14 0.670284 0.665249 0.406446
O O15 0.839369 0.567103 0.321676
O O16 0.621759 0.600433 0.029236
#
# Coordination Sequence:
#
# PCOD9137745 Si02
#       8
#     4   4   4   4   4   4   4   4
#     4  11  26  42  68 110 136 187 229 287 369 396
#     4  11  26  42  68 107 137 191 225 290 369 398
#     4  10  22  44  66  99 126 179 227 290 335 425
#     4  11  22  45  70 101 139 187 235 284 338 430
#     4  10  23  43  65  97 123 181 224 279 345 412
#     4  11  25  48  67  97 150 176 231 307 346 424
#     4  12  23  44  70 101 143 181 241 281 337 443
#     4  10  23  38  66  96 122 162 244 264 343 410
#
# _framework density 25.961503
#
# number of rings (size 3 to 8) (size 9 to 14) (size 15 to 20)
#    0.750    0.500    1.250    4.500    3.500    5.000 
#    6.750    0.000    0.000    0.000    0.000    0.000 
#    0.000    0.000    0.000    0.000    0.000    0.000 
#
# Total GULP energy -89591.007891 kJ/mol
# GULP energy per Si atom -5599.437993 kJ/mol
# Density = 2.590241 g / cm^3
# Si number density = 25.961503 Si / 1000 Ang^3
#
#
#
# Elastic Constant Matrix: (Units=GPa)
#
#
# Indices 1 2 3 4 5 6 
#
# 1 76.8697 16.3506 10.5002 0.0000 6.9439 0.0000
# 2 16.3506 129.0818 22.6168 0.0000 3.7060 0.0000
# 3 10.5002 22.6168 109.5973 0.0000 1.9859 0.0000
# 4 0.0000 0.0000 0.0000 35.5708 0.0000 2.7108
# 5 6.9439 3.7060 1.9859 0.0000 43.3823 0.0000
# 6 0.0000 0.0000 0.0000 2.7108 0.0000 28.0301
#
#
#
# Elastic Compliance Matrix: (Units=1/GPa)
#
#
# Indices 1 2 3 4 5 6 
#
# 1 0.013641 -0.001502 -0.000961 0.000000 -0.002011 0.000000
# 2 -0.001502 0.008219 -0.001545 0.000000 -0.000391 0.000000
# 3 -0.000961 -0.001545 0.009538 0.000000 -0.000151 0.000000
# 4 0.000000 0.000000 0.000000 0.028322 0.000000 -0.002739
# 5 -0.002011 -0.000391 -0.000151 0.000000 0.023413 0.000000
# 6 0.000000 0.000000 0.000000 -0.002739 0.000000 0.035941
#
#
# Mechanical properties :
#
#
# Convention : Reuss Voigt Hill
#
# Bulk Modulus (GPa) = 42.76556 46.05378 44.40967
# Shear Modulus (GPa) = 37.06894 39.13539 38.10216
#
# Velocity S-wave (km/s) = 3.78278 3.88679 3.83514
# Velocity P-wave (km/s) = 5.96554 6.15797 6.06252
#
# Compressibility (1/GPa) = 0.02338330
#
# Stress axis : x y z
#
# Youngs Moduli (GPa) = 73.30644 121.66591 104.84442
#
# Poissons Ratio (x) = 0.18273 0.10071
# Poissons Ratio (y) = 0.11010 0.16200
# Poissons Ratio (z) = 0.07042 0.18799
#
# Static dielectric constant tensor:
#      x y z
#    x 1.974620 0.000000 -0.021180 
#    y 0.000000 2.109060 0.000000 
#    z -0.021180 0.000000 2.005410 
# 
# From -- ./inp_files/4406.got.cif
#   From: 2010.05.17/outbox.cif.g08.bks.cpg/sg9_3_cif.got.tgz:4406.got - 2010.06.03 20:04:27.
