data_PCOD9137605
_publ_section_title
;
Structure prediction by ZEFSAII (Michael W. Deem and Ramdas Pophale) SiO2 
 PCOD9137605
Probable space group: C C
;
_chemical_formula_sum "Si O2"
_cell_formula_units_Z 32
_cell_length_a 13.685057
_cell_length_b 12.163787
_cell_length_c 7.967463
_cell_angle_alpha 90.000000
_cell_angle_beta 91.139233
_cell_angle_gamma 90.000000
_cell_volume 1326.018607
_symmetry_space_group_name_H-M "C C"
_symmetry_group_IT_number 9
_symmetry_cell_setting 'monoclinic'
loop_
_space_group_symop_operation_xyz
x,y,z
x,-y,1/2+z
1/2+x,1/2+y,z
1/2+x,1/2-y,1/2+z
loop_
_atom_site_type_symbol
_atom_site_label
_atom_site_fract_x
_atom_site_fract_y
_atom_site_fract_z
Si Si1 0.032740 0.334225 0.389200
Si Si2 0.816940 0.327304 0.315330
Si Si3 0.700005 0.128234 0.411434
Si Si4 0.298932 0.042221 0.161779
Si Si5 0.462565 0.438309 0.487121
Si Si6 0.593025 0.384767 0.784608
Si Si7 0.512180 0.071198 0.256338
Si Si8 0.813238 0.067001 0.725834
O O1 0.104919 0.234303 0.366407
O O2 0.034019 0.441247 0.272585
O O3 0.040653 0.381876 0.576238
O O4 0.925492 0.281950 0.351874
O O5 0.741042 0.229723 0.307530
O O6 0.811543 0.410442 0.160615
O O7 0.798385 0.401843 0.480141
O O8 0.583773 0.125036 0.393733
O O9 0.745927 0.136663 0.598562
O O10 0.744817 0.017500 0.327571
O O11 0.197691 0.066116 0.247666
O O12 0.395912 0.084058 0.261780
O O13 0.535168 0.370979 0.606720
O O14 0.529114 0.530383 0.395044
O O15 0.385766 0.498676 0.607057
O O16 0.391388 0.376720 0.353427
#
# Coordination Sequence:
#
# PCOD9137605 Si02
#       8
#     4   4   4   4   4   4   4   4
#     4  10  22  43  66  92 130 174 217 266 326 388
#     4  10  22  43  65  89 126 170 214 267 323 382
#     4  11  21  39  67  95 129 175 216 264 329 391
#     4  10  23  42  64  94 130 167 219 269 315 387
#     4   9  19  36  60  97 136 164 207 271 326 382
#     4  11  21  39  67  97 132 177 217 264 329 394
#     4  10  23  42  65  95 132 172 219 272 320 385
#     4   9  19  36  60  97 135 163 209 271 324 385
#
# _framework density 24.132390999999998
#
# number of rings (size 3 to 8) (size 9 to 14) (size 15 to 20)
#    0.000    2.000    0.000    3.750    0.000    4.000 
#    0.000   15.000    0.000    6.000    0.000    0.000 
#    0.000    0.000    0.000    0.000    0.000    0.000 
#
# Total GULP energy -89486.451705 kJ/mol
# GULP energy per Si atom -5592.903232 kJ/mol
# Density = 2.407746 g / cm^3
# Si number density = 24.132391 Si / 1000 Ang^3
#
#
#
# Elastic Constant Matrix: (Units=GPa)
#
#
# Indices 1 2 3 4 5 6 
#
# 1 117.5342 5.9868 47.4893 0.0000 28.5436 0.0000
# 2 5.9868 49.3599 18.2341 0.0000 16.6486 0.0000
# 3 47.4893 18.2341 88.6969 0.0000 14.0214 0.0000
# 4 0.0000 0.0000 0.0000 28.5324 0.0000 -11.2287
# 5 28.5436 16.6486 14.0214 0.0000 32.0353 0.0000
# 6 0.0000 0.0000 0.0000 -11.2287 0.0000 21.5135
#
#
#
# Elastic Compliance Matrix: (Units=1/GPa)
#
#
# Indices 1 2 3 4 5 6 
#
# 1 0.013768 0.004730 -0.006463 0.000000 -0.011897 0.000000
# 2 0.004730 0.027099 -0.005598 0.000000 -0.015848 0.000000
# 3 -0.006463 -0.005598 0.015594 0.000000 0.001843 0.000000
# 4 0.000000 0.000000 0.000000 0.044108 0.000000 0.023022
# 5 -0.011897 -0.015848 0.001843 0.000000 0.049245 0.000000
# 6 0.000000 0.000000 0.000000 0.023022 0.000000 0.058498
#
#
# Mechanical properties :
#
#
# Convention : Reuss Voigt Hill
#
# Bulk Modulus (GPa) = 23.92418 44.33460 34.12939
# Shear Modulus (GPa) = 21.10525 28.67496 24.89011
#
# Velocity S-wave (km/s) = 2.96051 3.45082 3.21502
# Velocity P-wave (km/s) = 4.64988 5.85567 5.28726
#
# Compressibility (1/GPa) = 0.04179871
#
# Stress axis : x y z
#
# Youngs Moduli (GPa) = 72.63319 36.90174 64.12549
#
# Poissons Ratio (x) = -0.17456 0.41446
# Poissons Ratio (y) = -0.34358 0.35900
# Poissons Ratio (z) = 0.46944 0.20659
#
# Static dielectric constant tensor:
#      x y z
#    x 1.921530 0.000000 0.005170 
#    y 0.000000 1.917400 0.000000 
#    z 0.005170 0.000000 1.948690 
# 
# From -- ./inp_files/9275.got.cif
#   From: 2010.05.17/outbox.cif.g08.bks.cpg/sg9_5_cif.got.tgz:9275.got - 2010.06.03 20:04:27.
