data_PCOD9137407
_publ_section_title
;
Structure prediction by ZEFSAII (Michael W. Deem and Ramdas Pophale) SiO2 
 PCOD9137407
Probable space group: C C
;
_chemical_formula_sum "Si O2"
_cell_formula_units_Z 32
_cell_length_a 23.110776
_cell_length_b 9.083393
_cell_length_c 8.113892
_cell_angle_alpha 90.000000
_cell_angle_beta 60.040679
_cell_angle_gamma 90.000000
_cell_volume 1475.707765
_symmetry_space_group_name_H-M "C C"
_symmetry_group_IT_number 9
_symmetry_cell_setting 'monoclinic'
loop_
_space_group_symop_operation_xyz
x,y,z
x,-y,1/2+z
1/2+x,1/2+y,z
1/2+x,1/2-y,1/2+z
loop_
_atom_site_type_symbol
_atom_site_label
_atom_site_fract_x
_atom_site_fract_y
_atom_site_fract_z
Si Si1 0.455930 0.198605 0.544310
Si Si2 0.162345 0.602290 0.366909
Si Si3 0.241865 0.649397 0.573408
Si Si4 0.427827 0.317141 0.270645
Si Si5 0.091033 0.854086 0.267719
Si Si6 0.128412 0.828043 0.835076
Si Si7 0.537697 0.088180 0.990706
Si Si8 0.397198 0.355956 0.928010
O O1 0.401836 0.236892 0.477396
O O2 0.515547 0.315147 0.425260
O O3 0.430454 0.230565 0.765365
O O4 0.490132 0.037852 0.483844
O O5 0.212233 0.658317 0.434257
O O6 0.208044 0.497326 0.191704
O O7 0.134791 0.740033 0.307723
O O8 0.096611 0.501345 0.503463
O O9 0.205730 0.784958 0.716061
O O10 0.320058 0.639892 0.484305
O O11 0.489050 0.203474 0.149732
O O12 0.430843 0.488253 0.325176
O O13 0.399756 0.329875 0.122262
O O14 0.109290 0.019732 0.283086
O O15 0.107267 0.831714 0.054323
O O16 0.083315 0.698713 0.816399
#
# Coordination Sequence:
#
# PCOD9137407 Si02
#       8
#     4   4   4   4   4   4   4   4
#     4  11  26  45  70 106 146 185 233 293 363 427
#     4  10  22  41  71  99 138 176 234 298 357 423
#     4  11  24  45  68 100 135 191 238 286 347 431
#     4  12  25  44  71 105 143 188 239 293 356 426
#     4  11  23  42  69 108 138 178 231 302 372 420
#     4  11  23  41  71 100 143 178 231 301 359 426
#     4  10  24  41  70 106 141 178 234 302 368 419
#     4  12  27  47  70 104 144 202 240 289 348 436
#
# _framework density 21.684512000000002
#
# number of rings (size 3 to 8) (size 9 to 14) (size 15 to 20)
#    0.000    1.000    2.500    3.750    5.250    2.000 
#    0.000    3.750    0.000    0.000    0.000    0.000 
#    0.000    0.000    0.000    0.000    0.000    0.000 
#
# Total GULP energy -89203.326771 kJ/mol
# GULP energy per Si atom -5575.207923 kJ/mol
# Density = 2.163516 g / cm^3
# Si number density = 21.684512 Si / 1000 Ang^3
#
#
#
# Elastic Constant Matrix: (Units=GPa)
#
#
# Indices 1 2 3 4 5 6 
#
# 1 116.7264 63.4723 55.2592 0.0000 20.0363 0.0000
# 2 63.4723 150.8446 40.6152 0.0000 -9.4483 0.0000
# 3 55.2592 40.6152 64.3213 0.0000 16.6314 0.0000
# 4 0.0000 0.0000 0.0000 32.1073 0.0000 8.2283
# 5 20.0363 -9.4483 16.6314 0.0000 35.4302 0.0000
# 6 0.0000 0.0000 0.0000 8.2283 0.0000 20.5138
#
#
#
# Elastic Compliance Matrix: (Units=1/GPa)
#
#
# Indices 1 2 3 4 5 6 
#
# 1 0.016969 -0.004870 -0.009886 0.000000 -0.006254 0.000000
# 2 -0.004870 0.010294 -0.004254 0.000000 0.007496 0.000000
# 3 -0.009886 -0.004254 0.029107 0.000000 -0.009207 0.000000
# 4 0.000000 0.000000 0.000000 0.034714 0.000000 -0.013924
# 5 -0.006254 0.007496 -0.009207 0.000000 0.038082 0.000000
# 6 0.000000 0.000000 0.000000 -0.013924 0.000000 0.054333
#
#
# Mechanical properties :
#
#
# Convention : Reuss Voigt Hill
#
# Bulk Modulus (GPa) = 54.49799 72.28729 63.39264
# Shear Modulus (GPa) = 21.96504 29.11331 25.53917
#
# Velocity S-wave (km/s) = 3.18612 3.66811 3.43558
# Velocity P-wave (km/s) = 6.22269 7.16577 6.71082
#
# Compressibility (1/GPa) = 0.01834930
#
# Stress axis : x y z
#
# Youngs Moduli (GPa) = 58.93154 97.14853 34.35631
#
# Poissons Ratio (x) = 0.47313 0.33964
# Poissons Ratio (y) = 0.28700 0.14615
# Poissons Ratio (z) = 0.58258 0.41327
#
# Static dielectric constant tensor:
#      x y z
#    x 1.813960 0.000000 0.049570 
#    y 0.000000 1.776980 0.000000 
#    z 0.049570 0.000000 1.895010 
# 
# From -- ./inp_files/12061.got.cif
#   From: 2010.05.17/outbox.cif.g08.bks.cpg/sg9_7_cif.got.tgz:12061.got - 2010.06.03 20:04:27.
