data_PCOD9137238
_publ_section_title
;
Structure prediction by ZEFSAII (Michael W. Deem and Ramdas Pophale) SiO2 
 PCOD9137238
Probable space group: C C
;
_chemical_formula_sum "Si O2"
_cell_formula_units_Z 28
_cell_length_a 12.854291
_cell_length_b 20.092757
_cell_length_c 4.940391
_cell_angle_alpha 90.000000
_cell_angle_beta 75.460489
_cell_angle_gamma 90.000000
_cell_volume 1235.130964
_symmetry_space_group_name_H-M "C C"
_symmetry_group_IT_number 9
_symmetry_cell_setting 'monoclinic'
loop_
_space_group_symop_operation_xyz
x,y,z
x,-y,1/2+z
1/2+x,1/2+y,z
1/2+x,1/2-y,1/2+z
loop_
_atom_site_type_symbol
_atom_site_label
_atom_site_fract_x
_atom_site_fract_y
_atom_site_fract_z
Si Si1 0.931380 0.742158 0.710700
Si Si2 0.549045 0.859763 0.804050
Si Si3 0.141834 0.218150 0.375936
Si Si4 0.262641 0.336682 0.017960
Si Si5 0.728212 0.651190 0.844918
Si Si6 0.168687 0.449288 0.353378
Si Si7 0.376713 0.958055 0.171227
O O1 0.841974 0.686828 0.838318
O O2 0.985088 0.709252 0.407217
O O3 0.028114 0.753016 0.855588
O O4 0.862837 0.810412 0.775882
O O5 0.580276 0.892233 0.494254
O O6 0.663286 0.850976 0.880009
O O7 0.474945 0.913887 0.001446
O O8 0.226231 0.275920 0.236785
O O9 0.166547 0.194472 0.660837
O O10 0.162895 0.155693 0.163073
O O11 0.269410 0.402495 0.199402
O O12 0.765465 0.581230 0.703618
O O13 0.162899 0.502265 0.114762
O O14 0.381316 0.977113 0.481156
#
# Coordination Sequence:
#
# PCOD9137238 Si02
#       7
#     4   4   4   4   4   4   4
#     4   9  22  43  66 101 132 181 230 285 351 422
#     4  10  22  41  64 100 136 176 226 286 344 418
#     4  10  22  40  66  94 133 173 223 286 350 408
#     4  10  23  41  65  97 136 180 224 284 352 414
#     4  10  22  41  61  98 134 168 221 289 346 410
#     4  12  24  40  64  93 137 182 221 278 347 420
#     4  11  23  38  64  95 128 172 223 276 350 420
#
# _framework density 22.669657000000001
#
# number of rings (size 3 to 8) (size 9 to 14) (size 15 to 20)
#    0.000    1.714    1.429    1.714    8.000    2.286 
#   10.286    0.000    0.000    5.143    0.000    0.000 
#    0.000    0.000    0.000    0.000    0.000    0.000 
#
# Total GULP energy -78070.141507 kJ/mol
# GULP energy per Si atom -5576.438679 kJ/mol
# Density = 2.261806 g / cm^3
# Si number density = 22.669657 Si / 1000 Ang^3
#
#
#
# Elastic Constant Matrix: (Units=GPa)
#
#
# Indices 1 2 3 4 5 6 
#
# 1 68.5652 27.5882 23.2875 0.0000 -4.2439 0.0000
# 2 27.5882 111.7653 55.1956 0.0000 -16.7529 0.0000
# 3 23.2875 55.1956 106.5224 0.0000 4.8737 0.0000
# 4 0.0000 0.0000 0.0000 57.3164 0.0000 -17.1372
# 5 -4.2439 -16.7529 4.8737 0.0000 16.6072 0.0000
# 6 0.0000 0.0000 0.0000 -17.1372 0.0000 38.3608
#
#
#
# Elastic Compliance Matrix: (Units=1/GPa)
#
#
# Indices 1 2 3 4 5 6 
#
# 1 0.016575 -0.002542 -0.002416 0.000000 0.002381 0.000000
# 2 -0.002542 0.016924 -0.009087 0.000000 0.019089 0.000000
# 3 -0.002416 -0.009087 0.015277 0.000000 -0.014267 0.000000
# 4 0.000000 0.000000 0.000000 0.020137 0.000000 0.008996
# 5 0.002381 0.019089 -0.014267 0.000000 0.084267 0.000000
# 6 0.000000 0.000000 0.000000 0.008996 0.000000 0.030087
#
#
# Mechanical properties :
#
#
# Convention : Reuss Voigt Hill
#
# Bulk Modulus (GPa) = 48.33812 55.44393 51.89103
# Shear Modulus (GPa) = 22.90944 34.50896 28.70920
#
# Velocity S-wave (km/s) = 3.18241 3.90584 3.56253
# Velocity P-wave (km/s) = 5.90531 6.69710 6.31363
#
# Compressibility (1/GPa) = 0.02068761
#
# Stress axis : x y z
#
# Youngs Moduli (GPa) = 60.33151 59.08891 65.45791
#
# Poissons Ratio (x) = 0.15018 0.15812
# Poissons Ratio (y) = 0.15334 0.59481
# Poissons Ratio (z) = 0.14573 0.53693
#
# Static dielectric constant tensor:
#      x y z
#    x 1.858990 0.000000 -0.001940 
#    y 0.000000 1.923800 0.000000 
#    z -0.001940 0.000000 1.892840 
# 
# From -- ./inp_files/1828.got.cif
#   From: 2010.05.17/outbox.cif.g08.bks.cpg/sg9_1_cif.got.tgz:1828.got - 2010.06.03 20:04:27.
