data_PCOD9137770
_publ_section_title
;
Structure prediction by ZEFSAII (Michael W. Deem and Ramdas Pophale) SiO2 
 PCOD9137770
Probable space group: C C
;
_chemical_formula_sum "Si O2"
_cell_formula_units_Z 24
_cell_length_a 12.319205
_cell_length_b 9.301899
_cell_length_c 13.175467
_cell_angle_alpha 90.000000
_cell_angle_beta 50.919133
_cell_angle_gamma 90.000000
_cell_volume 1171.995194
_symmetry_space_group_name_H-M "C C"
_symmetry_group_IT_number 9
_symmetry_cell_setting 'monoclinic'
loop_
_space_group_symop_operation_xyz
x,y,z
x,-y,1/2+z
1/2+x,1/2+y,z
1/2+x,1/2-y,1/2+z
loop_
_atom_site_type_symbol
_atom_site_label
_atom_site_fract_x
_atom_site_fract_y
_atom_site_fract_z
Si Si1 0.150890 0.657313 0.360250
Si Si2 0.235099 0.033340 0.840693
Si Si3 0.530687 0.662416 0.591537
Si Si4 0.792960 0.961137 0.112972
Si Si5 0.054937 0.512553 0.110710
Si Si6 0.007479 0.894936 0.333055
O O1 0.224353 0.795700 0.368689
O O2 0.255026 0.568537 0.227520
O O3 0.081209 0.563186 0.487866
O O4 0.036238 0.732241 0.354491
O O5 0.149881 0.024434 0.784263
O O6 0.393626 0.989601 0.736804
O O7 0.145609 0.939870 0.971921
O O8 0.392683 0.661027 0.601446
O O9 0.592820 0.819894 0.574135
O O10 0.486444 0.601140 0.726773
O O11 0.648185 0.932604 0.140694
O O12 0.885735 0.039353 0.972588
#
# Coordination Sequence:
#
# PCOD9137770 Si02
#       6
#     4   4   4   4   4   4
#     4  10  22  44  68  92 134 179 230 272 346 407
#     4   9  24  42  65 100 128 184 229 272 347 411
#     4  11  24  44  70  97 140 175 234 283 340 410
#     4  11  23  42  68 101 134 181 227 282 345 405
#     4  12  24  42  68 103 137 178 228 286 346 405
#     4   9  21  44  69  89 129 185 222 277 340 408
#
# _framework density 20.477899000000001
#
# number of rings (size 3 to 8) (size 9 to 14) (size 15 to 20)
#    1.000    0.667    1.667    2.000    4.667    1.333 
#    6.000    0.000    0.000    0.000    0.000    0.000 
#    0.000    0.000    0.000    0.000    0.000    0.000 
#
# Total GULP energy -66927.990457 kJ/mol
# GULP energy per Si atom -5577.332538 kJ/mol
# Density = 2.043129 g / cm^3
# Si number density = 20.477899 Si / 1000 Ang^3
#
#
#
# Elastic Constant Matrix: (Units=GPa)
#
#
# Indices 1 2 3 4 5 6 
#
# 1 116.4340 4.8533 50.7504 0.0000 1.7484 0.0000
# 2 4.8533 21.9714 24.3165 0.0000 11.5099 0.0000
# 3 50.7504 24.3165 107.9760 0.0000 13.1191 0.0000
# 4 0.0000 0.0000 0.0000 35.0239 0.0000 3.0683
# 5 1.7484 11.5099 13.1191 0.0000 33.0494 0.0000
# 6 0.0000 0.0000 0.0000 3.0683 0.0000 22.2491
#
#
#
# Elastic Compliance Matrix: (Units=1/GPa)
#
#
# Indices 1 2 3 4 5 6 
#
# 1 0.011121 0.004218 -0.006227 0.000000 0.000415 0.000000
# 2 0.004218 0.072180 -0.015925 0.000000 -0.019040 0.000000
# 3 -0.006227 -0.015925 0.015824 0.000000 -0.000406 0.000000
# 4 0.000000 0.000000 0.000000 0.028901 0.000000 -0.003986
# 5 0.000415 -0.019040 -0.000406 0.000000 0.037028 0.000000
# 6 0.000000 0.000000 0.000000 -0.003986 0.000000 0.045495
#
#
# Mechanical properties :
#
#
# Convention : Reuss Voigt Hill
#
# Bulk Modulus (GPa) = 15.80835 45.13576 30.47205
# Shear Modulus (GPa) = 18.69146 29.16190 23.92668
#
# Velocity S-wave (km/s) = 3.02447 3.77778 3.42192
# Velocity P-wave (km/s) = 4.46465 6.41232 5.52498
#
# Compressibility (1/GPa) = 0.06325771
#
# Stress axis : x y z
#
# Youngs Moduli (GPa) = 89.92156 13.85423 63.19589
#
# Poissons Ratio (x) = -0.05844 0.39354
# Poissons Ratio (y) = -0.37932 1.00636
# Poissons Ratio (z) = 0.55997 0.22062
#
# Static dielectric constant tensor:
#      x y z
#    x 1.759300 0.000000 -0.011690 
#    y 0.000000 1.739460 0.000000 
#    z -0.011690 0.000000 1.678420 
# 
# From -- ./inp_files/15978.got.cif
#   From: 2010.05.17/outbox.cif.g08.bks.cpg/sg9_8_cif.got.tgz:15978.got - 2010.06.03 20:04:27.
