data_PCOD9137096
_publ_section_title
;
Structure prediction by ZEFSAII (Michael W. Deem and Ramdas Pophale) SiO2 
 PCOD9137096
Probable space group: C C
;
_chemical_formula_sum "Si O2"
_cell_formula_units_Z 28
_cell_length_a 9.334293
_cell_length_b 26.565685
_cell_length_c 9.457144
_cell_angle_alpha 90.000000
_cell_angle_beta 31.659022
_cell_angle_gamma 90.000000
_cell_volume 1230.859328
_symmetry_space_group_name_H-M "C C"
_symmetry_group_IT_number 9
_symmetry_cell_setting 'monoclinic'
loop_
_space_group_symop_operation_xyz
x,y,z
x,-y,1/2+z
1/2+x,1/2+y,z
1/2+x,1/2-y,1/2+z
loop_
_atom_site_type_symbol
_atom_site_label
_atom_site_fract_x
_atom_site_fract_y
_atom_site_fract_z
Si Si1 0.674380 0.459423 0.590610
Si Si2 0.357014 0.973356 0.725663
Si Si3 0.209338 0.371677 0.421707
Si Si4 0.682450 0.924960 0.877766
Si Si5 0.561949 0.863769 0.236791
Si Si6 0.760330 0.281825 0.306733
Si Si7 0.827146 0.646698 0.484026
O O1 0.622577 0.464147 0.803170
O O2 0.769662 0.514293 0.458643
O O3 0.484402 0.446149 0.614823
O O4 0.881070 0.413208 0.416815
O O5 0.566623 0.926737 0.547126
O O6 0.517795 0.024564 0.552271
O O7 0.198858 0.351471 0.269950
O O8 0.011263 0.339474 0.692485
O O9 0.526522 0.373203 0.197132
O O10 0.524695 0.893154 0.896160
O O11 0.740990 0.886112 0.959031
O O12 0.391743 0.818392 0.313478
O O13 0.463656 0.264942 0.608721
O O14 0.765877 0.310880 0.152679
#
# Coordination Sequence:
#
# PCOD9137096 Si02
#       7
#     4   4   4   4   4   4   4
#     4  10  22  39  61  91 136 176 234 277 320 390
#     4  10  23  37  59  95 129 187 229 276 319 380
#     4  11  25  43  69 100 141 179 221 276 341 395
#     4  10  23  39  65  88 139 182 237 271 317 398
#     4   9  24  43  66 100 131 176 219 281 339 395
#     4  11  25  47  77 102 129 172 225 272 340 427
#     4  11  26  44  69 100 137 180 219 279 346 397
#
# _framework density 22.748334
#
# number of rings (size 3 to 8) (size 9 to 14) (size 15 to 20)
#    0.000    1.714    0.000    1.714   18.000    2.286 
#    0.000    4.286    0.000    0.000    0.000    0.000 
#    0.000    0.000    0.000    0.000    0.000    0.000 
#
# Total GULP energy -78019.677261 kJ/mol
# GULP energy per Si atom -5572.834090 kJ/mol
# Density = 2.269656 g / cm^3
# Si number density = 22.748334 Si / 1000 Ang^3
#
#
#
# Elastic Constant Matrix: (Units=GPa)
#
#
# Indices 1 2 3 4 5 6 
#
# 1 142.1447 33.3636 40.8073 0.0000 8.1647 0.0000
# 2 33.3636 39.8577 -9.3031 0.0000 10.0497 0.0000
# 3 40.8073 -9.3031 55.4798 0.0000 -0.0599 0.0000
# 4 0.0000 0.0000 0.0000 12.6536 0.0000 3.3179
# 5 8.1647 10.0497 -0.0599 0.0000 39.0267 0.0000
# 6 0.0000 0.0000 0.0000 3.3179 0.0000 18.6153
#
#
#
# Elastic Compliance Matrix: (Units=1/GPa)
#
#
# Indices 1 2 3 4 5 6 
#
# 1 0.014333 -0.015288 -0.013105 0.000000 0.000918 0.000000
# 2 -0.015288 0.044306 0.018665 0.000000 -0.008182 0.000000
# 3 -0.013105 0.018665 0.030791 0.000000 -0.002018 0.000000
# 4 0.000000 0.000000 0.000000 0.082903 0.000000 -0.014776
# 5 0.000918 -0.008182 -0.002018 0.000000 0.027535 0.000000
# 6 0.000000 0.000000 0.000000 -0.014776 0.000000 0.056353
#
#
# Mechanical properties :
#
#
# Convention : Reuss Voigt Hill
#
# Bulk Modulus (GPa) = 14.29074 40.80198 27.54636
# Shear Modulus (GPa) = 16.72234 25.56675 21.14454
#
# Velocity S-wave (km/s) = 2.71422 3.35609 3.05208
# Velocity P-wave (km/s) = 4.01477 5.74395 4.95537
#
# Compressibility (1/GPa) = 0.06997539
#
# Stress axis : x y z
#
# Youngs Moduli (GPa) = 69.76998 22.57037 32.47665
#
# Poissons Ratio (x) = 0.34505 0.42560
# Poissons Ratio (y) = 1.06663 -0.60619
# Poissons Ratio (z) = 0.91432 -0.42128
#
# Static dielectric constant tensor:
#      x y z
#    x 1.949080 0.000000 -0.015700 
#    y 0.000000 1.875120 0.000000 
#    z -0.015700 0.000000 1.954320 
# 
# From -- ./inp_files/6350.got.cif
#   From: 2010.05.17/outbox.cif.g08.bks.cpg/sg9_4_cif.got.tgz:6350.got - 2010.06.03 20:04:27.
