data_PCOD9138923
_publ_section_title
;
Structure prediction by ZEFSAII (Michael W. Deem and Ramdas Pophale) SiO2 
 PCOD9138923
Probable space group: C C
;
_chemical_formula_sum "Si O2"
_cell_formula_units_Z 28
_cell_length_a 28.243063
_cell_length_b 5.292525
_cell_length_c 25.784407
_cell_angle_alpha 90.000000
_cell_angle_beta 161.966029
_cell_angle_gamma 90.000000
_cell_volume 1193.179867
_symmetry_space_group_name_H-M "C C"
_symmetry_group_IT_number 9
_symmetry_cell_setting 'monoclinic'
loop_
_space_group_symop_operation_xyz
x,y,z
x,-y,1/2+z
1/2+x,1/2+y,z
1/2+x,1/2-y,1/2+z
loop_
_atom_site_type_symbol
_atom_site_label
_atom_site_fract_x
_atom_site_fract_y
_atom_site_fract_z
Si Si1 0.761950 0.022759 0.820560
Si Si2 0.293536 0.728311 0.540411
Si Si3 0.767980 0.430377 0.630051
Si Si4 0.100933 0.536534 0.760891
Si Si5 0.040669 0.044962 0.728515
Si Si6 0.947785 0.945620 0.847445
Si Si7 0.085036 0.983133 0.104134
O O1 0.688748 0.753980 0.728379
O O2 0.713068 0.058261 0.829598
O O3 0.681787 0.258047 0.707246
O O4 0.938408 0.021780 0.988245
O O5 0.181595 0.509513 0.401285
O O6 0.456279 0.619728 0.693512
O O7 0.285721 0.833715 0.589417
O O8 0.223141 0.945191 0.429559
O O9 0.592034 0.487822 0.460782
O O10 0.833610 0.186695 0.729135
O O11 0.863573 0.687264 0.741539
O O12 0.002472 0.780583 0.665687
O O13 0.007099 0.279521 0.656251
O O14 0.018786 0.921116 0.978381
#
# Coordination Sequence:
#
# PCOD9138923 Si02
#       7
#     4   4   4   4   4   4   4
#     4  12  26  43  76 102 149 185 248 282 381 413
#     4  10  26  42  69  97 143 175 242 274 351 414
#     4  12  26  46  76 106 140 195 234 304 360 437
#     4  10  26  40  68  97 142 182 230 287 340 427
#     4  10  24  41  66  93 142 179 225 287 337 406
#     4  12  26  48  76 104 148 182 250 296 374 415
#     4  12  26  48  71 111 140 192 237 312 349 444
#
# _framework density 23.466707
#
# number of rings (size 3 to 8) (size 9 to 14) (size 15 to 20)
#    0.857    0.000    0.000    6.000    8.000    1.143 
#    0.000    0.000    0.000    0.000    0.000    0.000 
#    0.000    0.000    0.000    0.000    0.000    0.000 
#
# Total GULP energy -78178.224481 kJ/mol
# GULP energy per Si atom -5584.158892 kJ/mol
# Density = 2.341330 g / cm^3
# Si number density = 23.466707 Si / 1000 Ang^3
#
#
#
# Elastic Constant Matrix: (Units=GPa)
#
#
# Indices 1 2 3 4 5 6 
#
# 1 103.9891 21.8630 7.9119 -0.0015 -2.2657 -0.0056
# 2 21.8630 154.5832 31.1266 0.0460 -1.7723 0.0182
# 3 7.9119 31.1266 62.5598 0.0057 6.4652 0.0021
# 4 -0.0015 0.0460 0.0057 41.6220 0.0036 -6.2809
# 5 -2.2657 -1.7723 6.4652 0.0036 32.3227 -0.0048
# 6 -0.0056 0.0182 0.0021 -6.2809 -0.0048 27.6704
#
#
#
# Elastic Compliance Matrix: (Units=1/GPa)
#
#
# Indices 1 2 3 4 5 6 
#
# 1 0.009951 -0.001255 -0.000714 0.000002 0.000772 0.000004
# 2 -0.001255 0.007388 -0.003625 -0.000009 0.001042 -0.000007
# 3 -0.000714 -0.003625 0.018282 0.000002 -0.003906 0.000001
# 4 0.000002 -0.000009 0.000002 0.024878 -0.000003 0.005647
# 5 0.000772 0.001042 -0.003906 -0.000003 0.031830 0.000005
# 6 0.000004 -0.000007 0.000001 0.005647 0.000005 0.037422
#
#
# Mechanical properties :
#
#
# Convention : Reuss Voigt Hill
#
# Bulk Modulus (GPa) = 40.92612 49.21502 45.07057
# Shear Modulus (GPa) = 33.53803 37.67171 35.60487
#
# Velocity S-wave (km/s) = 3.78454 4.01100 3.89942
# Velocity P-wave (km/s) = 6.04772 6.51679 6.28664
#
# Compressibility (1/GPa) = 0.02443427
#
# Stress axis : x y z
#
# Youngs Moduli (GPa) = 100.48891 135.34767 54.69776
#
# Poissons Ratio (x) = 0.16984 0.03905
# Poissons Ratio (y) = 0.12610 0.19828
# Poissons Ratio (z) = 0.07174 0.49065
#
# Static dielectric constant tensor:
#      x y z
#    x 1.901570 0.000000 0.004070 
#    y 0.000000 1.924120 -0.000020 
#    z 0.004070 -0.000020 1.944680 
# 
# From -- ./inp_files/12549.got.cif
#   From: 2010.05.17/outbox.cif.g08.bks.cpg/sg9_7_cif.got.tgz:12549.got - 2010.06.03 20:04:27.
