data_PCOD9138849
_publ_section_title
;
Structure prediction by ZEFSAII (Michael W. Deem and Ramdas Pophale) SiO2 
 PCOD9138849
Probable space group: C C
;
_chemical_formula_sum "Si O2"
_cell_formula_units_Z 28
_cell_length_a 5.155360
_cell_length_b 24.518017
_cell_length_c 9.146942
_cell_angle_alpha 90.000000
_cell_angle_beta 81.458369
_cell_angle_gamma 90.000000
_cell_volume 1143.342230
_symmetry_space_group_name_H-M "C C"
_symmetry_group_IT_number 9
_symmetry_cell_setting 'monoclinic'
loop_
_space_group_symop_operation_xyz
x,y,z
x,-y,1/2+z
1/2+x,1/2+y,z
1/2+x,1/2-y,1/2+z
loop_
_atom_site_type_symbol
_atom_site_label
_atom_site_fract_x
_atom_site_fract_y
_atom_site_fract_z
Si Si1 0.157230 0.071237 0.704980
Si Si2 0.430184 0.340006 0.041964
Si Si3 0.098799 0.591252 0.075578
Si Si4 0.550479 0.160857 0.810922
Si Si5 0.803853 0.751963 0.470112
Si Si6 0.219901 0.689187 0.255571
Si Si7 0.106789 0.973087 0.522199
O O1 0.327236 0.120854 0.762584
O O2 0.946637 0.102394 0.621637
O O3 0.240936 0.027908 0.573262
O O4 0.098382 0.032007 0.847242
O O5 0.200789 0.315341 0.158628
O O6 0.689732 0.304816 0.035884
O O7 0.372427 0.336945 0.877312
O O8 0.071920 0.637798 0.198401
O O9 0.312769 0.544728 0.095913
O O10 0.809246 0.571422 0.064529
O O11 0.195345 0.620216 0.915746
O O12 0.559669 0.215079 0.913953
O O13 0.882229 0.787162 0.604985
O O14 0.029907 0.736201 0.336711
#
# Coordination Sequence:
#
# PCOD9138849 Si02
#       7
#     4   4   4   4   4   4   4
#     4  11  27  46  75 112 150 201 264 326 398 469
#     4  12  25  43  74 104 153 187 262 315 394 463
#     4  10  25  49  76 110 155 202 259 321 396 463
#     4  10  23  49  70 108 151 199 253 323 386 479
#     4  11  25  47  72 109 148 212 249 331 392 474
#     4  11  27  44  74 109 154 202 265 315 396 473
#     4  11  26  48  79 108 155 203 256 329 396 465
#
# _framework density 24.489605999999998
#
# number of rings (size 3 to 8) (size 9 to 14) (size 15 to 20)
#    0.000    1.143    2.857    0.857   10.000    1.143 
#    5.143    0.000    0.000    0.000    0.000    0.000 
#    0.000    0.000    0.000    0.000    0.000    0.000 
#
# Total GULP energy -77961.239452 kJ/mol
# GULP energy per Si atom -5568.659961 kJ/mol
# Density = 2.443387 g / cm^3
# Si number density = 24.489606 Si / 1000 Ang^3
#
#
#
# Elastic Constant Matrix: (Units=GPa)
#
#
# Indices 1 2 3 4 5 6 
#
# 1 72.3408 10.7827 30.2635 0.0000 21.1066 0.0000
# 2 10.7827 63.4220 50.1971 0.0000 21.8728 0.0000
# 3 30.2635 50.1971 139.3589 0.0000 34.2249 0.0000
# 4 0.0000 0.0000 0.0000 46.1427 0.0000 12.1229
# 5 21.1066 21.8728 34.2249 0.0000 31.3510 0.0000
# 6 0.0000 0.0000 0.0000 12.1229 0.0000 34.7843
#
#
#
# Elastic Compliance Matrix: (Units=1/GPa)
#
#
# Indices 1 2 3 4 5 6 
#
# 1 0.017604 0.002471 -0.001884 0.000000 -0.011519 0.000000
# 2 0.002471 0.024519 -0.006502 0.000000 -0.011672 0.000000
# 3 -0.001884 -0.006502 0.011615 0.000000 -0.006876 0.000000
# 4 0.000000 0.000000 0.000000 0.023856 0.000000 -0.008314
# 5 -0.011519 -0.011672 -0.006876 0.000000 0.055301 0.000000
# 6 0.000000 0.000000 0.000000 -0.008314 0.000000 0.031646
#
#
# Mechanical properties :
#
#
# Convention : Reuss Voigt Hill
#
# Bulk Modulus (GPa) = 23.86172 50.84536 37.35354
# Shear Modulus (GPa) = 26.26866 34.71416 30.49141
#
# Velocity S-wave (km/s) = 3.27868 3.76906 3.53239
# Velocity P-wave (km/s) = 4.90895 6.30462 5.65004
#
# Compressibility (1/GPa) = 0.04190813
#
# Stress axis : x y z
#
# Youngs Moduli (GPa) = 56.80470 40.78534 86.09278
#
# Poissons Ratio (x) = -0.10077 0.16220
# Poissons Ratio (y) = -0.14035 0.55975
# Poissons Ratio (z) = 0.10702 0.26518
#
# Static dielectric constant tensor:
#      x y z
#    x 2.080580 0.000000 -0.034600 
#    y 0.000000 2.042450 0.000000 
#    z -0.034600 0.000000 2.004190 
# 
# From -- ./inp_files/4129.got.cif
#   From: 2010.05.17/outbox.cif.g08.bks.cpg/sg9_3_cif.got.tgz:4129.got - 2010.06.03 20:04:27.
