data_PCOD9138714
_publ_section_title
;
Structure prediction by ZEFSAII (Michael W. Deem and Ramdas Pophale) SiO2 
 PCOD9138714
Probable space group: C C
;
_chemical_formula_sum "Si O2"
_cell_formula_units_Z 32
_cell_length_a 5.576055
_cell_length_b 26.384165
_cell_length_c 10.806848
_cell_angle_alpha 90.000000
_cell_angle_beta 63.920618
_cell_angle_gamma 90.000000
_cell_volume 1428.024458
_symmetry_space_group_name_H-M "C C"
_symmetry_group_IT_number 9
_symmetry_cell_setting 'monoclinic'
loop_
_space_group_symop_operation_xyz
x,y,z
x,-y,1/2+z
1/2+x,1/2+y,z
1/2+x,1/2-y,1/2+z
loop_
_atom_site_type_symbol
_atom_site_label
_atom_site_fract_x
_atom_site_fract_y
_atom_site_fract_z
Si Si1 0.805030 0.956539 0.638630
Si Si2 0.380467 0.382934 0.852973
Si Si3 0.024593 0.297341 0.031432
Si Si4 0.395919 0.307004 0.452230
Si Si5 0.891796 0.180541 0.689174
Si Si6 0.934275 0.622210 0.126071
Si Si7 0.258708 0.427229 0.146784
Si Si8 0.744058 0.597963 0.893491
O O1 0.850454 0.922370 0.748668
O O2 0.527630 0.933172 0.652386
O O3 0.018541 0.941726 0.484910
O O4 0.828562 0.015385 0.661567
O O5 0.165662 0.337810 0.908249
O O6 0.675638 0.361214 0.761462
O O7 0.343388 0.413475 0.988645
O O8 0.037030 0.239564 0.985242
O O9 0.194538 0.304599 0.120304
O O10 0.704452 0.306441 0.103272
O O11 0.292868 0.293772 0.338510
O O12 0.165955 0.335536 0.582124
O O13 0.611812 0.350465 0.379829
O O14 0.875334 0.119231 0.699231
O O15 0.880988 0.613348 0.992857
O O16 0.944426 0.422604 0.246203
#
# Coordination Sequence:
#
# PCOD9138714 Si02
#       8
#     4   4   4   4   4   4   4   4
#     4  10  25  42  71 106 142 209 244 314 386 449
#     4  10  25  47  67 111 151 188 254 320 370 461
#     4  11  28  48  76 111 154 198 254 320 388 439
#     4  11  24  48  79  99 152 204 249 315 385 462
#     4  11  26  48  73 117 145 195 261 317 367 464
#     4  10  23  46  70 106 148 188 260 304 377 452
#     4  11  24  45  74 101 154 192 255 318 376 453
#     4  10  23  46  68 109 142 196 261 302 371 464
#
# _framework density 22.408577999999999
#
# number of rings (size 3 to 8) (size 9 to 14) (size 15 to 20)
#    0.000    1.500    1.250    1.500    8.750    3.000 
#   11.250    0.000    0.000    0.000    0.000    0.000 
#    0.000    0.000    0.000    0.000    0.000    0.000 
#
# Total GULP energy -89392.624476 kJ/mol
# GULP energy per Si atom -5587.039030 kJ/mol
# Density = 2.235758 g / cm^3
# Si number density = 22.408578 Si / 1000 Ang^3
#
#
#
# Elastic Constant Matrix: (Units=GPa)
#
#
# Indices 1 2 3 4 5 6 
#
# 1 87.5812 37.6501 28.0598 0.0000 3.5571 0.0000
# 2 37.6501 143.3153 28.1662 0.0000 5.3012 0.0000
# 3 28.0598 28.1662 112.9532 0.0000 -13.4470 0.0000
# 4 0.0000 0.0000 0.0000 6.8348 0.0000 3.6792
# 5 3.5571 5.3012 -13.4470 0.0000 37.5169 0.0000
# 6 0.0000 0.0000 0.0000 3.6792 0.0000 13.8882
#
#
#
# Elastic Compliance Matrix: (Units=1/GPa)
#
#
# Indices 1 2 3 4 5 6 
#
# 1 0.013694 -0.002958 -0.002892 0.000000 -0.001917 0.000000
# 2 -0.002958 0.008090 -0.001447 0.000000 -0.001381 0.000000
# 3 -0.002892 -0.001447 0.010435 0.000000 0.004219 0.000000
# 4 0.000000 0.000000 0.000000 0.170646 0.000000 -0.045207
# 5 -0.001917 -0.001381 0.004219 0.000000 0.028544 0.000000
# 6 0.000000 0.000000 0.000000 -0.045207 0.000000 0.083980
#
#
# Mechanical properties :
#
#
# Convention : Reuss Voigt Hill
#
# Bulk Modulus (GPa) = 56.74079 59.06689 57.90384
# Shear Modulus (GPa) = 14.88718 28.31287 21.60002
#
# Velocity S-wave (km/s) = 2.58030 3.55841 3.10807
# Velocity P-wave (km/s) = 5.85263 6.58022 6.22706
#
# Compressibility (1/GPa) = 0.01762401
#
# Stress axis : x y z
#
# Youngs Moduli (GPa) = 73.02331 123.60576 95.83287
#
# Poissons Ratio (x) = 0.36565 0.27720
# Poissons Ratio (y) = 0.21602 0.13867
# Poissons Ratio (z) = 0.21122 0.17885
#
# Static dielectric constant tensor:
#      x y z
#    x 1.914740 0.000000 0.022660 
#    y 0.000000 1.783290 0.000000 
#    z 0.022660 0.000000 1.860210 
# 
# From -- ./inp_files/13873.got.cif
#   From: 2010.05.17/outbox.cif.g08.bks.cpg/sg9_7_cif.got.tgz:13873.got - 2010.06.03 20:04:27.
