data_PCOD9138577
_publ_section_title
;
Structure prediction by ZEFSAII (Michael W. Deem and Ramdas Pophale) SiO2 
 PCOD9138577
Probable space group: C C
;
_chemical_formula_sum "Si O2"
_cell_formula_units_Z 28
_cell_length_a 12.062911
_cell_length_b 19.352350
_cell_length_c 5.542654
_cell_angle_alpha 90.000000
_cell_angle_beta 72.892058
_cell_angle_gamma 90.000000
_cell_volume 1236.656060
_symmetry_space_group_name_H-M "C C"
_symmetry_group_IT_number 9
_symmetry_cell_setting 'monoclinic'
loop_
_space_group_symop_operation_xyz
x,y,z
x,-y,1/2+z
1/2+x,1/2+y,z
1/2+x,1/2-y,1/2+z
loop_
_atom_site_type_symbol
_atom_site_label
_atom_site_fract_x
_atom_site_fract_y
_atom_site_fract_z
Si Si1 0.598960 0.958747 0.620440
Si Si2 0.233804 0.829945 0.339446
Si Si3 0.678880 0.813355 0.099135
Si Si4 0.847239 0.242342 0.886502
Si Si5 0.828736 0.895918 0.651527
Si Si6 0.574501 0.538584 0.997344
Si Si7 0.956668 0.340557 0.508272
O O1 0.729063 0.927404 0.544606
O O2 0.505655 0.897506 0.657652
O O3 0.584312 0.001559 0.382402
O O4 0.179110 0.754932 0.434671
O O5 0.141206 0.890251 0.398067
O O6 0.330086 0.850379 0.477271
O O7 0.305218 0.810493 0.053734
O O8 0.740214 0.786576 0.300939
O O9 0.550760 0.837994 0.236118
O O10 0.757337 0.873840 0.935768
O O11 0.948420 0.266311 0.643830
O O12 0.878693 0.178236 0.033507
O O13 0.936602 0.946531 0.598648
O O14 0.603256 0.509430 0.246491
#
# Coordination Sequence:
#
# PCOD9138577 Si02
#       7
#     4   4   4   4   4   4   4
#     4  12  27  45  72 105 147 196 243 302 362 447
#     4  10  27  45  72 110 151 194 255 303 386 454
#     4  10  23  44  74 113 142 188 241 334 380 438
#     4  10  24  42  74 109 141 186 241 324 375 444
#     4  11  25  46  75 110 145 189 258 317 380 432
#     4  12  31  50  77 105 156 213 250 302 364 466
#     4  11  25  44  74 108 148 188 250 306 391 439
#
# _framework density 22.641704000000001
#
# number of rings (size 3 to 8) (size 9 to 14) (size 15 to 20)
#    0.000    1.143    1.429    1.714   18.000    1.143 
#    0.000    0.000    0.000    0.000    0.000    0.000 
#    0.000    0.000    0.000    0.000    0.000    0.000 
#
# Total GULP energy -78252.497610 kJ/mol
# GULP energy per Si atom -5589.464115 kJ/mol
# Density = 2.259017 g / cm^3
# Si number density = 22.641704 Si / 1000 Ang^3
#
#
#
# Elastic Constant Matrix: (Units=GPa)
#
#
# Indices 1 2 3 4 5 6 
#
# 1 61.1109 11.2699 10.6493 0.0000 12.7832 0.0000
# 2 11.2699 46.5690 14.4115 0.0000 3.4321 0.0000
# 3 10.6493 14.4115 86.2479 0.0000 9.3765 0.0000
# 4 0.0000 0.0000 0.0000 46.7654 0.0000 -1.4121
# 5 12.7832 3.4321 9.3765 0.0000 20.6156 0.0000
# 6 0.0000 0.0000 0.0000 -1.4121 0.0000 47.1419
#
#
#
# Elastic Compliance Matrix: (Units=1/GPa)
#
#
# Indices 1 2 3 4 5 6 
#
# 1 0.019493 -0.003716 -0.000567 0.000000 -0.011210 0.000000
# 2 -0.003716 0.023444 -0.003456 0.000000 -0.000027 0.000000
# 3 -0.000567 -0.003456 0.012773 0.000000 -0.004882 0.000000
# 4 0.000000 0.000000 0.000000 0.021403 0.000000 0.000641
# 5 -0.011210 -0.000027 -0.004882 0.000000 0.057683 0.000000
# 6 0.000000 0.000000 0.000000 0.000641 0.000000 0.021232
#
#
# Mechanical properties :
#
#
# Convention : Reuss Voigt Hill
#
# Bulk Modulus (GPa) = 24.85543 29.62103 27.23823
# Shear Modulus (GPa) = 27.03942 33.41106 30.22524
#
# Velocity S-wave (km/s) = 3.45951 3.84558 3.65764
# Velocity P-wave (km/s) = 5.19222 5.72965 5.46754
#
# Compressibility (1/GPa) = 0.04023266
#
# Stress axis : x y z
#
# Youngs Moduli (GPa) = 51.30112 42.65459 78.29182
#
# Poissons Ratio (x) = 0.15849 0.04441
# Poissons Ratio (y) = 0.19062 0.27055
# Poissons Ratio (z) = 0.02910 0.14740
#
# Static dielectric constant tensor:
#      x y z
#    x 1.807040 0.000000 0.032950 
#    y 0.000000 1.853960 0.000000 
#    z 0.032950 0.000000 1.897490 
# 
# From -- ./inp_files/1626.got.cif
#   From: 2010.05.17/outbox.cif.g08.bks.cpg/sg9_1_cif.got.tgz:1626.got - 2010.06.03 20:04:27.
