data_PCOD9138651
_publ_section_title
;
Structure prediction by ZEFSAII (Michael W. Deem and Ramdas Pophale) SiO2 
 PCOD9138651
Probable space group: C C
;
_chemical_formula_sum "Si O2"
_cell_formula_units_Z 20
_cell_length_a 5.160163
_cell_length_b 22.632727
_cell_length_c 6.815641
_cell_angle_alpha 90.000000
_cell_angle_beta 75.237106
_cell_angle_gamma 90.000000
_cell_volume 769.712207
_symmetry_space_group_name_H-M "C C"
_symmetry_group_IT_number 9
_symmetry_cell_setting 'monoclinic'
loop_
_space_group_symop_operation_xyz
x,y,z
x,-y,1/2+z
1/2+x,1/2+y,z
1/2+x,1/2-y,1/2+z
loop_
_atom_site_type_symbol
_atom_site_label
_atom_site_fract_x
_atom_site_fract_y
_atom_site_fract_z
Si Si1 0.321160 0.987997 0.399370
Si Si2 0.229235 0.486576 0.574779
Si Si3 0.050362 0.124235 0.053539
Si Si4 0.221966 0.196552 0.352778
Si Si5 0.223908 0.769320 0.276020
O O1 0.662787 0.994780 0.333911
O O2 0.265866 0.917260 0.404842
O O3 0.024086 0.015721 0.489520
O O4 0.389381 0.004494 0.142374
O O5 0.288708 0.415913 0.587954
O O6 0.136928 0.137643 0.258560
O O7 0.059719 0.188424 0.954201
O O8 0.259139 0.191130 0.577404
O O9 0.518451 0.219042 0.242979
O O10 0.987844 0.243401 0.331357
#
# Coordination Sequence:
#
# PCOD9138651 Si02
#       5
#     4   4   4   4   4
#     4  10  23  45  71  99 145 188 246 305 366 437
#     4  10  23  45  71  99 145 188 246 305 366 437
#     4  10  26  42  76 104 152 188 246 298 378 436
#     4  12  24  44  71 103 147 191 242 301 365 440
#     4  12  24  44  71 103 147 191 242 301 365 440
#
# _framework density 25.983736
#
# number of rings (size 3 to 8) (size 9 to 14) (size 15 to 20)
#    1.200    0.000    4.000    1.200    5.600    0.000 
#    7.200    0.000    0.000    0.000    0.000    0.000 
#    0.000    0.000    0.000    0.000    0.000    0.000 
#
# Total GULP energy -55723.144887 kJ/mol
# GULP energy per Si atom -5572.314489 kJ/mol
# Density = 2.592460 g / cm^3
# Si number density = 25.983736 Si / 1000 Ang^3
#
#
#
# Elastic Constant Matrix: (Units=GPa)
#
#
# Indices 1 2 3 4 5 6 
#
# 1 228.8950 16.2721 68.3548 0.0000 0.2561 0.0000
# 2 16.2721 84.7083 25.8525 0.0000 1.6097 0.0000
# 3 68.3548 25.8525 215.3588 0.0000 -17.8640 0.0000
# 4 0.0000 0.0000 0.0000 42.0059 0.0000 5.1931
# 5 0.2561 1.6097 -17.8640 0.0000 69.2069 0.0000
# 6 0.0000 0.0000 0.0000 5.1931 0.0000 37.8376
#
#
#
# Elastic Compliance Matrix: (Units=1/GPa)
#
#
# Indices 1 2 3 4 5 6 
#
# 1 0.004856 -0.000462 -0.001519 0.000000 -0.000399 0.000000
# 2 -0.000462 0.012329 -0.001387 0.000000 -0.000643 0.000000
# 3 -0.001519 -0.001387 0.005411 0.000000 0.001435 0.000000
# 4 0.000000 0.000000 0.000000 0.024217 0.000000 -0.003324
# 5 -0.000399 -0.000643 0.001435 0.000000 0.014836 0.000000
# 6 0.000000 0.000000 0.000000 -0.003324 0.000000 0.026885
#
#
# Mechanical properties :
#
#
# Convention : Reuss Voigt Hill
#
# Bulk Modulus (GPa) = 63.04671 83.32453 73.18562
# Shear Modulus (GPa) = 49.72348 57.70892 53.71620
#
# Velocity S-wave (km/s) = 4.37926 4.71782 4.55169
# Velocity P-wave (km/s) = 7.06308 7.86223 7.47335
#
# Compressibility (1/GPa) = 0.01586126
#
# Stress axis : x y z
#
# Youngs Moduli (GPa) = 205.94502 81.10710 184.80883
#
# Poissons Ratio (x) = 0.03744 0.28071
# Poissons Ratio (y) = 0.09507 0.25631
# Poissons Ratio (z) = 0.31281 0.11249
#
# Static dielectric constant tensor:
#      x y z
#    x 1.987860 0.000000 0.060090 
#    y 0.000000 1.918810 0.000000 
#    z 0.060090 0.000000 2.397630 
# 
# From -- ./inp_files/3793.got.cif
#   From: 2010.05.17/outbox.cif.g08.bks.cpg/sg9_2_cif.got.tgz:3793.got - 2010.06.03 20:04:27.
