data_PCOD9138510
_publ_section_title
;
Structure prediction by ZEFSAII (Michael W. Deem and Ramdas Pophale) SiO2 
 PCOD9138510
Probable space group: C C
;
_chemical_formula_sum "Si O2"
_cell_formula_units_Z 24
_cell_length_a 17.288375
_cell_length_b 6.730873
_cell_length_c 8.591865
_cell_angle_alpha 90.000000
_cell_angle_beta 91.668407
_cell_angle_gamma 90.000000
_cell_volume 999.375881
_symmetry_space_group_name_H-M "C C"
_symmetry_group_IT_number 9
_symmetry_cell_setting 'monoclinic'
loop_
_space_group_symop_operation_xyz
x,y,z
x,-y,1/2+z
1/2+x,1/2+y,z
1/2+x,1/2-y,1/2+z
loop_
_atom_site_type_symbol
_atom_site_label
_atom_site_fract_x
_atom_site_fract_y
_atom_site_fract_z
Si Si1 0.173730 0.081398 0.080100
Si Si2 0.369385 0.749493 0.247486
Si Si3 0.041490 0.304990 0.177329
Si Si4 0.763431 0.118026 0.817029
Si Si5 0.620205 0.840033 0.513714
Si Si6 0.821753 0.483417 0.972862
O O1 0.089239 0.172291 0.058504
O O2 0.215795 0.242135 0.194990
O O3 0.153490 0.849472 0.108971
O O4 0.234551 0.062595 0.943973
O O5 0.452882 0.738957 0.174684
O O6 0.312863 0.562172 0.250439
O O7 0.378054 0.845892 0.419229
O O8 0.329205 0.932210 0.154110
O O9 0.072460 0.278489 0.356077
O O10 0.066396 0.524358 0.119847
O O11 0.697846 0.059151 0.941265
O O12 0.825510 0.265607 0.899624
#
# Coordination Sequence:
#
# PCOD9138510 Si02
#       6
#     4   4   4   4   4   4
#     4  10  23  44  68  97 132 185 238 288 345 416
#     4  12  26  42  71 104 146 183 237 291 366 419
#     4  11  25  44  68 106 140 187 226 303 353 428
#     4  10  24  42  73 101 132 187 242 294 345 424
#     4  10  24  43  74  99 143 186 239 290 354 431
#     4  11  24  43  68  99 139 184 232 298 345 434
#
# _framework density 24.014989
#
# number of rings (size 3 to 8) (size 9 to 14) (size 15 to 20)
#    0.000    1.333    1.667    2.000   11.667    6.667 
#    0.000    0.000    0.000    0.000    0.000    0.000 
#    0.000    0.000    0.000    0.000    0.000    0.000 
#
# Total GULP energy -66880.806744 kJ/mol
# GULP energy per Si atom -5573.400562 kJ/mol
# Density = 2.396033 g / cm^3
# Si number density = 24.014989 Si / 1000 Ang^3
#
#
#
# Elastic Constant Matrix: (Units=GPa)
#
#
# Indices 1 2 3 4 5 6 
#
# 1 159.7656 61.2629 21.8473 0.0000 -26.5935 0.0000
# 2 61.2629 95.6828 36.4352 0.0000 -18.1733 0.0000
# 3 21.8473 36.4352 59.5464 0.0000 2.8849 0.0000
# 4 0.0000 0.0000 0.0000 43.2745 0.0000 -7.7136
# 5 -26.5935 -18.1733 2.8849 0.0000 34.5378 0.0000
# 6 0.0000 0.0000 0.0000 -7.7136 0.0000 16.6313
#
#
#
# Elastic Compliance Matrix: (Units=1/GPa)
#
#
# Indices 1 2 3 4 5 6 
#
# 1 0.008842 -0.004557 -0.000672 0.000000 0.004466 0.000000
# 2 -0.004557 0.018521 -0.010004 0.000000 0.007073 0.000000
# 3 -0.000672 -0.010004 0.023537 0.000000 -0.007747 0.000000
# 4 0.000000 0.000000 0.000000 0.025191 0.000000 0.011683
# 5 0.004466 0.007073 -0.007747 0.000000 0.036761 0.000000
# 6 0.000000 0.000000 0.000000 0.011683 0.000000 0.065546
#
#
# Mechanical properties :
#
#
# Convention : Reuss Voigt Hill
#
# Bulk Modulus (GPa) = 48.93678 61.56506 55.25092
# Shear Modulus (GPa) = 23.18296 31.91869 27.55083
#
# Velocity S-wave (km/s) = 3.11039 3.64966 3.39076
# Velocity P-wave (km/s) = 5.77245 6.59179 6.19568
#
# Compressibility (1/GPa) = 0.02043453
#
# Stress axis : x y z
#
# Youngs Moduli (GPa) = 113.09753 53.99131 42.48707
#
# Poissons Ratio (x) = 0.24604 0.02856
# Poissons Ratio (y) = 0.51538 0.42503
# Poissons Ratio (z) = 0.07602 0.54011
#
# Static dielectric constant tensor:
#      x y z
#    x 1.956730 0.000000 0.054750 
#    y 0.000000 1.939270 0.000000 
#    z 0.054750 0.000000 2.002550 
# 
# From -- ./inp_files/12302.got.cif
#   From: 2010.05.17/outbox.cif.g08.bks.cpg/sg9_7_cif.got.tgz:12302.got - 2010.06.03 20:04:27.
