data_PCOD9138814
_publ_section_title
;
Structure prediction by ZEFSAII (Michael W. Deem and Ramdas Pophale) SiO2 
 PCOD9138814
Probable space group: C C
;
_chemical_formula_sum "Si O2"
_cell_formula_units_Z 24
_cell_length_a 25.714386
_cell_length_b 7.897847
_cell_length_c 17.740443
_cell_angle_alpha 90.000000
_cell_angle_beta 164.169811
_cell_angle_gamma 90.000000
_cell_volume 982.818500
_symmetry_space_group_name_H-M "C C"
_symmetry_group_IT_number 9
_symmetry_cell_setting 'monoclinic'
loop_
_space_group_symop_operation_xyz
x,y,z
x,-y,1/2+z
1/2+x,1/2+y,z
1/2+x,1/2-y,1/2+z
loop_
_atom_site_type_symbol
_atom_site_label
_atom_site_fract_x
_atom_site_fract_y
_atom_site_fract_z
Si Si1 0.863640 0.078421 0.085420
Si Si2 0.799083 0.117412 0.349830
Si Si3 0.319977 0.988586 0.427158
Si Si4 0.425264 0.370222 0.322410
Si Si5 0.556006 0.931854 0.904652
Si Si6 0.064864 0.183468 0.233686
O O1 0.059816 0.129429 0.315436
O O2 0.755135 0.960550 0.872075
O O3 0.745050 0.244842 0.941587
O O4 0.881517 0.978431 0.186939
O O5 0.633086 0.095011 0.057197
O O6 0.964252 0.982318 0.559699
O O7 0.859773 0.310284 0.441203
O O8 0.101967 0.037180 0.108054
O O9 0.431293 0.150014 0.548630
O O10 0.397813 0.952898 0.619984
O O11 0.488655 0.190791 0.377323
O O12 0.238765 0.358646 0.114129
#
# Coordination Sequence:
#
# PCOD9138814 Si02
#       6
#     4   4   4   4   4   4
#     4  10  23  48  73 113 150 202 255 312 387 454
#     4  10  26  44  78 112 150 204 253 316 388 454
#     4  12  26  48  78 115 154 201 265 310 394 463
#     4  12  27  50  82 113 159 209 258 327 390 469
#     4  12  27  51  76 118 159 203 261 327 387 460
#     4  10  23  47  75 107 156 189 256 320 370 456
#
# _framework density 24.419564000000001
#
# number of rings (size 3 to 8) (size 9 to 14) (size 15 to 20)
#    1.000    0.000    5.000    0.000    7.000    2.667 
#    3.000    0.000    0.000    0.000    0.000    0.000 
#    0.000    0.000    0.000    0.000    0.000    0.000 
#
# Total GULP energy -67025.512459 kJ/mol
# GULP energy per Si atom -5585.459372 kJ/mol
# Density = 2.436398 g / cm^3
# Si number density = 24.419564 Si / 1000 Ang^3
#
#
#
# Elastic Constant Matrix: (Units=GPa)
#
#
# Indices 1 2 3 4 5 6 
#
# 1 7.0448 -98.0434 101.9903 0.0000 60.3926 0.0000
# 2 -98.0434 32.4947 70.3167 0.0000 57.3078 0.0000
# 3 101.9903 70.3167 55.1344 0.0000 -55.1096 0.0000
# 4 0.0000 0.0000 0.0000 23.2472 0.0000 -8.9362
# 5 60.3926 57.3078 -55.1096 0.0000 12.3554 0.0000
# 6 0.0000 0.0000 0.0000 -8.9362 0.0000 14.1660
#
#
#
# Elastic Compliance Matrix: (Units=1/GPa)
#
#
# Indices 1 2 3 4 5 6 
#
# 1 0.004315 -0.003420 0.002559 0.000000 0.006182 0.000000
# 2 -0.003420 0.005798 0.003251 0.000000 0.004322 0.000000
# 3 0.002559 0.003251 0.005296 0.000000 -0.003964 0.000000
# 4 0.000000 0.000000 0.000000 0.056786 0.000000 0.035822
# 5 0.006182 0.004322 -0.003964 0.000000 0.012990 0.000000
# 6 0.000000 0.000000 0.000000 0.035822 0.000000 0.093188
#
#
# Mechanical properties :
#
#
# Convention : Reuss Voigt Hill
#
# Bulk Modulus (GPa) = 49.53180 27.02236 38.27708
# Shear Modulus (GPa) = 27.72796 11.31441 19.52118
#
# Velocity S-wave (km/s) = 3.37335 2.15485 2.83045
# Velocity P-wave (km/s) = 5.95821 4.15705 5.13719
#
# Compressibility (1/GPa) = 0.02018905
#
# Stress axis : x y z
#
# Youngs Moduli (GPa) = 231.74191 172.45941 188.82717
#
# Poissons Ratio (x) = 0.58978 -0.48313
# Poissons Ratio (y) = 0.79252 -0.61389
# Poissons Ratio (z) = -0.59293 -0.56068
#
# Static dielectric constant tensor:
#      x y z
#    x 2.065530 0.000000 -0.033270 
#    y 0.000000 1.993890 0.000000 
#    z -0.033270 0.000000 2.014430 
# 
# From -- ./inp_files/31563.got.cif
#   From: 2010.05.17/outbox.cif.g08.bks.cpg/sg9_16_cif.got.tgz:31563.got - 2010.06.03 20:04:27.
