data_PCOD9138011
_publ_section_title
;
Structure prediction by ZEFSAII (Michael W. Deem and Ramdas Pophale) SiO2 
 PCOD9138011
Probable space group: C C
;
_chemical_formula_sum "Si O2"
_cell_formula_units_Z 32
_cell_length_a 6.874407
_cell_length_b 20.296260
_cell_length_c 11.963286
_cell_angle_alpha 90.000000
_cell_angle_beta 41.547229
_cell_angle_gamma 90.000000
_cell_volume 1107.058609
_symmetry_space_group_name_H-M "C C"
_symmetry_group_IT_number 9
_symmetry_cell_setting 'monoclinic'
loop_
_space_group_symop_operation_xyz
x,y,z
x,-y,1/2+z
1/2+x,1/2+y,z
1/2+x,1/2-y,1/2+z
loop_
_atom_site_type_symbol
_atom_site_label
_atom_site_fract_x
_atom_site_fract_y
_atom_site_fract_z
Si Si1 0.471130 0.154824 0.075190
Si Si2 0.378808 0.114190 0.887498
Si Si3 0.123699 0.982287 0.755520
Si Si4 0.864643 0.805511 0.606483
Si Si5 0.616131 0.486086 0.010668
Si Si6 0.751734 0.331679 0.976151
Si Si7 0.898807 0.202801 0.413944
Si Si8 0.906937 0.624493 0.626525
O O1 0.030413 0.198210 0.481826
O O2 0.190656 0.201830 0.215180
O O3 0.341365 0.081768 0.161815
O O4 0.559681 0.146938 0.908262
O O5 0.037514 0.127392 0.058834
O O6 0.392954 0.036016 0.879890
O O7 0.421872 0.145658 0.748737
O O8 0.976149 0.988761 0.944213
O O9 0.307116 0.050467 0.672070
O O10 0.983788 0.992686 0.690147
O O11 0.572519 0.803928 0.806355
O O12 0.136968 0.754870 0.507194
O O13 0.729493 0.818027 0.541364
O O14 0.721870 0.410475 0.972619
O O15 0.719295 0.329178 0.124153
O O16 0.741515 0.134053 0.446836
#
# Coordination Sequence:
#
# PCOD9138011 Si02
#       8
#     4   4   4   4   4   4   4   4
#     4  10  22  46  73 106 151 198 248 322 384 440
#     4  10  23  41  68 110 150 196 248 301 382 478
#     4   9  17  37  67 105 151 195 242 302 386 465
#     4  11  24  43  73 106 143 206 262 310 380 455
#     4   9  17  37  67 105 151 195 242 302 386 465
#     4  10  22  46  73 106 151 198 248 322 384 440
#     4  11  24  43  73 106 143 206 262 310 380 455
#     4  10  23  41  68 110 150 196 248 301 382 478
#
# _framework density 28.905425000000001
#
# number of rings (size 3 to 8) (size 9 to 14) (size 15 to 20)
#    0.000    2.000    2.500    0.750    0.000    5.000 
#    0.000    2.500    0.000    1.500    0.000    0.000 
#    0.000    0.000    0.000    0.000    0.000    0.000 
#
# Total GULP energy -89355.325017 kJ/mol
# GULP energy per Si atom -5584.707814 kJ/mol
# Density = 2.883963 g / cm^3
# Si number density = 28.905425 Si / 1000 Ang^3
#
#
#
# Elastic Constant Matrix: (Units=GPa)
#
#
# Indices 1 2 3 4 5 6 
#
# 1 224.3702 75.7107 110.5775 0.0000 32.9358 0.0000
# 2 75.7107 129.2945 50.4754 0.0000 5.8660 0.0000
# 3 110.5775 50.4754 134.7081 0.0000 54.0315 0.0000
# 4 0.0000 0.0000 0.0000 25.6753 0.0000 21.3866
# 5 32.9358 5.8660 54.0315 0.0000 83.4787 0.0000
# 6 0.0000 0.0000 0.0000 21.3866 0.0000 39.2303
#
#
#
# Elastic Compliance Matrix: (Units=1/GPa)
#
#
# Indices 1 2 3 4 5 6 
#
# 1 0.008187 -0.002419 -0.006195 0.000000 0.000950 0.000000
# 2 -0.002419 0.010057 -0.002542 0.000000 0.001893 0.000000
# 3 -0.006195 -0.002542 0.016760 0.000000 -0.008225 0.000000
# 4 0.000000 0.000000 0.000000 0.071346 0.000000 -0.038895
# 5 0.000950 0.001893 -0.008225 0.000000 0.016795 0.000000
# 6 0.000000 0.000000 0.000000 -0.038895 0.000000 0.046694
#
#
# Mechanical properties :
#
#
# Convention : Reuss Voigt Hill
#
# Bulk Modulus (GPa) = 78.78558 106.87777 92.83168
# Shear Modulus (GPa) = 25.46055 46.45079 35.95567
#
# Velocity S-wave (km/s) = 2.97109 4.01308 3.53073
# Velocity P-wave (km/s) = 6.25182 7.65038 6.98619
#
# Compressibility (1/GPa) = 0.01269268
#
# Stress axis : x y z
#
# Youngs Moduli (GPa) = 122.15023 99.43169 59.66427
#
# Poissons Ratio (x) = 0.24048 0.36961
# Poissons Ratio (y) = 0.29542 0.15169
# Poissons Ratio (z) = 0.75669 0.25280
#
# Static dielectric constant tensor:
#      x y z
#    x 2.231590 0.000000 0.116580 
#    y 0.000000 2.345740 0.000000 
#    z 0.116580 0.000000 2.337020 
# 
# From -- ./inp_files/15688.got.cif
#   From: 2010.05.17/outbox.cif.g08.bks.cpg/sg9_8_cif.got.tgz:15688.got - 2010.06.03 20:04:27.
