data_PCOD9138701
_publ_section_title
;
Structure prediction by ZEFSAII (Michael W. Deem and Ramdas Pophale) SiO2 
 PCOD9138701
Probable space group: C C
;
_chemical_formula_sum "Si O2"
_cell_formula_units_Z 32
_cell_length_a 5.096890
_cell_length_b 15.892180
_cell_length_c 16.755069
_cell_angle_alpha 90.000000
_cell_angle_beta 119.524051
_cell_angle_gamma 90.000000
_cell_volume 1180.941922
_symmetry_space_group_name_H-M "C C"
_symmetry_group_IT_number 9
_symmetry_cell_setting 'monoclinic'
loop_
_space_group_symop_operation_xyz
x,y,z
x,-y,1/2+z
1/2+x,1/2+y,z
1/2+x,1/2-y,1/2+z
loop_
_atom_site_type_symbol
_atom_site_label
_atom_site_fract_x
_atom_site_fract_y
_atom_site_fract_z
Si Si1 0.590940 0.883903 0.895250
Si Si2 0.984646 0.065653 0.807084
Si Si3 0.385816 0.895625 0.144618
Si Si4 0.496368 0.825103 0.638754
Si Si5 0.333861 0.274395 0.541607
Si Si6 0.204472 0.036833 0.212111
Si Si7 0.814632 0.266298 0.334082
Si Si8 0.213508 0.041755 0.473690
O O1 0.497644 0.949856 0.812252
O O2 0.606574 0.791323 0.861453
O O3 0.354774 0.897343 0.928968
O O4 0.919118 0.915589 0.966811
O O5 0.667213 0.109711 0.745831
O O6 0.210490 0.138102 0.812125
O O7 0.976744 0.978866 0.752854
O O8 0.104862 0.041046 0.912501
O O9 0.310315 0.807418 0.094853
O O10 0.151529 0.950229 0.158683
O O11 0.451630 0.957875 0.079676
O O12 0.686435 0.841423 0.585073
O O13 0.303789 0.895827 0.659802
O O14 0.732222 0.780491 0.737097
O O15 0.189614 0.773368 0.571141
O O16 0.127343 0.271249 0.431420
#
# Coordination Sequence:
#
# PCOD9138701 Si02
#       8
#     4   4   4   4   4   4   4   4
#     4  10  23  46  67 102 141 193 234 297 367 440
#     4  11  25  48  71 113 144 198 246 316 371 453
#     4  12  25  45  75 105 149 195 251 311 371 459
#     4  11  28  50  74 110 152 199 250 314 379 451
#     4  12  28  48  75 113 147 201 254 309 382 451
#     4  10  25  46  75  99 152 189 247 300 385 437
#     4  11  25  47  77 107 153 195 252 315 370 452
#     4  11  25  44  70 103 144 190 242 296 375 437
#
# _framework density 27.097013
#
# number of rings (size 3 to 8) (size 9 to 14) (size 15 to 20)
#    0.000    1.000    3.750    0.750    7.000    4.000 
#    6.750    0.000    0.000    0.000    0.000    0.000 
#    0.000    0.000    0.000    0.000    0.000    0.000 
#
# Total GULP energy -89130.986412 kJ/mol
# GULP energy per Si atom -5570.686651 kJ/mol
# Density = 2.703534 g / cm^3
# Si number density = 27.097013 Si / 1000 Ang^3
#
#
#
# Elastic Constant Matrix: (Units=GPa)
#
#
# Indices 1 2 3 4 5 6 
#
# 1 92.5177 3.3444 54.4913 0.0000 6.0960 0.0000
# 2 3.3444 71.0311 23.0227 0.0000 1.3694 0.0000
# 3 54.4913 23.0227 148.0734 0.0000 -0.3003 0.0000
# 4 0.0000 0.0000 0.0000 33.4401 0.0000 -5.2893
# 5 6.0960 1.3694 -0.3003 0.0000 26.8864 0.0000
# 6 0.0000 0.0000 0.0000 -5.2893 0.0000 21.4455
#
#
#
# Elastic Compliance Matrix: (Units=1/GPa)
#
#
# Indices 1 2 3 4 5 6 
#
# 1 0.014166 0.001147 -0.005398 0.000000 -0.003331 0.000000
# 2 0.001147 0.014935 -0.002746 0.000000 -0.001051 0.000000
# 3 -0.005398 -0.002746 0.009170 0.000000 0.001466 0.000000
# 4 0.000000 0.000000 0.000000 0.031118 0.000000 0.007675
# 5 -0.003331 -0.001051 0.001466 0.000000 0.038019 0.000000
# 6 0.000000 0.000000 0.000000 0.007675 0.000000 0.048523
#
#
# Mechanical properties :
#
#
# Convention : Reuss Voigt Hill
#
# Bulk Modulus (GPa) = 41.19356 52.59322 46.89339
# Shear Modulus (GPa) = 28.08710 31.73864 29.91287
#
# Velocity S-wave (km/s) = 3.22302 3.42613 3.32613
# Velocity P-wave (km/s) = 5.39312 5.92474 5.66517
#
# Compressibility (1/GPa) = 0.02427564
#
# Stress axis : x y z
#
# Youngs Moduli (GPa) = 70.59043 66.95796 109.05177
#
# Poissons Ratio (x) = -0.07680 0.58869
# Poissons Ratio (y) = -0.08096 0.29949
# Poissons Ratio (z) = 0.38107 0.18389
#
# Static dielectric constant tensor:
#      x y z
#    x 2.158440 0.000000 -0.018470 
#    y 0.000000 2.218720 0.000000 
#    z -0.018470 0.000000 2.184820 
# 
# From -- ./inp_files/22066.got.cif
#   From: 2010.05.17/outbox.cif.g08.bks.cpg/sg9_12_cif.got.tgz:22066.got - 2010.06.03 20:04:27.
