data_PCOD9138638
_publ_section_title
;
Structure prediction by ZEFSAII (Michael W. Deem and Ramdas Pophale) SiO2 
 PCOD9138638
Probable space group: C C
;
_chemical_formula_sum "Si O2"
_cell_formula_units_Z 32
_cell_length_a 9.581623
_cell_length_b 10.715931
_cell_length_c 14.649878
_cell_angle_alpha 90.000000
_cell_angle_beta 115.145265
_cell_angle_gamma 90.000000
_cell_volume 1361.643947
_symmetry_space_group_name_H-M "C C"
_symmetry_group_IT_number 9
_symmetry_cell_setting 'monoclinic'
loop_
_space_group_symop_operation_xyz
x,y,z
x,-y,1/2+z
1/2+x,1/2+y,z
1/2+x,1/2-y,1/2+z
loop_
_atom_site_type_symbol
_atom_site_label
_atom_site_fract_x
_atom_site_fract_y
_atom_site_fract_z
Si Si1 0.425550 0.406676 0.574980
Si Si2 0.252214 0.917220 0.608722
Si Si3 0.791263 0.095433 0.847671
Si Si4 0.525561 0.469584 0.280972
Si Si5 0.028339 0.246030 0.348879
Si Si6 0.091398 0.635720 0.250282
Si Si7 0.789059 0.679339 0.914094
Si Si8 0.750052 0.293204 0.139781
O O1 0.599273 0.355479 0.608693
O O2 0.368110 0.456416 0.462111
O O3 0.448539 0.506855 0.662048
O O4 0.308442 0.301184 0.577862
O O5 0.410217 0.889140 0.705771
O O6 0.277159 0.865701 0.513797
O O7 0.216634 0.066684 0.597408
O O8 0.679322 0.996158 0.767923
O O9 0.924594 0.124956 0.812825
O O10 0.690199 0.208879 0.856147
O O11 0.515902 0.598638 0.333389
O O12 0.702053 0.427330 0.329804
O O13 0.961425 0.291210 0.427312
O O14 0.901610 0.302042 0.245197
O O15 0.182120 0.702354 0.358591
O O16 0.128478 0.722859 0.172288
#
# Coordination Sequence:
#
# PCOD9138638 Si02
#       8
#     4   4   4   4   4   4   4   4
#     4  11  25  43  72 107 140 192 242 297 363 432
#     4  12  26  47  72 106 143 191 248 294 366 439
#     4  12  23  44  74 106 139 189 244 291 362 434
#     4  11  24  48  68  98 152 187 231 305 362 422
#     4  10  23  45  70  98 141 188 234 290 363 421
#     4  11  25  48  72 104 148 188 240 301 367 433
#     4  11  25  45  70 107 140 190 236 305 362 426
#     4  10  23  48  70  98 141 195 233 293 365 425
#
# _framework density 23.501004999999999
#
# number of rings (size 3 to 8) (size 9 to 14) (size 15 to 20)
#    0.000    1.000    6.250    1.500    3.500    4.000 
#    2.250    0.000    0.000    0.000    0.000    0.000 
#    0.000    0.000    0.000    0.000    0.000    0.000 
#
# Total GULP energy -89424.823467 kJ/mol
# GULP energy per Si atom -5589.051467 kJ/mol
# Density = 2.344752 g / cm^3
# Si number density = 23.501005 Si / 1000 Ang^3
#
#
#
# Elastic Constant Matrix: (Units=GPa)
#
#
# Indices 1 2 3 4 5 6 
#
# 1 148.7613 38.1148 20.4193 0.0000 2.1559 0.0000
# 2 38.1148 56.2809 1.6208 0.0000 0.9777 0.0000
# 3 20.4193 1.6208 83.1708 0.0000 -7.8470 0.0000
# 4 0.0000 0.0000 0.0000 27.6510 0.0000 0.5927
# 5 2.1559 0.9777 -7.8470 0.0000 36.4421 0.0000
# 6 0.0000 0.0000 0.0000 0.5927 0.0000 40.0848
#
#
#
# Elastic Compliance Matrix: (Units=1/GPa)
#
#
# Indices 1 2 3 4 5 6 
#
# 1 0.008464 -0.005659 -0.002042 0.000000 -0.000789 0.000000
# 2 -0.005659 0.021574 0.000966 0.000000 -0.000036 0.000000
# 3 -0.002042 0.000966 0.012774 0.000000 0.002846 0.000000
# 4 0.000000 0.000000 0.000000 0.036176 0.000000 -0.000535
# 5 -0.000789 -0.000036 0.002846 0.000000 0.028101 0.000000
# 6 0.000000 0.000000 0.000000 -0.000535 0.000000 0.024955
#
#
# Mechanical properties :
#
#
# Convention : Reuss Voigt Hill
#
# Bulk Modulus (GPa) = 34.08306 45.39142 39.73724
# Shear Modulus (GPa) = 32.19647 36.03947 34.11797
#
# Velocity S-wave (km/s) = 3.70537 3.92028 3.81434
# Velocity P-wave (km/s) = 5.73068 6.31253 6.02863
#
# Compressibility (1/GPa) = 0.02934009
#
# Stress axis : x y z
#
# Youngs Moduli (GPa) = 118.14817 46.35305 78.28116
#
# Poissons Ratio (x) = 0.26233 0.15986
# Poissons Ratio (y) = 0.66866 -0.07559
# Poissons Ratio (z) = 0.24127 -0.04476
#
# Static dielectric constant tensor:
#      x y z
#    x 1.905140 0.000000 -0.002180 
#    y 0.000000 1.892280 0.000000 
#    z -0.002180 0.000000 1.936540 
# 
# From -- ./inp_files/22729.got.cif
#   From: 2010.05.17/outbox.cif.g08.bks.cpg/sg9_12_cif.got.tgz:22729.got - 2010.06.03 20:04:27.
