data_PCOD9138851
_publ_section_title
;
Structure prediction by ZEFSAII (Michael W. Deem and Ramdas Pophale) SiO2 
 PCOD9138851
Probable space group: C C
;
_chemical_formula_sum "Si O2"
_cell_formula_units_Z 28
_cell_length_a 9.088386
_cell_length_b 12.038328
_cell_length_c 13.576741
_cell_angle_alpha 90.000000
_cell_angle_beta 47.785337
_cell_angle_gamma 90.000000
_cell_volume 1100.148555
_symmetry_space_group_name_H-M "C C"
_symmetry_group_IT_number 9
_symmetry_cell_setting 'monoclinic'
loop_
_space_group_symop_operation_xyz
x,y,z
x,-y,1/2+z
1/2+x,1/2+y,z
1/2+x,1/2-y,1/2+z
loop_
_atom_site_type_symbol
_atom_site_label
_atom_site_fract_x
_atom_site_fract_y
_atom_site_fract_z
Si Si1 0.559440 0.729888 0.242650
Si Si2 0.212948 0.362762 0.793856
Si Si3 0.409662 0.034158 0.566372
Si Si4 0.424662 0.717819 0.807499
Si Si5 0.583920 0.506880 0.849163
Si Si6 0.492854 0.796717 0.476677
Si Si7 0.520083 0.447936 0.104673
O O1 0.389000 0.721548 0.239330
O O2 0.551906 0.608380 0.302243
O O3 0.504688 0.813189 0.353900
O O4 0.774838 0.749425 0.098971
O O5 0.330999 0.475538 0.719074
O O6 0.066405 0.379096 0.953235
O O7 0.077458 0.312947 0.769056
O O8 0.226026 0.026132 0.570350
O O9 0.305553 0.044609 0.718428
O O10 0.509084 0.914673 0.521115
O O11 0.456747 0.611536 0.865464
O O12 0.467664 0.670259 0.679340
O O13 0.200613 0.761905 0.910184
O O14 0.547574 0.478898 0.978390
#
# Coordination Sequence:
#
# PCOD9138851 Si02
#       7
#     4   4   4   4   4   4   4
#     4  11  26  46  72 107 153 206 255 316 400 462
#     4  12  25  49  79 111 154 205 264 325 390 480
#     4  10  23  49  71 103 157 201 259 322 393 466
#     4  11  26  47  80 115 153 200 269 324 392 473
#     4  10  24  47  74 105 161 203 254 326 396 462
#     4  11  24  45  69 107 156 193 259 322 380 477
#     4  11  24  49  73 114 154 206 260 325 391 468
#
# _framework density 25.451108999999999
#
# number of rings (size 3 to 8) (size 9 to 14) (size 15 to 20)
#    0.000    1.143    5.714    0.000    6.000    6.857 
#    5.143    0.000    0.000    0.000    0.000    0.000 
#    0.000    0.000    0.000    0.000    0.000    0.000 
#
# Total GULP energy -78300.665633 kJ/mol
# GULP energy per Si atom -5592.904688 kJ/mol
# Density = 2.539318 g / cm^3
# Si number density = 25.451109 Si / 1000 Ang^3
#
#
#
# Elastic Constant Matrix: (Units=GPa)
#
#
# Indices 1 2 3 4 5 6 
#
# 1 95.1077 3.0231 78.3481 0.0000 -28.1518 0.0000
# 2 3.0231 51.7392 19.1273 -0.0001 -13.3563 0.0000
# 3 78.3481 19.1273 220.8374 -0.0001 -2.3772 0.0000
# 4 0.0000 -0.0001 -0.0001 21.5027 0.0000 -3.5816
# 5 -28.1518 -13.3563 -2.3772 0.0000 53.2599 0.0000
# 6 0.0000 0.0000 0.0000 -3.5816 0.0000 52.4701
#
#
#
# Elastic Compliance Matrix: (Units=1/GPa)
#
#
# Indices 1 2 3 4 5 6 
#
# 1 0.019629 0.004404 -0.007225 0.000000 0.011157 0.000000
# 2 0.004404 0.022340 -0.003414 0.000000 0.007778 0.000000
# 3 -0.007225 -0.003414 0.007340 0.000000 -0.004348 0.000000
# 4 0.000000 0.000000 0.000000 0.047041 0.000000 0.003211
# 5 0.011157 0.007778 -0.004348 0.000000 0.026430 0.000000
# 6 0.000000 0.000000 0.000000 0.003211 0.000000 0.019278
#
#
# Mechanical properties :
#
#
# Convention : Reuss Voigt Hill
#
# Bulk Modulus (GPa) = 27.14405 63.18679 45.16542
# Shear Modulus (GPa) = 29.97464 43.25891 36.61678
#
# Velocity S-wave (km/s) = 3.43554 4.12720 3.79715
# Velocity P-wave (km/s) = 5.14058 6.89872 6.08350
#
# Compressibility (1/GPa) = 0.03684048
#
# Stress axis : x y z
#
# Youngs Moduli (GPa) = 50.94475 44.76214 136.23075
#
# Poissons Ratio (x) = -0.19715 0.98431
# Poissons Ratio (y) = -0.22438 0.46507
# Poissons Ratio (z) = 0.36809 0.15281
#
# Static dielectric constant tensor:
#      x y z
#    x 2.004780 0.000000 0.027400 
#    y 0.000000 2.117340 0.000000 
#    z 0.027400 0.000000 2.010600 
# 
# From -- ./inp_files/23331.got.cif
#   From: 2010.05.17/outbox.cif.g08.bks.cpg/sg9_12_cif.got.tgz:23331.got - 2010.06.03 20:04:27.
