data_PCOD9138674
_publ_section_title
;
Structure prediction by ZEFSAII (Michael W. Deem and Ramdas Pophale) SiO2 
 PCOD9138674
Probable space group: C C
;
_chemical_formula_sum "Si O2"
_cell_formula_units_Z 20
_cell_length_a 7.164295
_cell_length_b 18.812887
_cell_length_c 8.077727
_cell_angle_alpha 90.000000
_cell_angle_beta 36.079845
_cell_angle_gamma 90.000000
_cell_volume 641.163146
_symmetry_space_group_name_H-M "C C"
_symmetry_group_IT_number 9
_symmetry_cell_setting 'monoclinic'
loop_
_space_group_symop_operation_xyz
x,y,z
x,-y,1/2+z
1/2+x,1/2+y,z
1/2+x,1/2-y,1/2+z
loop_
_atom_site_type_symbol
_atom_site_label
_atom_site_fract_x
_atom_site_fract_y
_atom_site_fract_z
Si Si1 0.486210 0.077595 0.030600
Si Si2 0.682818 0.699887 0.404629
Si Si3 0.985111 0.429661 0.150384
Si Si4 0.785868 0.868189 0.623589
Si Si5 0.283167 0.776264 0.315968
O O1 0.240394 0.143383 0.215393
O O2 0.775341 0.091924 0.951971
O O3 0.337617 0.004607 0.204538
O O4 0.586742 0.068944 0.768265
O O5 0.899838 0.655894 0.379406
O O6 0.371979 0.727951 0.719120
O O7 0.726366 0.364091 0.332327
O O8 0.240430 0.414333 0.824854
O O9 0.870948 0.780613 0.597304
O O10 0.173298 0.723745 0.546331
#
# Coordination Sequence:
#
# PCOD9138674 Si02
#       5
#     4   4   4   4   4
#     4  10  25  48  78 113 155 207 262 320 389 469
#     4  10  23  45  74 109 150 197 251 313 381 455
#     4  12  24  52  74 118 154 209 261 322 392 465
#     4  10  24  46  80 106 157 200 256 322 383 464
#     4  12  26  49  82 116 156 207 262 323 395 469
#
# _framework density 31.193307999999998
#
# number of rings (size 3 to 8) (size 9 to 14) (size 15 to 20)
#    1.200    0.000    4.000    1.200    2.800    1.600 
#   10.800    0.000    0.000    0.000    0.000    0.000 
#    0.000    0.000    0.000    0.000    0.000    0.000 
#
# Total GULP energy -55855.387045 kJ/mol
# GULP energy per Si atom -5585.538704 kJ/mol
# Density = 3.112231 g / cm^3
# Si number density = 31.193308 Si / 1000 Ang^3
#
#
#
# Elastic Constant Matrix: (Units=GPa)
#
#
# Indices 1 2 3 4 5 6 
#
# 1 127.0111 58.9117 89.3735 0.0000 41.1747 0.0000
# 2 58.9117 206.7864 81.4153 0.0000 -4.7885 0.0000
# 3 89.3735 81.4153 248.9886 0.0000 -1.6421 0.0000
# 4 0.0000 0.0000 0.0000 64.5063 0.0000 -10.4394
# 5 41.1747 -4.7885 -1.6421 0.0000 91.1224 0.0000
# 6 0.0000 0.0000 0.0000 -10.4394 0.0000 57.3043
#
#
#
# Elastic Compliance Matrix: (Units=1/GPa)
#
#
# Indices 1 2 3 4 5 6 
#
# 1 0.014240 -0.002503 -0.004337 0.000000 -0.006644 0.000000
# 2 -0.002503 0.005997 -0.001053 0.000000 0.001427 0.000000
# 3 -0.004337 -0.001053 0.005930 0.000000 0.002011 0.000000
# 4 0.000000 0.000000 0.000000 0.015973 0.000000 0.002910
# 5 -0.006644 0.001427 0.002011 0.000000 0.014088 0.000000
# 6 0.000000 0.000000 0.000000 0.002910 0.000000 0.017981
#
#
# Mechanical properties :
#
#
# Convention : Reuss Voigt Hill
#
# Bulk Modulus (GPa) = 96.32611 115.79854 106.06233
# Shear Modulus (GPa) = 53.50181 66.12563 59.81372
#
# Velocity S-wave (km/s) = 4.14595 4.60920 4.38370
# Velocity P-wave (km/s) = 7.33935 8.09504 7.72644
#
# Compressibility (1/GPa) = 0.01038140
#
# Stress axis : x y z
#
# Youngs Moduli (GPa) = 70.22525 166.75986 168.62279
#
# Poissons Ratio (x) = 0.41745 0.73126
# Poissons Ratio (y) = 0.17579 0.17754
# Poissons Ratio (z) = 0.30454 0.17557
#
# Static dielectric constant tensor:
#      x y z
#    x 2.580650 0.000000 -0.050050 
#    y 0.000000 2.366750 0.000000 
#    z -0.050050 0.000000 2.326750 
# 
# From -- ./inp_files/7696.got.cif
#   From: 2010.05.17/outbox.cif.g08.bks.cpg/sg9_4_cif.got.tgz:7696.got - 2010.06.03 20:04:27.
