data_PCOD9138034
_publ_section_title
;
Structure prediction by ZEFSAII (Michael W. Deem and Ramdas Pophale) SiO2 
 PCOD9138034
Probable space group: C C
;
_chemical_formula_sum "Si O2"
_cell_formula_units_Z 28
_cell_length_a 17.618075
_cell_length_b 6.710101
_cell_length_c 14.419193
_cell_angle_alpha 90.000000
_cell_angle_beta 137.333675
_cell_angle_gamma 90.000000
_cell_volume 1155.270405
_symmetry_space_group_name_H-M "C C"
_symmetry_group_IT_number 9
_symmetry_cell_setting 'monoclinic'
loop_
_space_group_symop_operation_xyz
x,y,z
x,-y,1/2+z
1/2+x,1/2+y,z
1/2+x,1/2-y,1/2+z
loop_
_atom_site_type_symbol
_atom_site_label
_atom_site_fract_x
_atom_site_fract_y
_atom_site_fract_z
Si Si1 0.623240 0.106722 0.659650
Si Si2 0.238624 0.373051 0.081318
Si Si3 0.482279 0.553272 0.013799
Si Si4 0.711823 0.341929 0.237321
Si Si5 0.889602 0.215554 0.262870
Si Si6 0.058441 0.537307 0.790112
Si Si7 0.374866 0.762390 0.546824
O O1 0.712050 0.182804 0.662399
O O2 0.502304 0.208751 0.527083
O O3 0.638337 0.137220 0.783867
O O4 0.648646 0.871292 0.665294
O O5 0.299106 0.586633 0.126501
O O6 0.323504 0.236563 0.102887
O O7 0.125142 0.397251 0.920852
O O8 0.441704 0.441724 0.884346
O O9 0.610513 0.491894 0.145998
O O10 0.412517 0.449173 0.034359
O O11 0.810679 0.362565 0.250983
O O12 0.777503 0.337782 0.392519
O O13 0.983665 0.312783 0.283465
O O14 0.980877 0.403315 0.653724
#
# Coordination Sequence:
#
# PCOD9138034 Si02
#       7
#     4   4   4   4   4   4   4
#     4  11  24  45  70 100 140 191 231 304 363 420
#     4  11  25  45  67 105 147 175 256 299 344 450
#     4  11  23  45  74 100 144 189 245 301 368 430
#     4  10  22  47  65 105 140 178 243 308 349 439
#     4  10  24  42  70 101 143 188 244 290 364 430
#     4  12  25  46  74 104 149 194 237 306 372 424
#     4  11  23  44  70 101 143 187 238 302 360 431
#
# _framework density 24.236750000000001
#
# number of rings (size 3 to 8) (size 9 to 14) (size 15 to 20)
#    0.000    1.143    2.857    2.571    6.000    1.143 
#   10.286    0.000    0.000    0.000    0.000    0.000 
#    0.000    0.000    0.000    0.000    0.000    0.000 
#
# Total GULP energy -78132.664345 kJ/mol
# GULP energy per Si atom -5580.904596 kJ/mol
# Density = 2.418159 g / cm^3
# Si number density = 24.236750 Si / 1000 Ang^3
#
#
#
# Elastic Constant Matrix: (Units=GPa)
#
#
# Indices 1 2 3 4 5 6 
#
# 1 190.9349 30.4223 19.3103 0.0000 -20.3558 0.0000
# 2 30.4223 54.6615 22.8373 0.0000 2.3104 0.0000
# 3 19.3103 22.8373 50.5839 0.0000 15.8481 0.0000
# 4 0.0000 0.0000 0.0000 23.5289 0.0000 13.0561
# 5 -20.3558 2.3104 15.8481 0.0000 30.1047 0.0000
# 6 0.0000 0.0000 0.0000 13.0561 0.0000 40.4014
#
#
#
# Elastic Compliance Matrix: (Units=1/GPa)
#
#
# Indices 1 2 3 4 5 6 
#
# 1 0.006690 -0.002560 -0.003445 0.000000 0.006534 0.000000
# 2 -0.002560 0.024012 -0.010471 0.000000 0.001938 0.000000
# 3 -0.003445 -0.010471 0.031482 0.000000 -0.018099 0.000000
# 4 0.000000 0.000000 0.000000 0.051787 0.000000 -0.016736
# 5 0.006534 0.001938 -0.018099 0.000000 0.047015 0.000000
# 6 0.000000 0.000000 0.000000 -0.016736 0.000000 0.030160
#
#
# Mechanical properties :
#
#
# Convention : Reuss Voigt Hill
#
# Bulk Modulus (GPa) = 34.20890 49.03556 41.62223
# Shear Modulus (GPa) = 21.38188 33.71436 27.54812
#
# Velocity S-wave (km/s) = 2.97342 3.73371 3.37505
# Velocity P-wave (km/s) = 5.09249 6.23405 5.69196
#
# Compressibility (1/GPa) = 0.02923216
#
# Stress axis : x y z
#
# Youngs Moduli (GPa) = 149.46872 41.64578 31.76413
#
# Poissons Ratio (x) = 0.10663 0.10943
# Poissons Ratio (y) = 0.38269 0.33259
# Poissons Ratio (z) = 0.51495 0.43606
#
# Static dielectric constant tensor:
#      x y z
#    x 1.956770 0.000000 -0.012420 
#    y 0.000000 2.059190 0.000000 
#    z -0.012420 0.000000 1.886920 
# 
# From -- ./inp_files/26733.got.cif
#   From: 2010.05.17/outbox.cif.g08.bks.cpg/sg9_14_cif.got.tgz:26733.got - 2010.06.03 20:04:27.
