data_PCOD9138000
_publ_section_title
;
Structure prediction by ZEFSAII (Michael W. Deem and Ramdas Pophale) SiO2 
 PCOD9138000
Probable space group: C C
;
_chemical_formula_sum "Si O2"
_cell_formula_units_Z 24
_cell_length_a 7.203526
_cell_length_b 13.080036
_cell_length_c 9.475760
_cell_angle_alpha 90.000000
_cell_angle_beta 75.913923
_cell_angle_gamma 90.000000
_cell_volume 865.982355
_symmetry_space_group_name_H-M "C C"
_symmetry_group_IT_number 9
_symmetry_cell_setting 'monoclinic'
loop_
_space_group_symop_operation_xyz
x,y,z
x,-y,1/2+z
1/2+x,1/2+y,z
1/2+x,1/2-y,1/2+z
loop_
_atom_site_type_symbol
_atom_site_label
_atom_site_fract_x
_atom_site_fract_y
_atom_site_fract_z
Si Si1 0.017610 0.766590 0.299820
Si Si2 0.115433 0.447746 0.922907
Si Si3 0.535805 0.521954 0.943723
Si Si4 0.275564 0.968438 0.654092
Si Si5 0.616778 0.834262 0.276905
Si Si6 0.897197 0.245866 0.534536
O O1 0.075266 0.862035 0.385837
O O2 0.788859 0.786883 0.340235
O O3 0.052616 0.788258 0.124928
O O4 0.357899 0.859768 0.595634
O O5 0.328967 0.476844 0.942773
O O6 0.088161 0.343963 0.837065
O O7 0.088409 0.548546 0.824861
O O8 0.940877 0.456344 0.068594
O O9 0.701719 0.464879 0.826369
O O10 0.582226 0.514679 0.099140
O O11 0.702222 0.813737 0.107001
O O12 0.449943 0.760079 0.362198
#
# Coordination Sequence:
#
# PCOD9138000 Si02
#       6
#     4   4   4   4   4   4
#     4   9  21  40  69 103 144 190 242 311 365 445
#     4  10  22  46  72 102 150 193 244 309 375 440
#     4  11  26  47  70 112 146 188 256 307 367 461
#     4  11  25  47  74 101 147 198 242 307 384 438
#     4   8  19  37  71  99 135 191 238 301 361 442
#     4   9  19  41  70  97 146 190 244 303 376 432
#
# _framework density 27.714191
#
# number of rings (size 3 to 8) (size 9 to 14) (size 15 to 20)
#    1.000    1.333    0.000    1.000    2.333    5.333 
#    9.000    3.333    0.000    0.000    0.000    0.000 
#    0.000    0.000    0.000    0.000    0.000    0.000 
#
# Total GULP energy -67049.273864 kJ/mol
# GULP energy per Si atom -5587.439489 kJ/mol
# Density = 2.765111 g / cm^3
# Si number density = 27.714191 Si / 1000 Ang^3
#
#
#
# Elastic Constant Matrix: (Units=GPa)
#
#
# Indices 1 2 3 4 5 6 
#
# 1 126.1738 27.6526 -1.5488 0.0000 7.3161 0.0000
# 2 27.6526 193.6786 4.0946 0.0000 -9.2508 0.0000
# 3 -1.5488 4.0946 101.4052 0.0000 -5.8732 0.0000
# 4 0.0000 0.0000 0.0000 33.1387 0.0000 -7.9091
# 5 7.3161 -9.2508 -5.8732 0.0000 34.1354 0.0000
# 6 0.0000 0.0000 0.0000 -7.9091 0.0000 48.0350
#
#
#
# Elastic Compliance Matrix: (Units=1/GPa)
#
#
# Indices 1 2 3 4 5 6 
#
# 1 0.008333 -0.001292 0.000056 0.000000 -0.002127 0.000000
# 2 -0.001292 0.005433 -0.000139 0.000000 0.001725 0.000000
# 3 0.000056 -0.000139 0.009964 0.000000 0.001665 0.000000
# 4 0.000000 0.000000 0.000000 0.031411 0.000000 0.005172
# 5 -0.002127 0.001725 0.001665 0.000000 0.030505 0.000000
# 6 0.000000 0.000000 0.000000 0.005172 0.000000 0.021670
#
#
# Mechanical properties :
#
#
# Convention : Reuss Voigt Hill
#
# Bulk Modulus (GPa) = 47.66559 53.51714 50.59137
# Shear Modulus (GPa) = 42.71341 49.13244 45.92292
#
# Velocity S-wave (km/s) = 3.93008 4.21506 4.07507
# Velocity P-wave (km/s) = 6.15064 6.56059 6.35892
#
# Compressibility (1/GPa) = 0.02097949
#
# Stress axis : x y z
#
# Youngs Moduli (GPa) = 120.00710 184.05751 100.35805
#
# Poissons Ratio (x) = 0.23789 -0.00565
# Poissons Ratio (y) = 0.15511 0.01397
# Poissons Ratio (z) = -0.00676 0.02562
#
# Static dielectric constant tensor:
#      x y z
#    x 2.229520 0.000000 0.039260 
#    y 0.000000 2.196100 0.000000 
#    z 0.039260 0.000000 2.215310 
# 
# From -- ./inp_files/15516.got.cif
#   From: 2010.05.17/outbox.cif.g08.bks.cpg/sg9_8_cif.got.tgz:15516.got - 2010.06.03 20:04:27.
