data_PCOD9138424
_publ_section_title
;
Structure prediction by ZEFSAII (Michael W. Deem and Ramdas Pophale) SiO2 
 PCOD9138424
Probable space group: C C
;
_chemical_formula_sum "Si O2"
_cell_formula_units_Z 32
_cell_length_a 14.010514
_cell_length_b 6.518858
_cell_length_c 15.617579
_cell_angle_alpha 90.000000
_cell_angle_beta 110.320220
_cell_angle_gamma 90.000000
_cell_volume 1337.623801
_symmetry_space_group_name_H-M "C C"
_symmetry_group_IT_number 9
_symmetry_cell_setting 'monoclinic'
loop_
_space_group_symop_operation_xyz
x,y,z
x,-y,1/2+z
1/2+x,1/2+y,z
1/2+x,1/2-y,1/2+z
loop_
_atom_site_type_symbol
_atom_site_label
_atom_site_fract_x
_atom_site_fract_y
_atom_site_fract_z
Si Si1 0.395270 0.909261 0.876320
Si Si2 0.611990 0.972135 0.861220
Si Si3 0.708707 0.305756 0.270771
Si Si4 0.075332 0.981940 0.083392
Si Si5 0.687815 0.150503 0.555164
Si Si6 0.988901 0.441500 0.566200
Si Si7 0.844251 0.035167 0.744429
Si Si8 0.502524 0.226484 0.710558
O O1 0.501715 0.994534 0.871933
O O2 0.387896 0.695040 0.825597
O O3 0.294444 0.036488 0.825249
O O4 0.412501 0.931044 0.982793
O O5 0.622771 0.758594 0.812172
O O6 0.603280 0.168551 0.795990
O O7 0.693816 0.950879 0.963040
O O8 0.662909 0.379601 0.167767
O O9 0.761367 0.089495 0.271657
O O10 0.994906 0.798780 0.042239
O O11 0.133301 0.124313 0.032117
O O12 0.025816 0.137190 0.135349
O O13 0.602661 0.018381 0.578758
O O14 0.788273 0.140822 0.645019
O O15 0.967786 0.507928 0.657799
O O16 0.922603 0.861238 0.737438
#
# Coordination Sequence:
#
# PCOD9138424 Si02
#       8
#     4   4   4   4   4   4   4   4
#     4  11  26  45  69 106 145 183 247 305 361 447
#     4  11  24  47  66 105 145 187 244 299 371 439
#     4  12  23  44  71  97 141 191 232 304 363 439
#     4  11  21  45  74  96 141 191 232 299 374 430
#     4  10  23  43  69 103 139 188 242 296 361 447
#     4  10  23  46  69 103 141 185 242 293 367 441
#     4  12  24  43  70 103 144 187 239 299 367 434
#     4  11  24  43  72 103 146 188 230 305 366 437
#
# _framework density 23.923017999999999
#
# number of rings (size 3 to 8) (size 9 to 14) (size 15 to 20)
#    0.000    1.000    5.000    1.500    0.000    5.000 
#    6.750    0.000    0.000    0.000    0.000    0.000 
#    0.000    0.000    0.000    0.000    0.000    0.000 
#
# Total GULP energy -89273.600324 kJ/mol
# GULP energy per Si atom -5579.600020 kJ/mol
# Density = 2.386857 g / cm^3
# Si number density = 23.923018 Si / 1000 Ang^3
#
#
#
# Elastic Constant Matrix: (Units=GPa)
#
#
# Indices 1 2 3 4 5 6 
#
# 1 49.7131 29.8004 13.3895 0.0000 3.7263 0.0000
# 2 29.8004 105.3816 50.5940 0.0000 0.3256 0.0000
# 3 13.3895 50.5940 122.1117 0.0000 8.4166 0.0000
# 4 0.0000 0.0000 0.0000 26.8217 0.0000 6.4647
# 5 3.7263 0.3256 8.4166 0.0000 20.3184 0.0000
# 6 0.0000 0.0000 0.0000 6.4647 0.0000 41.4037
#
#
#
# Elastic Compliance Matrix: (Units=1/GPa)
#
#
# Indices 1 2 3 4 5 6 
#
# 1 0.024646 -0.007255 0.000625 0.000000 -0.004662 0.000000
# 2 -0.007255 0.014053 -0.005253 0.000000 0.003281 0.000000
# 3 0.000625 -0.005253 0.010602 0.000000 -0.004422 0.000000
# 4 0.000000 0.000000 0.000000 0.038741 0.000000 -0.006049
# 5 -0.004662 0.003281 -0.004422 0.000000 0.051851 0.000000
# 6 0.000000 0.000000 0.000000 -0.006049 0.000000 0.025097
#
#
# Mechanical properties :
#
#
# Convention : Reuss Voigt Hill
#
# Bulk Modulus (GPa) = 39.16346 51.64157 45.40252
# Shear Modulus (GPa) = 25.34631 29.93690 27.64160
#
# Velocity S-wave (km/s) = 3.25852 3.54133 3.40286
# Velocity P-wave (km/s) = 5.52842 6.19312 5.87019
#
# Compressibility (1/GPa) = 0.02553400
#
# Stress axis : x y z
#
# Youngs Moduli (GPa) = 40.57511 71.15991 94.32193
#
# Poissons Ratio (x) = 0.51627 -0.05895
# Poissons Ratio (y) = 0.29438 0.49548
# Poissons Ratio (z) = -0.02536 0.37381
#
# Static dielectric constant tensor:
#      x y z
#    x 1.955490 0.000000 -0.031500 
#    y 0.000000 2.020230 0.000000 
#    z -0.031500 0.000000 2.017870 
# 
# From -- ./inp_files/30357.got.cif
#   From: 2010.05.17/outbox.cif.g08.bks.cpg/sg9_16_cif.got.tgz:30357.got - 2010.06.03 20:04:27.
