data_PCOD9138868
_publ_section_title
;
Structure prediction by ZEFSAII (Michael W. Deem and Ramdas Pophale) SiO2 
 PCOD9138868
Probable space group: C C
;
_chemical_formula_sum "Si O2"
_cell_formula_units_Z 24
_cell_length_a 9.220153
_cell_length_b 9.769834
_cell_length_c 21.350417
_cell_angle_alpha 90.000000
_cell_angle_beta 150.085846
_cell_angle_gamma 90.000000
_cell_volume 959.119404
_symmetry_space_group_name_H-M "C C"
_symmetry_group_IT_number 9
_symmetry_cell_setting 'monoclinic'
loop_
_space_group_symop_operation_xyz
x,y,z
x,-y,1/2+z
1/2+x,1/2+y,z
1/2+x,1/2-y,1/2+z
loop_
_atom_site_type_symbol
_atom_site_label
_atom_site_fract_x
_atom_site_fract_y
_atom_site_fract_z
Si Si1 0.751780 0.970801 0.688200
Si Si2 0.965025 0.954682 0.107698
Si Si3 0.899663 0.757294 0.833039
Si Si4 0.146248 0.256481 0.209592
Si Si5 0.857516 0.657464 0.409076
Si Si6 0.015169 0.234163 0.519599
O O1 0.754008 0.900687 0.758084
O O2 0.530192 0.873080 0.566877
O O3 0.714667 0.129612 0.684529
O O4 0.660632 0.078205 0.529373
O O5 0.215260 0.859085 0.230016
O O6 0.900589 0.896323 0.014341
O O7 0.073477 0.109265 0.152419
O O8 0.081737 0.059340 0.288983
O O9 0.216323 0.766922 0.916710
O O10 0.897232 0.742463 0.906145
O O11 0.376094 0.248140 0.352754
O O12 0.851709 0.301204 0.133549
#
# Coordination Sequence:
#
# PCOD9138868 Si02
#       6
#     4   4   4   4   4   4
#     4   8  21  49  75 110 157 200 248 315 387 439
#     4  11  24  48  81 119 146 209 258 311 385 464
#     4   9  22  52  78 111 161 196 258 317 384 456
#     4  11  23  47  79 107 158 198 258 320 379 457
#     4   9  23  49  79 110 161 199 254 313 392 438
#     4  10  23  51  76 113 151 200 256 314 385 454
#
# _framework density 25.022955
#
# number of rings (size 3 to 8) (size 9 to 14) (size 15 to 20)
#    1.000    1.333    1.667    0.000    2.333    4.000 
#   21.000    3.333    7.333    0.000    0.000    0.000 
#    0.000    0.000    0.000    0.000    0.000    0.000 
#
# Total GULP energy -67020.687106 kJ/mol
# GULP energy per Si atom -5585.057259 kJ/mol
# Density = 2.496600 g / cm^3
# Si number density = 25.022955 Si / 1000 Ang^3
#
#
#
# Elastic Constant Matrix: (Units=GPa)
#
#
# Indices 1 2 3 4 5 6 
#
# 1 82.0096 69.5462 41.6071 0.0007 -9.6177 0.0002
# 2 69.5462 158.2802 56.1454 0.0003 -15.9174 0.0002
# 3 41.6071 56.1454 125.7896 0.0016 -31.5375 0.0010
# 4 0.0007 0.0003 0.0016 23.7026 0.0008 -8.9151
# 5 -9.6177 -15.9174 -31.5375 0.0008 55.7901 0.0003
# 6 0.0002 0.0002 0.0010 -8.9151 0.0003 34.6576
#
#
#
# Elastic Compliance Matrix: (Units=1/GPa)
#
#
# Indices 1 2 3 4 5 6 
#
# 1 0.020536 -0.007867 -0.003445 0.000000 -0.000652 0.000000
# 2 -0.007867 0.010524 -0.001960 0.000000 0.000538 0.000000
# 3 -0.003445 -0.001960 0.011273 -0.000001 0.005219 -0.000001
# 4 0.000000 0.000000 -0.000001 0.046709 -0.000001 0.012015
# 5 -0.000652 0.000538 0.005219 -0.000001 0.020916 -0.000001
# 6 0.000000 0.000000 -0.000001 0.012015 -0.000001 0.031944
#
#
# Mechanical properties :
#
#
# Convention : Reuss Voigt Hill
#
# Bulk Modulus (GPa) = 63.33460 77.85300 70.59380
# Shear Modulus (GPa) = 28.78379 36.08211 32.43295
#
# Velocity S-wave (km/s) = 3.39528 3.80143 3.60408
# Velocity P-wave (km/s) = 6.38249 7.10268 6.75219
#
# Compressibility (1/GPa) = 0.01578916
#
# Stress axis : x y z
#
# Youngs Moduli (GPa) = 48.69409 95.02056 88.71029
#
# Poissons Ratio (x) = 0.74753 0.30558
# Poissons Ratio (y) = 0.38308 0.17389
# Poissons Ratio (z) = 0.16774 0.18626
#
# Static dielectric constant tensor:
#      x y z
#    x 2.029110 0.000000 -0.047730 
#    y 0.000000 1.988890 0.000000 
#    z -0.047730 0.000000 2.098320 
# 
# From -- ./inp_files/23960.got.cif
#   From: 2010.05.17/outbox.cif.g08.bks.cpg/sg9_12_cif.got.tgz:23960.got - 2010.06.03 20:04:27.
