data_PCOD9138903
_publ_section_title
;
Structure prediction by ZEFSAII (Michael W. Deem and Ramdas Pophale) SiO2 
 PCOD9138903
Probable space group: C C
;
_chemical_formula_sum "Si O2"
_cell_formula_units_Z 24
_cell_length_a 11.988093
_cell_length_b 13.449173
_cell_length_c 5.604107
_cell_angle_alpha 90.000000
_cell_angle_beta 76.307267
_cell_angle_gamma 90.000000
_cell_volume 877.870164
_symmetry_space_group_name_H-M "C C"
_symmetry_group_IT_number 9
_symmetry_cell_setting 'monoclinic'
loop_
_space_group_symop_operation_xyz
x,y,z
x,-y,1/2+z
1/2+x,1/2+y,z
1/2+x,1/2-y,1/2+z
loop_
_atom_site_type_symbol
_atom_site_label
_atom_site_fract_x
_atom_site_fract_y
_atom_site_fract_z
Si Si1 0.280730 0.727180 0.025970
Si Si2 0.994169 0.758414 0.756590
Si Si3 0.096070 0.391578 0.855017
Si Si4 0.158934 0.054169 0.103758
Si Si5 0.319733 0.528698 0.765816
Si Si6 0.886456 0.379374 0.672775
O O1 0.383652 0.708279 0.159200
O O2 0.159539 0.703992 0.203794
O O3 0.291290 0.643485 0.816828
O O4 0.302074 0.836459 0.919570
O O5 0.043283 0.657032 0.615435
O O6 0.089380 0.843694 0.692060
O O7 0.945299 0.718822 0.029864
O O8 0.994118 0.432706 0.740462
O O9 0.199744 0.468086 0.828101
O O10 0.297553 0.072179 0.037236
O O11 0.133702 0.985365 0.349185
O O12 0.377522 0.492283 0.983090
#
# Coordination Sequence:
#
# PCOD9138903 Si02
#       6
#     4   4   4   4   4   4
#     4  10  24  44  75 108 146 192 253 314 381 450
#     4  11  26  48  79 106 150 204 259 308 387 460
#     4  10  24  44  75 108 146 192 253 314 381 450
#     4  12  32  52  76 112 164 208 258 318 392 470
#     4  10  24  40  66 110 142 178 232 312 366 426
#     4  11  26  48  79 106 150 204 259 308 387 460
#
# _framework density 27.338895000000001
#
# number of rings (size 3 to 8) (size 9 to 14) (size 15 to 20)
#    0.000    1.333    0.000    2.000   23.333    5.333 
#    0.000    0.000    0.000    0.000    0.000    0.000 
#    0.000    0.000    0.000    0.000    0.000    0.000 
#
# Total GULP energy -67251.039115 kJ/mol
# GULP energy per Si atom -5604.253260 kJ/mol
# Density = 2.727667 g / cm^3
# Si number density = 27.338895 Si / 1000 Ang^3
#
#
#
# Elastic Constant Matrix: (Units=GPa)
#
#
# Indices 1 2 3 4 5 6 
#
# 1 181.4784 34.1078 25.3738 0.0000 1.1992 0.0000
# 2 34.1078 101.1283 30.7314 0.0000 -9.2289 0.0000
# 3 25.3738 30.7314 127.4175 0.0000 -1.9190 0.0000
# 4 0.0000 0.0000 0.0000 44.6648 0.0000 -5.0563
# 5 1.1992 -9.2289 -1.9190 0.0000 29.7076 0.0000
# 6 0.0000 0.0000 0.0000 -5.0563 0.0000 52.2864
#
#
#
# Elastic Compliance Matrix: (Units=1/GPa)
#
#
# Indices 1 2 3 4 5 6 
#
# 1 0.005972 -0.001865 -0.000753 0.000000 -0.000869 0.000000
# 2 -0.001865 0.011556 -0.002363 0.000000 0.003513 0.000000
# 3 -0.000753 -0.002363 0.008566 0.000000 -0.000150 0.000000
# 4 0.000000 0.000000 0.000000 0.022637 0.000000 0.002189
# 5 -0.000869 0.003513 -0.000150 0.000000 0.034778 0.000000
# 6 0.000000 0.000000 0.000000 0.002189 0.000000 0.019337
#
#
# Mechanical properties :
#
#
# Convention : Reuss Voigt Hill
#
# Bulk Modulus (GPa) = 61.98451 65.60559 63.79505
# Shear Modulus (GPa) = 42.30714 46.65249 44.47982
#
# Velocity S-wave (km/s) = 3.93810 4.13540 4.03796
# Velocity P-wave (km/s) = 6.58787 6.84480 6.71757
#
# Compressibility (1/GPa) = 0.01613306
#
# Stress axis : x y z
#
# Youngs Moduli (GPa) = 167.45591 86.53550 116.74448
#
# Poissons Ratio (x) = 0.16136 0.08786
# Poissons Ratio (y) = 0.31226 0.27586
# Poissons Ratio (z) = 0.12602 0.20448
#
# Static dielectric constant tensor:
#      x y z
#    x 2.076480 0.000000 0.014910 
#    y 0.000000 2.108410 0.000000 
#    z 0.014910 0.000000 2.208270 
# 
# From -- ./inp_files/1548.got.cif
#   From: 2010.05.17/outbox.cif.g08.bks.cpg/sg9_1_cif.got.tgz:1548.got - 2010.06.03 20:04:27.
