data_PCOD9138439
_publ_section_title
;
Structure prediction by ZEFSAII (Michael W. Deem and Ramdas Pophale) SiO2 
 PCOD9138439
Probable space group: C C
;
_chemical_formula_sum "Si O2"
_cell_formula_units_Z 32
_cell_length_a 8.306194
_cell_length_b 12.203202
_cell_length_c 15.798411
_cell_angle_alpha 90.000000
_cell_angle_beta 107.829678
_cell_angle_gamma 90.000000
_cell_volume 1524.449216
_symmetry_space_group_name_H-M "C C"
_symmetry_group_IT_number 9
_symmetry_cell_setting 'monoclinic'
loop_
_space_group_symop_operation_xyz
x,y,z
x,-y,1/2+z
1/2+x,1/2+y,z
1/2+x,1/2-y,1/2+z
loop_
_atom_site_type_symbol
_atom_site_label
_atom_site_fract_x
_atom_site_fract_y
_atom_site_fract_z
Si Si1 0.936420 0.627307 0.300370
Si Si2 0.764838 0.024463 0.686030
Si Si3 0.653657 0.746069 0.088494
Si Si4 0.257995 0.503115 0.389120
Si Si5 0.019612 0.676475 0.126365
Si Si6 0.088235 0.878437 0.017451
Si Si7 0.816292 0.244757 0.930237
Si Si8 0.126484 0.034251 0.171519
O O1 0.013345 0.681990 0.228007
O O2 0.839568 0.718379 0.337802
O O3 0.800394 0.534865 0.251358
O O4 0.085152 0.568802 0.375372
O O5 0.768727 0.013343 0.788730
O O6 0.635976 0.930366 0.630415
O O7 0.957726 0.012433 0.685601
O O8 0.701285 0.139194 0.638231
O O9 0.819013 0.687837 0.074559
O O10 0.591744 0.661979 0.149889
O O11 0.501337 0.754703 0.999830
O O12 0.410885 0.574973 0.452542
O O13 0.258116 0.381103 0.427973
O O14 0.087478 0.778104 0.084097
O O15 0.157862 0.976187 0.086674
O O16 0.196451 0.831619 0.957623
#
# Coordination Sequence:
#
# PCOD9138439 Si02
#       8
#     4   4   4   4   4   4   4   4
#     4  10  25  47  67 100 141 183 234 289 355 418
#     4  11  24  45  75  96 141 187 231 293 354 423
#     4  11  23  42  71 101 143 181 235 288 348 420
#     4  11  25  48  67 103 142 180 234 297 351 415
#     4  10  23  43  70 103 132 185 233 280 355 417
#     4  12  25  44  70 105 140 180 239 288 351 421
#     4  12  26  43  69 103 144 185 235 294 350 415
#     4  11  23  46  67 103 135 183 237 285 354 431
#
# _framework density 20.991187
#
# number of rings (size 3 to 8) (size 9 to 14) (size 15 to 20)
#    0.000    1.000    2.500    3.750    5.250    0.000 
#    6.750    0.000    0.000    0.000    0.000    0.000 
#    0.000    0.000    0.000    0.000    0.000    0.000 
#
# Total GULP energy -89305.234139 kJ/mol
# GULP energy per Si atom -5581.577134 kJ/mol
# Density = 2.094341 g / cm^3
# Si number density = 20.991187 Si / 1000 Ang^3
#
#
#
# Elastic Constant Matrix: (Units=GPa)
#
#
# Indices 1 2 3 4 5 6 
#
# 1 52.1408 40.4301 32.2460 0.0000 12.9708 0.0000
# 2 40.4301 132.4475 38.2960 0.0000 13.5642 0.0000
# 3 32.2460 38.2960 57.1891 0.0000 23.1027 0.0000
# 4 0.0000 0.0000 0.0000 17.2294 0.0000 5.5276
# 5 12.9708 13.5642 23.1027 0.0000 45.3735 0.0000
# 6 0.0000 0.0000 0.0000 5.5276 0.0000 35.2703
#
#
#
# Elastic Compliance Matrix: (Units=1/GPa)
#
#
# Indices 1 2 3 4 5 6 
#
# 1 0.032643 -0.005762 -0.014445 0.000000 -0.000254 0.000000
# 2 -0.005762 0.010389 -0.003926 0.000000 0.000541 0.000000
# 3 -0.014445 -0.003926 0.032881 0.000000 -0.011439 0.000000
# 4 0.000000 0.000000 0.000000 0.061113 0.000000 -0.009578
# 5 -0.000254 0.000541 -0.011439 0.000000 0.027775 0.000000
# 6 0.000000 0.000000 0.000000 -0.009578 0.000000 0.029853
#
#
# Mechanical properties :
#
#
# Convention : Reuss Voigt Hill
#
# Bulk Modulus (GPa) = 36.17054 51.52463 43.84759
# Shear Modulus (GPa) = 19.83065 28.29498 24.06282
#
# Velocity S-wave (km/s) = 3.07695 3.67542 3.38942
# Velocity P-wave (km/s) = 5.46738 6.52769 6.02092
#
# Compressibility (1/GPa) = 0.02764681
#
# Stress axis : x y z
#
# Youngs Moduli (GPa) = 30.63443 96.25660 30.41312
#
# Poissons Ratio (x) = 0.55461 0.43931
# Poissons Ratio (y) = 0.17651 0.11941
# Poissons Ratio (z) = 0.44250 0.37794
#
# Static dielectric constant tensor:
#      x y z
#    x 1.785320 0.000000 0.006570 
#    y 0.000000 1.776900 0.000000 
#    z 0.006570 0.000000 1.805630 
# 
# From -- ./inp_files/22801.got.cif
#   From: 2010.05.17/outbox.cif.g08.bks.cpg/sg9_12_cif.got.tgz:22801.got - 2010.06.03 20:04:27.
