data_PCOD9138879
_publ_section_title
;
Structure prediction by ZEFSAII (Michael W. Deem and Ramdas Pophale) SiO2 
 PCOD9138879
Probable space group: C C
;
_chemical_formula_sum "Si O2"
_cell_formula_units_Z 32
_cell_length_a 9.366879
_cell_length_b 22.334303
_cell_length_c 7.475255
_cell_angle_alpha 90.000000
_cell_angle_beta 57.287286
_cell_angle_gamma 90.000000
_cell_volume 1315.803772
_symmetry_space_group_name_H-M "C C"
_symmetry_group_IT_number 9
_symmetry_cell_setting 'monoclinic'
loop_
_space_group_symop_operation_xyz
x,y,z
x,-y,1/2+z
1/2+x,1/2+y,z
1/2+x,1/2-y,1/2+z
loop_
_atom_site_type_symbol
_atom_site_label
_atom_site_fract_x
_atom_site_fract_y
_atom_site_fract_z
Si Si1 0.854440 0.236643 0.413200
Si Si2 0.275890 0.073197 0.239524
Si Si3 0.163075 0.387376 0.515818
Si Si4 0.519408 0.608087 0.717690
Si Si5 0.296128 0.933545 0.310918
Si Si6 0.113663 0.227383 0.785695
Si Si7 0.180961 0.256454 0.347826
Si Si8 0.106452 0.644878 0.440886
O O1 0.765742 0.278906 0.327212
O O2 0.852891 0.255501 0.622653
O O3 0.761592 0.172829 0.451939
O O4 0.056607 0.236226 0.267875
O O5 0.466865 0.096453 0.130519
O O6 0.127243 0.104144 0.459303
O O7 0.304762 0.005157 0.286627
O O8 0.242166 0.079431 0.050941
O O9 0.332537 0.420366 0.327500
O O10 0.167587 0.325817 0.401254
O O11 0.183185 0.388146 0.717366
O O12 0.650224 0.580749 0.768488
O O13 0.487593 0.672047 0.845508
O O14 0.466471 0.896077 0.135406
O O15 0.184636 0.227452 0.537357
O O16 0.042776 0.292434 0.889724
#
# Coordination Sequence:
#
# PCOD9138879 Si02
#       8
#     4   4   4   4   4   4   4   4
#     4  10  24  37  66 102 145 202 254 306 384 474
#     4  12  27  52  80 114 153 210 270 339 397 477
#     4  11  25  48  76 112 155 207 266 328 404 468
#     4  12  27  49  76 116 155 207 260 337 399 475
#     4  12  25  53  82 110 159 205 272 335 408 467
#     4   9  25  40  69 106 154 196 254 318 389 474
#     4  11  23  42  66 102 153 200 254 312 390 479
#     4   9  22  45  73 110 154 209 250 327 395 482
#
# _framework density 24.319735999999999
#
# number of rings (size 3 to 8) (size 9 to 14) (size 15 to 20)
#    0.750    0.500    2.500    1.500    7.000    3.000 
#    9.000    0.000    0.000    0.000    0.000    0.000 
#    0.000    0.000    0.000    0.000    0.000    0.000 
#
# Total GULP energy -89107.368239 kJ/mol
# GULP energy per Si atom -5569.210515 kJ/mol
# Density = 2.426438 g / cm^3
# Si number density = 24.319736 Si / 1000 Ang^3
#
#
#
# Elastic Constant Matrix: (Units=GPa)
#
#
# Indices 1 2 3 4 5 6 
#
# 1 105.5843 2.2542 47.5349 0.0000 2.4329 0.0000
# 2 2.2542 63.3646 19.3172 0.0000 -4.5660 0.0000
# 3 47.5349 19.3172 176.5926 0.0000 20.9510 0.0000
# 4 0.0000 0.0000 0.0000 26.3838 0.0000 9.5274
# 5 2.4329 -4.5660 20.9510 0.0000 47.9881 0.0000
# 6 0.0000 0.0000 0.0000 9.5274 0.0000 12.2654
#
#
#
# Elastic Compliance Matrix: (Units=1/GPa)
#
#
# Indices 1 2 3 4 5 6 
#
# 1 0.010826 0.000616 -0.003083 0.000000 0.000856 0.000000
# 2 0.000616 0.016641 -0.002289 0.000000 0.002552 0.000000
# 3 -0.003083 -0.002289 0.007119 0.000000 -0.003170 0.000000
# 4 0.000000 0.000000 0.000000 0.052678 0.000000 -0.040919
# 5 0.000856 0.002552 -0.003170 0.000000 0.022422 0.000000
# 6 0.000000 0.000000 0.000000 -0.040919 0.000000 0.113315
#
#
# Mechanical properties :
#
#
# Convention : Reuss Voigt Hill
#
# Bulk Modulus (GPa) = 39.87983 53.75048 46.81515
# Shear Modulus (GPa) = 20.75795 35.75645 28.25720
#
# Velocity S-wave (km/s) = 2.92472 3.83856 3.41237
# Velocity P-wave (km/s) = 5.27627 6.46496 5.90062
#
# Compressibility (1/GPa) = 0.02507534
#
# Stress axis : x y z
#
# Youngs Moduli (GPa) = 92.36770 60.09092 140.46688
#
# Poissons Ratio (x) = -0.03704 0.43308
# Poissons Ratio (y) = -0.05694 0.32153
# Poissons Ratio (z) = 0.28479 0.13755
#
# Static dielectric constant tensor:
#      x y z
#    x 2.020370 0.000000 -0.033930 
#    y 0.000000 1.999330 0.000000 
#    z -0.033930 0.000000 1.985540 
# 
# From -- ./inp_files/8525.got.cif
#   From: 2010.05.17/outbox.cif.g08.bks.cpg/sg9_5_cif.got.tgz:8525.got - 2010.06.03 20:04:27.
