data_PCOD9138626
_publ_section_title
;
Structure prediction by ZEFSAII (Michael W. Deem and Ramdas Pophale) SiO2 
 PCOD9138626
Probable space group: C C
;
_chemical_formula_sum "Si O2"
_cell_formula_units_Z 28
_cell_length_a 12.573553
_cell_length_b 7.466516
_cell_length_c 23.034953
_cell_angle_alpha 90.000000
_cell_angle_beta 146.009196
_cell_angle_gamma 90.000000
_cell_volume 1208.987024
_symmetry_space_group_name_H-M "C C"
_symmetry_group_IT_number 9
_symmetry_cell_setting 'monoclinic'
loop_
_space_group_symop_operation_xyz
x,y,z
x,-y,1/2+z
1/2+x,1/2+y,z
1/2+x,1/2-y,1/2+z
loop_
_atom_site_type_symbol
_atom_site_label
_atom_site_fract_x
_atom_site_fract_y
_atom_site_fract_z
Si Si1 0.636280 0.947822 0.922410
Si Si2 0.726695 0.634047 0.460442
Si Si3 0.769345 0.664779 0.193466
Si Si4 0.531140 0.303407 0.066437
Si Si5 0.996039 0.675775 0.479958
Si Si6 0.591528 0.010725 0.674622
Si Si7 0.898133 0.938903 0.889399
O O1 0.485318 0.883902 0.805858
O O2 0.701009 0.152768 0.946054
O O3 0.825111 0.829229 0.002817
O O4 0.538995 0.926415 0.940718
O O5 0.840299 0.588544 0.452794
O O6 0.523626 0.560123 0.387408
O O7 0.870781 0.564807 0.575619
O O8 0.657457 0.476221 0.139944
O O9 0.692455 0.773500 0.102458
O O10 0.694411 0.799386 0.209716
O O11 0.621745 0.127121 0.134997
O O12 0.488011 0.307813 0.978030
O O13 0.912013 0.868299 0.424853
O O14 0.682852 0.914156 0.771155
#
# Coordination Sequence:
#
# PCOD9138626 Si02
#       7
#     4   4   4   4   4   4   4
#     4  12  22  45  75 100 147 187 231 302 356 416
#     4  11  25  45  71 105 145 184 242 291 353 434
#     4  10  23  45  69 106 141 186 243 290 359 430
#     4  11  25  45  71 107 144 184 246 298 351 429
#     4  10  23  46  67 101 147 178 236 304 341 421
#     4  11  23  46  70 107 143 188 246 285 361 433
#     4  11  23  46  71 102 143 191 232 296 359 417
#
# _framework density 23.159886
#
# number of rings (size 3 to 8) (size 9 to 14) (size 15 to 20)
#    0.000    1.143    5.714    1.714    4.000    3.429 
#    2.571    2.857    3.143    0.000    0.000    0.000 
#    0.000    0.000    0.000    0.000    0.000    0.000 
#
# Total GULP energy -78194.352918 kJ/mol
# GULP energy per Si atom -5585.310923 kJ/mol
# Density = 2.310717 g / cm^3
# Si number density = 23.159886 Si / 1000 Ang^3
#
#
#
# Elastic Constant Matrix: (Units=GPa)
#
#
# Indices 1 2 3 4 5 6 
#
# 1 125.5818 14.6240 24.7793 0.0000 -11.6043 0.0000
# 2 14.6240 94.3510 26.1461 0.0000 -1.7877 0.0000
# 3 24.7793 26.1461 123.8124 0.0000 -4.7475 0.0000
# 4 0.0000 0.0000 0.0000 27.1917 0.0000 3.5913
# 5 -11.6043 -1.7877 -4.7475 0.0000 29.7841 0.0000
# 6 0.0000 0.0000 0.0000 3.5913 0.0000 39.4605
#
#
#
# Elastic Compliance Matrix: (Units=1/GPa)
#
#
# Indices 1 2 3 4 5 6 
#
# 1 0.008632 -0.000885 -0.001422 0.000000 0.003083 0.000000
# 2 -0.000885 0.011351 -0.002221 0.000000 -0.000018 0.000000
# 3 -0.001422 -0.002221 0.008858 0.000000 0.000725 0.000000
# 4 0.000000 0.000000 0.000000 0.037223 0.000000 -0.003388
# 5 0.003083 -0.000018 0.000725 0.000000 0.034891 0.000000
# 6 0.000000 0.000000 0.000000 -0.003388 0.000000 0.025650
#
#
# Mechanical properties :
#
#
# Convention : Reuss Voigt Hill
#
# Bulk Modulus (GPa) = 50.54506 52.76046 51.65276
# Shear Modulus (GPa) = 35.14799 37.83367 36.49083
#
# Velocity S-wave (km/s) = 3.89990 4.04615 3.97370
# Velocity P-wave (km/s) = 6.49236 6.68273 6.58823
#
# Compressibility (1/GPa) = 0.01978433
#
# Stress axis : x y z
#
# Youngs Moduli (GPa) = 115.85374 88.09839 112.89115
#
# Poissons Ratio (x) = 0.07799 0.16057
# Poissons Ratio (y) = 0.10257 0.25068
# Poissons Ratio (z) = 0.16478 0.19562
#
# Static dielectric constant tensor:
#      x y z
#    x 1.882020 0.000000 -0.044960 
#    y 0.000000 1.854050 0.000000 
#    z -0.044960 0.000000 1.896740 
# 
# From -- ./inp_files/35555.got.cif
#   From: 2010.05.17/outbox.cif.g08.bks.cpg/sg9_18_cif.got.tgz:35555.got - 2010.06.03 20:04:27.
