data_PCOD9139045
_publ_section_title
;
Structure prediction by ZEFSAII (Michael W. Deem and Ramdas Pophale) SiO2 
 PCOD9139045
Probable space group: C C
;
_chemical_formula_sum "Si O2"
_cell_formula_units_Z 32
_cell_length_a 6.452602
_cell_length_b 12.636652
_cell_length_c 17.474085
_cell_angle_alpha 90.000000
_cell_angle_beta 101.165659
_cell_angle_gamma 90.000000
_cell_volume 1397.854477
_symmetry_space_group_name_H-M "C C"
_symmetry_group_IT_number 9
_symmetry_cell_setting 'monoclinic'
loop_
_space_group_symop_operation_xyz
x,y,z
x,-y,1/2+z
1/2+x,1/2+y,z
1/2+x,1/2-y,1/2+z
loop_
_atom_site_type_symbol
_atom_site_label
_atom_site_fract_x
_atom_site_fract_y
_atom_site_fract_z
Si Si1 0.817070 0.719217 0.128040
Si Si2 0.528948 0.898264 0.764585
Si Si3 0.112892 0.591012 0.673527
Si Si4 0.556746 0.077940 0.037251
Si Si5 0.182751 0.926284 0.387577
Si Si6 0.363779 0.213215 0.767240
Si Si7 0.921814 0.192360 0.989458
Si Si8 0.721133 0.346946 0.872689
O O1 0.810526 0.833028 0.168590
O O2 0.606194 0.715539 0.062340
O O3 0.830767 0.629136 0.194242
O O4 0.997881 0.682931 0.082252
O O5 0.696433 0.807583 0.756631
O O6 0.431383 0.882243 0.841106
O O7 0.628436 0.009089 0.745621
O O8 0.067029 0.519291 0.596618
O O9 0.925081 0.667337 0.689162
O O10 0.776357 0.100350 0.012340
O O11 0.376132 0.063646 0.961403
O O12 0.270414 0.876978 0.315852
O O13 0.021070 0.847471 0.416720
O O14 0.093714 0.043955 0.371498
O O15 0.579072 0.261138 0.818601
O O16 0.786410 0.294724 0.957285
#
# Coordination Sequence:
#
# PCOD9139045 Si02
#       8
#     4   4   4   4   4   4   4   4
#     4  10  24  44  66  99 133 178 226 281 334 412
#     4  11  25  44  67 100 139 176 229 279 343 416
#     4  11  24  45  69  99 140 179 228 283 344 412
#     4  10  24  45  68 101 139 180 232 286 341 411
#     4  11  24  45  69 102 137 179 232 282 345 409
#     4  12  25  43  70 102 138 181 227 289 344 408
#     4  11  24  46  71  99 137 182 231 283 345 408
#     4  12  24  42  72 100 135 181 227 281 344 412
#
# _framework density 22.892225
#
# number of rings (size 3 to 8) (size 9 to 14) (size 15 to 20)
#    0.000    1.000    5.000    0.750    3.500    4.000 
#    6.750    0.000    0.000    0.000    0.000    0.000 
#    0.000    0.000    0.000    0.000    0.000    0.000 
#
# Total GULP energy -89441.847915 kJ/mol
# GULP energy per Si atom -5590.115495 kJ/mol
# Density = 2.284012 g / cm^3
# Si number density = 22.892225 Si / 1000 Ang^3
#
#
#
# Elastic Constant Matrix: (Units=GPa)
#
#
# Indices 1 2 3 4 5 6 
#
# 1 44.5887 16.9255 15.4760 0.0000 -5.3440 0.0000
# 2 16.9255 115.1335 16.8067 0.0000 -8.1943 0.0000
# 3 15.4760 16.8067 71.9130 0.0000 -16.4280 0.0000
# 4 0.0000 0.0000 0.0000 49.4975 0.0000 -11.9102
# 5 -5.3440 -8.1943 -16.4280 0.0000 33.2042 0.0000
# 6 0.0000 0.0000 0.0000 -11.9102 0.0000 36.4453
#
#
#
# Elastic Compliance Matrix: (Units=1/GPa)
#
#
# Indices 1 2 3 4 5 6 
#
# 1 0.025247 -0.002978 -0.004484 0.000000 0.001110 0.000000
# 2 -0.002978 0.009396 -0.001279 0.000000 0.001206 0.000000
# 3 -0.004484 -0.001279 0.016835 0.000000 0.007292 0.000000
# 4 0.000000 0.000000 0.000000 0.021927 0.000000 0.007166
# 5 0.001110 0.001206 0.007292 0.000000 0.034201 0.000000
# 6 0.000000 0.000000 0.000000 0.007166 0.000000 0.029780
#
#
# Mechanical properties :
#
#
# Convention : Reuss Voigt Hill
#
# Bulk Modulus (GPa) = 29.41511 36.67239 33.04375
# Shear Modulus (GPa) = 30.08410 35.99121 33.03765
#
# Velocity S-wave (km/s) = 3.62907 3.96940 3.80305
# Velocity P-wave (km/s) = 5.51702 6.08790 5.80948
#
# Compressibility (1/GPa) = 0.03399613
#
# Stress axis : x y z
#
# Youngs Moduli (GPa) = 39.60893 106.42838 59.39850
#
# Poissons Ratio (x) = 0.31694 0.26632
# Poissons Ratio (y) = 0.11795 0.07600
# Poissons Ratio (z) = 0.17759 0.13617
#
# Static dielectric constant tensor:
#      x y z
#    x 1.826810 0.000000 0.011600 
#    y 0.000000 1.865870 0.000000 
#    z 0.011600 0.000000 1.855110 
# 
# From -- ./inp_files/32020.got.cif
#   From: 2010.05.17/outbox.cif.g08.bks.cpg/sg9_17_cif.got.tgz:32020.got - 2010.06.03 20:04:27.
