data_PCOD9139018
_publ_section_title
;
Structure prediction by ZEFSAII (Michael W. Deem and Ramdas Pophale) SiO2 
 PCOD9139018
Probable space group: C C
;
_chemical_formula_sum "Si O2"
_cell_formula_units_Z 24
_cell_length_a 5.325769
_cell_length_b 18.773033
_cell_length_c 10.160015
_cell_angle_alpha 90.000000
_cell_angle_beta 82.258391
_cell_angle_gamma 90.000000
_cell_volume 1006.548372
_symmetry_space_group_name_H-M "C C"
_symmetry_group_IT_number 9
_symmetry_cell_setting 'monoclinic'
loop_
_space_group_symop_operation_xyz
x,y,z
x,-y,1/2+z
1/2+x,1/2+y,z
1/2+x,1/2-y,1/2+z
loop_
_atom_site_type_symbol
_atom_site_label
_atom_site_fract_x
_atom_site_fract_y
_atom_site_fract_z
Si Si1 0.345770 0.960328 0.757610
Si Si2 0.816385 0.031693 0.388413
Si Si3 0.884509 0.231806 0.689109
Si Si4 0.684337 0.925399 0.187006
Si Si5 0.723096 0.639901 0.043355
Si Si6 0.742222 0.801770 0.473601
O O1 0.592751 0.930975 0.818013
O O2 0.304785 0.929784 0.615326
O O3 0.097529 0.938813 0.853951
O O4 0.403050 0.044908 0.740489
O O5 0.749088 0.034044 0.545916
O O6 0.830111 0.958877 0.301890
O O7 0.763172 0.155712 0.662962
O O8 0.712013 0.296041 0.650138
O O9 0.889583 0.235699 0.845373
O O10 0.146260 0.248477 0.594571
O O11 0.442105 0.639651 0.008128
O O12 0.973328 0.664259 0.944092
#
# Coordination Sequence:
#
# PCOD9139018 Si02
#       6
#     4   4   4   4   4   4
#     4  10  24  44  69  99 142 187 240 289 364 425
#     4  10  25  41  72  98 144 189 241 294 365 434
#     4  10  26  45  73 109 145 189 244 307 366 444
#     4  10  26  46  70 109 146 192 239 306 364 445
#     4  10  24  43  73  98 142 187 244 293 367 428
#     4  10  25  43  71 105 141 188 240 301 366 432
#
# _framework density 23.843862999999999
#
# number of rings (size 3 to 8) (size 9 to 14) (size 15 to 20)
#    2.000    0.000    0.000    1.000    9.333    2.667 
#    0.000    0.000    0.000    0.000    0.000    0.000 
#    0.000    0.000    0.000    0.000    0.000    0.000 
#
# Total GULP energy -66814.263424 kJ/mol
# GULP energy per Si atom -5567.855285 kJ/mol
# Density = 2.378959 g / cm^3
# Si number density = 23.843863 Si / 1000 Ang^3
#
#
#
# Elastic Constant Matrix: (Units=GPa)
#
#
# Indices 1 2 3 4 5 6 
#
# 1 149.8066 39.3619 49.5578 0.0000 -23.3307 0.0000
# 2 39.3619 72.4901 23.9228 0.0000 3.0996 0.0000
# 3 49.5578 23.9228 129.3985 0.0000 -9.9881 0.0000
# 4 0.0000 0.0000 0.0000 -13.3662 0.0000 -77.1120
# 5 -23.3307 3.0996 -9.9881 0.0000 19.9610 0.0000
# 6 0.0000 0.0000 0.0000 -77.1120 0.0000 -128.9662
#
#
#
# Elastic Compliance Matrix: (Units=1/GPa)
#
#
# Indices 1 2 3 4 5 6 
#
# 1 0.010820 -0.005707 -0.002126 0.000000 0.012469 0.000000
# 2 -0.005707 0.017982 -0.001944 0.000000 -0.010435 0.000000
# 3 -0.002126 -0.001944 0.009084 0.000000 0.002362 0.000000
# 4 0.000000 0.000000 0.000000 0.030543 0.000000 -0.018262
# 5 0.012469 -0.010435 0.002362 0.000000 0.067473 0.000000
# 6 0.000000 0.000000 0.000000 -0.018262 0.000000 0.003165
#
#
# Mechanical properties :
#
#
# Convention : Reuss Voigt Hill
#
# Bulk Modulus (GPa) = 54.55225 64.15337 59.35281
# Shear Modulus (GPa) = 30.35226 -8.55075 10.90075
#
# Velocity S-wave (km/s) = 3.57173 -1.89577 2.14048
# Velocity P-wave (km/s) = 6.31967 4.70873 5.57272
#
# Compressibility (1/GPa) = 0.01833105
#
# Stress axis : x y z
#
# Youngs Moduli (GPa) = 92.42145 55.61267 110.08080
#
# Poissons Ratio (x) = 0.31736 0.23408
# Poissons Ratio (y) = 0.52741 0.21403
# Poissons Ratio (z) = 0.19653 0.10813
#
# Static dielectric constant tensor:
#      x y z
#    x 1.955970 0.000000 -0.006110 
#    y 0.000000 2.061820 0.000000 
#    z -0.006110 0.000000 1.984400 
# 
# From -- ./inp_files/13055.got.cif
#   From: 2010.05.17/outbox.cif.g08.bks.cpg/sg9_7_cif.got.tgz:13055.got - 2010.06.03 20:04:27.
