data_PCOD9139452
_publ_section_title
;
Structure prediction by ZEFSAII (Michael W. Deem and Ramdas Pophale) SiO2 
 PCOD9139452
Probable space group: C C
;
_chemical_formula_sum "Si O2"
_cell_formula_units_Z 28
_cell_length_a 21.612401
_cell_length_b 5.225771
_cell_length_c 8.777731
_cell_angle_alpha 90.000000
_cell_angle_beta 89.015171
_cell_angle_gamma 90.000000
_cell_volume 991.223297
_symmetry_space_group_name_H-M "C C"
_symmetry_group_IT_number 9
_symmetry_cell_setting 'monoclinic'
loop_
_space_group_symop_operation_xyz
x,y,z
x,-y,1/2+z
1/2+x,1/2+y,z
1/2+x,1/2-y,1/2+z
loop_
_atom_site_type_symbol
_atom_site_label
_atom_site_fract_x
_atom_site_fract_y
_atom_site_fract_z
Si Si1 0.806530 0.248453 0.393340
Si Si2 0.021249 0.299760 0.370369
Si Si3 0.421664 0.494901 0.214886
Si Si4 0.906279 0.624276 0.443601
Si Si5 0.617815 0.857334 0.145377
Si Si6 0.234901 0.316291 0.595944
Si Si7 0.636987 0.475657 0.916567
O O1 0.839456 0.492201 0.471975
O O2 0.774900 0.037482 0.505959
O O3 0.866581 0.124942 0.311733
O O4 0.765496 0.299969 0.245679
O O5 0.055334 0.442415 0.229371
O O6 0.077833 0.199466 0.470666
O O7 0.966667 0.447153 0.456334
O O8 0.987107 0.066397 0.286046
O O9 0.408935 0.203231 0.263284
O O10 0.416895 0.632051 0.052859
O O11 0.675878 0.034082 0.164984
O O12 0.619272 0.756350 0.973260
O O13 0.634132 0.595711 0.239698
O O14 0.202708 0.117434 0.480643
#
# Coordination Sequence:
#
# PCOD9139452 Si02
#       7
#     4   4   4   4   4   4   4
#     4  11  27  50  76 112 165 206 275 336 409 471
#     4   9  25  45  76 113 164 204 262 328 405 480
#     4  11  26  46  79 114 155 212 273 335 405 476
#     4  11  27  53  79 116 157 219 270 345 401 484
#     4  10  25  45  74 116 157 211 262 324 395 483
#     4  12  25  50  80 115 162 211 271 331 399 488
#     4  10  25  45  74 116 158 211 261 323 398 478
#
# _framework density 28.247923
#
# number of rings (size 3 to 8) (size 9 to 14) (size 15 to 20)
#    0.857    0.571    1.429    0.857    6.000   11.429 
#    2.571    1.429    0.000    0.000    0.000    0.000 
#    0.000    0.000    0.000    0.000    0.000    0.000 
#
# Total GULP energy -78338.935811 kJ/mol
# GULP energy per Si atom -5595.638272 kJ/mol
# Density = 2.818363 g / cm^3
# Si number density = 28.247923 Si / 1000 Ang^3
#
#
#
# Elastic Constant Matrix: (Units=GPa)
#
#
# Indices 1 2 3 4 5 6 
#
# 1 180.4607 47.9503 59.6379 0.0000 9.8771 0.0000
# 2 47.9503 84.9795 56.5197 0.0000 8.1999 0.0000
# 3 59.6379 56.5197 144.9774 0.0000 3.6887 0.0000
# 4 0.0000 0.0000 0.0000 56.1356 0.0000 -10.3826
# 5 9.8771 8.1999 3.6887 0.0000 63.8081 0.0000
# 6 0.0000 0.0000 0.0000 -10.3826 0.0000 30.7632
#
#
#
# Elastic Compliance Matrix: (Units=1/GPa)
#
#
# Indices 1 2 3 4 5 6 
#
# 1 0.006863 -0.002626 -0.001783 0.000000 -0.000622 0.000000
# 2 -0.002626 0.017075 -0.005539 0.000000 -0.001468 0.000000
# 3 -0.001783 -0.005539 0.009780 0.000000 0.000423 0.000000
# 4 0.000000 0.000000 0.000000 0.019000 0.000000 0.006413
# 5 -0.000622 -0.001468 0.000423 0.000000 0.015932 0.000000
# 6 0.000000 0.000000 0.000000 0.006413 0.000000 0.034671
#
#
# Mechanical properties :
#
#
# Convention : Reuss Voigt Hill
#
# Bulk Modulus (GPa) = 72.35742 82.07036 77.21389
# Shear Modulus (GPa) = 39.11617 46.56204 42.83911
#
# Velocity S-wave (km/s) = 3.72525 4.06437 3.89850
# Velocity P-wave (km/s) = 6.64636 7.15138 6.90349
#
# Compressibility (1/GPa) = 0.01382028
#
# Stress axis : x y z
#
# Youngs Moduli (GPa) = 145.71847 58.56514 102.25060
#
# Poissons Ratio (x) = 0.15380 0.18235
# Poissons Ratio (y) = 0.38268 0.56637
# Poissons Ratio (z) = 0.25987 0.32440
#
# Static dielectric constant tensor:
#      x y z
#    x 2.136950 0.000000 -0.005860 
#    y 0.000000 2.462540 0.000000 
#    z -0.005860 0.000000 2.182110 
# 
# From -- ./inp_files/11939.got.cif
#   From: 2010.05.17/outbox.cif.g08.bks.cpg/sg9_6_cif.got.tgz:11939.got - 2010.06.03 20:04:27.
