data_PCOD9139013
_publ_section_title
;
Structure prediction by ZEFSAII (Michael W. Deem and Ramdas Pophale) SiO2 
 PCOD9139013
Probable space group: C C
;
_chemical_formula_sum "Si O2"
_cell_formula_units_Z 32
_cell_length_a 15.812008
_cell_length_b 18.688730
_cell_length_c 9.608117
_cell_angle_alpha 90.000000
_cell_angle_beta 29.498121
_cell_angle_gamma 90.000000
_cell_volume 1398.037263
_symmetry_space_group_name_H-M "C C"
_symmetry_group_IT_number 9
_symmetry_cell_setting 'monoclinic'
loop_
_space_group_symop_operation_xyz
x,y,z
x,-y,1/2+z
1/2+x,1/2+y,z
1/2+x,1/2-y,1/2+z
loop_
_atom_site_type_symbol
_atom_site_label
_atom_site_fract_x
_atom_site_fract_y
_atom_site_fract_z
Si Si1 0.808690 0.542550 0.814070
Si Si2 0.493231 0.526113 0.657659
Si Si3 0.051769 0.575430 0.968079
Si Si4 0.489692 0.130648 0.768777
Si Si5 0.992712 0.651177 0.339444
Si Si6 0.287399 0.445548 0.709123
Si Si7 0.651978 0.672459 0.360283
Si Si8 0.303001 0.247974 0.411187
O O1 0.885585 0.562243 0.854545
O O2 0.868500 0.461464 0.708776
O O3 0.903335 0.597236 0.573976
O O4 0.610928 0.536112 0.058112
O O5 0.370796 0.484020 0.724538
O O6 0.586742 0.590630 0.441608
O O7 0.419306 0.569456 0.896883
O O8 0.178753 0.508660 0.789770
O O9 0.065454 0.625120 0.815300
O O10 0.058980 0.611514 0.106117
O O11 0.664701 0.120376 0.428495
O O12 0.322923 0.183450 0.017239
O O13 0.854760 0.706507 0.476239
O O14 0.158794 0.693727 0.152044
O O15 0.478105 0.719095 0.594160
O O16 0.721519 0.694996 0.413223
#
# Coordination Sequence:
#
# PCOD9139013 Si02
#       8
#     4   4   4   4   4   4   4   4
#     4  11  24  37  67 102 143 175 219 294 362 415
#     4  12  24  39  66 105 143 171 227 284 361 426
#     4  11  21  40  65  98 135 183 217 287 356 422
#     4  11  22  42  61  96 138 178 219 281 354 411
#     4  11  23  44  70 101 136 189 240 285 353 421
#     4  11  25  38  62 103 142 179 210 281 365 430
#     4  11  23  43  69  96 127 183 236 282 333 422
#     4  10  24  43  72  95 132 188 248 280 332 417
#
# _framework density 22.889232
#
# number of rings (size 3 to 8) (size 9 to 14) (size 15 to 20)
#    0.000    1.000    3.750    3.000    8.750    0.000 
#    0.000    1.250    0.000    0.000    0.000    0.000 
#    0.000    0.000    0.000    0.000    0.000    0.000 
#
# Total GULP energy -89122.742099 kJ/mol
# GULP energy per Si atom -5570.171381 kJ/mol
# Density = 2.283714 g / cm^3
# Si number density = 22.889232 Si / 1000 Ang^3
#
#
#
# Elastic Constant Matrix: (Units=GPa)
#
#
# Indices 1 2 3 4 5 6 
#
# 1 73.2943 11.9945 10.1617 -0.0016 -15.2961 -0.0017
# 2 11.9945 61.2684 19.1690 0.0010 -4.0360 0.0012
# 3 10.1617 19.1690 91.4453 0.0120 4.5527 0.0011
# 4 -0.0016 0.0010 0.0120 23.8425 0.0013 -10.4392
# 5 -15.2961 -4.0360 4.5527 0.0013 38.1168 -0.0009
# 6 -0.0017 0.0012 0.0011 -10.4392 -0.0009 41.3752
#
#
#
# Elastic Compliance Matrix: (Units=1/GPa)
#
#
# Indices 1 2 3 4 5 6 
#
# 1 0.015503 -0.002132 -0.001584 0.000002 0.006185 0.000001
# 2 -0.002132 0.017963 -0.003602 0.000001 0.001477 0.000000
# 3 -0.001584 -0.003602 0.011988 -0.000007 -0.002449 -0.000002
# 4 0.000002 0.000001 -0.000007 0.047151 0.000000 0.011896
# 5 0.006185 0.001477 -0.002449 0.000000 0.029166 0.000001
# 6 0.000001 0.000000 -0.000002 0.011896 0.000001 0.027171
#
#
# Mechanical properties :
#
#
# Convention : Reuss Voigt Hill
#
# Bulk Modulus (GPa) = 32.44772 34.29538 33.37155
# Shear Modulus (GPa) = 28.76038 32.97910 30.86974
#
# Velocity S-wave (km/s) = 3.54856 3.79992 3.67639
# Velocity P-wave (km/s) = 5.56745 5.85391 5.71248
#
# Compressibility (1/GPa) = 0.03081881
#
# Stress axis : x y z
#
# Youngs Moduli (GPa) = 64.50443 55.66903 83.41339
#
# Poissons Ratio (x) = 0.11869 0.13210
# Poissons Ratio (y) = 0.13753 0.30046
# Poissons Ratio (z) = 0.10215 0.20053
#
# Static dielectric constant tensor:
#      x y z
#    x 1.858150 0.000000 0.007780 
#    y 0.000000 1.881640 0.000000 
#    z 0.007780 0.000000 2.032350 
# 
# From -- ./inp_files/10143.got.cif
#   From: 2010.05.17/outbox.cif.g08.bks.cpg/sg9_6_cif.got.tgz:10143.got - 2010.06.03 20:04:27.
