data_PCOD9139489
_publ_section_title
;
Structure prediction by ZEFSAII (Michael W. Deem and Ramdas Pophale) SiO2 
 PCOD9139489
Probable space group: C C
;
_chemical_formula_sum "Si O2"
_cell_formula_units_Z 20
_cell_length_a 9.538796
_cell_length_b 15.507225
_cell_length_c 5.285354
_cell_angle_alpha 90.000000
_cell_angle_beta 72.521436
_cell_angle_gamma 90.000000
_cell_volume 745.714226
_symmetry_space_group_name_H-M "C C"
_symmetry_group_IT_number 9
_symmetry_cell_setting 'monoclinic'
loop_
_space_group_symop_operation_xyz
x,y,z
x,-y,1/2+z
1/2+x,1/2+y,z
1/2+x,1/2-y,1/2+z
loop_
_atom_site_type_symbol
_atom_site_label
_atom_site_fract_x
_atom_site_fract_y
_atom_site_fract_z
Si Si1 0.531600 0.097148 0.960350
Si Si2 0.961119 0.060478 0.332366
Si Si3 0.619435 0.337437 0.116845
Si Si4 0.803788 0.162057 0.054432
Si Si5 0.907682 0.404235 0.031805
O O1 0.488928 0.140727 0.720518
O O2 0.700455 0.098416 0.947193
O O3 0.443031 0.137231 0.242488
O O4 0.473665 0.999688 0.965139
O O5 0.825157 0.122013 0.322350
O O6 0.084992 0.130039 0.350280
O O7 0.965309 0.999830 0.579641
O O8 0.712923 0.250258 0.091946
O O9 0.464874 0.330817 0.344511
O O10 0.734319 0.406624 0.170471
#
# Coordination Sequence:
#
# PCOD9139489 Si02
#       5
#     4   4   4   4   4
#     4  10  25  46  78 114 158 213 277 342 421 507
#     4  12  30  54  86 126 174 224 298 358 440 518
#     4  12  30  54  87 126 178 229 295 361 443 517
#     4  12  30  54  87 126 178 229 295 361 443 517
#     4  10  25  46  78 114 158 213 277 342 421 507
#
# _framework density 26.819924
#
# number of rings (size 3 to 8) (size 9 to 14) (size 15 to 20)
#    0.000    0.800    2.000    1.200   19.600    1.600 
#    0.000    0.000    0.000    0.000    0.000    0.000 
#    0.000    0.000    0.000    0.000    0.000    0.000 
#
# Total GULP energy -55925.812804 kJ/mol
# GULP energy per Si atom -5592.581280 kJ/mol
# Density = 2.675888 g / cm^3
# Si number density = 26.819924 Si / 1000 Ang^3
#
#
#
# Elastic Constant Matrix: (Units=GPa)
#
#
# Indices 1 2 3 4 5 6 
#
# 1 231.4497 53.4061 61.2791 0.0000 3.1744 0.0000
# 2 53.4061 139.9922 22.1023 0.0000 4.0038 0.0000
# 3 61.2791 22.1023 165.3001 0.0000 27.0119 0.0000
# 4 0.0000 0.0000 0.0000 17.5394 0.0000 4.5765
# 5 3.1744 4.0038 27.0119 0.0000 72.9026 0.0000
# 6 0.0000 0.0000 0.0000 4.5765 0.0000 66.2077
#
#
#
# Elastic Compliance Matrix: (Units=1/GPa)
#
#
# Indices 1 2 3 4 5 6 
#
# 1 0.005178 -0.001710 -0.001777 0.000000 0.000527 0.000000
# 2 -0.001710 0.007862 -0.000382 0.000000 -0.000216 0.000000
# 3 -0.001777 -0.000382 0.007178 0.000000 -0.002561 0.000000
# 4 0.000000 0.000000 0.000000 0.058062 0.000000 -0.004013
# 5 0.000527 -0.000216 -0.002561 0.000000 0.014655 0.000000
# 6 0.000000 0.000000 0.000000 -0.004013 0.000000 0.015381
#
#
# Mechanical properties :
#
#
# Convention : Reuss Voigt Hill
#
# Bulk Modulus (GPa) = 80.12764 90.03522 85.08143
# Shear Modulus (GPa) = 41.59207 57.99357 49.79282
#
# Velocity S-wave (km/s) = 3.94228 4.65513 4.31346
# Velocity P-wave (km/s) = 7.11780 7.90802 7.52330
#
# Compressibility (1/GPa) = 0.01248009
#
# Stress axis : x y z
#
# Youngs Moduli (GPa) = 193.10676 127.19228 139.31355
#
# Poissons Ratio (x) = 0.21750 0.24759
# Poissons Ratio (y) = 0.33022 0.05322
# Poissons Ratio (z) = 0.34319 0.04859
#
# Static dielectric constant tensor:
#      x y z
#    x 2.121410 0.000000 0.010240 
#    y 0.000000 2.531930 0.000000 
#    z 0.010240 0.000000 2.241420 
# 
# From -- ./inp_files/520.got.cif
#   From: 2010.05.17/outbox.cif.g08.bks.cpg/sg9_1_cif.got.tgz:520.got - 2010.06.03 20:04:27.
