data_PCOD9139994
_publ_section_title
;
Structure prediction by ZEFSAII (Michael W. Deem and Ramdas Pophale) SiO2 
 PCOD9139994
Probable space group: C C
;
_chemical_formula_sum "Si O2"
_cell_formula_units_Z 24
_cell_length_a 11.286726
_cell_length_b 10.007154
_cell_length_c 18.306720
_cell_angle_alpha 90.000000
_cell_angle_beta 27.390347
_cell_angle_gamma 90.000000
_cell_volume 951.249256
_symmetry_space_group_name_H-M "C C"
_symmetry_group_IT_number 9
_symmetry_cell_setting 'monoclinic'
loop_
_space_group_symop_operation_xyz
x,y,z
x,-y,1/2+z
1/2+x,1/2+y,z
1/2+x,1/2-y,1/2+z
loop_
_atom_site_type_symbol
_atom_site_label
_atom_site_fract_x
_atom_site_fract_y
_atom_site_fract_z
Si Si1 0.665350 0.302786 0.937590
Si Si2 0.092285 0.743600 0.731787
Si Si3 0.275242 0.024264 0.985744
Si Si4 0.718787 0.004109 0.862653
Si Si5 0.057964 0.021922 0.357570
Si Si6 0.553811 0.118729 0.600244
O O1 0.808255 0.391409 0.918471
O O2 0.748234 0.149640 0.884970
O O3 0.669167 0.377356 0.857748
O O4 0.358889 0.309333 0.119701
O O5 0.093434 0.893026 0.763986
O O6 0.102430 0.725130 0.638954
O O7 0.864136 0.649561 0.886670
O O8 0.479770 0.018786 0.938778
O O9 0.980221 0.021827 0.174790
O O10 0.632201 0.895190 0.971455
O O11 0.749500 0.005315 0.528511
O O12 0.247708 0.899540 0.262731
#
# Coordination Sequence:
#
# PCOD9139994 Si02
#       6
#     4   4   4   4   4   4
#     4  11  22  44  78 104 143 203 242 302 382 447
#     4  11  23  45  78 106 147 203 247 303 386 446
#     4  12  24  45  76 112 148 199 252 315 368 452
#     4  12  26  45  75 109 157 193 252 313 379 444
#     4  11  22  44  75 105 143 192 252 301 373 444
#     4  11  25  43  76 106 146 200 249 306 376 453
#
# _framework density 25.229980000000001
#
# number of rings (size 3 to 8) (size 9 to 14) (size 15 to 20)
#    0.000    0.667    6.667    1.000    0.000    0.000 
#    0.000    6.667    0.000    0.000    0.000    0.000 
#    0.000    0.000    0.000    0.000    0.000    0.000 
#
# Total GULP energy -66944.760964 kJ/mol
# GULP energy per Si atom -5578.730080 kJ/mol
# Density = 2.517256 g / cm^3
# Si number density = 25.229980 Si / 1000 Ang^3
#
#
#
# Elastic Constant Matrix: (Units=GPa)
#
#
# Indices 1 2 3 4 5 6 
#
# 1 49.2819 17.7053 -7.4914 0.0024 0.0377 0.0044
# 2 17.7053 70.5068 10.4052 -0.0039 5.2460 0.0024
# 3 -7.4914 10.4052 122.7778 -0.0146 -2.7419 0.0073
# 4 0.0024 -0.0039 -0.0146 35.2783 -0.0015 5.8662
# 5 0.0377 5.2460 -2.7419 -0.0015 44.7506 -0.0012
# 6 0.0044 0.0024 0.0073 5.8662 -0.0012 55.4805
#
#
#
# Elastic Compliance Matrix: (Units=1/GPa)
#
#
# Indices 1 2 3 4 5 6 
#
# 1 0.022759 -0.006059 0.001920 -0.000001 0.000809 -0.000002
# 2 -0.006059 0.016115 -0.001780 0.000001 -0.001993 0.000000
# 3 0.001920 -0.001780 0.008429 0.000003 0.000723 -0.000002
# 4 -0.000001 0.000001 0.000003 0.028853 0.000001 -0.003051
# 5 0.000809 -0.001993 0.000723 0.000001 0.022623 0.000000
# 6 -0.000002 0.000000 -0.000002 -0.003051 0.000000 0.018347
#
#
# Mechanical properties :
#
#
# Convention : Reuss Voigt Hill
#
# Bulk Modulus (GPa) = 28.19538 31.53387 29.86462
# Shear Modulus (GPa) = 35.51469 41.89835 38.70652
#
# Velocity S-wave (km/s) = 3.75592 4.07954 3.92107
# Velocity P-wave (km/s) = 5.47803 5.89202 5.68879
#
# Compressibility (1/GPa) = 0.03546680
#
# Stress axis : x y z
#
# Youngs Moduli (GPa) = 43.93781 62.05224 118.63853
#
# Poissons Ratio (x) = 0.37596 -0.22781
# Poissons Ratio (y) = 0.26621 0.21117
# Poissons Ratio (z) = -0.08437 0.11045
#
# Static dielectric constant tensor:
#      x y z
#    x 1.976090 0.000000 0.020300 
#    y 0.000000 2.085980 0.000010 
#    z 0.020300 0.000010 2.145390 
# 
# From -- ./inp_files/33294.got.cif
#   From: 2010.05.17/outbox.cif.g08.bks.cpg/sg9_17_cif.got.tgz:33294.got - 2010.06.03 20:04:27.
