data_PCOD9139042
_publ_section_title
;
Structure prediction by ZEFSAII (Michael W. Deem and Ramdas Pophale) SiO2 
 PCOD9139042
Probable space group: C C
;
_chemical_formula_sum "Si O2"
_cell_formula_units_Z 28
_cell_length_a 20.628315
_cell_length_b 7.801723
_cell_length_c 19.500306
_cell_angle_alpha 90.000000
_cell_angle_beta 160.046229
_cell_angle_gamma 90.000000
_cell_volume 1070.985126
_symmetry_space_group_name_H-M "C C"
_symmetry_group_IT_number 9
_symmetry_cell_setting 'monoclinic'
loop_
_space_group_symop_operation_xyz
x,y,z
x,-y,1/2+z
1/2+x,1/2+y,z
1/2+x,1/2-y,1/2+z
loop_
_atom_site_type_symbol
_atom_site_label
_atom_site_fract_x
_atom_site_fract_y
_atom_site_fract_z
Si Si1 0.590690 0.471974 0.193070
Si Si2 0.177901 0.361804 0.269420
Si Si3 0.097277 0.962919 0.480699
Si Si4 0.691973 0.708770 0.936111
Si Si5 0.870047 0.514789 0.863832
Si Si6 0.415205 0.759632 0.285747
Si Si7 0.549292 0.961639 0.288975
O O1 0.698089 0.656643 0.295565
O O2 0.604495 0.365199 0.277373
O O3 0.723741 0.381316 0.268111
O O4 0.374391 0.530101 0.962359
O O5 0.074667 0.394263 0.238923
O O6 0.036805 0.417841 0.069010
O O7 0.221982 0.901649 0.669120
O O8 0.203135 0.146635 0.570617
O O9 0.895825 0.057184 0.284717
O O10 0.106780 0.843632 0.425203
O O11 0.727408 0.912578 0.975534
O O12 0.888779 0.606027 0.131555
O O13 0.972051 0.637946 0.910901
O O14 0.491615 0.823348 0.287164
#
# Coordination Sequence:
#
# PCOD9139042 Si02
#       7
#     4   4   4   4   4   4   4
#     4  12  24  45  72 100 136 182 228 280 340 409
#     4  12  24  45  72 100 136 182 228 280 340 409
#     4   9  22  43  67  95 132 180 227 277 334 405
#     4  11  23  43  66 103 137 174 230 287 340 397
#     4  10  24  44  66 106 138 172 230 280 334 416
#     4   9  22  43  67  95 132 180 227 277 334 405
#     4  11  23  43  66 103 137 174 230 287 340 397
#
# _framework density 26.144154
#
# number of rings (size 3 to 8) (size 9 to 14) (size 15 to 20)
#    0.857    0.571    2.857    1.714    0.000    8.000 
#    5.143    0.000    0.000    0.000    0.000    0.000 
#    0.000    0.000    0.000    0.000    0.000    0.000 
#
# Total GULP energy -78010.922035 kJ/mol
# GULP energy per Si atom -5572.208717 kJ/mol
# Density = 2.608465 g / cm^3
# Si number density = 26.144154 Si / 1000 Ang^3
#
#
#
# Elastic Constant Matrix: (Units=GPa)
#
#
# Indices 1 2 3 4 5 6 
#
# 1 140.1072 25.8503 52.5013 0.0000 -16.8741 0.0000
# 2 25.8503 42.4557 15.1414 0.0000 -23.0604 0.0000
# 3 52.5013 15.1414 112.5960 0.0001 -23.1538 0.0001
# 4 0.0000 0.0000 0.0001 31.3006 0.0000 -10.6306
# 5 -16.8741 -23.0604 -23.1538 0.0000 39.3446 0.0000
# 6 0.0000 0.0000 0.0001 -10.6306 0.0000 57.2441
#
#
#
# Elastic Compliance Matrix: (Units=1/GPa)
#
#
# Indices 1 2 3 4 5 6 
#
# 1 0.009392 -0.004964 -0.003961 0.000000 -0.001213 0.000000
# 2 -0.004964 0.037209 0.001545 0.000000 0.020589 0.000000
# 3 -0.003961 0.001545 0.011783 0.000000 0.006141 0.000000
# 4 0.000000 0.000000 0.000000 0.034099 0.000000 0.006332
# 5 -0.001213 0.020589 0.006141 0.000000 0.040577 0.000000
# 6 0.000000 0.000000 0.000000 0.006332 0.000000 0.018645
#
#
# Mechanical properties :
#
#
# Convention : Reuss Voigt Hill
#
# Bulk Modulus (GPa) = 22.92388 53.57165 38.24777
# Shear Modulus (GPa) = 27.62330 39.02224 33.32277
#
# Velocity S-wave (km/s) = 3.25403 3.86758 3.57400
# Velocity P-wave (km/s) = 4.78598 6.36236 5.62962
#
# Compressibility (1/GPa) = 0.04362263
#
# Stress axis : x y z
#
# Youngs Moduli (GPa) = 106.47917 26.87543 84.86615
#
# Poissons Ratio (x) = 0.13342 0.33615
# Poissons Ratio (y) = 0.52861 -0.13111
# Poissons Ratio (z) = 0.42175 -0.04152
#
# Static dielectric constant tensor:
#      x y z
#    x 2.125350 0.000000 0.128550 
#    y 0.000000 1.805570 0.000000 
#    z 0.128550 0.000000 2.358990 
# 
# From -- ./inp_files/34503.got.cif
#   From: 2010.05.17/outbox.cif.g08.bks.cpg/sg9_18_cif.got.tgz:34503.got - 2010.06.03 20:04:27.
