data_PCOD9139310
_publ_section_title
;
Structure prediction by ZEFSAII (Michael W. Deem and Ramdas Pophale) SiO2 
 PCOD9139310
Probable space group: C C
;
_chemical_formula_sum "Si O2"
_cell_formula_units_Z 32
_cell_length_a 12.629424
_cell_length_b 13.444876
_cell_length_c 8.413595
_cell_angle_alpha 90.000000
_cell_angle_beta 119.051073
_cell_angle_gamma 90.000000
_cell_volume 1248.896341
_symmetry_space_group_name_H-M "C C"
_symmetry_group_IT_number 9
_symmetry_cell_setting 'monoclinic'
loop_
_space_group_symop_operation_xyz
x,y,z
x,-y,1/2+z
1/2+x,1/2+y,z
1/2+x,1/2-y,1/2+z
loop_
_atom_site_type_symbol
_atom_site_label
_atom_site_fract_x
_atom_site_fract_y
_atom_site_fract_z
Si Si1 0.125000 0.104686 0.789790
Si Si2 0.903534 0.968326 0.285448
Si Si3 0.419566 0.648669 0.129103
Si Si4 0.475863 0.065932 0.835831
Si Si5 0.309529 0.925356 0.924371
Si Si6 0.174339 0.413866 0.945432
Si Si7 0.156020 0.779634 0.637496
Si Si8 0.179222 0.295296 0.629687
O O1 0.156941 0.183424 0.677085
O O2 0.982152 0.096098 0.718308
O O3 0.191093 0.997796 0.826871
O O4 0.162497 0.149405 0.987819
O O5 0.900941 0.918097 0.454621
O O6 0.958183 0.077675 0.305296
O O7 0.773508 0.975957 0.111901
O O8 0.537785 0.709705 0.161890
O O9 0.292585 0.694195 0.094105
O O10 0.370801 0.095391 0.637666
O O11 0.408389 0.994033 0.910220
O O12 0.570712 0.990632 0.824487
O O13 0.555913 0.154371 0.970461
O O14 0.272874 0.821756 0.815050
O O15 0.211787 0.357121 0.813569
O O16 0.146654 0.328802 0.054851
#
# Coordination Sequence:
#
# PCOD9139310 Si02
#       8
#     4   4   4   4   4   4   4   4
#     4  10  24  48  77 110 154 204 260 322 392 467
#     4  11  23  43  79 103 150 204 262 322 388 465
#     4  11  23  44  76 110 147 201 268 319 388 466
#     4  12  26  45  79 111 158 204 259 322 396 467
#     4  12  24  48  78 112 155 207 259 320 395 469
#     4  11  25  48  78 107 156 208 261 322 395 466
#     4  10  24  48  78 111 152 205 259 322 392 468
#     4  11  25  48  77 114 152 205 264 323 392 470
#
# _framework density 25.622622
#
# number of rings (size 3 to 8) (size 9 to 14) (size 15 to 20)
#    0.000    1.000    5.000    0.750    1.750    5.000 
#    6.750    0.000    0.000    0.000    0.000    0.000 
#    0.000    0.000    0.000    0.000    0.000    0.000 
#
# Total GULP energy -89524.107940 kJ/mol
# GULP energy per Si atom -5595.256746 kJ/mol
# Density = 2.556430 g / cm^3
# Si number density = 25.622622 Si / 1000 Ang^3
#
#
#
# Elastic Constant Matrix: (Units=GPa)
#
#
# Indices 1 2 3 4 5 6 
#
# 1 151.1660 42.3380 49.0776 0.0000 -23.2497 0.0000
# 2 42.3380 96.9522 59.3907 0.0000 -16.9167 0.0000
# 3 49.0776 59.3907 142.1639 0.0000 -4.3171 0.0000
# 4 0.0000 0.0000 0.0000 32.1511 0.0000 -18.6215
# 5 -23.2497 -16.9167 -4.3171 0.0000 29.8459 0.0000
# 6 0.0000 0.0000 0.0000 -18.6215 0.0000 43.3413
#
#
#
# Elastic Compliance Matrix: (Units=1/GPa)
#
#
# Indices 1 2 3 4 5 6 
#
# 1 0.008584 -0.001434 -0.002196 0.000000 0.005557 0.000000
# 2 -0.001434 0.015754 -0.005875 0.000000 0.006963 0.000000
# 3 -0.002196 -0.005875 0.010138 0.000000 -0.003574 0.000000
# 4 0.000000 0.000000 0.000000 0.041407 0.000000 0.017790
# 5 0.005557 0.006963 -0.003574 0.000000 0.041263 0.000000
# 6 0.000000 0.000000 0.000000 0.017790 0.000000 0.030716
#
#
# Mechanical properties :
#
#
# Convention : Reuss Voigt Hill
#
# Bulk Modulus (GPa) = 64.65341 76.87718 70.76529
# Shear Modulus (GPa) = 29.06486 37.03273 33.04880
#
# Velocity S-wave (km/s) = 3.37166 3.80585 3.59531
# Velocity P-wave (km/s) = 6.35965 7.02719 6.70174
#
# Compressibility (1/GPa) = 0.01546709
#
# Stress axis : x y z
#
# Youngs Moduli (GPa) = 116.49077 63.47398 98.63920
#
# Poissons Ratio (x) = 0.09103 0.21657
# Poissons Ratio (y) = 0.16707 0.57951
# Poissons Ratio (z) = 0.25577 0.37292
#
# Static dielectric constant tensor:
#      x y z
#    x 2.023270 0.000000 0.018810 
#    y 0.000000 2.096130 0.000000 
#    z 0.018810 0.000000 1.999900 
# 
# From -- ./inp_files/7657.got.cif
#   From: 2010.05.17/outbox.cif.g08.bks.cpg/sg9_4_cif.got.tgz:7657.got - 2010.06.03 20:04:27.
