data_PCOD9139197
_publ_section_title
;
Structure prediction by ZEFSAII (Michael W. Deem and Ramdas Pophale) SiO2 
 PCOD9139197
Probable space group: C C
;
_chemical_formula_sum "Si O2"
_cell_formula_units_Z 32
_cell_length_a 18.111125
_cell_length_b 5.251097
_cell_length_c 15.649990
_cell_angle_alpha 90.000000
_cell_angle_beta 64.069657
_cell_angle_gamma 90.000000
_cell_volume 1338.526092
_symmetry_space_group_name_H-M "C C"
_symmetry_group_IT_number 9
_symmetry_cell_setting 'monoclinic'
loop_
_space_group_symop_operation_xyz
x,y,z
x,-y,1/2+z
1/2+x,1/2+y,z
1/2+x,1/2-y,1/2+z
loop_
_atom_site_type_symbol
_atom_site_label
_atom_site_fract_x
_atom_site_fract_y
_atom_site_fract_z
Si Si1 0.181460 0.006582 0.341160
Si Si2 0.233946 0.520639 0.046011
Si Si3 0.591190 0.232079 0.523666
Si Si4 0.913654 0.933260 0.006864
Si Si5 0.461085 0.498981 0.172239
Si Si6 0.507605 0.958442 0.908963
Si Si7 0.281040 0.513776 0.830135
Si Si8 0.602494 0.289260 0.220207
O O1 0.120726 0.980422 0.454384
O O2 0.237387 0.752250 0.326979
O O3 0.127895 0.980864 0.282972
O O4 0.238226 0.251763 0.304193
O O5 0.163049 0.323984 0.053671
O O6 0.315441 0.434639 0.052596
O O7 0.184427 0.720840 0.127465
O O8 0.267019 0.594206 0.935661
O O9 0.506838 0.245306 0.618337
O O10 0.571771 0.038219 0.456082
O O11 0.939154 0.880294 0.091607
O O12 0.950283 0.702038 0.934567
O O13 0.952862 0.202074 0.954664
O O14 0.376977 0.518027 0.264941
O O15 0.532273 0.369550 0.190450
O O16 0.561106 0.933676 0.797001
#
# Coordination Sequence:
#
# PCOD9139197 Si02
#       8
#     4   4   4   4   4   4   4   4
#     4  10  24  46  69  96 135 179 224 277 335 396
#     4  11  24  42  69 102 137 178 225 276 333 399
#     4   9  22  43  69  96 134 178 226 278 332 395
#     4  11  25  46  69  99 137 177 221 277 337 398
#     4  11  24  42  68 101 136 177 224 277 335 399
#     4  10  24  46  69  97 135 178 223 276 335 398
#     4  11  25  46  68  99 138 178 222 277 335 397
#     4  11  24  41  69 102 134 177 227 276 334 400
#
# _framework density 23.906894000000001
#
# number of rings (size 3 to 8) (size 9 to 14) (size 15 to 20)
#    0.000    1.500    0.000    3.000    0.000   21.000 
#    0.000    0.000    0.000    0.000    0.000    0.000 
#    0.000    0.000    0.000    0.000    0.000    0.000 
#
# Total GULP energy -89461.659105 kJ/mol
# GULP energy per Si atom -5591.353694 kJ/mol
# Density = 2.385248 g / cm^3
# Si number density = 23.906894 Si / 1000 Ang^3
#
#
#
# Elastic Constant Matrix: (Units=GPa)
#
#
# Indices 1 2 3 4 5 6 
#
# 1 164.5903 23.1369 36.4943 0.0046 -7.0000 0.0072
# 2 23.1369 87.3240 7.5565 0.0070 -6.8218 0.0079
# 3 36.4943 7.5565 104.3723 0.0024 -13.0063 0.0037
# 4 0.0046 0.0070 0.0024 12.7364 -0.0008 -10.1271
# 5 -7.0000 -6.8218 -13.0063 -0.0008 58.3090 0.0006
# 6 0.0072 0.0079 0.0037 -10.1271 0.0006 31.3950
#
#
#
# Elastic Compliance Matrix: (Units=1/GPa)
#
#
# Indices 1 2 3 4 5 6 
#
# 1 0.006804 -0.001598 -0.002247 -0.000002 0.000129 -0.000002
# 2 -0.001598 0.011981 -0.000162 -0.000011 0.001174 -0.000006
# 3 -0.002247 -0.000162 0.010638 -0.000002 0.002084 -0.000001
# 4 -0.000002 -0.000011 -0.000002 0.105601 -0.000001 0.034064
# 5 0.000129 0.001174 0.002084 -0.000001 0.017768 -0.000001
# 6 -0.000002 -0.000006 -0.000001 0.034064 -0.000001 0.042840
#
#
# Mechanical properties :
#
#
# Convention : Reuss Voigt Hill
#
# Bulk Modulus (GPa) = 46.71283 54.51802 50.61542
# Shear Modulus (GPa) = 23.72099 39.76131 31.74115
#
# Velocity S-wave (km/s) = 3.15338 4.08263 3.64771
# Velocity P-wave (km/s) = 5.73064 6.71399 6.24171
#
# Compressibility (1/GPa) = 0.02140740
#
# Stress axis : x y z
#
# Youngs Moduli (GPa) = 146.96932 83.46683 93.99945
#
# Poissons Ratio (x) = 0.13340 0.21125
# Poissons Ratio (y) = 0.23490 0.01526
# Poissons Ratio (z) = 0.33029 0.01355
#
# Static dielectric constant tensor:
#      x y z
#    x 1.906920 0.000000 0.004260 
#    y 0.000000 1.996670 0.000000 
#    z 0.004260 0.000000 1.969700 
# 
# From -- ./inp_files/26331.got.cif
#   From: 2010.05.17/outbox.cif.g08.bks.cpg/sg9_14_cif.got.tgz:26331.got - 2010.06.03 20:04:27.
