data_PCOD9139578
_publ_section_title
;
Structure prediction by ZEFSAII (Michael W. Deem and Ramdas Pophale) SiO2 
 PCOD9139578
Probable space group: C C
;
_chemical_formula_sum "Si O2"
_cell_formula_units_Z 24
_cell_length_a 19.630679
_cell_length_b 5.359300
_cell_length_c 21.404455
_cell_angle_alpha 90.000000
_cell_angle_beta 25.412586
_cell_angle_gamma 90.000000
_cell_volume 966.362436
_symmetry_space_group_name_H-M "C C"
_symmetry_group_IT_number 9
_symmetry_cell_setting 'monoclinic'
loop_
_space_group_symop_operation_xyz
x,y,z
x,-y,1/2+z
1/2+x,1/2+y,z
1/2+x,1/2-y,1/2+z
loop_
_atom_site_type_symbol
_atom_site_label
_atom_site_fract_x
_atom_site_fract_y
_atom_site_fract_z
Si Si1 0.000000 0.603081 0.889790
Si Si2 0.286959 0.741926 0.819635
Si Si3 0.699368 0.203985 0.613524
Si Si4 0.969865 0.574313 0.578784
Si Si5 0.082945 0.061109 0.085292
Si Si6 0.454465 0.387069 0.467967
O O1 0.044253 0.682891 0.783655
O O2 0.810176 0.580047 0.051207
O O3 0.063369 0.328712 0.848353
O O4 0.034294 0.838087 0.906179
O O5 0.146413 0.541950 0.923786
O O6 0.448431 0.635766 0.717902
O O7 0.351085 0.859824 0.701339
O O8 0.206976 0.931665 0.935408
O O9 0.662631 0.282365 0.574387
O O10 0.810804 0.967695 0.539871
O O11 0.923643 0.754724 0.559840
O O12 0.981859 0.749226 0.628379
#
# Coordination Sequence:
#
# PCOD9139578 Si02
#       6
#     4   4   4   4   4   4
#     4  10  26  47  75 109 148 207 256 323 397 488
#     4  10  26  43  79 116 161 213 262 348 406 493
#     4  10  27  47  78 108 158 204 263 330 401 479
#     4  11  25  48  76 117 157 208 276 339 406 484
#     4  11  25  50  72 122 154 211 269 338 406 487
#     4  10  27  47  76 112 154 203 262 324 406 477
#
# _framework density 24.835402999999999
#
# number of rings (size 3 to 8) (size 9 to 14) (size 15 to 20)
#    1.000    0.667    0.000    1.000   11.667    8.000 
#    0.000    0.000    0.000    0.000    0.000    0.000 
#    0.000    0.000    0.000    0.000    0.000    0.000 
#
# Total GULP energy -66887.292541 kJ/mol
# GULP energy per Si atom -5573.941045 kJ/mol
# Density = 2.477888 g / cm^3
# Si number density = 24.835403 Si / 1000 Ang^3
#
#
#
# Elastic Constant Matrix: (Units=GPa)
#
#
# Indices 1 2 3 4 5 6 
#
# 1 137.8950 52.8959 45.8514 -0.0071 9.6809 0.0023
# 2 52.8959 131.0860 50.7751 -0.0075 1.8441 -0.0012
# 3 45.8514 50.7751 116.2358 0.0053 -14.3815 -0.0085
# 4 -0.0071 -0.0075 0.0053 4.2884 0.0108 8.1966
# 5 9.6809 1.8441 -14.3815 0.0108 21.1230 -0.0061
# 6 0.0023 -0.0012 -0.0085 8.1966 -0.0061 36.8189
#
#
#
# Elastic Compliance Matrix: (Units=1/GPa)
#
#
# Indices 1 2 3 4 5 6 
#
# 1 0.009900 -0.002479 -0.003666 0.000068 -0.006817 -0.000018
# 2 -0.002479 0.010100 -0.003716 0.000044 -0.002275 -0.000010
# 3 -0.003666 -0.003716 0.013017 -0.000114 0.010867 0.000030
# 4 0.000068 0.000044 -0.000114 0.405898 -0.000346 -0.090361
# 5 -0.006817 -0.002275 0.010867 -0.000346 0.058064 0.000090
# 6 -0.000018 -0.000010 0.000030 -0.090361 0.000090 0.047276
#
#
# Mechanical properties :
#
#
# Convention : Reuss Voigt Hill
#
# Bulk Modulus (GPa) = 75.20949 76.02908 75.61928
# Shear Modulus (GPa) = 8.79649 28.15902 18.47775
#
# Velocity S-wave (km/s) = 1.88404 3.37089 2.73061
# Velocity P-wave (km/s) = 5.92298 6.76980 6.36050
#
# Compressibility (1/GPa) = 0.01329619
#
# Stress axis : x y z
#
# Youngs Moduli (GPa) = 101.00577 99.00783 76.82302
#
# Poissons Ratio (x) = 0.24546 0.28162
# Poissons Ratio (y) = 0.25041 0.28545
# Poissons Ratio (z) = 0.37028 0.36788
#
# Static dielectric constant tensor:
#      x y z
#    x 1.968450 -0.000010 -0.000470 
#    y -0.000010 2.031670 0.000010 
#    z -0.000470 0.000010 1.946950 
# 
# From -- ./inp_files/34220.got.cif
#   From: 2010.05.17/outbox.cif.g08.bks.cpg/sg9_18_cif.got.tgz:34220.got - 2010.06.03 20:04:27.
