data_PCOD9139426
_publ_section_title
;
Structure prediction by ZEFSAII (Michael W. Deem and Ramdas Pophale) SiO2 
 PCOD9139426
Probable space group: C C
;
_chemical_formula_sum "Si O2"
_cell_formula_units_Z 32
_cell_length_a 8.510106
_cell_length_b 16.353060
_cell_length_c 14.242739
_cell_angle_alpha 90.000000
_cell_angle_beta 138.505115
_cell_angle_gamma 90.000000
_cell_volume 1313.252574
_symmetry_space_group_name_H-M "C C"
_symmetry_group_IT_number 9
_symmetry_cell_setting 'monoclinic'
loop_
_space_group_symop_operation_xyz
x,y,z
x,-y,1/2+z
1/2+x,1/2+y,z
1/2+x,1/2-y,1/2+z
loop_
_atom_site_type_symbol
_atom_site_label
_atom_site_fract_x
_atom_site_fract_y
_atom_site_fract_z
Si Si1 0.291140 0.771283 0.032890
Si Si2 0.478937 0.169566 0.264304
Si Si3 0.052044 0.672281 0.078818
Si Si4 0.978243 0.103580 0.032651
Si Si5 0.949970 0.926135 0.014739
Si Si6 0.641190 0.424990 0.288545
Si Si7 0.035074 0.090178 0.335114
Si Si8 0.301230 0.339104 0.257799
O O1 0.134490 0.750222 0.053967
O O2 0.524382 0.825834 0.151691
O O3 0.371093 0.681966 0.035555
O O4 0.151047 0.819508 0.888731
O O5 0.497451 0.193682 0.162446
O O6 0.723440 0.131949 0.408564
O O7 0.410177 0.249628 0.290896
O O8 0.260763 0.106526 0.173852
O O9 0.266520 0.606805 0.183301
O O10 0.833308 0.629239 0.929129
O O11 0.922705 0.118143 0.899454
O O12 0.869687 0.017083 0.010143
O O13 0.042787 0.932287 0.949358
O O14 0.148696 0.908284 0.181293
O O15 0.654812 0.519216 0.328136
O O16 0.380516 0.393139 0.204750
#
# Coordination Sequence:
#
# PCOD9139426 Si02
#       8
#     4   4   4   4   4   4   4   4
#     4  11  27  44  76 105 150 183 247 305 373 423
#     4  10  25  44  78 104 148 189 248 295 360 451
#     4  11  25  48  74 112 148 188 248 308 355 442
#     4  11  23  49  67 110 143 193 236 306 359 438
#     4  11  26  44  75 106 142 192 246 291 366 432
#     4  12  27  45  77 107 151 197 244 302 373 435
#     4  11  26  48  71 112 145 190 243 306 360 434
#     4  11  25  46  74 104 147 192 246 297 380 423
#
# _framework density 24.366980000000002
#
# number of rings (size 3 to 8) (size 9 to 14) (size 15 to 20)
#    0.000    1.000    2.500    1.500   10.500    5.000 
#    0.000    0.000    0.000    0.000    0.000    0.000 
#    0.000    0.000    0.000    0.000    0.000    0.000 
#
# Total GULP energy -89619.758710 kJ/mol
# GULP energy per Si atom -5601.234919 kJ/mol
# Density = 2.431152 g / cm^3
# Si number density = 24.366980 Si / 1000 Ang^3
#
#
#
# Elastic Constant Matrix: (Units=GPa)
#
#
# Indices 1 2 3 4 5 6 
#
# 1 83.3695 32.4674 40.5766 0.0001 -3.9227 -0.0001
# 2 32.4674 75.2558 26.5187 0.0000 8.2423 0.0000
# 3 40.5766 26.5187 129.3880 0.0005 -6.6155 -0.0001
# 4 0.0001 0.0000 0.0005 26.0673 0.0002 -8.3803
# 5 -3.9227 8.2423 -6.6155 0.0002 41.3776 -0.0001
# 6 -0.0001 0.0000 -0.0001 -8.3803 -0.0001 32.2290
#
#
#
# Elastic Compliance Matrix: (Units=1/GPa)
#
#
# Indices 1 2 3 4 5 6 
#
# 1 0.016229 -0.005904 -0.003771 0.000000 0.002112 0.000000
# 2 -0.005904 0.016946 -0.001838 0.000000 -0.004229 0.000000
# 3 -0.003771 -0.001838 0.009365 0.000000 0.001506 0.000000
# 4 0.000000 0.000000 0.000000 0.041862 0.000000 0.010885
# 5 0.002112 -0.004229 0.001506 0.000000 0.025451 0.000000
# 6 0.000000 0.000000 0.000000 0.010885 0.000000 0.033858
#
#
# Mechanical properties :
#
#
# Convention : Reuss Voigt Hill
#
# Bulk Modulus (GPa) = 51.24656 54.12650 52.68653
# Shear Modulus (GPa) = 28.86139 32.49818 30.67978
#
# Velocity S-wave (km/s) = 3.44531 3.65594 3.55219
# Velocity P-wave (km/s) = 6.07484 6.33107 6.20428
#
# Compressibility (1/GPa) = 0.01951351
#
# Stress axis : x y z
#
# Youngs Moduli (GPa) = 61.61824 59.01125 106.77923
#
# Poissons Ratio (x) = 0.34840 0.40271
# Poissons Ratio (y) = 0.36379 0.19625
# Poissons Ratio (z) = 0.23239 0.10846
#
# Static dielectric constant tensor:
#      x y z
#    x 2.003000 0.000000 -0.008830 
#    y 0.000000 1.962270 0.000000 
#    z -0.008830 0.000000 1.909600 
# 
# From -- ./inp_files/23688.got.cif
#   From: 2010.05.17/outbox.cif.g08.bks.cpg/sg9_12_cif.got.tgz:23688.got - 2010.06.03 20:04:27.
