data_PCOD9139955
_publ_section_title
;
Structure prediction by ZEFSAII (Michael W. Deem and Ramdas Pophale) SiO2 
 PCOD9139955
Probable space group: C C
;
_chemical_formula_sum "Si O2"
_cell_formula_units_Z 32
_cell_length_a 26.618663
_cell_length_b 9.044139
_cell_length_c 9.034860
_cell_angle_alpha 90.000000
_cell_angle_beta 138.554425
_cell_angle_gamma 90.000000
_cell_volume 1439.702417
_symmetry_space_group_name_H-M "C C"
_symmetry_group_IT_number 9
_symmetry_cell_setting 'monoclinic'
loop_
_space_group_symop_operation_xyz
x,y,z
x,-y,1/2+z
1/2+x,1/2+y,z
1/2+x,1/2-y,1/2+z
loop_
_atom_site_type_symbol
_atom_site_label
_atom_site_fract_x
_atom_site_fract_y
_atom_site_fract_z
Si Si1 0.017920 0.183695 0.842290
Si Si2 0.763889 0.668065 0.031412
Si Si3 0.204947 0.434456 0.053343
Si Si4 0.186538 0.705556 0.820440
Si Si5 0.533230 0.647298 0.316349
Si Si6 0.535508 0.151655 0.098364
Si Si7 0.699334 0.572115 0.570498
Si Si8 0.437252 0.146773 0.394781
O O1 0.012216 0.217970 0.656646
O O2 0.951178 0.279687 0.766462
O O3 0.011939 0.007603 0.847598
O O4 0.098623 0.250417 0.084203
O O5 0.755247 0.841312 0.049102
O O6 0.737989 0.625432 0.807971
O O7 0.713908 0.596489 0.055090
O O8 0.850528 0.621389 0.241855
O O9 0.202230 0.604421 0.999768
O O10 0.117859 0.395773 0.831379
O O11 0.219882 0.382132 0.253930
O O12 0.223125 0.854203 0.965635
O O13 0.545557 0.777857 0.460606
O O14 0.610928 0.606510 0.403300
O O15 0.472955 0.724194 0.075928
O O16 0.482260 0.008309 0.994334
#
# Coordination Sequence:
#
# PCOD9139955 Si02
#       8
#     4   4   4   4   4   4   4   4
#     4  11  23  43  70 108 140 185 251 306 365 438
#     4  12  28  45  71 106 153 189 247 309 382 439
#     4  11  22  43  68 108 140 188 243 305 361 439
#     4  11  23  42  76 105 139 189 254 304 357 442
#     4  12  24  45  76 102 142 200 252 307 365 452
#     4  11  23  41  73 103 141 191 246 302 361 446
#     4  12  24  47  71 105 142 200 248 302 370 454
#     4  12  27  46  71 109 147 188 249 309 381 444
#
# _framework density 22.226814999999998
#
# number of rings (size 3 to 8) (size 9 to 14) (size 15 to 20)
#    0.000    0.500    3.750    5.250    5.250    0.000 
#    4.500    0.000    0.000    0.000    0.000    0.000 
#    0.000    0.000    0.000    0.000    0.000    0.000 
#
# Total GULP energy -89291.127459 kJ/mol
# GULP energy per Si atom -5580.695466 kJ/mol
# Density = 2.217623 g / cm^3
# Si number density = 22.226815 Si / 1000 Ang^3
#
#
#
# Elastic Constant Matrix: (Units=GPa)
#
#
# Indices 1 2 3 4 5 6 
#
# 1 73.4360 5.8465 29.1831 0.0000 3.9329 0.0000
# 2 5.8465 118.1416 31.2249 0.0000 -5.2981 0.0000
# 3 29.1831 31.2249 77.7750 0.0000 -10.8316 0.0000
# 4 0.0000 0.0000 0.0000 -133.2353 0.0000 202.1240
# 5 3.9329 -5.2981 -10.8316 0.0000 37.9963 0.0000
# 6 0.0000 0.0000 0.0000 202.1240 0.0000 -232.2208
#
#
#
# Elastic Compliance Matrix: (Units=1/GPa)
#
#
# Indices 1 2 3 4 5 6 
#
# 1 0.016548 0.000887 -0.007067 0.000000 -0.003604 0.000000
# 2 0.000887 0.009519 -0.004147 0.000000 0.000053 0.000000
# 3 -0.007067 -0.004147 0.017907 0.000000 0.005258 0.000000
# 4 0.000000 0.000000 0.000000 0.023423 0.000000 0.020388
# 5 -0.003604 0.000053 0.005258 0.000000 0.028198 0.000000
# 6 0.000000 0.000000 0.000000 0.020388 0.000000 0.013439
#
#
# Mechanical properties :
#
#
# Convention : Reuss Voigt Hill
#
# Bulk Modulus (GPa) = 42.88275 44.65128 43.76702
# Shear Modulus (GPa) = 36.37375 -51.95210 -7.78917
#
# Velocity S-wave (km/s) = 4.04973 -4.83987 -1.87404
# Velocity P-wave (km/s) = 6.41890 3.33166 3.87958
#
# Compressibility (1/GPa) = 0.02331940
#
# Stress axis : x y z
#
# Youngs Moduli (GPa) = 60.42942 105.05301 55.84478
#
# Poissons Ratio (x) = -0.09322 0.39468
# Poissons Ratio (y) = -0.05362 0.23160
# Poissons Ratio (z) = 0.42708 0.43568
#
# Static dielectric constant tensor:
#      x y z
#    x 1.837120 0.000000 -0.005100 
#    y 0.000000 3.073220 0.000000 
#    z -0.005100 0.000000 1.748080 
# 
# From -- ./inp_files/12438.got.cif
#   From: 2010.05.17/outbox.cif.g08.bks.cpg/sg9_7_cif.got.tgz:12438.got - 2010.06.03 20:04:27.
