data_PCOD9139546
_publ_section_title
;
Structure prediction by ZEFSAII (Michael W. Deem and Ramdas Pophale) SiO2 
 PCOD9139546
Probable space group: C C
;
_chemical_formula_sum "Si O2"
_cell_formula_units_Z 28
_cell_length_a 14.434136
_cell_length_b 5.035173
_cell_length_c 19.653680
_cell_angle_alpha 90.000000
_cell_angle_beta 134.330941
_cell_angle_gamma 90.000000
_cell_volume 1021.754802
_symmetry_space_group_name_H-M "C C"
_symmetry_group_IT_number 9
_symmetry_cell_setting 'monoclinic'
loop_
_space_group_symop_operation_xyz
x,y,z
x,-y,1/2+z
1/2+x,1/2+y,z
1/2+x,1/2-y,1/2+z
loop_
_atom_site_type_symbol
_atom_site_label
_atom_site_fract_x
_atom_site_fract_y
_atom_site_fract_z
Si Si1 0.291310 0.064247 0.687700
Si Si2 0.037033 0.866926 0.498589
Si Si3 0.627318 0.501924 0.853817
Si Si4 0.282661 0.560216 0.781447
Si Si5 0.876958 0.678910 0.528395
Si Si6 0.013790 0.633088 0.202357
Si Si7 0.642877 0.030700 0.953659
O O1 0.283950 0.345197 0.721117
O O2 0.418911 0.995737 0.709712
O O3 0.170205 0.027329 0.573576
O O4 0.283698 0.843442 0.743887
O O5 0.912499 0.967801 0.393314
O O6 0.990859 0.832802 0.551667
O O7 0.079302 0.222036 0.381364
O O8 0.077016 0.582668 0.486830
O O9 0.546406 0.573696 0.746279
O O10 0.775125 0.413469 0.918108
O O11 0.636156 0.775105 0.900702
O O12 0.154107 0.501195 0.760489
O O13 0.790720 0.866774 0.532454
O O14 0.933694 0.421942 0.593544
#
# Coordination Sequence:
#
# PCOD9139546 Si02
#       7
#     4   4   4   4   4   4   4
#     4  12  32  55  85 133 171 233 294 358 442 527
#     4  12  27  57  89 124 179 230 291 373 429 529
#     4  10  25  51  77 121 169 218 281 356 433 504
#     4  12  32  55  85 132 174 230 297 356 444 525
#     4  10  26  52  85 126 165 235 286 355 445 509
#     4  12  27  55  86 124 180 223 288 367 427 530
#     4  10  25  51  79 122 162 225 281 355 430 510
#
# _framework density 27.403832000000001
#
# number of rings (size 3 to 8) (size 9 to 14) (size 15 to 20)
#    0.857    0.000    1.429    2.571    4.000   10.286 
#    7.714    0.000    0.000    0.000    0.000    0.000 
#    0.000    0.000    0.000    0.000    0.000    0.000 
#
# Total GULP energy -78478.135624 kJ/mol
# GULP energy per Si atom -5605.581116 kJ/mol
# Density = 2.734146 g / cm^3
# Si number density = 27.403832 Si / 1000 Ang^3
#
#
#
# Elastic Constant Matrix: (Units=GPa)
#
#
# Indices 1 2 3 4 5 6 
#
# 1 202.3668 27.8073 34.6194 0.0000 23.3796 0.0001
# 2 27.8073 132.1371 28.6271 0.0000 2.4023 0.0006
# 3 34.6194 28.6271 180.4843 0.0000 30.3582 0.0000
# 4 0.0000 0.0000 0.0000 45.9248 0.0000 -6.7260
# 5 23.3796 2.4023 30.3582 0.0000 38.2199 -0.0001
# 6 0.0001 0.0006 0.0000 -6.7260 -0.0001 43.5457
#
#
#
# Elastic Compliance Matrix: (Units=1/GPa)
#
#
# Indices 1 2 3 4 5 6 
#
# 1 0.005493 -0.001017 -0.000390 0.000000 -0.002986 0.000000
# 2 -0.001017 0.008036 -0.001269 0.000000 0.001125 0.000000
# 3 -0.000390 -0.001269 0.006652 0.000000 -0.004965 0.000000
# 4 0.000000 0.000000 0.000000 0.022279 0.000000 0.003441
# 5 -0.002986 0.001125 -0.004965 0.000000 0.031865 0.000000
# 6 0.000000 0.000000 0.000000 0.003441 0.000000 0.023496
#
#
# Mechanical properties :
#
#
# Convention : Reuss Voigt Hill
#
# Bulk Modulus (GPa) = 67.43340 77.45507 72.44423
# Shear Modulus (GPa) = 46.24688 53.80037 50.02362
#
# Velocity S-wave (km/s) = 4.11251 4.43566 4.27713
# Velocity P-wave (km/s) = 6.87102 7.38641 7.13337
#
# Compressibility (1/GPa) = 0.01482945
#
# Stress axis : x y z
#
# Youngs Moduli (GPa) = 182.04870 124.43407 150.33349
#
# Poissons Ratio (x) = 0.12657 0.05862
# Poissons Ratio (y) = 0.18518 0.19074
# Poissons Ratio (z) = 0.07099 0.15788
#
# Static dielectric constant tensor:
#      x y z
#    x 2.080050 0.000000 -0.010320 
#    y 0.000000 2.092670 0.000000 
#    z -0.010320 0.000000 2.142830 
# 
# From -- ./inp_files/33556.got.cif
#   From: 2010.05.17/outbox.cif.g08.bks.cpg/sg9_17_cif.got.tgz:33556.got - 2010.06.03 20:04:27.
