data_PCOD9139124
_publ_section_title
;
Structure prediction by ZEFSAII (Michael W. Deem and Ramdas Pophale) SiO2 
 PCOD9139124
Probable space group: C C
;
_chemical_formula_sum "Si O2"
_cell_formula_units_Z 28
_cell_length_a 13.514138
_cell_length_b 5.048524
_cell_length_c 16.418797
_cell_angle_alpha 90.000000
_cell_angle_beta 73.159684
_cell_angle_gamma 90.000000
_cell_volume 1072.157608
_symmetry_space_group_name_H-M "C C"
_symmetry_group_IT_number 9
_symmetry_cell_setting 'monoclinic'
loop_
_space_group_symop_operation_xyz
x,y,z
x,-y,1/2+z
1/2+x,1/2+y,z
1/2+x,1/2-y,1/2+z
loop_
_atom_site_type_symbol
_atom_site_label
_atom_site_fract_x
_atom_site_fract_y
_atom_site_fract_z
Si Si1 0.062210 0.977320 0.971470
Si Si2 0.949167 0.467792 0.783854
Si Si3 0.149805 0.240638 0.305951
Si Si4 0.684735 0.176031 0.556963
Si Si5 0.862781 0.935810 0.416139
Si Si6 0.572990 0.337494 0.140020
Si Si7 0.783726 0.777481 0.774460
O O1 0.236368 0.551979 0.754646
O O2 0.131884 0.758413 0.909044
O O3 0.014365 0.887568 0.068641
O O4 0.132964 0.217160 0.985523
O O5 0.886978 0.616154 0.726018
O O6 0.042372 0.645610 0.795982
O O7 0.998553 0.200380 0.733449
O O8 0.870157 0.352822 0.871342
O O9 0.192666 0.940644 0.287395
O O10 0.976654 0.953538 0.426872
O O11 0.790029 0.030973 0.507470
O O12 0.663555 0.439517 0.617169
O O13 0.621151 0.948646 0.615492
O O14 0.827092 0.129176 0.352422
#
# Coordination Sequence:
#
# PCOD9139124 Si02
#       7
#     4   4   4   4   4   4   4
#     4  10  24  44  77 104 149 193 254 310 379 448
#     4  12  29  47  78 114 155 200 258 324 383 452
#     4  12  25  45  72 113 143 196 248 318 367 454
#     4  10  25  46  71 103 148 197 248 306 380 454
#     4  12  24  45  80 111 142 200 264 309 371 464
#     4  10  26  51  70 101 164 190 245 318 392 438
#     4  12  25  42  72 108 151 180 255 303 378 440
#
# _framework density 26.115565
#
# number of rings (size 3 to 8) (size 9 to 14) (size 15 to 20)
#    0.857    0.000    4.286    1.714    6.000    0.000 
#    5.143    0.000    0.000    0.000    0.000    0.000 
#    0.000    0.000    0.000    0.000    0.000    0.000 
#
# Total GULP energy -78056.576100 kJ/mol
# GULP energy per Si atom -5575.469721 kJ/mol
# Density = 2.605612 g / cm^3
# Si number density = 26.115565 Si / 1000 Ang^3
#
#
#
# Elastic Constant Matrix: (Units=GPa)
#
#
# Indices 1 2 3 4 5 6 
#
# 1 127.3809 41.3124 31.0111 0.0001 -5.2362 0.0000
# 2 41.3124 177.4626 24.4431 0.0005 -4.0273 0.0001
# 3 31.0111 24.4431 58.0899 -0.0001 -5.2629 0.0002
# 4 0.0001 0.0005 -0.0001 34.4230 -0.0001 -2.1036
# 5 -5.2362 -4.0273 -5.2629 -0.0001 36.4922 0.0001
# 6 0.0000 0.0001 0.0002 -2.1036 0.0001 37.6668
#
#
#
# Elastic Compliance Matrix: (Units=1/GPa)
#
#
# Indices 1 2 3 4 5 6 
#
# 1 0.009441 -0.001590 -0.004321 0.000000 0.000556 0.000000
# 2 -0.001590 0.006253 -0.001763 0.000000 0.000208 0.000000
# 3 -0.004321 -0.001763 0.020457 0.000000 0.002136 0.000000
# 4 0.000000 0.000000 0.000000 0.029150 0.000000 0.001628
# 5 0.000556 0.000208 0.002136 0.000000 0.027814 0.000000
# 6 0.000000 0.000000 0.000000 0.001628 0.000000 0.026640
#
#
# Mechanical properties :
#
#
# Convention : Reuss Voigt Hill
#
# Bulk Modulus (GPa) = 48.07145 61.82963 54.95054
# Shear Modulus (GPa) = 35.20247 39.46085 37.33166
#
# Velocity S-wave (km/s) = 3.67543 3.89139 3.78495
# Velocity P-wave (km/s) = 6.03812 6.62701 6.33941
#
# Compressibility (1/GPa) = 0.02080237
#
# Stress axis : x y z
#
# Youngs Moduli (GPa) = 105.92261 159.92984 48.88377
#
# Poissons Ratio (x) = 0.25430 0.21120
# Poissons Ratio (y) = 0.16842 0.08620
# Poissons Ratio (z) = 0.45764 0.28202
#
# Static dielectric constant tensor:
#      x y z
#    x 2.110500 0.000000 -0.046840 
#    y 0.000000 2.107200 0.000000 
#    z -0.046840 0.000000 2.195410 
# 
# From -- ./inp_files/33463.got.cif
#   From: 2010.05.17/outbox.cif.g08.bks.cpg/sg9_17_cif.got.tgz:33463.got - 2010.06.03 20:04:27.
