data_PCOD9139730
_publ_section_title
;
Structure prediction by ZEFSAII (Michael W. Deem and Ramdas Pophale) SiO2 
 PCOD9139730
Probable space group: C C
;
_chemical_formula_sum "Si O2"
_cell_formula_units_Z 32
_cell_length_a 5.248332
_cell_length_b 22.043512
_cell_length_c 12.812739
_cell_angle_alpha 90.000000
_cell_angle_beta 69.705834
_cell_angle_gamma 90.000000
_cell_volume 1390.310603
_symmetry_space_group_name_H-M "C C"
_symmetry_group_IT_number 9
_symmetry_cell_setting 'monoclinic'
loop_
_space_group_symop_operation_xyz
x,y,z
x,-y,1/2+z
1/2+x,1/2+y,z
1/2+x,1/2-y,1/2+z
loop_
_atom_site_type_symbol
_atom_site_label
_atom_site_fract_x
_atom_site_fract_y
_atom_site_fract_z
Si Si1 0.803570 0.806297 0.547740
Si Si2 0.196397 0.408633 0.089623
Si Si3 0.790089 0.032547 0.968203
Si Si4 0.300123 0.014577 0.762795
Si Si5 0.254112 0.164435 0.526337
Si Si6 0.373359 0.869075 0.488336
Si Si7 0.509763 0.439165 0.665796
Si Si8 0.527556 0.119198 0.280897
O O1 0.773961 0.734464 0.555917
O O2 0.623004 0.825718 0.474162
O O3 0.657430 0.835826 0.672566
O O4 0.112026 0.831770 0.482120
O O5 0.061013 0.444082 0.207239
O O6 0.250072 0.462462 0.999302
O O7 0.458923 0.367559 0.073694
O O8 0.957670 0.368997 0.075419
O O9 0.538451 0.066337 0.946796
O O10 0.069837 0.042476 0.867755
O O11 0.851318 0.056797 0.077423
O O12 0.366638 0.944917 0.783808
O O13 0.149643 0.002186 0.673142
O O14 0.368751 0.155054 0.392315
O O15 0.237470 0.889214 0.616651
O O16 0.306691 0.413380 0.779293
#
# Coordination Sequence:
#
# PCOD9139730 Si02
#       8
#     4   4   4   4   4   4   4   4
#     4  11  24  47  72  97 142 188 256 307 344 438
#     4  12  25  47  67 109 154 179 241 307 375 447
#     4  12  23  41  74 109 149 191 240 310 380 460
#     4  12  24  40  72 111 149 193 234 311 390 462
#     4  12  28  47  71 104 147 200 241 309 370 437
#     4  11  21  44  72 100 136 181 243 306 359 422
#     4  11  20  42  68 108 138 185 242 299 363 459
#     4  11  23  42  76 100 133 199 247 291 383 451
#
# _framework density 23.016438999999998
#
# number of rings (size 3 to 8) (size 9 to 14) (size 15 to 20)
#    0.000    0.500    7.500    2.250    0.000    1.000 
#    2.250    0.000    0.000    0.000    0.000    0.000 
#    0.000    0.000    0.000    0.000    0.000    0.000 
#
# Total GULP energy -89078.746296 kJ/mol
# GULP energy per Si atom -5567.421644 kJ/mol
# Density = 2.296405 g / cm^3
# Si number density = 23.016439 Si / 1000 Ang^3
#
#
#
# Elastic Constant Matrix: (Units=GPa)
#
#
# Indices 1 2 3 4 5 6 
#
# 1 185.9396 74.5627 36.4854 0.0000 -35.5476 0.0000
# 2 74.5627 170.7609 38.5193 0.0000 -8.0074 0.0000
# 3 36.4854 38.5193 107.6517 0.0000 -22.3148 0.0000
# 4 0.0000 0.0000 0.0000 21.4005 0.0000 -8.0312
# 5 -35.5476 -8.0074 -22.3148 0.0000 36.0319 0.0000
# 6 0.0000 0.0000 0.0000 -8.0312 0.0000 25.5953
#
#
#
# Elastic Compliance Matrix: (Units=1/GPa)
#
#
# Indices 1 2 3 4 5 6 
#
# 1 0.008029 -0.003145 -0.000113 0.000000 0.007152 0.000000
# 2 -0.003145 0.007602 -0.002234 0.000000 -0.002797 0.000000
# 3 -0.000113 -0.002234 0.011474 0.000000 0.006498 0.000000
# 4 0.000000 0.000000 0.000000 0.052965 0.000000 0.016619
# 5 0.007152 -0.002797 0.006498 0.000000 0.038211 0.000000
# 6 0.000000 0.000000 0.000000 0.016619 0.000000 0.044284
#
#
# Mechanical properties :
#
#
# Convention : Reuss Voigt Hill
#
# Bulk Modulus (GPa) = 62.03371 84.83189 73.43280
# Shear Modulus (GPa) = 27.94503 37.59119 32.76811
#
# Velocity S-wave (km/s) = 3.48822 4.04571 3.77727
# Velocity P-wave (km/s) = 6.57526 7.66556 7.14125
#
# Compressibility (1/GPa) = 0.01612027
#
# Stress axis : x y z
#
# Youngs Moduli (GPa) = 124.55393 131.54257 87.15461
#
# Poissons Ratio (x) = 0.41367 0.00988
# Poissons Ratio (y) = 0.39169 0.19470
# Poissons Ratio (z) = 0.01412 0.29387
#
# Static dielectric constant tensor:
#      x y z
#    x 2.033330 0.000000 0.031510 
#    y 0.000000 1.925220 0.000000 
#    z 0.031510 0.000000 1.915200 
# 
# From -- ./inp_files/22212.got.cif
#   From: 2010.05.17/outbox.cif.g08.bks.cpg/sg9_12_cif.got.tgz:22212.got - 2010.06.03 20:04:27.
