data_PCOD9139448
_publ_section_title
;
Structure prediction by ZEFSAII (Michael W. Deem and Ramdas Pophale) SiO2 
 PCOD9139448
Probable space group: C C
;
_chemical_formula_sum "Si O2"
_cell_formula_units_Z 28
_cell_length_a 5.261900
_cell_length_b 13.662379
_cell_length_c 15.808230
_cell_angle_alpha 90.000000
_cell_angle_beta 104.901024
_cell_angle_gamma 90.000000
_cell_volume 1098.237505
_symmetry_space_group_name_H-M "C C"
_symmetry_group_IT_number 9
_symmetry_cell_setting 'monoclinic'
loop_
_space_group_symop_operation_xyz
x,y,z
x,-y,1/2+z
1/2+x,1/2+y,z
1/2+x,1/2-y,1/2+z
loop_
_atom_site_type_symbol
_atom_site_label
_atom_site_fract_x
_atom_site_fract_y
_atom_site_fract_z
Si Si1 0.940990 0.826779 0.910960
Si Si2 0.728110 0.412848 0.729660
Si Si3 0.787606 0.212930 0.132323
Si Si4 0.900659 0.442880 0.552017
Si Si5 0.541491 0.467337 0.360531
Si Si6 0.537204 0.842148 0.022655
Si Si7 0.058777 0.218337 0.772008
O O1 0.777292 0.820123 0.982949
O O2 0.832644 0.740242 0.843678
O O3 0.253383 0.827705 0.952501
O O4 0.878651 0.935721 0.869338
O O5 0.432003 0.370335 0.699490
O O6 0.797072 0.443470 0.639796
O O7 0.739136 0.493890 0.803413
O O8 0.898172 0.318288 0.768004
O O9 0.633266 0.287597 0.179748
O O10 0.592161 0.149352 0.058917
O O11 0.008158 0.269718 0.099051
O O12 0.678946 0.438106 0.460544
O O13 0.048008 0.545267 0.550770
O O14 0.419803 0.372907 0.304641
#
# Coordination Sequence:
#
# PCOD9139448 Si02
#       7
#     4   4   4   4   4   4   4
#     4  11  25  47  70 114 143 188 258 316 357 473
#     4  11  25  48  67 114 155 190 264 317 363 470
#     4  11  25  44  71 107 150 202 252 317 375 455
#     4  10  25  45  73 106 147 201 252 314 374 456
#     4  11  24  49  76 106 151 201 254 311 391 439
#     4  11  26  44  74 102 151 191 250 308 383 437
#     4  11  24  45  73 101 151 201 244 317 389 436
#
# _framework density 25.495397000000001
#
# number of rings (size 3 to 8) (size 9 to 14) (size 15 to 20)
#    0.000    1.143    1.429    3.429   10.000    1.143 
#    7.714    0.000    0.000    0.000    0.000    0.000 
#    0.000    0.000    0.000    0.000    0.000    0.000 
#
# Total GULP energy -78424.031768 kJ/mol
# GULP energy per Si atom -5601.716555 kJ/mol
# Density = 2.543737 g / cm^3
# Si number density = 25.495397 Si / 1000 Ang^3
#
#
#
# Elastic Constant Matrix: (Units=GPa)
#
#
# Indices 1 2 3 4 5 6 
#
# 1 71.2014 20.9997 39.2092 0.0000 -10.0637 0.0000
# 2 20.9997 97.6461 47.2484 0.0000 -5.4780 0.0000
# 3 39.2092 47.2484 129.3741 0.0000 -28.9698 0.0000
# 4 0.0000 0.0000 0.0000 50.2189 0.0000 -6.4401
# 5 -10.0637 -5.4780 -28.9698 0.0000 40.1865 0.0000
# 6 0.0000 0.0000 0.0000 -6.4401 0.0000 32.8946
#
#
#
# Elastic Compliance Matrix: (Units=1/GPa)
#
#
# Indices 1 2 3 4 5 6 
#
# 1 0.017043 -0.001472 -0.004432 0.000000 0.000872 0.000000
# 2 -0.001472 0.012687 -0.004630 0.000000 -0.001977 0.000000
# 3 -0.004432 -0.004630 0.012371 0.000000 0.007177 0.000000
# 4 0.000000 0.000000 0.000000 0.020426 0.000000 0.003999
# 5 0.000872 -0.001977 0.007177 0.000000 0.030007 0.000000
# 6 0.000000 0.000000 0.000000 0.003999 0.000000 0.031183
#
#
# Mechanical properties :
#
#
# Convention : Reuss Voigt Hill
#
# Bulk Modulus (GPa) = 47.54536 57.01511 52.28023
# Shear Modulus (GPa) = 32.93920 37.37761 35.15841
#
# Velocity S-wave (km/s) = 3.59829 3.83306 3.71753
# Velocity P-wave (km/s) = 5.99606 6.48084 6.24316
#
# Compressibility (1/GPa) = 0.02103255
#
# Stress axis : x y z
#
# Youngs Moduli (GPa) = 58.67583 78.82089 80.83534
#
# Poissons Ratio (x) = 0.11599 0.35830
# Poissons Ratio (y) = 0.08634 0.37427
# Poissons Ratio (z) = 0.26008 0.36495
#
# Static dielectric constant tensor:
#      x y z
#    x 1.996700 0.000000 0.051200 
#    y 0.000000 1.965360 0.000000 
#    z 0.051200 0.000000 2.092900 
# 
# From -- ./inp_files/21781.got.cif
#   From: 2010.05.17/outbox.cif.g08.bks.cpg/sg9_11_cif.got.tgz:21781.got - 2010.06.03 20:04:27.
