data_PCOD9139543
_publ_section_title
;
Structure prediction by ZEFSAII (Michael W. Deem and Ramdas Pophale) SiO2 
 PCOD9139543
Probable space group: C C
;
_chemical_formula_sum "Si O2"
_cell_formula_units_Z 28
_cell_length_a 8.964588
_cell_length_b 10.402823
_cell_length_c 10.568871
_cell_angle_alpha 90.000000
_cell_angle_beta 91.401760
_cell_angle_gamma 90.000000
_cell_volume 985.326480
_symmetry_space_group_name_H-M "C C"
_symmetry_group_IT_number 9
_symmetry_cell_setting 'monoclinic'
loop_
_space_group_symop_operation_xyz
x,y,z
x,-y,1/2+z
1/2+x,1/2+y,z
1/2+x,1/2-y,1/2+z
loop_
_atom_site_type_symbol
_atom_site_label
_atom_site_fract_x
_atom_site_fract_y
_atom_site_fract_z
Si Si1 0.819840 0.715489 0.304650
Si Si2 0.514536 0.585621 0.328136
Si Si3 0.308589 0.191273 0.920406
Si Si4 0.849053 0.414540 0.048559
Si Si5 0.754029 0.044804 0.486040
Si Si6 0.120485 0.460259 0.232157
Si Si7 0.070552 0.850133 0.197609
O O1 0.689875 0.608160 0.305373
O O2 0.890416 0.692296 0.444918
O O3 0.718713 0.839149 0.279101
O O4 0.955976 0.732101 0.209164
O O5 0.435983 0.724535 0.348980
O O6 0.421038 0.515256 0.439754
O O7 0.482400 0.484036 0.215937
O O8 0.253744 0.302084 0.015598
O O9 0.348816 0.057489 0.987405
O O10 0.177299 0.163861 0.820415
O O11 0.682585 0.368647 0.084637
O O12 0.958336 0.425003 0.171936
O O13 0.142851 0.463475 0.863063
O O14 0.693472 0.974841 0.608190
#
# Coordination Sequence:
#
# PCOD9139543 Si02
#       7
#     4   4   4   4   4   4   4
#     4  12  27  53  84 127 179 236 302 367 456 540
#     4  10  25  50  83 122 175 232 290 375 443 552
#     4  10  25  53  76 125 171 222 302 362 453 527
#     4  12  30  50  92 125 180 246 303 381 455 556
#     4  10  27  51  87 126 179 231 297 377 446 552
#     4  12  28  55  87 129 182 241 304 373 465 549
#     4  12  26  52  81 124 176 230 298 377 452 534
#
# _framework density 28.416976999999999
#
# number of rings (size 3 to 8) (size 9 to 14) (size 15 to 20)
#    0.857    0.000    2.857    1.714    8.000    2.286 
#    2.571    0.000    0.000    0.000    0.000    0.000 
#    0.000    0.000    0.000    0.000    0.000    0.000 
#
# Total GULP energy -78125.576205 kJ/mol
# GULP energy per Si atom -5580.398300 kJ/mol
# Density = 2.835230 g / cm^3
# Si number density = 28.416977 Si / 1000 Ang^3
#
#
#
# Elastic Constant Matrix: (Units=GPa)
#
#
# Indices 1 2 3 4 5 6 
#
# 1 203.7628 33.3736 75.2016 0.0000 -16.8043 0.0000
# 2 33.3736 110.6415 60.4572 0.0000 -8.9657 0.0000
# 3 75.2016 60.4572 169.7388 0.0000 -0.9952 0.0000
# 4 0.0000 0.0000 0.0000 47.8181 0.0000 -3.0381
# 5 -16.8043 -8.9657 -0.9952 0.0000 80.1931 0.0000
# 6 0.0000 0.0000 0.0000 -3.0381 0.0000 46.4775
#
#
#
# Elastic Compliance Matrix: (Units=1/GPa)
#
#
# Indices 1 2 3 4 5 6 
#
# 1 0.005994 -0.000328 -0.002532 0.000000 0.001188 0.000000
# 2 -0.000328 0.011358 -0.003893 0.000000 0.001153 0.000000
# 3 -0.002532 -0.003893 0.008395 0.000000 -0.000862 0.000000
# 4 0.000000 0.000000 0.000000 0.021000 0.000000 0.001373
# 5 0.001188 0.001153 -0.000862 0.000000 0.012837 0.000000
# 6 0.000000 0.000000 0.000000 0.001373 0.000000 0.021606
#
#
# Mechanical properties :
#
#
# Convention : Reuss Voigt Hill
#
# Bulk Modulus (GPa) = 81.69904 91.35644 86.52774
# Shear Modulus (GPa) = 50.62010 55.90512 53.26261
#
# Velocity S-wave (km/s) = 4.22516 4.44025 4.33404
# Velocity P-wave (km/s) = 7.25363 7.64893 7.45390
#
# Compressibility (1/GPa) = 0.01224005
#
# Stress axis : x y z
#
# Youngs Moduli (GPa) = 166.84143 88.04354 119.12391
#
# Poissons Ratio (x) = 0.02891 0.30157
# Poissons Ratio (y) = 0.05479 0.46378
# Poissons Ratio (z) = 0.42237 0.34277
#
# Static dielectric constant tensor:
#      x y z
#    x 2.319370 0.000000 -0.021830 
#    y 0.000000 2.245020 0.000000 
#    z -0.021830 0.000000 2.229500 
# 
# From -- ./inp_files/23040.got.cif
#   From: 2010.05.17/outbox.cif.g08.bks.cpg/sg9_12_cif.got.tgz:23040.got - 2010.06.03 20:04:27.
