data_PCOD9139918
_publ_section_title
;
Structure prediction by ZEFSAII (Michael W. Deem and Ramdas Pophale) SiO2 
 PCOD9139918
Probable space group: C C
;
_chemical_formula_sum "Si O2"
_cell_formula_units_Z 32
_cell_length_a 29.305978
_cell_length_b 11.943027
_cell_length_c 9.306730
_cell_angle_alpha 90.000000
_cell_angle_beta 28.517583
_cell_angle_gamma 90.000000
_cell_volume 1555.163394
_symmetry_space_group_name_H-M "C C"
_symmetry_group_IT_number 9
_symmetry_cell_setting 'monoclinic'
loop_
_space_group_symop_operation_xyz
x,y,z
x,-y,1/2+z
1/2+x,1/2+y,z
1/2+x,1/2-y,1/2+z
loop_
_atom_site_type_symbol
_atom_site_label
_atom_site_fract_x
_atom_site_fract_y
_atom_site_fract_z
Si Si1 0.081820 0.792088 0.230720
Si Si2 0.255954 0.915633 0.391885
Si Si3 0.128167 0.025888 0.992821
Si Si4 0.700898 0.885433 0.247628
Si Si5 0.096882 0.440108 0.239871
Si Si6 0.363861 0.753901 0.269639
Si Si7 0.912466 0.418839 0.368593
Si Si8 0.045573 0.746840 0.650687
O O1 0.098948 0.749454 0.346572
O O2 0.977807 0.757319 0.457707
O O3 0.157967 0.732051 0.920316
O O4 0.088379 0.924410 0.198057
O O5 0.208898 0.913749 0.365240
O O6 0.306049 0.798487 0.292469
O O7 0.177561 0.966079 0.719054
O O8 0.344365 0.000926 0.144619
O O9 0.050344 0.122314 0.176687
O O10 0.656765 0.911536 0.215378
O O11 0.658531 0.976992 0.471342
O O12 0.813819 0.863595 0.944151
O O13 0.079520 0.330362 0.189229
O O14 0.999983 0.507272 0.558560
O O15 0.351041 0.855829 0.417654
O O16 0.950761 0.318351 0.362558
#
# Coordination Sequence:
#
# PCOD9139918 Si02
#       8
#     4   4   4   4   4   4   4   4
#     4  11  23  47  67  95 139 176 218 285 336 395
#     4  12  22  42  66 102 127 175 231 275 323 401
#     4  12  25  43  69  94 139 178 219 274 344 399
#     4  12  22  43  68  95 135 174 223 276 336 397
#     4  12  23  42  70  98 132 178 222 278 338 394
#     4  11  23  40  68  95 127 175 222 271 333 392
#     4  11  22  41  68  97 133 168 229 278 328 393
#     4  11  24  42  66 100 128 182 222 267 340 399
#
# _framework density 20.576615
#
# number of rings (size 3 to 8) (size 9 to 14) (size 15 to 20)
#    0.000    0.500    7.500    2.250    0.000    0.000 
#    4.500    0.000    0.000    0.000    0.000    0.000 
#    0.000    0.000    0.000    0.000    0.000    0.000 
#
# Total GULP energy -89219.784391 kJ/mol
# GULP energy per Si atom -5576.236524 kJ/mol
# Density = 2.052978 g / cm^3
# Si number density = 20.576615 Si / 1000 Ang^3
#
#
#
# Elastic Constant Matrix: (Units=GPa)
#
#
# Indices 1 2 3 4 5 6 
#
# 1 75.2136 5.9450 4.0799 0.0000 14.6913 0.0000
# 2 5.9450 83.1694 5.0384 0.0000 4.3153 0.0000
# 3 4.0799 5.0384 38.3651 0.0000 -1.7887 0.0000
# 4 0.0000 0.0000 0.0000 32.5674 0.0000 -9.1804
# 5 14.6913 4.3153 -1.7887 0.0000 19.7021 0.0000
# 6 0.0000 0.0000 0.0000 -9.1804 0.0000 38.4655
#
#
#
# Elastic Compliance Matrix: (Units=1/GPa)
#
#
# Indices 1 2 3 4 5 6 
#
# 1 0.015762 -0.000379 -0.002180 0.000000 -0.011868 0.000000
# 2 -0.000379 0.012286 -0.001693 0.000000 -0.002562 0.000000
# 3 -0.002180 -0.001693 0.026726 0.000000 0.004423 0.000000
# 4 0.000000 0.000000 0.000000 0.032920 0.000000 0.007857
# 5 -0.011868 -0.002562 0.004423 0.000000 0.060568 0.000000
# 6 0.000000 0.000000 0.000000 0.007857 0.000000 0.027872
#
#
# Mechanical properties :
#
#
# Convention : Reuss Voigt Hill
#
# Bulk Modulus (GPa) = 21.61176 25.20830 23.41003
# Shear Modulus (GPa) = 24.99233 30.25931 27.62582
#
# Velocity S-wave (km/s) = 3.48889 3.83896 3.66810
# Velocity P-wave (km/s) = 5.17259 5.65046 5.41680
#
# Compressibility (1/GPa) = 0.04627110
#
# Stress axis : x y z
#
# Youngs Moduli (GPa) = 63.44445 81.39199 37.41718
#
# Poissons Ratio (x) = 0.03083 0.08156
# Poissons Ratio (y) = 0.02403 0.06334
# Poissons Ratio (z) = 0.13829 0.13777
#
# Static dielectric constant tensor:
#      x y z
#    x 1.786530 0.000000 0.016890 
#    y 0.000000 1.770580 0.000000 
#    z 0.016890 0.000000 1.726790 
# 
# From -- ./inp_files/9185.got.cif
#   From: 2010.05.17/outbox.cif.g08.bks.cpg/sg9_5_cif.got.tgz:9185.got - 2010.06.03 20:04:27.
