data_PCOD9139170
_publ_section_title
;
Structure prediction by ZEFSAII (Michael W. Deem and Ramdas Pophale) SiO2 
 PCOD9139170
Probable space group: C C
;
_chemical_formula_sum "Si O2"
_cell_formula_units_Z 24
_cell_length_a 11.071326
_cell_length_b 13.073548
_cell_length_c 14.384303
_cell_angle_alpha 90.000000
_cell_angle_beta 148.177538
_cell_angle_gamma 90.000000
_cell_volume 1097.818619
_symmetry_space_group_name_H-M "C C"
_symmetry_group_IT_number 9
_symmetry_cell_setting 'monoclinic'
loop_
_space_group_symop_operation_xyz
x,y,z
x,-y,1/2+z
1/2+x,1/2+y,z
1/2+x,1/2-y,1/2+z
loop_
_atom_site_type_symbol
_atom_site_label
_atom_site_fract_x
_atom_site_fract_y
_atom_site_fract_z
Si Si1 0.545650 0.907119 0.630500
Si Si2 0.744158 0.118063 0.062676
Si Si3 0.044430 0.182716 0.812458
Si Si4 0.173869 0.760318 0.852305
Si Si5 0.733121 0.898570 0.954281
Si Si6 0.604308 0.131707 0.636653
O O1 0.658878 0.863078 0.611394
O O2 0.301661 0.857210 0.494156
O O3 0.716722 0.913353 0.831563
O O4 0.497653 0.021424 0.565526
O O5 0.016531 0.140187 0.239772
O O6 0.657343 0.212040 0.942977
O O7 0.690461 0.006959 0.980254
O O8 0.053320 0.303575 0.843595
O O9 0.958888 0.149183 0.652689
O O10 0.850348 0.133137 0.750303
O O11 0.103206 0.667060 0.741614
O O12 0.426138 0.787384 0.979544
#
# Coordination Sequence:
#
# PCOD9139170 Si02
#       6
#     4   4   4   4   4   4
#     4  12  27  46  72 107 146 187 239 300 360 429
#     4  11  25  48  70 109 144 187 245 295 366 428
#     4  12  26  47  73 106 148 188 244 299 357 426
#     4  10  24  45  75 100 145 191 235 301 354 432
#     4  12  25  48  68 109 144 190 240 289 368 425
#     4  11  23  46  70 105 139 189 245 292 355 432
#
# _framework density 21.861535
#
# number of rings (size 3 to 8) (size 9 to 14) (size 15 to 20)
#    0.000    0.667    5.000    2.000    2.333    0.000 
#    6.000    0.000    0.000    0.000    0.000    0.000 
#    0.000    0.000    0.000    0.000    0.000    0.000 
#
# Total GULP energy -66805.516346 kJ/mol
# GULP energy per Si atom -5567.126362 kJ/mol
# Density = 2.181178 g / cm^3
# Si number density = 21.861535 Si / 1000 Ang^3
#
#
#
# Elastic Constant Matrix: (Units=GPa)
#
#
# Indices 1 2 3 4 5 6 
#
# 1 126.6709 36.4027 47.0463 0.0024 -6.6810 -0.0007
# 2 36.4027 103.9284 27.6948 0.0043 -1.4725 0.0003
# 3 47.0463 27.6948 104.5922 0.0091 -12.8080 0.0018
# 4 0.0024 0.0043 0.0091 33.9033 0.0034 -0.1821
# 5 -6.6810 -1.4725 -12.8080 0.0034 36.4794 0.0007
# 6 -0.0007 0.0003 0.0018 -0.1821 0.0007 26.9695
#
#
#
# Elastic Compliance Matrix: (Units=1/GPa)
#
#
# Indices 1 2 3 4 5 6 
#
# 1 0.010048 -0.002499 -0.003809 0.000001 0.000402 0.000001
# 2 -0.002499 0.010985 -0.001867 -0.000001 -0.000670 0.000000
# 3 -0.003809 -0.001867 0.012198 -0.000003 0.003510 -0.000001
# 4 0.000001 -0.000001 -0.000003 0.029497 -0.000004 0.000199
# 5 0.000402 -0.000670 0.003510 -0.000004 0.028692 -0.000001
# 6 0.000001 0.000000 -0.000001 0.000199 -0.000001 0.037080
#
#
# Mechanical properties :
#
#
# Convention : Reuss Voigt Hill
#
# Bulk Modulus (GPa) = 59.23172 61.94211 60.58692
# Shear Modulus (GPa) = 33.22751 34.40694 33.81723
#
# Velocity S-wave (km/s) = 3.90283 3.97149 3.93731
# Velocity P-wave (km/s) = 6.88929 7.03034 6.96017
#
# Compressibility (1/GPa) = 0.01688285
#
# Stress axis : x y z
#
# Youngs Moduli (GPa) = 99.51735 91.03095 81.97841
#
# Poissons Ratio (x) = 0.22748 0.31225
# Poissons Ratio (y) = 0.24869 0.15303
# Poissons Ratio (z) = 0.37906 0.16993
#
# Static dielectric constant tensor:
#      x y z
#    x 1.835500 0.000000 -0.086390 
#    y 0.000000 1.829340 0.000000 
#    z -0.086390 0.000000 1.919360 
# 
# From -- ./inp_files/16547.got.cif
#   From: 2010.05.17/outbox.cif.g08.bks.cpg/sg9_9_cif.got.tgz:16547.got - 2010.06.03 20:04:27.
