data_PCOD9139424
_publ_section_title
;
Structure prediction by ZEFSAII (Michael W. Deem and Ramdas Pophale) SiO2 
 PCOD9139424
Probable space group: C C
;
_chemical_formula_sum "Si O2"
_cell_formula_units_Z 20
_cell_length_a 13.021881
_cell_length_b 6.901151
_cell_length_c 17.578197
_cell_angle_alpha 90.000000
_cell_angle_beta 147.789837
_cell_angle_gamma 90.000000
_cell_volume 842.011978
_symmetry_space_group_name_H-M "C C"
_symmetry_group_IT_number 9
_symmetry_cell_setting 'monoclinic'
loop_
_space_group_symop_operation_xyz
x,y,z
x,-y,1/2+z
1/2+x,1/2+y,z
1/2+x,1/2-y,1/2+z
loop_
_atom_site_type_symbol
_atom_site_label
_atom_site_fract_x
_atom_site_fract_y
_atom_site_fract_z
Si Si1 0.288840 0.959897 0.613300
Si Si2 0.383731 0.303010 0.589186
Si Si3 0.132637 0.329380 0.568149
Si Si4 0.291520 0.892242 0.871945
Si Si5 0.415163 0.638848 0.804666
O O1 0.440441 0.105980 0.671382
O O2 0.166567 0.099521 0.594131
O O3 0.368372 0.776561 0.705090
O O4 0.138776 0.907384 0.453268
O O5 0.197388 0.371370 0.520456
O O6 0.337450 0.232388 0.476250
O O7 0.567071 0.437418 0.717600
O O8 0.289116 0.445445 0.715989
O O9 0.926607 0.418544 0.456026
O O10 0.355286 0.757352 0.841669
#
# Coordination Sequence:
#
# PCOD9139424 Si02
#       5
#     4   4   4   4   4
#     4  10  26  43  77 106 152 205 243 318 383 443
#     4  10  25  45  74 109 155 193 259 312 372 457
#     4  10  25  44  76 102 157 202 244 318 382 439
#     4  12  22  46  74 106 153 196 250 321 364 451
#     4  12  22  46  75 107 151 198 254 311 375 446
#
# _framework density 23.752632999999999
#
# number of rings (size 3 to 8) (size 9 to 14) (size 15 to 20)
#    1.200    0.000    4.000    1.200    5.600    0.000 
#    0.000   10.000    0.000    0.000    0.000    0.000 
#    0.000    0.000    0.000    0.000    0.000    0.000 
#
# Total GULP energy -55895.375245 kJ/mol
# GULP energy per Si atom -5589.537525 kJ/mol
# Density = 2.369857 g / cm^3
# Si number density = 23.752633 Si / 1000 Ang^3
#
#
#
# Elastic Constant Matrix: (Units=GPa)
#
#
# Indices 1 2 3 4 5 6 
#
# 1 63.1185 -2.5487 23.3849 0.0001 5.5431 0.0000
# 2 -2.5487 85.8440 48.6066 0.0000 3.1364 0.0000
# 3 23.3849 48.6066 110.5825 0.0002 4.1836 0.0001
# 4 0.0001 0.0000 0.0002 26.9613 0.0001 2.4406
# 5 5.5431 3.1364 4.1836 0.0001 33.0147 0.0000
# 6 0.0000 0.0000 0.0001 2.4406 0.0000 38.8830
#
#
#
# Elastic Compliance Matrix: (Units=1/GPa)
#
#
# Indices 1 2 3 4 5 6 
#
# 1 0.018220 0.003680 -0.005367 0.000000 -0.002729 0.000000
# 2 0.003680 0.016264 -0.007883 0.000000 -0.001164 0.000000
# 3 -0.005367 -0.007883 0.013646 0.000000 -0.000079 0.000000
# 4 0.000000 0.000000 0.000000 0.037302 0.000000 -0.002341
# 5 -0.002729 -0.001164 -0.000079 0.000000 0.030868 0.000000
# 6 0.000000 0.000000 0.000000 -0.002341 0.000000 0.025865
#
#
# Mechanical properties :
#
#
# Convention : Reuss Voigt Hill
#
# Bulk Modulus (GPa) = 34.49578 44.27008 39.38293
# Shear Modulus (GPa) = 29.24488 32.44529 30.84509
#
# Velocity S-wave (km/s) = 3.51269 3.69991 3.60751
# Velocity P-wave (km/s) = 5.56834 6.07708 5.82826
#
# Compressibility (1/GPa) = 0.02898905
#
# Stress axis : x y z
#
# Youngs Moduli (GPa) = 54.88510 61.48403 73.28136
#
# Poissons Ratio (x) = -0.22624 0.39331
# Poissons Ratio (y) = -0.20196 0.57769
# Poissons Ratio (z) = 0.29457 0.48469
#
# Static dielectric constant tensor:
#      x y z
#    x 1.947450 0.000000 0.018090 
#    y 0.000000 1.887090 0.000000 
#    z 0.018090 0.000000 1.898880 
# 
# From -- ./inp_files/11186.got.cif
#   From: 2010.05.17/outbox.cif.g08.bks.cpg/sg9_6_cif.got.tgz:11186.got - 2010.06.03 20:04:27.
