data_PCOD9140713
_publ_section_title
;
Structure prediction by ZEFSAII (Michael W. Deem and Ramdas Pophale) SiO2 
 PCOD9140713
Probable space group: C C
;
_chemical_formula_sum "Si O2"
_cell_formula_units_Z 28
_cell_length_a 8.936440
_cell_length_b 10.628051
_cell_length_c 14.572551
_cell_angle_alpha 90.000000
_cell_angle_beta 115.024743
_cell_angle_gamma 90.000000
_cell_volume 1254.128289
_symmetry_space_group_name_H-M "C C"
_symmetry_group_IT_number 9
_symmetry_cell_setting 'monoclinic'
loop_
_space_group_symop_operation_xyz
x,y,z
x,-y,1/2+z
1/2+x,1/2+y,z
1/2+x,1/2-y,1/2+z
loop_
_atom_site_type_symbol
_atom_site_label
_atom_site_fract_x
_atom_site_fract_y
_atom_site_fract_z
Si Si1 0.615490 0.624121 0.622200
Si Si2 0.346355 0.961961 0.802899
Si Si3 0.739234 0.900567 0.023476
Si Si4 0.603865 0.090142 0.127355
Si Si5 0.682242 0.959020 0.337171
Si Si6 0.239792 0.987801 0.475065
Si Si7 0.976233 0.223490 0.895204
O O1 0.700446 0.516677 0.705425
O O2 0.423180 0.630279 0.597977
O O3 0.668465 0.767815 0.652222
O O4 0.658956 0.579150 0.529880
O O5 0.497068 0.059280 0.827374
O O6 0.297528 0.948456 0.896057
O O7 0.421820 0.823467 0.802491
O O8 0.684035 0.026823 0.059111
O O9 0.591423 0.800730 0.997360
O O10 0.749287 0.927749 0.917450
O O11 0.660029 0.004847 0.227582
O O12 0.404633 0.076328 0.061824
O O13 0.808595 0.845203 0.381184
O O14 0.104079 0.887272 0.405497
#
# Coordination Sequence:
#
# PCOD9140713 Si02
#       7
#     4   4   4   4   4   4   4
#     4  12  28  46  77 107 147 195 245 296 372 435
#     4  11  28  46  71 112 145 191 245 299 367 435
#     4  11  26  46  72 109 145 194 236 306 369 427
#     4  12  27  46  74 107 147 188 251 295 363 444
#     4  11  25  48  69 107 148 191 237 305 364 425
#     4  12  25  46  74 108 143 196 235 307 366 427
#     4  11  25  48  73 102 153 183 245 302 365 429
#
# _framework density 22.326266
#
# number of rings (size 3 to 8) (size 9 to 14) (size 15 to 20)
#    0.000    0.571    7.143    0.000    8.000    2.286 
#    0.000    0.000    0.000    0.000    0.000    0.000 
#    0.000    0.000    0.000    0.000    0.000    0.000 
#
# Total GULP energy -78113.929342 kJ/mol
# GULP energy per Si atom -5579.566382 kJ/mol
# Density = 2.227545 g / cm^3
# Si number density = 22.326266 Si / 1000 Ang^3
#
#
#
# Elastic Constant Matrix: (Units=GPa)
#
#
# Indices 1 2 3 4 5 6 
#
# 1 110.1249 49.4533 41.0697 0.0000 16.6489 0.0000
# 2 49.4533 100.1666 28.9469 0.0000 10.5530 0.0000
# 3 41.0697 28.9469 98.1786 0.0000 2.2606 0.0000
# 4 0.0000 0.0000 0.0000 31.0231 0.0000 9.5881
# 5 16.6489 10.5530 2.2606 0.0000 29.1118 0.0000
# 6 0.0000 0.0000 0.0000 9.5881 0.0000 33.4719
#
#
#
# Elastic Compliance Matrix: (Units=1/GPa)
#
#
# Indices 1 2 3 4 5 6 
#
# 1 0.013726 -0.004976 -0.004143 0.000000 -0.005724 0.000000
# 2 -0.004976 0.013133 -0.001750 0.000000 -0.001779 0.000000
# 3 -0.004143 -0.001750 0.012387 0.000000 0.002041 0.000000
# 4 0.000000 0.000000 0.000000 0.035365 0.000000 -0.010130
# 5 -0.005724 -0.001779 0.002041 0.000000 0.038110 0.000000
# 6 0.000000 0.000000 0.000000 -0.010130 0.000000 0.032778
#
#
# Mechanical properties :
#
#
# Convention : Reuss Voigt Hill
#
# Bulk Modulus (GPa) = 57.11295 60.82333 58.96814
# Shear Modulus (GPa) = 28.88964 31.32135 30.10549
#
# Velocity S-wave (km/s) = 3.60109 3.74958 3.67609
# Velocity P-wave (km/s) = 6.55187 6.78586 6.66989
#
# Compressibility (1/GPa) = 0.01750916
#
# Stress axis : x y z
#
# Youngs Moduli (GPa) = 72.85669 76.14271 80.72783
#
# Poissons Ratio (x) = 0.37890 0.33443
# Poissons Ratio (y) = 0.36255 0.14124
# Poissons Ratio (z) = 0.30182 0.13322
#
# Static dielectric constant tensor:
#      x y z
#    x 1.840840 0.000000 0.023690 
#    y 0.000000 1.844160 0.000000 
#    z 0.023690 0.000000 1.851570 
# 
# From -- ./inp_files/22827.got.cif
#   From: 2010.05.17/outbox.cif.g08.bks.cpg/sg9_12_cif.got.tgz:22827.got - 2010.06.03 20:04:27.
