data_PCOD9140502
_publ_section_title
;
Structure prediction by ZEFSAII (Michael W. Deem and Ramdas Pophale) SiO2 
 PCOD9140502
Probable space group: C C
;
_chemical_formula_sum "Si O2"
_cell_formula_units_Z 32
_cell_length_a 17.502052
_cell_length_b 7.015091
_cell_length_c 13.660675
_cell_angle_alpha 90.000000
_cell_angle_beta 122.264359
_cell_angle_gamma 90.000000
_cell_volume 1418.261665
_symmetry_space_group_name_H-M "C C"
_symmetry_group_IT_number 9
_symmetry_cell_setting 'monoclinic'
loop_
_space_group_symop_operation_xyz
x,y,z
x,-y,1/2+z
1/2+x,1/2+y,z
1/2+x,1/2-y,1/2+z
loop_
_atom_site_type_symbol
_atom_site_label
_atom_site_fract_x
_atom_site_fract_y
_atom_site_fract_z
Si Si1 0.321870 0.101806 0.955030
Si Si2 0.683549 0.478345 0.700501
Si Si3 0.691022 0.787282 0.020707
Si Si4 0.242305 0.642032 0.177484
Si Si5 0.901248 0.403900 0.197721
Si Si6 0.493729 0.414876 0.667387
Si Si7 0.484774 0.282377 0.326678
Si Si8 0.880179 0.025823 0.414590
O O1 0.388642 0.248556 0.945499
O O2 0.261966 0.984521 0.836329
O O3 0.252152 0.231505 0.970362
O O4 0.370209 0.978903 0.070290
O O5 0.710325 0.358737 0.623260
O O6 0.670736 0.700515 0.661707
O O7 0.588876 0.405403 0.677475
O O8 0.711954 0.996140 0.075001
O O9 0.586660 0.765589 0.923961
O O10 0.324467 0.771519 0.192760
O O11 0.280975 0.524269 0.296993
O O12 0.928093 0.588421 0.278454
O O13 0.984284 0.263123 0.233397
O O14 0.486099 0.607258 0.724798
O O15 0.410337 0.421403 0.534123
O O16 0.442649 0.428850 0.375628
#
# Coordination Sequence:
#
# PCOD9140502 Si02
#       8
#     4   4   4   4   4   4   4   4
#     4  11  24  46  77 107 143 192 247 298 365 433
#     4  11  26  46  71 106 145 194 242 301 365 432
#     4  12  25  48  74 106 150 191 240 305 364 441
#     4  11  26  44  74 105 144 193 243 296 363 428
#     4  12  26  45  75 106 144 194 240 302 364 429
#     4  12  25  47  70 109 146 192 242 303 361 433
#     4  12  26  47  73 106 151 186 241 305 370 431
#     4  11  24  47  74 103 145 188 241 304 354 433
#
# _framework density 22.562830000000002
#
# number of rings (size 3 to 8) (size 9 to 14) (size 15 to 20)
#    0.000    0.500    6.250    1.500    1.750    5.000 
#    0.000    0.000    0.000    0.000    0.000    0.000 
#    0.000    0.000    0.000    0.000    0.000    0.000 
#
# Total GULP energy -89511.029995 kJ/mol
# GULP energy per Si atom -5594.439375 kJ/mol
# Density = 2.251148 g / cm^3
# Si number density = 22.562830 Si / 1000 Ang^3
#
#
#
# Elastic Constant Matrix: (Units=GPa)
#
#
# Indices 1 2 3 4 5 6 
#
# 1 91.1471 55.6701 19.2625 0.0000 -4.8264 0.0000
# 2 55.6701 100.9226 52.1479 0.0000 5.4194 0.0000
# 3 19.2625 52.1479 105.0454 0.0000 -6.8072 0.0000
# 4 0.0000 0.0000 0.0000 36.6654 0.0000 -2.9792
# 5 -4.8264 5.4194 -6.8072 0.0000 28.1450 0.0000
# 6 0.0000 0.0000 0.0000 -2.9792 0.0000 35.1769
#
#
#
# Elastic Compliance Matrix: (Units=1/GPa)
#
#
# Indices 1 2 3 4 5 6 
#
# 1 0.017776 -0.011625 0.002900 0.000000 0.005988 0.000000
# 2 -0.011625 0.021445 -0.009053 0.000000 -0.008312 0.000000
# 3 0.002900 -0.009053 0.013844 0.000000 0.005589 0.000000
# 4 0.000000 0.000000 0.000000 0.027463 0.000000 0.002326
# 5 0.005988 -0.008312 0.005589 0.000000 0.039509 0.000000
# 6 0.000000 0.000000 0.000000 0.002326 0.000000 0.028625
#
#
# Mechanical properties :
#
#
# Convention : Reuss Voigt Hill
#
# Bulk Modulus (GPa) = 57.11605 61.25290 59.18447
# Shear Modulus (GPa) = 26.30803 31.33310 28.82057
#
# Velocity S-wave (km/s) = 3.41836 3.73058 3.57788
# Velocity P-wave (km/s) = 6.39918 6.76483 6.58454
#
# Compressibility (1/GPa) = 0.01750821
#
# Stress axis : x y z
#
# Youngs Moduli (GPa) = 56.25590 46.63012 72.23134
#
# Poissons Ratio (x) = 0.54208 -0.20944
# Poissons Ratio (y) = 0.65398 0.65392
# Poissons Ratio (z) = -0.16311 0.42215
#
# Static dielectric constant tensor:
#      x y z
#    x 1.830350 0.000000 -0.007360 
#    y 0.000000 1.856490 0.000000 
#    z -0.007360 0.000000 1.842460 
# 
# From -- ./inp_files/26401.got.cif
#   From: 2010.05.17/outbox.cif.g08.bks.cpg/sg9_14_cif.got.tgz:26401.got - 2010.06.03 20:04:27.
