data_PCOD9140323
_publ_section_title
;
Structure prediction by ZEFSAII (Michael W. Deem and Ramdas Pophale) SiO2 
 PCOD9140323
Probable space group: C C
;
_chemical_formula_sum "Si O2"
_cell_formula_units_Z 32
_cell_length_a 14.951737
_cell_length_b 17.558762
_cell_length_c 11.567010
_cell_angle_alpha 90.000000
_cell_angle_beta 153.000976
_cell_angle_gamma 90.000000
_cell_volume 1378.601980
_symmetry_space_group_name_H-M "C C"
_symmetry_group_IT_number 9
_symmetry_cell_setting 'monoclinic'
loop_
_space_group_symop_operation_xyz
x,y,z
x,-y,1/2+z
1/2+x,1/2+y,z
1/2+x,1/2-y,1/2+z
loop_
_atom_site_type_symbol
_atom_site_label
_atom_site_fract_x
_atom_site_fract_y
_atom_site_fract_z
Si Si1 0.107190 0.585877 0.114990
Si Si2 0.009748 0.812862 0.555446
Si Si3 0.447283 0.681786 0.395805
Si Si4 0.800023 0.382225 0.455781
Si Si5 0.341690 0.162384 0.267576
Si Si6 0.414840 0.953335 0.165081
Si Si7 0.700333 0.072069 0.798776
Si Si8 0.711060 0.690626 0.495934
O O1 0.249163 0.644285 0.214462
O O2 0.238459 0.514355 0.303753
O O3 0.985243 0.622258 0.080394
O O4 0.954962 0.548432 0.848323
O O5 0.143699 0.852498 0.612292
O O6 0.881668 0.750688 0.341234
O O7 0.879145 0.874325 0.471762
O O8 0.109870 0.762634 0.775785
O O9 0.614449 0.661624 0.684051
O O10 0.555611 0.653939 0.404677
O O11 0.366863 0.763473 0.253635
O O12 0.830673 0.348396 0.618028
O O13 0.800304 0.473998 0.482444
O O14 0.515205 0.109480 0.517480
O O15 0.621702 0.940873 0.338064
O O16 0.301251 0.874942 0.021343
#
# Coordination Sequence:
#
# PCOD9140323 Si02
#       8
#     4   4   4   4   4   4   4   4
#     4  11  25  50  75 110 153 201 258 317 381 466
#     4  12  26  45  75 111 148 199 258 319 378 453
#     4  12  28  48  77 115 156 205 253 320 396 456
#     4  11  28  50  75 110 159 202 252 311 395 462
#     4  12  25  47  69 107 156 193 248 314 385 458
#     4  11  23  49  78 107 154 194 251 327 371 456
#     4  11  25  45  75 109 147 197 258 317 386 448
#     4  12  26  46  80 113 151 195 264 313 384 457
#
# _framework density 23.211921
#
# number of rings (size 3 to 8) (size 9 to 14) (size 15 to 20)
#    0.000    0.500    5.000    2.250    3.500    3.000 
#    0.000    0.000    0.000    0.000    0.000    0.000 
#    0.000    0.000    0.000    0.000    0.000    0.000 
#
# Total GULP energy -89306.212982 kJ/mol
# GULP energy per Si atom -5581.638311 kJ/mol
# Density = 2.315909 g / cm^3
# Si number density = 23.211921 Si / 1000 Ang^3
#
#
#
# Elastic Constant Matrix: (Units=GPa)
#
#
# Indices 1 2 3 4 5 6 
#
# 1 146.7178 51.8138 57.4688 0.0000 -20.0238 0.0000
# 2 51.8138 86.7316 41.3731 0.0000 0.1893 0.0000
# 3 57.4688 41.3731 90.5203 0.0000 -6.1665 0.0000
# 4 0.0000 0.0000 0.0000 29.6453 0.0000 -0.5471
# 5 -20.0238 0.1893 -6.1665 0.0000 43.2100 0.0000
# 6 0.0000 0.0000 0.0000 -0.5471 0.0000 44.2592
#
#
#
# Elastic Compliance Matrix: (Units=1/GPa)
#
#
# Indices 1 2 3 4 5 6 
#
# 1 0.010679 -0.004214 -0.004560 0.000000 0.004317 0.000000
# 2 -0.004214 0.016454 -0.005032 0.000000 -0.002743 0.000000
# 3 -0.004560 -0.005032 0.016258 0.000000 0.000229 0.000000
# 4 0.000000 0.000000 0.000000 0.033740 0.000000 0.000417
# 5 0.004317 -0.002743 0.000229 0.000000 0.025188 0.000000
# 6 0.000000 0.000000 0.000000 0.000417 0.000000 0.022599
#
#
# Mechanical properties :
#
#
# Convention : Reuss Voigt Hill
#
# Bulk Modulus (GPa) = 63.37485 69.47568 66.42527
# Shear Modulus (GPa) = 31.68809 34.97718 33.33264
#
# Velocity S-wave (km/s) = 3.69882 3.88604 3.79359
# Velocity P-wave (km/s) = 6.75305 7.08033 6.91863
#
# Compressibility (1/GPa) = 0.01577913
#
# Stress axis : x y z
#
# Youngs Moduli (GPa) = 93.64021 60.77714 61.51005
#
# Poissons Ratio (x) = 0.25612 0.28047
# Poissons Ratio (y) = 0.39461 0.30950
# Poissons Ratio (z) = 0.42698 0.30581
#
# Static dielectric constant tensor:
#      x y z
#    x 1.838180 0.000000 0.010400 
#    y 0.000000 1.962010 0.000000 
#    z 0.010400 0.000000 2.029560 
# 
# From -- ./inp_files/18561.got.cif
#   From: 2010.05.17/outbox.cif.g08.bks.cpg/sg9_10_cif.got.tgz:18561.got - 2010.06.03 20:04:27.
