data_PCOD9140269
_publ_section_title
;
Structure prediction by ZEFSAII (Michael W. Deem and Ramdas Pophale) SiO2 
 PCOD9140269
Probable space group: C C
;
_chemical_formula_sum "Si O2"
_cell_formula_units_Z 32
_cell_length_a 9.130122
_cell_length_b 17.172359
_cell_length_c 10.564899
_cell_angle_alpha 90.000000
_cell_angle_beta 112.371985
_cell_angle_gamma 90.000000
_cell_volume 1531.750014
_symmetry_space_group_name_H-M "C C"
_symmetry_group_IT_number 9
_symmetry_cell_setting 'monoclinic'
loop_
_space_group_symop_operation_xyz
x,y,z
x,-y,1/2+z
1/2+x,1/2+y,z
1/2+x,1/2-y,1/2+z
loop_
_atom_site_type_symbol
_atom_site_label
_atom_site_fract_x
_atom_site_fract_y
_atom_site_fract_z
Si Si1 0.392530 0.821798 0.625000
Si Si2 0.704201 0.432600 0.385994
Si Si3 0.335564 0.210965 0.528740
Si Si4 0.116686 0.188478 0.238725
Si Si5 0.975688 0.056641 0.365249
Si Si6 0.059963 0.838426 0.118099
Si Si7 0.118757 0.540536 0.265620
Si Si8 0.478339 0.048711 0.485728
O O1 0.303888 0.862513 0.478767
O O2 0.258180 0.823442 0.687269
O O3 0.459291 0.736378 0.623480
O O4 0.540547 0.875965 0.710012
O O5 0.587330 0.483520 0.435362
O O6 0.595247 0.396550 0.243148
O O7 0.832528 0.496534 0.387544
O O8 0.201708 0.236574 0.381770
O O9 0.470327 0.269266 0.621331
O O10 0.229596 0.185172 0.613511
O O11 0.422275 0.136991 0.491583
O O12 0.052849 0.108226 0.278721
O O13 0.798161 0.032358 0.280178
O O14 0.969546 0.115334 0.479944
O O15 0.103088 0.534889 0.413139
O O16 0.023823 0.482735 0.140367
#
# Coordination Sequence:
#
# PCOD9140269 Si02
#       8
#     4   4   4   4   4   4   4   4
#     4  11  26  43  72 103 144 184 239 302 366 433
#     4  11  25  44  73  98 140 194 232 293 368 438
#     4  11  24  45  72 100 146 186 241 304 370 438
#     4  11  25  44  71 101 145 187 241 299 376 430
#     4  11  26  46  70 101 144 187 240 302 355 453
#     4  11  26  44  73 103 141 185 241 295 373 436
#     4  11  25  43  72 104 144 184 251 299 365 435
#     4  11  23  47  69 102 142 197 237 304 367 447
#
# _framework density 20.891137000000001
#
# number of rings (size 3 to 8) (size 9 to 14) (size 15 to 20)
#    0.000    1.000    3.750    1.500   14.000    0.000 
#    2.250    0.000    0.000    0.000    0.000    0.000 
#    0.000    0.000    0.000    0.000    0.000    0.000 
#
# Total GULP energy -89313.424025 kJ/mol
# GULP energy per Si atom -5582.089002 kJ/mol
# Density = 2.084359 g / cm^3
# Si number density = 20.891137 Si / 1000 Ang^3
#
#
#
# Elastic Constant Matrix: (Units=GPa)
#
#
# Indices 1 2 3 4 5 6 
#
# 1 77.1867 14.7117 15.1620 0.0000 8.7022 0.0000
# 2 14.7117 45.8556 12.4937 0.0000 6.2580 0.0000
# 3 15.1620 12.4937 38.2108 0.0000 -5.4176 0.0000
# 4 0.0000 0.0000 0.0000 28.2874 0.0000 8.0426
# 5 8.7022 6.2580 -5.4176 0.0000 35.8237 0.0000
# 6 0.0000 0.0000 0.0000 8.0426 0.0000 21.7798
#
#
#
# Elastic Compliance Matrix: (Units=1/GPa)
#
#
# Indices 1 2 3 4 5 6 
#
# 1 0.015040 -0.002738 -0.005644 0.000000 -0.004029 0.000000
# 2 -0.002738 0.025541 -0.007974 0.000000 -0.005003 0.000000
# 3 -0.005644 -0.007974 0.032098 0.000000 0.007618 0.000000
# 4 0.000000 0.000000 0.000000 0.039498 0.000000 -0.014585
# 5 -0.004029 -0.005003 0.007618 0.000000 0.030919 0.000000
# 6 0.000000 0.000000 0.000000 -0.014585 0.000000 0.051300
#
#
# Mechanical properties :
#
#
# Convention : Reuss Voigt Hill
#
# Bulk Modulus (GPa) = 25.02047 27.33200 26.17624
# Shear Modulus (GPa) = 20.79600 25.10389 22.94995
#
# Velocity S-wave (km/s) = 3.15849 3.47025 3.31803
# Velocity P-wave (km/s) = 5.03031 5.40077 5.21883
#
# Compressibility (1/GPa) = 0.03996727
#
# Stress axis : x y z
#
# Youngs Moduli (GPa) = 66.48805 39.15234 31.15504
#
# Poissons Ratio (x) = 0.10719 0.17584
# Poissons Ratio (y) = 0.18203 0.24843
# Poissons Ratio (z) = 0.37526 0.31221
#
# Static dielectric constant tensor:
#      x y z
#    x 1.775280 0.000000 -0.016600 
#    y 0.000000 1.724100 0.000000 
#    z -0.016600 0.000000 1.781110 
# 
# From -- ./inp_files/14703.got.cif
#   From: 2010.05.17/outbox.cif.g08.bks.cpg/sg9_8_cif.got.tgz:14703.got - 2010.06.03 20:04:27.
