data_PCOD9140570
_publ_section_title
;
Structure prediction by ZEFSAII (Michael W. Deem and Ramdas Pophale) SiO2 
 PCOD9140570
Probable space group: C C
;
_chemical_formula_sum "Si O2"
_cell_formula_units_Z 32
_cell_length_a 14.313393
_cell_length_b 12.578047
_cell_length_c 10.598224
_cell_angle_alpha 90.000000
_cell_angle_beta 42.207816
_cell_angle_gamma 90.000000
_cell_volume 1281.866778
_symmetry_space_group_name_H-M "C C"
_symmetry_group_IT_number 9
_symmetry_cell_setting 'monoclinic'
loop_
_space_group_symop_operation_xyz
x,y,z
x,-y,1/2+z
1/2+x,1/2+y,z
1/2+x,1/2-y,1/2+z
loop_
_atom_site_type_symbol
_atom_site_label
_atom_site_fract_x
_atom_site_fract_y
_atom_site_fract_z
Si Si1 0.025550 0.167083 0.562360
Si Si2 0.330022 0.465828 0.767477
Si Si3 0.175000 0.461494 0.177628
Si Si4 0.182980 0.132111 0.637512
Si Si5 0.949466 0.394384 0.010248
Si Si6 0.781775 0.270495 0.649312
Si Si7 0.786441 0.411237 0.423935
Si Si8 0.546718 0.312747 0.514787
O O1 0.102711 0.202000 0.614447
O O2 0.154713 0.162393 0.336358
O O3 0.902221 0.239987 0.629410
O O4 0.950869 0.054553 0.662763
O O5 0.269811 0.481205 0.688688
O O6 0.398088 0.349985 0.712280
O O7 0.220696 0.483309 0.988874
O O8 0.207944 0.338376 0.176158
O O9 0.026261 0.515091 0.354870
O O10 0.877621 0.436390 0.209683
O O11 0.330660 0.167255 0.548851
O O12 0.223518 0.020031 0.537307
O O13 0.082627 0.117132 0.856401
O O14 0.053540 0.305871 0.958080
O O15 0.850830 0.338463 0.468786
O O16 0.658787 0.338964 0.505881
#
# Coordination Sequence:
#
# PCOD9140570 Si02
#       8
#     4   4   4   4   4   4   4   4
#     4  11  26  48  75 115 148 199 251 318 380 445
#     4  11  24  48  75 105 149 205 254 314 378 464
#     4  11  28  46  74 110 156 199 253 322 383 451
#     4  11  26  48  76 110 153 196 250 320 377 457
#     4  11  29  46  75 112 154 199 251 318 385 447
#     4  11  28  46  82 114 151 201 260 316 377 458
#     4  11  26  48  79 107 146 201 256 311 372 465
#     4  11  25  46  76 107 147 200 253 307 382 457
#
# _framework density 24.963591000000001
#
# number of rings (size 3 to 8) (size 9 to 14) (size 15 to 20)
#    0.000    1.000    1.250    2.250   17.500    2.000 
#    0.000    0.000    0.000    0.000    0.000    0.000 
#    0.000    0.000    0.000    0.000    0.000    0.000 
#
# Total GULP energy -89583.097168 kJ/mol
# GULP energy per Si atom -5598.943573 kJ/mol
# Density = 2.490677 g / cm^3
# Si number density = 24.963591 Si / 1000 Ang^3
#
#
#
# Elastic Constant Matrix: (Units=GPa)
#
#
# Indices 1 2 3 4 5 6 
#
# 1 90.4044 11.4571 12.5091 0.0000 -6.2546 0.0000
# 2 11.4571 88.7382 37.1929 0.0000 0.1544 0.0000
# 3 12.5091 37.1929 92.0676 0.0000 -6.3886 0.0000
# 4 0.0000 0.0000 0.0000 34.2055 0.0000 -6.1768
# 5 -6.2546 0.1544 -6.3886 0.0000 29.3132 0.0000
# 6 0.0000 0.0000 0.0000 -6.1768 0.0000 27.0397
#
#
#
# Elastic Compliance Matrix: (Units=1/GPa)
#
#
# Indices 1 2 3 4 5 6 
#
# 1 0.011488 -0.001081 -0.000968 0.000000 0.002246 0.000000
# 2 -0.001081 0.013716 -0.005498 0.000000 -0.001501 0.000000
# 3 -0.000968 -0.005498 0.013405 0.000000 0.002744 0.000000
# 4 0.000000 0.000000 0.000000 0.030493 0.000000 0.006966
# 5 0.002246 -0.001501 0.002744 0.000000 0.035199 0.000000
# 6 0.000000 0.000000 0.000000 0.006966 0.000000 0.038574
#
#
# Mechanical properties :
#
#
# Convention : Reuss Voigt Hill
#
# Bulk Modulus (GPa) = 42.52961 43.72538 43.12749
# Shear Modulus (GPa) = 30.15552 32.11508 31.13530
#
# Velocity S-wave (km/s) = 3.47937 3.59064 3.53544
# Velocity P-wave (km/s) = 5.76325 5.89440 5.82919
#
# Compressibility (1/GPa) = 0.02351303
#
# Stress axis : x y z
#
# Youngs Moduli (GPa) = 87.04897 72.90902 74.60132
#
# Poissons Ratio (x) = 0.07884 0.07223
# Poissons Ratio (y) = 0.09413 0.41016
# Poissons Ratio (z) = 0.08428 0.40086
#
# Static dielectric constant tensor:
#      x y z
#    x 2.024390 0.000000 -0.019930 
#    y 0.000000 1.935690 0.000000 
#    z -0.019930 0.000000 1.964950 
# 
# From -- ./inp_files/16872.got.cif
#   From: 2010.05.17/outbox.cif.g08.bks.cpg/sg9_9_cif.got.tgz:16872.got - 2010.06.03 20:04:27.
