data_PCOD9140884
_publ_section_title
;
Structure prediction by ZEFSAII (Michael W. Deem and Ramdas Pophale) SiO2 
 PCOD9140884
Probable space group: C C
;
_chemical_formula_sum "Si O2"
_cell_formula_units_Z 20
_cell_length_a 5.101679
_cell_length_b 17.483252
_cell_length_c 9.434998
_cell_angle_alpha 90.000000
_cell_angle_beta 117.599328
_cell_angle_gamma 90.000000
_cell_volume 745.784446
_symmetry_space_group_name_H-M "C C"
_symmetry_group_IT_number 9
_symmetry_cell_setting 'monoclinic'
loop_
_space_group_symop_operation_xyz
x,y,z
x,-y,1/2+z
1/2+x,1/2+y,z
1/2+x,1/2-y,1/2+z
loop_
_atom_site_type_symbol
_atom_site_label
_atom_site_fract_x
_atom_site_fract_y
_atom_site_fract_z
Si Si1 0.667750 0.162751 0.325380
Si Si2 0.723260 0.363106 0.132330
Si Si3 0.878625 0.817346 0.327588
Si Si4 0.317249 0.008484 0.292395
Si Si5 0.756231 0.094689 0.073718
O O1 0.510045 0.232881 0.361307
O O2 0.518712 0.083292 0.332722
O O3 0.645503 0.161412 0.149884
O O4 0.009051 0.161919 0.454715
O O5 0.531678 0.354107 0.228063
O O6 0.807374 0.452795 0.152005
O O7 0.026301 0.317377 0.217387
O O8 0.919934 0.866843 0.480488
O O9 0.984095 0.040804 0.216842
O O10 0.484878 0.954138 0.445640
#
# Coordination Sequence:
#
# PCOD9140884 Si02
#       5
#     4   4   4   4   4
#     4  12  30  53  88 124 176 231 286 363 434 513
#     4  11  29  54  86 125 176 224 295 352 433 519
#     4  11  31  57  82 127 175 230 289 357 428 523
#     4  11  27  50  84 126 170 220 289 357 434 504
#     4  11  29  52  90 124 173 227 297 355 439 513
#
# _framework density 26.817399000000002
#
# number of rings (size 3 to 8) (size 9 to 14) (size 15 to 20)
#    0.000    0.800    2.000    0.000   22.400    0.000 
#    0.000    4.000    0.000    0.000    0.000    0.000 
#    0.000    0.000    0.000    0.000    0.000    0.000 
#
# Total GULP energy -56134.078367 kJ/mol
# GULP energy per Si atom -5613.407837 kJ/mol
# Density = 2.675636 g / cm^3
# Si number density = 26.817399 Si / 1000 Ang^3
#
#
#
# Elastic Constant Matrix: (Units=GPa)
#
#
# Indices 1 2 3 4 5 6 
#
# 1 141.4047 45.1111 83.8278 0.0000 17.7276 0.0000
# 2 45.1111 155.4112 61.1551 0.0000 9.4758 0.0000
# 3 83.8278 61.1551 124.0154 0.0000 7.1967 0.0000
# 4 0.0000 0.0000 0.0000 33.8172 0.0000 2.9784
# 5 17.7276 9.4758 7.1967 0.0000 69.9198 0.0000
# 6 0.0000 0.0000 0.0000 2.9784 0.0000 34.5107
#
#
#
# Elastic Compliance Matrix: (Units=1/GPa)
#
#
# Indices 1 2 3 4 5 6 
#
# 1 0.012150 -0.000261 -0.007955 0.000000 -0.002226 0.000000
# 2 -0.000261 0.008022 -0.003743 0.000000 -0.000636 0.000000
# 3 -0.007955 -0.003743 0.015231 0.000000 0.000956 0.000000
# 4 0.000000 0.000000 0.000000 0.029797 0.000000 -0.002572
# 5 -0.002226 -0.000636 0.000956 0.000000 0.014854 0.000000
# 6 0.000000 0.000000 0.000000 -0.002572 0.000000 0.029198
#
#
# Mechanical properties :
#
#
# Convention : Reuss Voigt Hill
#
# Bulk Modulus (GPa) = 87.06337 89.00216 88.03277
# Shear Modulus (GPa) = 36.49687 43.03204 39.76445
#
# Velocity S-wave (km/s) = 3.69309 4.01013 3.85487
# Velocity P-wave (km/s) = 7.12187 7.39607 7.26026
#
# Compressibility (1/GPa) = 0.01148589
#
# Stress axis : x y z
#
# Youngs Moduli (GPa) = 82.30345 124.66167 65.65641
#
# Poissons Ratio (x) = 0.03250 0.52230
# Poissons Ratio (y) = 0.02146 0.24573
# Poissons Ratio (z) = 0.65473 0.46656
#
# Static dielectric constant tensor:
#      x y z
#    x 2.031830 0.000000 -0.038820 
#    y 0.000000 2.090810 0.000000 
#    z -0.038820 0.000000 2.097310 
# 
# From -- ./inp_files/3625.got.cif
#   From: 2010.05.17/outbox.cif.g08.bks.cpg/sg9_2_cif.got.tgz:3625.got - 2010.06.03 20:04:27.
