data_PCOD9140481
_publ_section_title
;
Structure prediction by ZEFSAII (Michael W. Deem and Ramdas Pophale) SiO2 
 PCOD9140481
Probable space group: C C
;
_chemical_formula_sum "Si O2"
_cell_formula_units_Z 32
_cell_length_a 8.500967
_cell_length_b 14.742786
_cell_length_c 15.865960
_cell_angle_alpha 90.000000
_cell_angle_beta 135.537603
_cell_angle_gamma 90.000000
_cell_volume 1392.790553
_symmetry_space_group_name_H-M "C C"
_symmetry_group_IT_number 9
_symmetry_cell_setting 'monoclinic'
loop_
_space_group_symop_operation_xyz
x,y,z
x,-y,1/2+z
1/2+x,1/2+y,z
1/2+x,1/2-y,1/2+z
loop_
_atom_site_type_symbol
_atom_site_label
_atom_site_fract_x
_atom_site_fract_y
_atom_site_fract_z
Si Si1 0.026660 0.715240 0.444280
Si Si2 0.893081 0.890597 0.452633
Si Si3 0.196201 0.081368 0.219588
Si Si4 0.408301 0.888975 0.250971
Si Si5 0.446194 0.093163 0.562981
Si Si6 0.221822 0.419998 0.635646
Si Si7 0.010613 0.233646 0.554994
Si Si8 0.444824 0.582749 0.392297
O O1 0.984192 0.684576 0.524746
O O2 0.288004 0.717760 0.523724
O O3 0.936408 0.817070 0.396846
O O4 0.883348 0.645282 0.333027
O O5 0.641364 0.869603 0.387272
O O6 0.104092 0.882651 0.595168
O O7 0.883076 0.995448 0.423396
O O8 0.963962 0.080868 0.183700
O O9 0.296141 0.981207 0.241975
O O10 0.465951 0.899986 0.172158
O O11 0.228954 0.808256 0.184713
O O12 0.190661 0.062763 0.448897
O O13 0.608105 0.017780 0.585286
O O14 0.062203 0.336757 0.550663
O O15 0.265903 0.405714 0.751563
O O16 0.974413 0.171298 0.459449
#
# Coordination Sequence:
#
# PCOD9140481 Si02
#       8
#     4   4   4   4   4   4   4   4
#     4  12  28  45  74 110 146 189 252 302 362 446
#     4  12  26  47  76 103 146 196 242 298 373 431
#     4  12  27  45  75 107 149 189 247 298 370 435
#     4  11  25  47  75 100 148 193 233 305 370 426
#     4  11  24  46  72 103 146 185 240 297 365 428
#     4  12  26  45  74 109 144 195 244 298 367 440
#     4  11  26  46  71 109 143 192 242 305 364 432
#     4  11  24  49  69 103 150 189 238 305 369 434
#
# _framework density 22.975456999999999
#
# number of rings (size 3 to 8) (size 9 to 14) (size 15 to 20)
#    0.000    0.500    5.000    3.000    7.000    0.000 
#    0.000    0.000    0.000    0.000    0.000    0.000 
#    0.000    0.000    0.000    0.000    0.000    0.000 
#
# Total GULP energy -89524.119811 kJ/mol
# GULP energy per Si atom -5595.257488 kJ/mol
# Density = 2.292316 g / cm^3
# Si number density = 22.975457 Si / 1000 Ang^3
#
#
#
# Elastic Constant Matrix: (Units=GPa)
#
#
# Indices 1 2 3 4 5 6 
#
# 1 82.4990 9.5244 18.6410 0.0000 24.6352 0.0000
# 2 9.5244 79.5503 17.3954 0.0000 -1.5683 0.0000
# 3 18.6410 17.3954 51.7459 0.0000 8.9880 0.0000
# 4 0.0000 0.0000 0.0000 23.0373 0.0000 11.4051
# 5 24.6352 -1.5683 8.9880 0.0000 45.5409 0.0000
# 6 0.0000 0.0000 0.0000 11.4051 0.0000 33.3220
#
#
#
# Elastic Compliance Matrix: (Units=1/GPa)
#
#
# Indices 1 2 3 4 5 6 
#
# 1 0.015394 -0.001154 -0.003836 0.000000 -0.007610 0.000000
# 2 -0.001154 0.013743 -0.004551 0.000000 0.001996 0.000000
# 3 -0.003836 -0.004551 0.022681 0.000000 -0.002558 0.000000
# 4 0.000000 0.000000 0.000000 0.052264 0.000000 -0.017888
# 5 -0.007610 0.001996 -0.002558 0.000000 0.026649 0.000000
# 6 0.000000 0.000000 0.000000 -0.017888 0.000000 0.036133
#
#
# Mechanical properties :
#
#
# Convention : Reuss Voigt Hill
#
# Bulk Modulus (GPa) = 30.54691 33.87964 32.21327
# Shear Modulus (GPa) = 25.39909 31.59568 28.49738
#
# Velocity S-wave (km/s) = 3.32850 3.71238 3.52567
# Velocity P-wave (km/s) = 5.30058 5.75793 5.53398
#
# Compressibility (1/GPa) = 0.03273654
#
# Stress axis : x y z
#
# Youngs Moduli (GPa) = 64.96150 72.76236 44.08943
#
# Poissons Ratio (x) = 0.08399 0.16911
# Poissons Ratio (y) = 0.07499 0.20065
# Poissons Ratio (z) = 0.24917 0.33114
#
# Static dielectric constant tensor:
#      x y z
#    x 1.892200 0.000000 -0.037430 
#    y 0.000000 1.820210 0.000000 
#    z -0.037430 0.000000 1.868000 
# 
# From -- ./inp_files/29442.got.cif
#   From: 2010.05.17/outbox.cif.g08.bks.cpg/sg9_15_cif.got.tgz:29442.got - 2010.06.03 20:04:27.
