data_PCOD9140670
_publ_section_title
;
Structure prediction by ZEFSAII (Michael W. Deem and Ramdas Pophale) SiO2 
 PCOD9140670
Probable space group: C C
;
_chemical_formula_sum "Si O2"
_cell_formula_units_Z 20
_cell_length_a 4.922164
_cell_length_b 22.244884
_cell_length_c 7.620456
_cell_angle_alpha 90.000000
_cell_angle_beta 66.747196
_cell_angle_gamma 90.000000
_cell_volume 766.610714
_symmetry_space_group_name_H-M "C C"
_symmetry_group_IT_number 9
_symmetry_cell_setting 'monoclinic'
loop_
_space_group_symop_operation_xyz
x,y,z
x,-y,1/2+z
1/2+x,1/2+y,z
1/2+x,1/2-y,1/2+z
loop_
_atom_site_type_symbol
_atom_site_label
_atom_site_fract_x
_atom_site_fract_y
_atom_site_fract_z
Si Si1 0.617740 0.371981 0.629680
Si Si2 0.699730 0.320209 0.999061
Si Si3 0.240085 0.679332 0.924289
Si Si4 0.978696 0.431080 0.057679
Si Si5 0.607109 0.516213 0.349254
O O1 0.620757 0.342660 0.823870
O O2 0.354949 0.354475 0.568147
O O3 0.614976 0.442701 0.670535
O O4 0.914115 0.345012 0.470199
O O5 0.757197 0.249674 0.967924
O O6 0.961235 0.360365 0.018562
O O7 0.435149 0.330271 0.202912
O O8 0.865526 0.458450 0.903974
O O9 0.290813 0.464171 0.012612
O O10 0.722221 0.451149 0.259322
#
# Coordination Sequence:
#
# PCOD9140670 Si02
#       5
#     4   4   4   4   4
#     4  11  27  47  69 106 143 188 244 297 355 426
#     4  11  27  47  72 107 146 188 245 292 362 430
#     4  12  27  43  77  99 145 195 236 296 366 423
#     4  11  26  45  73 104 142 184 239 295 359 426
#     4  11  25  46  73 100 146 179 242 298 356 423
#
# _framework density 26.088858999999999
#
# number of rings (size 3 to 8) (size 9 to 14) (size 15 to 20)
#    0.000    0.800    2.000    3.600    8.400    6.400 
#    0.000    0.000    0.000    0.000    0.000    0.000 
#    0.000    0.000    0.000    0.000    0.000    0.000 
#
# Total GULP energy -56028.744842 kJ/mol
# GULP energy per Si atom -5602.874484 kJ/mol
# Density = 2.602948 g / cm^3
# Si number density = 26.088859 Si / 1000 Ang^3
#
#
#
# Elastic Constant Matrix: (Units=GPa)
#
#
# Indices 1 2 3 4 5 6 
#
# 1 101.0764 25.2088 6.9014 0.0000 -9.7584 0.0000
# 2 25.2088 121.3995 0.9210 0.0000 -15.9699 0.0000
# 3 6.9014 0.9210 151.5788 0.0000 -16.2382 0.0000
# 4 0.0000 0.0000 0.0000 31.6140 0.0000 1.0599
# 5 -9.7584 -15.9699 -16.2382 0.0000 51.1284 0.0000
# 6 0.0000 0.0000 0.0000 1.0599 0.0000 25.4892
#
#
#
# Elastic Compliance Matrix: (Units=1/GPa)
#
#
# Indices 1 2 3 4 5 6 
#
# 1 0.010543 -0.002019 -0.000331 0.000000 0.001277 0.000000
# 2 -0.002019 0.008985 0.000307 0.000000 0.002519 0.000000
# 3 -0.000331 0.000307 0.006847 0.000000 0.002207 0.000000
# 4 0.000000 0.000000 0.000000 0.031676 0.000000 -0.001317
# 5 0.001277 0.002519 0.002207 0.000000 0.021290 0.000000
# 6 0.000000 0.000000 0.000000 -0.001317 0.000000 0.039287
#
#
# Mechanical properties :
#
#
# Convention : Reuss Voigt Hill
#
# Bulk Modulus (GPa) = 44.86326 48.90188 46.88257
# Shear Modulus (GPa) = 38.41917 44.38122 41.40020
#
# Velocity S-wave (km/s) = 3.84165 4.12898 3.98790
# Velocity P-wave (km/s) = 6.07547 6.44332 6.26210
#
# Compressibility (1/GPa) = 0.02228995
#
# Stress axis : x y z
#
# Youngs Moduli (GPa) = 94.85102 111.29049 146.05162
#
# Poissons Ratio (x) = 0.22467 0.04834
# Poissons Ratio (y) = 0.19149 -0.04486
# Poissons Ratio (z) = 0.03140 -0.03418
#
# Static dielectric constant tensor:
#      x y z
#    x 1.950140 0.000000 -0.023310 
#    y 0.000000 2.226150 0.000000 
#    z -0.023310 0.000000 2.090960 
# 
# From -- ./inp_files/3741.got.cif
#   From: 2010.05.17/outbox.cif.g08.bks.cpg/sg9_2_cif.got.tgz:3741.got - 2010.06.03 20:04:27.
