data_PCOD9140856
_publ_section_title
;
Structure prediction by ZEFSAII (Michael W. Deem and Ramdas Pophale) SiO2 
 PCOD9140856
Probable space group: C C
;
_chemical_formula_sum "Si O2"
_cell_formula_units_Z 28
_cell_length_a 12.780857
_cell_length_b 14.353114
_cell_length_c 7.866835
_cell_angle_alpha 90.000000
_cell_angle_beta 135.625339
_cell_angle_gamma 90.000000
_cell_volume 1009.250683
_symmetry_space_group_name_H-M "C C"
_symmetry_group_IT_number 9
_symmetry_cell_setting 'monoclinic'
loop_
_space_group_symop_operation_xyz
x,y,z
x,-y,1/2+z
1/2+x,1/2+y,z
1/2+x,1/2-y,1/2+z
loop_
_atom_site_type_symbol
_atom_site_label
_atom_site_fract_x
_atom_site_fract_y
_atom_site_fract_z
Si Si1 0.304910 0.511926 0.895570
Si Si2 0.563975 0.614150 0.987849
Si Si3 0.395534 0.646713 0.307304
Si Si4 0.465529 0.986721 0.392307
Si Si5 0.209694 0.112843 0.814498
Si Si6 0.924083 0.297498 0.776004
Si Si7 0.826376 0.672301 0.528883
O O1 0.355955 0.404339 0.938707
O O2 0.129458 0.493464 0.662862
O O3 0.414243 0.565536 0.885295
O O4 0.329659 0.576147 0.088247
O O5 0.673834 0.626956 0.278055
O O6 0.643233 0.567605 0.913824
O O7 0.542367 0.717985 0.887884
O O8 0.575806 0.641539 0.533298
O O9 0.334089 0.746593 0.178020
O O10 0.327536 0.953768 0.353332
O O11 0.444059 0.906603 0.224742
O O12 0.457872 0.092749 0.317784
O O13 0.300820 0.202015 0.987622
O O14 0.878739 0.277925 0.916841
#
# Coordination Sequence:
#
# PCOD9140856 Si02
#       7
#     4   4   4   4   4   4   4
#     4  12  29  51  88 124 173 223 307 368 449 530
#     4  11  26  57  90 127 177 243 295 374 453 546
#     4  12  28  55  83 128 175 231 296 374 450 539
#     4  12  29  50  86 130 174 231 304 372 445 540
#     4  11  29  51  83 124 179 226 296 360 458 525
#     4  11  26  51  86 123 170 233 295 358 441 539
#     4  11  27  53  88 120 180 235 299 360 462 535
#
# _framework density 27.743355999999999
#
# number of rings (size 3 to 8) (size 9 to 14) (size 15 to 20)
#    0.000    0.571    1.429    3.429   18.000    0.000 
#    2.571    0.000    0.000    0.000    0.000    0.000 
#    0.000    0.000    0.000    0.000    0.000    0.000 
#
# Total GULP energy -78200.189522 kJ/mol
# GULP energy per Si atom -5585.727823 kJ/mol
# Density = 2.768021 g / cm^3
# Si number density = 27.743356 Si / 1000 Ang^3
#
#
#
# Elastic Constant Matrix: (Units=GPa)
#
#
# Indices 1 2 3 4 5 6 
#
# 1 129.2430 50.9893 72.7887 0.0000 -2.2859 0.0000
# 2 50.9893 189.6223 88.0655 0.0000 21.4106 0.0000
# 3 72.7887 88.0655 246.1504 0.0000 24.3408 0.0000
# 4 0.0000 0.0000 0.0000 61.6386 0.0000 -3.2804
# 5 -2.2859 21.4106 24.3408 0.0000 54.5692 0.0000
# 6 0.0000 0.0000 0.0000 -3.2804 0.0000 46.0697
#
#
#
# Elastic Compliance Matrix: (Units=1/GPa)
#
#
# Indices 1 2 3 4 5 6 
#
# 1 0.009881 -0.001737 -0.002520 0.000000 0.002220 0.000000
# 2 -0.001737 0.006756 -0.001709 0.000000 -0.001961 0.000000
# 3 -0.002520 -0.001709 0.005611 0.000000 -0.001938 0.000000
# 4 0.000000 0.000000 0.000000 0.016285 0.000000 0.001160
# 5 0.002220 -0.001961 -0.001938 0.000000 0.020052 0.000000
# 6 0.000000 0.000000 0.000000 0.001160 0.000000 0.021789
#
#
# Mechanical properties :
#
#
# Convention : Reuss Voigt Hill
#
# Bulk Modulus (GPa) = 96.94751 109.85584 103.40167
# Shear Modulus (GPa) = 52.22139 56.00033 54.11086
#
# Velocity S-wave (km/s) = 4.34326 4.49766 4.42113
# Velocity P-wave (km/s) = 7.75707 8.16426 7.96327
#
# Compressibility (1/GPa) = 0.01031486
#
# Stress axis : x y z
#
# Youngs Moduli (GPa) = 101.20203 148.01258 178.22437
#
# Poissons Ratio (x) = 0.25715 0.44910
# Poissons Ratio (y) = 0.17583 0.30467
# Poissons Ratio (z) = 0.25501 0.25303
#
# Static dielectric constant tensor:
#      x y z
#    x 2.311700 0.000000 -0.004760 
#    y 0.000000 2.128390 0.000000 
#    z -0.004760 0.000000 2.335640 
# 
# From -- ./inp_files/9770.got.cif
#   From: 2010.05.17/outbox.cif.g08.bks.cpg/sg9_5_cif.got.tgz:9770.got - 2010.06.03 20:04:27.
