data_PCOD9140357
_publ_section_title
;
Structure prediction by ZEFSAII (Michael W. Deem and Ramdas Pophale) SiO2 
 PCOD9140357
Probable space group: C C
;
_chemical_formula_sum "Si O2"
_cell_formula_units_Z 32
_cell_length_a 9.262783
_cell_length_b 10.665278
_cell_length_c 14.698054
_cell_angle_alpha 90.000000
_cell_angle_beta 67.253939
_cell_angle_gamma 90.000000
_cell_volume 1339.095662
_symmetry_space_group_name_H-M "C C"
_symmetry_group_IT_number 9
_symmetry_cell_setting 'monoclinic'
loop_
_space_group_symop_operation_xyz
x,y,z
x,-y,1/2+z
1/2+x,1/2+y,z
1/2+x,1/2-y,1/2+z
loop_
_atom_site_type_symbol
_atom_site_label
_atom_site_fract_x
_atom_site_fract_y
_atom_site_fract_z
Si Si1 0.984320 0.710245 0.702950
Si Si2 0.594250 0.437263 0.895397
Si Si3 0.162148 0.717933 0.324429
Si Si4 0.033117 0.990832 0.204967
Si Si5 0.760681 0.821613 0.009284
Si Si6 0.274458 0.960434 0.511448
Si Si7 0.335806 0.705501 0.833467
Si Si8 0.588971 0.043070 0.846684
O O1 0.796771 0.696430 0.746916
O O2 0.996856 0.862565 0.688222
O O3 0.102695 0.645266 0.603106
O O4 0.037770 0.651299 0.787707
O O5 0.564018 0.489943 0.803570
O O6 0.729093 0.329746 0.851105
O O7 0.425227 0.393646 0.974483
O O8 0.663775 0.535085 0.949828
O O9 0.217797 0.690856 0.413431
O O10 0.157886 0.578616 0.280526
O O11 0.985648 0.765919 0.357699
O O12 0.184567 0.960997 0.108362
O O13 0.911718 0.873369 0.229154
O O14 0.799224 0.681785 0.035699
O O15 0.440330 0.005998 0.437324
O O16 0.207974 0.601530 0.890958
#
# Coordination Sequence:
#
# PCOD9140357 Si02
#       8
#     4   4   4   4   4   4   4   4
#     4  11  24  44  72  99 139 189 231 286 357 415
#     4  12  23  46  71 102 141 189 230 290 360 420
#     4  12  24  45  68 102 139 182 235 296 349 415
#     4  11  24  42  72 103 140 181 230 294 353 410
#     4  11  24  45  71 100 144 185 234 291 359 414
#     4  11  24  42  73 104 137 186 238 287 352 427
#     4  12  24  41  73  99 137 184 233 287 350 417
#     4  12  23  47  68  99 141 182 231 291 344 420
#
# _framework density 23.896725
#
# number of rings (size 3 to 8) (size 9 to 14) (size 15 to 20)
#    0.000    0.500    7.500    0.750    1.750    1.000 
#    0.000    0.000    0.000    0.000    0.000    0.000 
#    0.000    0.000    0.000    0.000    0.000    0.000 
#
# Total GULP energy -89216.781031 kJ/mol
# GULP energy per Si atom -5576.048814 kJ/mol
# Density = 2.384233 g / cm^3
# Si number density = 23.896725 Si / 1000 Ang^3
#
#
#
# Elastic Constant Matrix: (Units=GPa)
#
#
# Indices 1 2 3 4 5 6 
#
# 1 153.6312 27.9294 23.7029 0.0000 -37.1376 0.0000
# 2 27.9294 63.6512 -4.0196 0.0000 -15.9012 0.0000
# 3 23.7029 -4.0196 88.1572 0.0000 -36.6436 0.0000
# 4 0.0000 0.0000 0.0000 18.8926 0.0000 -2.6029
# 5 -37.1376 -15.9012 -36.6436 0.0000 37.5726 0.0000
# 6 0.0000 0.0000 0.0000 -2.6029 0.0000 45.9239
#
#
#
# Elastic Compliance Matrix: (Units=1/GPa)
#
#
# Indices 1 2 3 4 5 6 
#
# 1 0.008866 -0.001348 0.001615 0.000000 0.009768 0.000000
# 2 -0.001348 0.020347 0.007258 0.000000 0.014357 0.000000
# 3 0.001615 0.007258 0.022166 0.000000 0.026286 0.000000
# 4 0.000000 0.000000 0.000000 0.053347 0.000000 0.003024
# 5 0.009768 0.014357 0.026286 0.000000 0.067982 0.000000
# 6 0.000000 0.000000 0.000000 0.003024 0.000000 0.021947
#
#
# Mechanical properties :
#
#
# Convention : Reuss Voigt Hill
#
# Bulk Modulus (GPa) = 15.05379 44.51834 29.78607
# Shear Modulus (GPa) = 24.78323 37.66627 31.22475
#
# Velocity S-wave (km/s) = 3.22389 3.97446 3.61869
# Velocity P-wave (km/s) = 4.49123 6.30331 5.47279
#
# Compressibility (1/GPa) = 0.06642844
#
# Stress axis : x y z
#
# Youngs Moduli (GPa) = 112.78689 49.14689 45.11387
#
# Poissons Ratio (x) = 0.06626 -0.07285
# Poissons Ratio (y) = 0.15207 -0.32743
# Poissons Ratio (z) = -0.18213 -0.35670
#
# Static dielectric constant tensor:
#      x y z
#    x 1.968890 0.000000 -0.047370 
#    y 0.000000 2.021520 0.000000 
#    z -0.047370 0.000000 1.936870 
# 
# From -- ./inp_files/22878.got.cif
#   From: 2010.05.17/outbox.cif.g08.bks.cpg/sg9_12_cif.got.tgz:22878.got - 2010.06.03 20:04:27.
