data_PCOD9140735
_publ_section_title
;
Structure prediction by ZEFSAII (Michael W. Deem and Ramdas Pophale) SiO2 
 PCOD9140735
Probable space group: C C
;
_chemical_formula_sum "Si O2"
_cell_formula_units_Z 32
_cell_length_a 7.771325
_cell_length_b 15.978891
_cell_length_c 11.207763
_cell_angle_alpha 90.000000
_cell_angle_beta 65.255682
_cell_angle_gamma 90.000000
_cell_volume 1263.964336
_symmetry_space_group_name_H-M "C C"
_symmetry_group_IT_number 9
_symmetry_cell_setting 'monoclinic'
loop_
_space_group_symop_operation_xyz
x,y,z
x,-y,1/2+z
1/2+x,1/2+y,z
1/2+x,1/2-y,1/2+z
loop_
_atom_site_type_symbol
_atom_site_label
_atom_site_fract_x
_atom_site_fract_y
_atom_site_fract_z
Si Si1 0.944350 0.535762 0.353670
Si Si2 0.205545 0.850663 0.744247
Si Si3 0.890963 0.882996 0.174550
Si Si4 0.814289 0.642228 0.816725
Si Si5 0.314066 0.168471 0.555813
Si Si6 0.891326 0.841506 0.427907
Si Si7 0.366751 0.574389 0.181777
Si Si8 0.396311 0.736274 0.496252
O O1 0.824572 0.580141 0.282210
O O2 0.924338 0.437196 0.336616
O O3 0.857563 0.575446 0.497770
O O4 0.161748 0.564038 0.300074
O O5 0.354926 0.801964 0.616540
O O6 0.034439 0.884109 0.709687
O O7 0.091887 0.795217 0.876161
O O8 0.795685 0.866442 0.330519
O O9 0.799582 0.845852 0.081639
O O10 0.085368 0.828669 0.122472
O O11 0.930203 0.979250 0.141658
O O12 0.882339 0.677519 0.670931
O O13 0.597531 0.615748 0.857864
O O14 0.801662 0.716612 0.913995
O O15 0.396290 0.241804 0.448736
O O16 0.818768 0.878455 0.572722
#
# Coordination Sequence:
#
# PCOD9140735 Si02
#       8
#     4   4   4   4   4   4   4   4
#     4  12  29  49  80 114 158 207 263 327 401 475
#     4  12  28  52  80 118 160 210 266 332 394 478
#     4  11  27  47  75 113 154 203 262 325 392 472
#     4  11  27  47  75 113 154 203 262 325 392 472
#     4  11  25  48  77 110 155 204 258 327 394 469
#     4  11  25  48  77 110 155 204 258 327 394 469
#     4  12  29  49  80 114 158 207 263 327 401 475
#     4  12  28  48  80 114 158 210 264 328 400 470
#
# _framework density 25.317170000000001
#
# number of rings (size 3 to 8) (size 9 to 14) (size 15 to 20)
#    0.000    0.500    2.500    3.750   12.250    1.000 
#    0.000    0.000    0.000    0.000    0.000    0.000 
#    0.000    0.000    0.000    0.000    0.000    0.000 
#
# Total GULP energy -89440.886758 kJ/mol
# GULP energy per Si atom -5590.055422 kJ/mol
# Density = 2.525955 g / cm^3
# Si number density = 25.317170 Si / 1000 Ang^3
#
#
#
# Elastic Constant Matrix: (Units=GPa)
#
#
# Indices 1 2 3 4 5 6 
#
# 1 121.7995 49.7567 42.0814 0.0000 -11.9229 0.0000
# 2 49.7567 111.9520 38.1721 0.0000 16.5495 0.0000
# 3 42.0814 38.1721 117.7465 0.0000 37.1241 0.0000
# 4 0.0000 0.0000 0.0000 34.2125 0.0000 -6.0768
# 5 -11.9229 16.5495 37.1241 0.0000 36.2337 0.0000
# 6 0.0000 0.0000 0.0000 -6.0768 0.0000 32.0149
#
#
#
# Elastic Compliance Matrix: (Units=1/GPa)
#
#
# Indices 1 2 3 4 5 6 
#
# 1 0.015607 -0.006441 -0.008917 0.000000 0.017214 0.000000
# 2 -0.006441 0.012785 0.000984 0.000000 -0.008967 0.000000
# 3 -0.008917 0.000984 0.018358 0.000000 -0.022193 0.000000
# 4 0.000000 0.000000 0.000000 0.030249 0.000000 0.005742
# 5 0.017214 -0.008967 -0.022193 0.000000 0.060097 0.000000
# 6 0.000000 0.000000 0.000000 0.005742 0.000000 0.032325
#
#
# Mechanical properties :
#
#
# Convention : Reuss Voigt Hill
#
# Bulk Modulus (GPa) = 55.54636 67.94651 61.74644
# Shear Modulus (GPa) = 24.48955 35.25805 29.87380
#
# Velocity S-wave (km/s) = 3.11353 3.73588 3.43881
# Velocity P-wave (km/s) = 5.90875 6.74577 6.34108
#
# Compressibility (1/GPa) = 0.01800298
#
# Stress axis : x y z
#
# Youngs Moduli (GPa) = 64.07278 78.21696 54.47322
#
# Poissons Ratio (x) = 0.50378 0.48574
# Poissons Ratio (y) = 0.41268 -0.05363
# Poissons Ratio (z) = 0.57135 -0.07700
#
# Static dielectric constant tensor:
#      x y z
#    x 2.078670 0.000000 0.029110 
#    y 0.000000 1.962500 0.000000 
#    z 0.029110 0.000000 2.059350 
# 
# From -- ./inp_files/14707.got.cif
#   From: 2010.05.17/outbox.cif.g08.bks.cpg/sg9_8_cif.got.tgz:14707.got - 2010.06.03 20:04:27.
