data_PCOD9140747
_publ_section_title
;
Structure prediction by ZEFSAII (Michael W. Deem and Ramdas Pophale) SiO2 
 PCOD9140747
Probable space group: C C
;
_chemical_formula_sum "Si O2"
_cell_formula_units_Z 32
_cell_length_a 5.267763
_cell_length_b 34.649551
_cell_length_c 8.972039
_cell_angle_alpha 90.000000
_cell_angle_beta 122.113563
_cell_angle_gamma 90.000000
_cell_volume 1387.063696
_symmetry_space_group_name_H-M "C C"
_symmetry_group_IT_number 9
_symmetry_cell_setting 'monoclinic'
loop_
_space_group_symop_operation_xyz
x,y,z
x,-y,1/2+z
1/2+x,1/2+y,z
1/2+x,1/2-y,1/2+z
loop_
_atom_site_type_symbol
_atom_site_label
_atom_site_fract_x
_atom_site_fract_y
_atom_site_fract_z
Si Si1 0.784680 0.725129 0.273660
Si Si2 0.384111 0.172012 0.562322
Si Si3 0.293202 0.223339 0.785448
Si Si4 0.906945 0.033571 0.438534
Si Si5 0.623769 0.037071 0.674909
Si Si6 0.389779 0.380853 0.256088
Si Si7 0.870422 0.665840 0.065849
Si Si8 0.382208 0.618619 0.391281
O O1 0.953179 0.701965 0.456020
O O2 0.524009 0.748456 0.274469
O O3 0.685673 0.692333 0.125502
O O4 0.020467 0.753140 0.269014
O O5 0.188394 0.194046 0.623882
O O6 0.674545 0.154765 0.728608
O O7 0.201256 0.135845 0.441560
O O8 0.443093 0.197086 0.960045
O O9 0.716515 0.033859 0.530999
O O10 0.842995 0.074127 0.335270
O O11 0.265037 0.033469 0.581924
O O12 0.798974 0.996772 0.313438
O O13 0.745924 0.078996 0.763611
O O14 0.696626 0.368992 0.430381
O O15 0.396552 0.381875 0.077239
O O16 0.139986 0.646863 0.242723
#
# Coordination Sequence:
#
# PCOD9140747 Si02
#       8
#     4   4   4   4   4   4   4   4
#     4  12  27  47  72 109 144 194 256 316 378 452
#     4  12  24  48  71  98 160 188 240 320 381 432
#     4  12  27  47  72 109 144 194 256 316 378 452
#     4  11  25  49  78 114 158 199 245 308 373 447
#     4  11  25  49  78 114 158 199 245 308 373 447
#     4  11  25  49  73 112 154 195 252 313 377 445
#     4  12  26  48  79 108 142 210 256 306 387 462
#     4  11  25  49  73 112 154 195 252 313 377 445
#
# _framework density 23.070318
#
# number of rings (size 3 to 8) (size 9 to 14) (size 15 to 20)
#    0.000    0.500    3.750    3.750    1.750    3.000 
#    4.500    0.000    0.000    0.000    0.000    0.000 
#    0.000    0.000    0.000    0.000    0.000    0.000 
#
# Total GULP energy -89577.746359 kJ/mol
# GULP energy per Si atom -5598.609147 kJ/mol
# Density = 2.301781 g / cm^3
# Si number density = 23.070318 Si / 1000 Ang^3
#
#
#
# Elastic Constant Matrix: (Units=GPa)
#
#
# Indices 1 2 3 4 5 6 
#
# 1 79.4232 11.2503 4.7981 0.0000 -0.4674 0.0000
# 2 11.2503 124.6125 34.2487 0.0000 -6.1027 0.0000
# 3 4.7981 34.2487 84.2916 0.0000 1.2224 0.0000
# 4 0.0000 0.0000 0.0000 46.8009 0.0000 2.8417
# 5 -0.4674 -6.1027 1.2224 0.0000 32.0299 0.0000
# 6 0.0000 0.0000 0.0000 2.8417 0.0000 33.3903
#
#
#
# Elastic Compliance Matrix: (Units=1/GPa)
#
#
# Indices 1 2 3 4 5 6 
#
# 1 0.012760 -0.001073 -0.000290 0.000000 -0.000007 0.000000
# 2 -0.001073 0.009236 -0.003719 0.000000 0.001886 0.000000
# 3 -0.000290 -0.003719 0.013409 0.000000 -0.001225 0.000000
# 4 0.000000 0.000000 0.000000 0.021478 0.000000 -0.001828
# 5 -0.000007 0.001886 -0.001225 0.000000 0.031627 0.000000
# 6 0.000000 0.000000 0.000000 -0.001828 0.000000 0.030104
#
#
# Mechanical properties :
#
#
# Convention : Reuss Voigt Hill
#
# Bulk Modulus (GPa) = 39.61770 43.21352 41.41561
# Shear Modulus (GPa) = 36.44508 38.31289 37.37898
#
# Velocity S-wave (km/s) = 3.97891 4.07959 4.02956
# Velocity P-wave (km/s) = 6.19022 6.40021 6.29609
#
# Compressibility (1/GPa) = 0.02524125
#
# Stress axis : x y z
#
# Youngs Moduli (GPa) = 78.36857 108.26912 74.57679
#
# Poissons Ratio (x) = 0.11612 0.02166
# Poissons Ratio (y) = 0.08405 0.27736
# Poissons Ratio (z) = 0.02276 0.40266
#
# Static dielectric constant tensor:
#      x y z
#    x 1.876530 0.000000 -0.011940 
#    y 0.000000 1.863270 0.000000 
#    z -0.011940 0.000000 1.884580 
# 
# From -- ./inp_files/4566.got.cif
#   From: 2010.05.17/outbox.cif.g08.bks.cpg/sg9_3_cif.got.tgz:4566.got - 2010.06.03 20:04:27.
