data_PCOD9140832
_publ_section_title
;
Structure prediction by ZEFSAII (Michael W. Deem and Ramdas Pophale) SiO2 
 PCOD9140832
Probable space group: C C
;
_chemical_formula_sum "Si O2"
_cell_formula_units_Z 32
_cell_length_a 14.470417
_cell_length_b 18.820097
_cell_length_c 5.383616
_cell_angle_alpha 90.000000
_cell_angle_beta 66.762320
_cell_angle_gamma 90.000000
_cell_volume 1347.205726
_symmetry_space_group_name_H-M "C C"
_symmetry_group_IT_number 9
_symmetry_cell_setting 'monoclinic'
loop_
_space_group_symop_operation_xyz
x,y,z
x,-y,1/2+z
1/2+x,1/2+y,z
1/2+x,1/2-y,1/2+z
loop_
_atom_site_type_symbol
_atom_site_label
_atom_site_fract_x
_atom_site_fract_y
_atom_site_fract_z
Si Si1 0.055280 0.842015 0.737250
Si Si2 0.443816 0.455479 0.127266
Si Si3 0.920214 0.230218 0.019948
Si Si4 0.121443 0.546256 0.412297
Si Si5 0.424912 0.124941 0.766369
Si Si6 0.761208 0.131228 0.970435
Si Si7 0.061776 0.302231 0.486710
Si Si8 0.218920 0.044720 0.959735
O O1 0.083498 0.761126 0.769575
O O2 0.146203 0.887183 0.533391
O O3 0.960464 0.832232 0.654819
O O4 0.015023 0.886992 0.014951
O O5 0.461557 0.497057 0.364154
O O6 0.330119 0.426414 0.260937
O O7 0.832094 0.198309 0.948053
O O8 0.014708 0.259898 0.766037
O O9 0.885723 0.299689 0.205399
O O10 0.122104 0.504171 0.669621
O O11 0.019274 0.592591 0.516632
O O12 0.217377 0.597120 0.270206
O O13 0.475374 0.145612 0.975310
O O14 0.333914 0.070623 0.858320
O O15 0.662469 0.155592 0.931753
O O16 0.200423 0.000381 0.729420
#
# Coordination Sequence:
#
# PCOD9140832 Si02
#       8
#     4   4   4   4   4   4   4   4
#     4  11  27  48  75 109 154 195 263 309 390 446
#     4  12  26  47  74 108 149 194 242 309 369 449
#     4  11  26  48  75 110 146 203 246 332 375 453
#     4  12  26  47  74 108 149 194 242 309 369 449
#     4  11  27  48  75 109 154 195 263 309 390 446
#     4  12  26  47  80 107 152 188 266 300 400 448
#     4  11  26  48  75 110 146 203 246 332 375 453
#     4  12  30  49  80 115 156 214 256 310 382 464
#
# _framework density 23.752870000000001
#
# number of rings (size 3 to 8) (size 9 to 14) (size 15 to 20)
#    0.000    0.500    2.500    3.750    7.000    3.000 
#    0.000    0.000    0.000    0.000    0.000    0.000 
#    0.000    0.000    0.000    0.000    0.000    0.000 
#
# Total GULP energy -89654.978566 kJ/mol
# GULP energy per Si atom -5603.436160 kJ/mol
# Density = 2.369881 g / cm^3
# Si number density = 23.752870 Si / 1000 Ang^3
#
#
#
# Elastic Constant Matrix: (Units=GPa)
#
#
# Indices 1 2 3 4 5 6 
#
# 1 87.0054 34.7969 22.8064 0.0000 -3.3023 0.0000
# 2 34.7969 74.9668 29.8235 0.0000 4.7330 0.0000
# 3 22.8064 29.8235 101.0409 0.0000 6.5470 0.0000
# 4 0.0000 0.0000 0.0000 46.7301 0.0000 -11.6506
# 5 -3.3023 4.7330 6.5470 0.0000 42.0470 0.0000
# 6 0.0000 0.0000 0.0000 -11.6506 0.0000 55.3185
#
#
#
# Elastic Compliance Matrix: (Units=1/GPa)
#
#
# Indices 1 2 3 4 5 6 
#
# 1 0.014473 -0.006227 -0.001564 0.000000 0.002081 0.000000
# 2 -0.006227 0.017836 -0.003735 0.000000 -0.001915 0.000000
# 3 -0.001564 -0.003735 0.011449 0.000000 -0.001485 0.000000
# 4 0.000000 0.000000 0.000000 0.022585 0.000000 0.004757
# 5 0.002081 -0.001915 -0.001485 0.000000 0.024393 0.000000
# 6 0.000000 0.000000 0.000000 0.004757 0.000000 0.019079
#
#
# Mechanical properties :
#
#
# Convention : Reuss Voigt Hill
#
# Bulk Modulus (GPa) = 48.29413 48.65185 48.47299
# Shear Modulus (GPa) = 35.77332 40.52487 38.14910
#
# Velocity S-wave (km/s) = 3.88501 4.13498 4.01195
# Velocity P-wave (km/s) = 6.36400 6.58213 6.47398
#
# Compressibility (1/GPa) = 0.02070645
#
# Stress axis : x y z
#
# Youngs Moduli (GPa) = 69.09481 56.06499 87.34729
#
# Poissons Ratio (x) = 0.34913 0.13657
# Poissons Ratio (y) = 0.43026 0.32624
# Poissons Ratio (z) = 0.10803 0.20940
#
# Static dielectric constant tensor:
#      x y z
#    x 1.876550 0.000000 0.036170 
#    y 0.000000 1.905960 0.000000 
#    z 0.036170 0.000000 1.923600 
# 
# From -- ./inp_files/2567.got.cif
#   From: 2010.05.17/outbox.cif.g08.bks.cpg/sg9_2_cif.got.tgz:2567.got - 2010.06.03 20:04:27.
