data_PCOD9140305
_publ_section_title
;
Structure prediction by ZEFSAII (Michael W. Deem and Ramdas Pophale) SiO2 
 PCOD9140305
Probable space group: C C
;
_chemical_formula_sum "Si O2"
_cell_formula_units_Z 28
_cell_length_a 13.949390
_cell_length_b 6.256549
_cell_length_c 16.100245
_cell_angle_alpha 90.000000
_cell_angle_beta 56.259671
_cell_angle_gamma 90.000000
_cell_volume 1168.470911
_symmetry_space_group_name_H-M "C C"
_symmetry_group_IT_number 9
_symmetry_cell_setting 'monoclinic'
loop_
_space_group_symop_operation_xyz
x,y,z
x,-y,1/2+z
1/2+x,1/2+y,z
1/2+x,1/2-y,1/2+z
loop_
_atom_site_type_symbol
_atom_site_label
_atom_site_fract_x
_atom_site_fract_y
_atom_site_fract_z
Si Si1 0.351350 0.612628 0.658260
Si Si2 0.806818 0.489874 0.936355
Si Si3 0.069486 0.901565 0.482749
Si Si4 0.203340 0.321131 0.620058
Si Si5 0.021527 0.824403 0.320604
Si Si6 0.990787 0.487553 0.119211
Si Si7 0.880850 0.853624 0.794666
O O1 0.478077 0.513491 0.585591
O O2 0.279854 0.520697 0.614954
O O3 0.386779 0.859386 0.639536
O O4 0.310213 0.516183 0.767680
O O5 0.691149 0.481029 0.935913
O O6 0.922379 0.356376 0.860158
O O7 0.832750 0.740307 0.902049
O O8 0.767866 0.371340 0.040712
O O9 0.027653 0.911972 0.409581
O O10 0.054591 0.654206 0.518270
O O11 0.146816 0.248061 0.733248
O O12 0.095393 0.395694 0.616301
O O13 0.986875 0.008238 0.274501
O O14 0.925711 0.335303 0.215462
#
# Coordination Sequence:
#
# PCOD9140305 Si02
#       7
#     4   4   4   4   4   4   4
#     4  11  23  48  75 109 154 205 260 331 402 481
#     4  12  25  47  76 113 160 207 264 336 392 481
#     4  11  26  44  75 114 150 201 265 322 404 476
#     4  12  24  49  75 109 161 208 265 330 404 474
#     4  12  26  52  73 117 159 209 272 328 409 485
#     4  11  24  50  74 109 157 199 263 333 391 481
#     4  11  24  48  74 107 155 201 265 334 394 468
#
# _framework density 23.962942000000002
#
# number of rings (size 3 to 8) (size 9 to 14) (size 15 to 20)
#    0.000    0.571    5.714    1.714    2.000    2.286 
#   12.857    0.000    3.143    0.000    0.000    0.000 
#    0.000    0.000    0.000    0.000    0.000    0.000 
#
# Total GULP energy -78067.499167 kJ/mol
# GULP energy per Si atom -5576.249941 kJ/mol
# Density = 2.390840 g / cm^3
# Si number density = 23.962942 Si / 1000 Ang^3
#
#
#
# Elastic Constant Matrix: (Units=GPa)
#
#
# Indices 1 2 3 4 5 6 
#
# 1 107.2013 45.3853 24.6982 0.0001 17.5169 0.0002
# 2 45.3853 76.9996 37.3189 0.0005 13.1013 0.0006
# 3 24.6982 37.3189 95.2487 0.0000 6.1637 0.0000
# 4 0.0001 0.0005 0.0000 34.3293 -0.0001 12.3129
# 5 17.5169 13.1013 6.1637 -0.0001 39.7412 0.0000
# 6 0.0002 0.0006 0.0000 12.3129 0.0000 45.3880
#
#
#
# Elastic Compliance Matrix: (Units=1/GPa)
#
#
# Indices 1 2 3 4 5 6 
#
# 1 0.012854 -0.006783 -0.000458 0.000000 -0.003359 0.000000
# 2 -0.006783 0.020393 -0.006050 0.000000 -0.002795 0.000000
# 3 -0.000458 -0.006050 0.012976 0.000000 0.000184 0.000000
# 4 0.000000 0.000000 0.000000 0.032269 0.000000 -0.008754
# 5 -0.003359 -0.002795 0.000184 0.000000 0.027536 0.000000
# 6 0.000000 0.000000 0.000000 -0.008754 0.000000 0.024407
#
#
# Mechanical properties :
#
#
# Convention : Reuss Voigt Hill
#
# Bulk Modulus (GPa) = 50.91543 54.91716 52.91630
# Shear Modulus (GPa) = 30.56864 35.36153 32.96508
#
# Velocity S-wave (km/s) = 3.57552 3.84562 3.71303
# Velocity P-wave (km/s) = 6.19189 6.53343 6.36495
#
# Compressibility (1/GPa) = 0.01964041
#
# Stress axis : x y z
#
# Youngs Moduli (GPa) = 77.79467 49.03618 77.06365
#
# Poissons Ratio (x) = 0.33262 0.03531
# Poissons Ratio (y) = 0.52769 0.46626
# Poissons Ratio (z) = 0.03564 0.29669
#
# Static dielectric constant tensor:
#      x y z
#    x 1.884690 0.000000 -0.008940 
#    y 0.000000 2.017240 0.000000 
#    z -0.008940 0.000000 1.991640 
# 
# From -- ./inp_files/30335.got.cif
#   From: 2010.05.17/outbox.cif.g08.bks.cpg/sg9_16_cif.got.tgz:30335.got - 2010.06.03 20:04:27.
