data_PCOD9140970
_publ_section_title
;
Structure prediction by ZEFSAII (Michael W. Deem and Ramdas Pophale) SiO2 
 PCOD9140970
Probable space group: C C
;
_chemical_formula_sum "Si O2"
_cell_formula_units_Z 32
_cell_length_a 24.065349
_cell_length_b 13.773029
_cell_length_c 8.592731
_cell_angle_alpha 90.000000
_cell_angle_beta 33.453646
_cell_angle_gamma 90.000000
_cell_volume 1570.041130
_symmetry_space_group_name_H-M "C C"
_symmetry_group_IT_number 9
_symmetry_cell_setting 'monoclinic'
loop_
_space_group_symop_operation_xyz
x,y,z
x,-y,1/2+z
1/2+x,1/2+y,z
1/2+x,1/2-y,1/2+z
loop_
_atom_site_type_symbol
_atom_site_label
_atom_site_fract_x
_atom_site_fract_y
_atom_site_fract_z
Si Si1 0.718250 0.429273 0.942030
Si Si2 0.011023 0.035218 0.327682
Si Si3 0.069987 0.403532 0.867861
Si Si4 0.689469 0.929854 0.273093
Si Si5 0.248128 0.729292 0.380393
Si Si6 0.337343 0.906237 0.349692
Si Si7 0.110205 0.798301 0.435398
Si Si8 0.872178 0.070186 0.931104
O O1 0.780109 0.395302 0.647575
O O2 0.784546 0.505892 0.882350
O O3 0.616455 0.484397 0.123679
O O4 0.687463 0.343179 0.130021
O O5 0.955138 0.081793 0.604345
O O6 0.028972 0.117080 0.154917
O O7 0.934231 0.956651 0.439483
O O8 0.134607 0.395112 0.558290
O O9 0.120808 0.488361 0.850696
O O10 0.071533 0.302915 0.959101
O O11 0.954647 0.426819 0.098664
O O12 0.708102 0.843719 0.106715
O O13 0.793603 0.984170 0.074728
O O14 0.318552 0.809377 0.294326
O O15 0.160619 0.780965 0.486023
O O16 0.307777 0.665191 0.115275
#
# Coordination Sequence:
#
# PCOD9140970 Si02
#       8
#     4   4   4   4   4   4   4   4
#     4  12  24  49  70 100 149 182 226 294 346 411
#     4  12  24  43  74  99 140 183 230 283 353 401
#     4  12  26  45  73 104 139 187 234 281 352 418
#     4  12  24  49  70 100 149 182 226 294 346 411
#     4  12  26  45  70 105 140 183 236 287 344 411
#     4  12  26  45  73 104 139 187 234 281 352 418
#     4  12  26  45  70 105 140 183 236 287 344 411
#     4  12  24  43  74  99 140 183 230 283 353 401
#
# _framework density 20.381633000000001
#
# number of rings (size 3 to 8) (size 9 to 14) (size 15 to 20)
#    0.000    0.000    7.500    1.500    3.500    2.000 
#    0.000    1.250    0.000    0.000    0.000    0.000 
#    0.000    0.000    0.000    0.000    0.000    0.000 
#
# Total GULP energy -89548.008192 kJ/mol
# GULP energy per Si atom -5596.750512 kJ/mol
# Density = 2.033524 g / cm^3
# Si number density = 20.381633 Si / 1000 Ang^3
#
#
#
# Elastic Constant Matrix: (Units=GPa)
#
#
# Indices 1 2 3 4 5 6 
#
# 1 81.3108 8.0477 17.3874 0.0000 -18.3934 0.0000
# 2 8.0477 38.0534 -21.4439 0.0000 -17.0178 0.0000
# 3 17.3874 -21.4439 88.7730 0.0000 -1.0048 0.0000
# 4 0.0000 0.0000 0.0000 20.3507 0.0000 14.7681
# 5 -18.3934 -17.0178 -1.0048 0.0000 50.8944 0.0000
# 6 0.0000 0.0000 0.0000 14.7681 0.0000 45.4146
#
#
#
# Elastic Compliance Matrix: (Units=1/GPa)
#
#
# Indices 1 2 3 4 5 6 
#
# 1 0.014279 -0.003211 -0.003527 0.000000 0.004017 0.000000
# 2 -0.003211 0.037734 0.009876 0.000000 0.011652 0.000000
# 3 -0.003527 0.009876 0.014367 0.000000 0.002311 0.000000
# 4 0.000000 0.000000 0.000000 0.064315 0.000000 -0.020914
# 5 0.004017 0.011652 0.002311 0.000000 0.025042 0.000000
# 6 0.000000 0.000000 0.000000 -0.020914 0.000000 0.028820
#
#
# Mechanical properties :
#
#
# Convention : Reuss Voigt Hill
#
# Bulk Modulus (GPa) = 13.76343 24.01329 18.88836
# Shear Modulus (GPa) = 24.69130 36.94169 30.81649
#
# Velocity S-wave (km/s) = 3.48436 4.26196 3.89263
# Velocity P-wave (km/s) = 4.79116 6.00221 5.43055
#
# Compressibility (1/GPa) = 0.07265632
#
# Stress axis : x y z
#
# Youngs Moduli (GPa) = 70.03177 26.50146 69.60300
#
# Poissons Ratio (x) = 0.08509 0.24548
# Poissons Ratio (y) = 0.22485 -0.68738
# Poissons Ratio (z) = 0.24699 -0.26172
#
# Static dielectric constant tensor:
#      x y z
#    x 1.717570 0.000000 0.029250 
#    y 0.000000 1.685260 0.000000 
#    z 0.029250 0.000000 1.699550 
# 
# From -- ./inp_files/7577.got.cif
#   From: 2010.05.17/outbox.cif.g08.bks.cpg/sg9_4_cif.got.tgz:7577.got - 2010.06.03 20:04:27.
