data_PCOD9140389
_publ_section_title
;
Structure prediction by ZEFSAII (Michael W. Deem and Ramdas Pophale) SiO2 
 PCOD9140389
Probable space group: C C
;
_chemical_formula_sum "Si O2"
_cell_formula_units_Z 24
_cell_length_a 5.453228
_cell_length_b 22.249337
_cell_length_c 9.438231
_cell_angle_alpha 90.000000
_cell_angle_beta 68.421779
_cell_angle_gamma 90.000000
_cell_volume 1064.891144
_symmetry_space_group_name_H-M "C C"
_symmetry_group_IT_number 9
_symmetry_cell_setting 'monoclinic'
loop_
_space_group_symop_operation_xyz
x,y,z
x,-y,1/2+z
1/2+x,1/2+y,z
1/2+x,1/2-y,1/2+z
loop_
_atom_site_type_symbol
_atom_site_label
_atom_site_fract_x
_atom_site_fract_y
_atom_site_fract_z
Si Si1 0.907200 0.666174 0.723750
Si Si2 0.014657 0.061043 0.747171
Si Si3 0.252831 0.289227 0.887787
Si Si4 0.516658 0.088708 0.962586
Si Si5 0.831234 0.350832 0.781294
Si Si6 0.687153 0.474896 0.933763
O O1 0.696418 0.620101 0.701901
O O2 0.782862 0.719290 0.843764
O O3 0.092571 0.695257 0.565087
O O4 0.051170 0.624174 0.807096
O O5 0.134289 0.000548 0.789430
O O6 0.819708 0.073631 0.921413
O O7 0.958759 0.041415 0.596696
O O8 0.545889 0.318004 0.841528
O O9 0.071990 0.313756 0.797362
O O10 0.368304 0.026675 0.963350
O O11 0.391855 0.129275 0.108352
O O12 0.825141 0.411636 0.874635
#
# Coordination Sequence:
#
# PCOD9140389 Si02
#       6
#     4   4   4   4   4   4
#     4  11  27  49  72 108 142 199 244 308 361 438
#     4  11  25  44  73 102 151 189 249 299 370 433
#     4  12  29  49  78 104 152 191 251 298 369 432
#     4  11  27  44  74 106 150 190 252 301 370 437
#     4  12  28  48  77 109 147 198 241 304 369 436
#     4  11  24  44  68 111 142 197 235 308 363 436
#
# _framework density 22.537516
#
# number of rings (size 3 to 8) (size 9 to 14) (size 15 to 20)
#    0.000    0.667    3.333    2.000   14.000    0.000 
#    0.000    0.000    0.000    0.000    0.000    0.000 
#    0.000    0.000    0.000    0.000    0.000    0.000 
#
# Total GULP energy -66898.887579 kJ/mol
# GULP energy per Si atom -5574.907298 kJ/mol
# Density = 2.248622 g / cm^3
# Si number density = 22.537516 Si / 1000 Ang^3
#
#
#
# Elastic Constant Matrix: (Units=GPa)
#
#
# Indices 1 2 3 4 5 6 
#
# 1 39.5055 -1.8111 -0.5093 0.0000 1.5494 0.0000
# 2 -1.8111 83.6322 13.8924 0.0000 5.7867 0.0000
# 3 -0.5093 13.8924 133.9119 0.0000 -4.4578 0.0000
# 4 0.0000 0.0000 0.0000 -45.2002 0.0000 -98.8863
# 5 1.5494 5.7867 -4.4578 0.0000 20.3436 0.0000
# 6 0.0000 0.0000 0.0000 -98.8863 0.0000 -74.3446
#
#
#
# Elastic Compliance Matrix: (Units=1/GPa)
#
#
# Indices 1 2 3 4 5 6 
#
# 1 0.025429 0.000707 -0.000048 0.000000 -0.002148 0.000000
# 2 0.000707 0.012480 -0.001422 0.000000 -0.003915 0.000000
# 3 -0.000048 -0.001422 0.007685 0.000000 0.002092 0.000000
# 4 0.000000 0.000000 0.000000 0.011584 0.000000 -0.015407
# 5 -0.002148 -0.003915 0.002092 0.000000 0.050891 0.000000
# 6 0.000000 0.000000 0.000000 -0.015407 0.000000 0.007043
#
#
# Mechanical properties :
#
#
# Convention : Reuss Voigt Hill
#
# Bulk Modulus (GPa) = 22.69276 31.13260 26.91268
# Shear Modulus (GPa) = 38.07324 -3.47505 17.29909
#
# Velocity S-wave (km/s) = 4.11460 -1.24308 2.77351
# Velocity P-wave (km/s) = 5.71524 3.43269 4.71420
#
# Compressibility (1/GPa) = 0.04406692
#
# Stress axis : x y z
#
# Youngs Moduli (GPa) = 39.32519 80.13069 130.13018
#
# Poissons Ratio (x) = -0.05668 0.00627
# Poissons Ratio (y) = -0.02782 0.18509
# Poissons Ratio (z) = 0.00189 0.11397
#
# Static dielectric constant tensor:
#      x y z
#    x 1.948060 0.000000 -0.018300 
#    y 0.000000 1.872960 0.000000 
#    z -0.018300 0.000000 1.817900 
# 
# From -- ./inp_files/3675.got.cif
#   From: 2010.05.17/outbox.cif.g08.bks.cpg/sg9_2_cif.got.tgz:3675.got - 2010.06.03 20:04:27.
