data_PCOD9140371
_publ_section_title
;
Structure prediction by ZEFSAII (Michael W. Deem and Ramdas Pophale) SiO2 
 PCOD9140371
Probable space group: C C
;
_chemical_formula_sum "Si O2"
_cell_formula_units_Z 20
_cell_length_a 4.859238
_cell_length_b 17.435318
_cell_length_c 8.550815
_cell_angle_alpha 90.000000
_cell_angle_beta 97.864584
_cell_angle_gamma 90.000000
_cell_volume 717.631261
_symmetry_space_group_name_H-M "C C"
_symmetry_group_IT_number 9
_symmetry_cell_setting 'monoclinic'
loop_
_space_group_symop_operation_xyz
x,y,z
x,-y,1/2+z
1/2+x,1/2+y,z
1/2+x,1/2-y,1/2+z
loop_
_atom_site_type_symbol
_atom_site_label
_atom_site_fract_x
_atom_site_fract_y
_atom_site_fract_z
Si Si1 0.494110 0.150802 0.623180
Si Si2 0.463800 0.480622 0.644723
Si Si3 0.183691 0.893792 0.360058
Si Si4 0.957724 0.261190 0.586833
Si Si5 0.997920 0.404218 0.789757
O O1 0.474214 0.106755 0.787044
O O2 0.218503 0.205322 0.564133
O O3 0.560095 0.099833 0.476765
O O4 0.742314 0.209781 0.663416
O O5 0.556199 0.449589 0.481918
O O6 0.529861 0.567786 0.695936
O O7 0.163312 0.458610 0.684217
O O8 0.677866 0.427711 0.760290
O O9 0.258160 0.812279 0.453515
O O10 0.067874 0.323221 0.717780
#
# Coordination Sequence:
#
# PCOD9140371 Si02
#       5
#     4   4   4   4   4
#     4  12  24  43  73 104 140 185 235 290 350 414
#     4  11  26  45  69  99 141 185 232 288 348 415
#     4  11  26  47  72 104 142 185 235 289 349 417
#     4  11  24  43  70 104 141 184 233 290 348 417
#     4  11  24  44  66 101 140 183 233 287 349 415
#
# _framework density 27.869468000000001
#
# number of rings (size 3 to 8) (size 9 to 14) (size 15 to 20)
#    0.000    0.800    0.000    7.200    0.000   11.200 
#    0.000    0.000    0.000    0.000    0.000    0.000 
#    0.000    0.000    0.000    0.000    0.000    0.000 
#
# Total GULP energy -55697.548682 kJ/mol
# GULP energy per Si atom -5569.754868 kJ/mol
# Density = 2.780604 g / cm^3
# Si number density = 27.869468 Si / 1000 Ang^3
#
#
#
# Elastic Constant Matrix: (Units=GPa)
#
#
# Indices 1 2 3 4 5 6 
#
# 1 107.6928 47.1067 19.1626 0.0000 -21.4778 0.0000
# 2 47.1067 141.2391 66.4760 0.0000 -30.7571 0.0000
# 3 19.1626 66.4760 127.3869 0.0000 -15.8947 0.0000
# 4 0.0000 0.0000 0.0000 17.5682 0.0000 25.5761
# 5 -21.4778 -30.7571 -15.8947 0.0000 51.4529 0.0000
# 6 0.0000 0.0000 0.0000 25.5761 0.0000 41.6866
#
#
#
# Elastic Compliance Matrix: (Units=1/GPa)
#
#
# Indices 1 2 3 4 5 6 
#
# 1 0.011230 -0.003315 0.000393 0.000000 0.002828 0.000000
# 2 -0.003315 0.011357 -0.004944 0.000000 0.003878 0.000000
# 3 0.000393 -0.004944 0.010425 0.000000 0.000429 0.000000
# 4 0.000000 0.000000 0.000000 0.532913 0.000000 -0.326959
# 5 0.002828 0.003878 0.000429 0.000000 0.023066 0.000000
# 6 0.000000 0.000000 0.000000 -0.326959 0.000000 0.224588
#
#
# Mechanical properties :
#
#
# Convention : Reuss Voigt Hill
#
# Bulk Modulus (GPa) = 57.86971 71.31218 64.59094
# Shear Modulus (GPa) = 5.98752 38.37978 22.18365
#
# Velocity S-wave (km/s) = 1.46734 3.71499 2.82438
# Velocity P-wave (km/s) = 4.86625 6.63664 5.81917
#
# Compressibility (1/GPa) = 0.01728020
#
# Stress axis : x y z
#
# Youngs Moduli (GPa) = 89.05109 88.04910 95.92725
#
# Poissons Ratio (x) = 0.29186 -0.03773
# Poissons Ratio (y) = 0.29518 0.47429
# Poissons Ratio (z) = -0.03503 0.43533
#
# Static dielectric constant tensor:
#      x y z
#    x 2.181630 0.000000 0.100170 
#    y 0.000000 2.221830 0.000000 
#    z 0.100170 0.000000 2.315370 
# 
# From -- ./inp_files/3649.got.cif
#   From: 2010.05.17/outbox.cif.g08.bks.cpg/sg9_2_cif.got.tgz:3649.got - 2010.06.03 20:04:27.
