data_PCOD9140289
_publ_section_title
;
Structure prediction by ZEFSAII (Michael W. Deem and Ramdas Pophale) SiO2 
 PCOD9140289
Probable space group: C C
;
_chemical_formula_sum "Si O2"
_cell_formula_units_Z 28
_cell_length_a 6.399898
_cell_length_b 18.108624
_cell_length_c 13.407441
_cell_angle_alpha 90.000000
_cell_angle_beta 48.627696
_cell_angle_gamma 90.000000
_cell_volume 1166.044064
_symmetry_space_group_name_H-M "C C"
_symmetry_group_IT_number 9
_symmetry_cell_setting 'monoclinic'
loop_
_space_group_symop_operation_xyz
x,y,z
x,-y,1/2+z
1/2+x,1/2+y,z
1/2+x,1/2-y,1/2+z
loop_
_atom_site_type_symbol
_atom_site_label
_atom_site_fract_x
_atom_site_fract_y
_atom_site_fract_z
Si Si1 0.261940 0.354375 0.152050
Si Si2 0.183813 0.943906 0.126526
Si Si3 0.244432 0.374939 0.921407
Si Si4 0.140222 0.274901 0.618273
Si Si5 0.224653 0.771877 0.320069
Si Si6 0.521801 0.942556 0.642561
Si Si7 0.559418 0.519026 0.865349
O O1 0.410165 0.426933 0.149874
O O2 0.269498 0.359606 0.030841
O O3 0.441811 0.284518 0.129584
O O4 0.945320 0.335128 0.280457
O O5 0.421043 0.892542 0.004512
O O6 0.357345 0.019298 0.099261
O O7 0.093295 0.920646 0.267643
O O8 0.337609 0.305418 0.829864
O O9 0.347478 0.542034 0.017504
O O10 0.202624 0.245175 0.709604
O O11 0.998443 0.355659 0.665080
O O12 0.426248 0.717136 0.965978
O O13 0.411063 0.549784 0.355198
O O14 0.368800 0.985690 0.782116
#
# Coordination Sequence:
#
# PCOD9140289 Si02
#       7
#     4   4   4   4   4   4   4
#     4  12  25  45  78 104 155 206 250 330 390 466
#     4   9  22  46  69 102 146 195 248 324 388 452
#     4  11  23  48  70 106 152 192 269 311 403 460
#     4  12  28  46  77 111 161 195 268 325 388 471
#     4  12  27  46  73 118 150 209 259 322 395 477
#     4   9  22  42  74 104 144 200 249 322 384 466
#     4   9  21  43  71  99 146 189 251 314 380 464
#
# _framework density 24.012816000000001
#
# number of rings (size 3 to 8) (size 9 to 14) (size 15 to 20)
#    0.857    0.571    2.857    0.857    8.000    0.000 
#    7.714    1.429    0.000    0.000    0.000    0.000 
#    0.000    0.000    0.000    0.000    0.000    0.000 
#
# Total GULP energy -78123.780181 kJ/mol
# GULP energy per Si atom -5580.270013 kJ/mol
# Density = 2.395816 g / cm^3
# Si number density = 24.012816 Si / 1000 Ang^3
#
#
#
# Elastic Constant Matrix: (Units=GPa)
#
#
# Indices 1 2 3 4 5 6 
#
# 1 89.7194 28.6728 32.7638 0.0000 -20.3183 0.0000
# 2 28.6728 100.6492 0.6559 0.0000 -5.7999 0.0000
# 3 32.7638 0.6559 122.1851 0.0000 -23.5424 0.0000
# 4 0.0000 0.0000 0.0000 31.6088 0.0000 -7.1987
# 5 -20.3183 -5.7999 -23.5424 0.0000 27.1744 0.0000
# 6 0.0000 0.0000 0.0000 -7.1987 0.0000 40.6307
#
#
#
# Elastic Compliance Matrix: (Units=1/GPa)
#
#
# Indices 1 2 3 4 5 6 
#
# 1 0.015157 -0.003817 -0.002421 0.000000 0.008420 0.000000
# 2 -0.003817 0.011039 0.001042 0.000000 0.000405 0.000000
# 3 -0.002421 0.001042 0.010230 0.000000 0.007274 0.000000
# 4 0.000000 0.000000 0.000000 0.032967 0.000000 0.005841
# 5 0.008420 0.000405 0.007274 0.000000 0.049484 0.000000
# 6 0.000000 0.000000 0.000000 0.005841 0.000000 0.025647
#
#
# Mechanical properties :
#
#
# Convention : Reuss Voigt Hill
#
# Bulk Modulus (GPa) = 38.41124 48.52650 43.46887
# Shear Modulus (GPa) = 30.56357 36.58018 33.57187
#
# Velocity S-wave (km/s) = 3.57151 3.90726 3.74315
# Velocity P-wave (km/s) = 5.74790 6.37244 6.06821
#
# Compressibility (1/GPa) = 0.02603405
#
# Stress axis : x y z
#
# Youngs Moduli (GPa) = 65.97685 90.58456 97.75542
#
# Poissons Ratio (x) = 0.34575 0.23670
# Poissons Ratio (y) = 0.25182 -0.10189
# Poissons Ratio (z) = 0.15975 -0.09442
#
# Static dielectric constant tensor:
#      x y z
#    x 1.893690 0.000000 -0.053610 
#    y 0.000000 1.972270 0.000000 
#    z -0.053610 0.000000 1.953080 
# 
# From -- ./inp_files/28769.got.cif
#   From: 2010.05.17/outbox.cif.g08.bks.cpg/sg9_15_cif.got.tgz:28769.got - 2010.06.03 20:04:27.
