data_PCOD9140928
_publ_section_title
;
Structure prediction by ZEFSAII (Michael W. Deem and Ramdas Pophale) SiO2 
 PCOD9140928
Probable space group: C C
;
_chemical_formula_sum "Si O2"
_cell_formula_units_Z 28
_cell_length_a 13.677314
_cell_length_b 6.577432
_cell_length_c 28.603250
_cell_angle_alpha 90.000000
_cell_angle_beta 27.980872
_cell_angle_gamma 90.000000
_cell_volume 1207.282944
_symmetry_space_group_name_H-M "C C"
_symmetry_group_IT_number 9
_symmetry_cell_setting 'monoclinic'
loop_
_space_group_symop_operation_xyz
x,y,z
x,-y,1/2+z
1/2+x,1/2+y,z
1/2+x,1/2-y,1/2+z
loop_
_atom_site_type_symbol
_atom_site_label
_atom_site_fract_x
_atom_site_fract_y
_atom_site_fract_z
Si Si1 0.996350 0.651371 0.046350
Si Si2 0.491523 0.491518 0.129083
Si Si3 0.800582 0.627529 0.362898
Si Si4 0.170170 0.151181 0.652394
Si Si5 0.502770 0.324490 0.452080
Si Si6 0.041164 0.515827 0.352255
Si Si7 0.297407 0.645674 0.471173
O O1 0.979831 0.821128 0.093737
O O2 0.773038 0.545000 0.133255
O O3 0.087718 0.745207 0.959921
O O4 0.170816 0.485148 0.986978
O O5 0.576086 0.398415 0.141516
O O6 0.262199 0.569250 0.237173
O O7 0.640410 0.678317 0.053658
O O8 0.726966 0.420502 0.369262
O O9 0.987480 0.740460 0.257984
O O10 0.875479 0.590549 0.384114
O O11 0.374269 0.284754 0.553691
O O12 0.519862 0.128358 0.410994
O O13 0.368715 0.485893 0.479534
O O14 0.003172 0.273830 0.370635
#
# Coordination Sequence:
#
# PCOD9140928 Si02
#       7
#     4   4   4   4   4   4   4
#     4  12  27  50  76 110 154 196 257 315 378 460
#     4  12  27  48  75 109 147 202 250 312 386 442
#     4  12  27  47  74 112 149 200 254 311 384 451
#     4  12  27  47  74 112 149 200 254 311 384 451
#     4  12  27  50  76 110 154 196 257 315 378 460
#     4  12  27  48  75 109 147 202 250 312 386 442
#     4  12  22  50  76 100 154 192 246 318 370 450
#
# _framework density 23.192572999999999
#
# number of rings (size 3 to 8) (size 9 to 14) (size 15 to 20)
#    0.000    0.000    5.714    3.429    8.000    3.429 
#    0.000    0.000    0.000    0.000    0.000    0.000 
#    0.000    0.000    0.000    0.000    0.000    0.000 
#
# Total GULP energy -78362.345051 kJ/mol
# GULP energy per Si atom -5597.310361 kJ/mol
# Density = 2.313979 g / cm^3
# Si number density = 23.192573 Si / 1000 Ang^3
#
#
#
# Elastic Constant Matrix: (Units=GPa)
#
#
# Indices 1 2 3 4 5 6 
#
# 1 90.5126 29.8633 23.4300 -0.0012 -3.2073 -0.0060
# 2 29.8633 78.5012 9.7109 -0.0015 9.0785 -0.0276
# 3 23.4300 9.7109 69.7908 -0.0051 -0.4512 0.0044
# 4 -0.0012 -0.0015 -0.0051 38.0303 -0.0020 -10.6271
# 5 -3.2073 9.0785 -0.4512 -0.0020 35.1005 -0.0009
# 6 -0.0060 -0.0276 0.0044 -10.6271 -0.0009 52.8607
#
#
#
# Elastic Compliance Matrix: (Units=1/GPa)
#
#
# Indices 1 2 3 4 5 6 
#
# 1 0.013824 -0.005066 -0.003920 0.000000 0.002523 -0.000001
# 2 -0.005066 0.015231 -0.000447 0.000002 -0.004408 0.000008
# 3 -0.003920 -0.000447 0.015706 0.000002 -0.000041 -0.000002
# 4 0.000000 0.000002 0.000002 0.027860 0.000001 0.005601
# 5 0.002523 -0.004408 -0.000041 0.000001 0.029860 -0.000001
# 6 -0.000001 0.000008 -0.000002 0.005601 -0.000001 0.020044
#
#
# Mechanical properties :
#
#
# Convention : Reuss Voigt Hill
#
# Bulk Modulus (GPa) = 38.61614 40.53477 39.57546
# Shear Modulus (GPa) = 33.32870 36.91833 35.12352
#
# Velocity S-wave (km/s) = 3.79495 3.99409 3.89579
# Velocity P-wave (km/s) = 5.99070 6.22782 6.11041
#
# Compressibility (1/GPa) = 0.02589591
#
# Stress axis : x y z
#
# Youngs Moduli (GPa) = 72.34034 65.65641 63.66838
#
# Poissons Ratio (x) = 0.33259 0.24956
# Poissons Ratio (y) = 0.36645 0.02847
# Poissons Ratio (z) = 0.28355 0.02936
#
# Static dielectric constant tensor:
#      x y z
#    x 1.891870 0.000000 -0.030310 
#    y 0.000000 1.935690 -0.000010 
#    z -0.030310 -0.000010 1.881000 
# 
# From -- ./inp_files/25243.got.cif
#   From: 2010.05.17/outbox.cif.g08.bks.cpg/sg9_13_cif.got.tgz:25243.got - 2010.06.03 20:04:27.
