data_PCOD9140079
_publ_section_title
;
Structure prediction by ZEFSAII (Michael W. Deem and Ramdas Pophale) SiO2 
 PCOD9140079
Probable space group: C C
;
_chemical_formula_sum "Si O2"
_cell_formula_units_Z 32
_cell_length_a 21.607312
_cell_length_b 5.479424
_cell_length_c 10.974747
_cell_angle_alpha 90.000000
_cell_angle_beta 76.426053
_cell_angle_gamma 90.000000
_cell_volume 1263.068007
_symmetry_space_group_name_H-M "C C"
_symmetry_group_IT_number 9
_symmetry_cell_setting 'monoclinic'
loop_
_space_group_symop_operation_xyz
x,y,z
x,-y,1/2+z
1/2+x,1/2+y,z
1/2+x,1/2-y,1/2+z
loop_
_atom_site_type_symbol
_atom_site_label
_atom_site_fract_x
_atom_site_fract_y
_atom_site_fract_z
Si Si1 0.781360 0.378920 0.290590
Si Si2 0.649047 0.627755 0.735118
Si Si3 0.379874 0.031452 0.541019
Si Si4 0.837059 0.972465 0.947156
Si Si5 0.498897 0.733022 0.086398
Si Si6 0.595325 0.011488 0.908563
Si Si7 0.520416 0.608375 0.346528
Si Si8 0.718812 0.768055 0.479402
O O1 0.707859 0.336679 0.296943
O O2 0.817670 0.462168 0.154687
O O3 0.818029 0.141313 0.324167
O O4 0.771585 0.604296 0.387101
O O5 0.596917 0.432111 0.794488
O O6 0.680051 0.601767 0.590893
O O7 0.610019 0.872431 0.776149
O O8 0.374360 0.275084 0.457176
O O9 0.439184 0.085422 0.602503
O O10 0.375290 0.761538 0.484024
O O11 0.763712 0.030069 0.026140
O O12 0.497382 0.561856 0.966655
O O13 0.569278 0.848829 0.034747
O O14 0.493669 0.604334 0.222029
O O15 0.526878 0.130552 0.905201
O O16 0.661753 0.126009 0.924218
#
# Coordination Sequence:
#
# PCOD9140079 Si02
#       8
#     4   4   4   4   4   4   4   4
#     4  12  25  45  75 114 155 211 253 334 408 485
#     4  11  23  40  71 114 153 198 256 329 407 491
#     4  12  31  50  79 109 159 212 276 326 397 484
#     4  12  27  50  73 114 149 206 261 330 398 473
#     4  11  29  51  77 116 153 225 273 341 401 491
#     4  11  24  42  77 116 154 208 259 335 413 486
#     4  11  25  50  77 112 163 207 272 338 415 481
#     4  12  24  44  77 113 162 199 264 335 415 485
#
# _framework density 25.335137
#
# number of rings (size 3 to 8) (size 9 to 14) (size 15 to 20)
#    0.000    0.500    5.000    1.500    8.750    3.000 
#    0.000    0.000    0.000    0.000    0.000    0.000 
#    0.000    0.000    0.000    0.000    0.000    0.000 
#
# Total GULP energy -89113.787427 kJ/mol
# GULP energy per Si atom -5569.611714 kJ/mol
# Density = 2.527747 g / cm^3
# Si number density = 25.335137 Si / 1000 Ang^3
#
#
#
# Elastic Constant Matrix: (Units=GPa)
#
#
# Indices 1 2 3 4 5 6 
#
# 1 103.8130 18.9842 8.3637 0.0000 18.4924 0.0000
# 2 18.9842 68.4118 23.8154 0.0000 4.3274 0.0000
# 3 8.3637 23.8154 89.3975 0.0000 20.5896 0.0000
# 4 0.0000 0.0000 0.0000 29.0356 0.0000 4.5005
# 5 18.4924 4.3274 20.5896 0.0000 21.2471 0.0000
# 6 0.0000 0.0000 0.0000 4.5005 0.0000 -39.8836
#
#
#
# Elastic Compliance Matrix: (Units=1/GPa)
#
#
# Indices 1 2 3 4 5 6 
#
# 1 0.012312 -0.003559 0.002700 0.000000 -0.012607 0.000000
# 2 -0.003559 0.017161 -0.005339 0.000000 0.004776 0.000000
# 3 0.002700 -0.005339 0.016280 0.000000 -0.017039 0.000000
# 4 0.000000 0.000000 0.000000 0.033848 0.000000 0.003820
# 5 -0.012607 0.004776 -0.017039 0.000000 0.073577 0.000000
# 6 0.000000 0.000000 0.000000 0.003820 0.000000 -0.024642
#
#
# Mechanical properties :
#
#
# Convention : Reuss Voigt Hill
#
# Bulk Modulus (GPa) = 29.97839 40.43878 35.20858
# Shear Modulus (GPa) = 32.88377 16.11042 24.49709
#
# Velocity S-wave (km/s) = 3.60662 2.52443 3.11291
# Velocity P-wave (km/s) = 5.40389 4.94906 5.18147
#
# Compressibility (1/GPa) = 0.03335737
#
# Stress axis : x y z
#
# Youngs Moduli (GPa) = 81.22345 58.27041 61.42541
#
# Poissons Ratio (x) = 0.20738 -0.16584
# Poissons Ratio (y) = 0.28907 0.32794
# Poissons Ratio (z) = -0.21929 0.31109
#
# Static dielectric constant tensor:
#      x y z
#    x 2.048170 0.000000 0.079110 
#    y 0.000000 5.761300 0.000000 
#    z 0.079110 0.000000 2.028910 
# 
# From -- ./inp_files/20497.got.cif
#   From: 2010.05.17/outbox.cif.g08.bks.cpg/sg9_11_cif.got.tgz:20497.got - 2010.06.03 20:04:27.
