data_PCOD9140814
_publ_section_title
;
Structure prediction by ZEFSAII (Michael W. Deem and Ramdas Pophale) SiO2 
 PCOD9140814
Probable space group: C C
;
_chemical_formula_sum "Si O2"
_cell_formula_units_Z 24
_cell_length_a 4.817854
_cell_length_b 21.635210
_cell_length_c 9.011991
_cell_angle_alpha 90.000000
_cell_angle_beta 77.272619
_cell_angle_gamma 90.000000
_cell_volume 916.286584
_symmetry_space_group_name_H-M "C C"
_symmetry_group_IT_number 9
_symmetry_cell_setting 'monoclinic'
loop_
_space_group_symop_operation_xyz
x,y,z
x,-y,1/2+z
1/2+x,1/2+y,z
1/2+x,1/2-y,1/2+z
loop_
_atom_site_type_symbol
_atom_site_label
_atom_site_fract_x
_atom_site_fract_y
_atom_site_fract_z
Si Si1 0.041740 0.608615 0.945060
Si Si2 0.809957 0.856132 0.914523
Si Si3 0.268678 0.507840 0.424982
Si Si4 0.243872 0.941632 0.185344
Si Si5 0.910620 0.816367 0.199412
Si Si6 0.375836 0.179147 0.226808
O O1 0.252054 0.560052 0.000120
O O2 0.224069 0.665196 0.862212
O O3 0.916752 0.568263 0.822128
O O4 0.831218 0.638736 0.085221
O O5 0.913804 0.926036 0.930896
O O6 0.576540 0.857403 0.815498
O O7 0.069589 0.813726 0.834318
O O8 0.713252 0.826209 0.079048
O O9 0.467965 0.484390 0.257365
O O10 0.953925 0.530990 0.534189
O O11 0.133939 0.872451 0.164786
O O12 0.010902 0.746547 0.189656
#
# Coordination Sequence:
#
# PCOD9140814 Si02
#       6
#     4   4   4   4   4   4
#     4  11  27  47  77 112 157 208 260 338 398 478
#     4  12  28  49  78 114 154 214 265 335 403 480
#     4  11  26  46  78 113 161 206 270 331 411 478
#     4  11  26  47  81 114 160 213 266 341 403 481
#     4  11  27  50  76 109 160 210 267 335 398 477
#     4  12  30  47  80 116 158 211 276 326 403 488
#
# _framework density 26.192677
#
# number of rings (size 3 to 8) (size 9 to 14) (size 15 to 20)
#    0.000    0.667    1.667    3.000   16.333    0.000 
#    0.000    0.000    0.000    0.000    0.000    0.000 
#    0.000    0.000    0.000    0.000    0.000    0.000 
#
# Total GULP energy -66843.911379 kJ/mol
# GULP energy per Si atom -5570.325948 kJ/mol
# Density = 2.613306 g / cm^3
# Si number density = 26.192677 Si / 1000 Ang^3
#
#
#
# Elastic Constant Matrix: (Units=GPa)
#
#
# Indices 1 2 3 4 5 6 
#
# 1 107.7612 11.7196 57.2562 0.0000 -13.8748 0.0000
# 2 11.7196 142.4317 70.4553 0.0000 -5.6110 0.0000
# 3 57.2562 70.4553 96.5809 0.0000 -14.9802 0.0000
# 4 0.0000 0.0000 0.0000 34.0937 0.0000 -14.6052
# 5 -13.8748 -5.6110 -14.9802 0.0000 37.5520 0.0000
# 6 0.0000 0.0000 0.0000 -14.6052 0.0000 32.1713
#
#
#
# Elastic Compliance Matrix: (Units=1/GPa)
#
#
# Indices 1 2 3 4 5 6 
#
# 1 0.015724 0.005105 -0.012819 0.000000 0.001459 0.000000
# 2 0.005105 0.012740 -0.012506 0.000000 -0.001199 0.000000
# 3 -0.012819 -0.012506 0.027770 0.000000 0.004473 0.000000
# 4 0.000000 0.000000 0.000000 0.036412 0.000000 0.016531
# 5 0.001459 -0.001199 0.004473 0.000000 0.028774 0.000000
# 6 0.000000 0.000000 0.000000 0.016531 0.000000 0.038588
#
#
# Mechanical properties :
#
#
# Convention : Reuss Voigt Hill
#
# Bulk Modulus (GPa) = 63.31808 69.51510 66.41659
# Shear Modulus (GPa) = 24.30571 34.58623 29.44597
#
# Velocity S-wave (km/s) = 3.04955 3.63775 3.35656
# Velocity P-wave (km/s) = 6.05195 6.65145 6.35877
#
# Compressibility (1/GPa) = 0.01579328
#
# Stress axis : x y z
#
# Youngs Moduli (GPa) = 63.59906 78.49417 36.00963
#
# Poissons Ratio (x) = -0.40070 0.46161
# Poissons Ratio (y) = -0.32466 0.45033
# Poissons Ratio (z) = 0.81528 0.98164
#
# Static dielectric constant tensor:
#      x y z
#    x 2.156160 0.000000 0.110040 
#    y 0.000000 1.941820 0.000000 
#    z 0.110040 0.000000 2.139770 
# 
# From -- ./inp_files/3816.got.cif
#   From: 2010.05.17/outbox.cif.g08.bks.cpg/sg9_2_cif.got.tgz:3816.got - 2010.06.03 20:04:27.
