data_PCOD9140728
_publ_section_title
;
Structure prediction by ZEFSAII (Michael W. Deem and Ramdas Pophale) SiO2 
 PCOD9140728
Probable space group: C C
;
_chemical_formula_sum "Si O2"
_cell_formula_units_Z 32
_cell_length_a 16.474219
_cell_length_b 10.135375
_cell_length_c 13.424380
_cell_angle_alpha 90.000000
_cell_angle_beta 35.374541
_cell_angle_gamma 90.000000
_cell_volume 1297.647206
_symmetry_space_group_name_H-M "C C"
_symmetry_group_IT_number 9
_symmetry_cell_setting 'monoclinic'
loop_
_space_group_symop_operation_xyz
x,y,z
x,-y,1/2+z
1/2+x,1/2+y,z
1/2+x,1/2-y,1/2+z
loop_
_atom_site_type_symbol
_atom_site_label
_atom_site_fract_x
_atom_site_fract_y
_atom_site_fract_z
Si Si1 0.583480 0.448234 0.162530
Si Si2 0.792568 0.531650 0.298802
Si Si3 0.182164 0.327907 0.164310
Si Si4 0.838619 0.159270 0.781870
Si Si5 0.829640 0.363197 0.060304
Si Si6 0.647118 0.117562 0.279340
Si Si7 0.094471 0.449334 0.056234
Si Si8 0.959506 0.145409 0.449363
O O1 0.462859 0.353637 0.238667
O O2 0.723629 0.395606 0.076478
O O3 0.511500 0.537427 0.318898
O O4 0.653718 0.517101 0.995437
O O5 0.793848 0.691504 0.300563
O O6 0.803254 0.466847 0.178015
O O7 0.933772 0.493345 0.216605
O O8 0.192075 0.476396 0.193715
O O9 0.085235 0.247307 0.334925
O O10 0.125256 0.343838 0.110991
O O11 0.337427 0.273145 0.015587
O O12 0.706595 0.070437 0.948827
O O13 0.904554 0.104279 0.612382
O O14 0.771763 0.219889 0.145211
O O15 0.996746 0.355870 0.877159
O O16 0.615153 0.111579 0.427481
#
# Coordination Sequence:
#
# PCOD9140728 Si02
#       8
#     4   4   4   4   4   4   4   4
#     4  12  28  46  77 114 151 205 267 323 398 483
#     4  11  27  48  78 111 154 203 266 325 406 475
#     4  12  28  49  76 114 154 210 269 327 402 483
#     4  12  26  50  77 115 155 206 264 335 400 485
#     4  11  28  47  75 111 155 208 257 331 401 477
#     4  11  27  48  74 109 160 202 262 332 400 474
#     4  11  25  48  75 110 154 201 256 335 399 468
#     4  12  29  48  78 108 161 207 265 328 402 483
#
# _framework density 24.660015000000001
#
# number of rings (size 3 to 8) (size 9 to 14) (size 15 to 20)
#    0.000    0.500    2.500    3.750   15.750    2.000 
#    0.000    0.000    0.000    0.000    0.000    0.000 
#    0.000    0.000    0.000    0.000    0.000    0.000 
#
# Total GULP energy -89576.337705 kJ/mol
# GULP energy per Si atom -5598.521107 kJ/mol
# Density = 2.460389 g / cm^3
# Si number density = 24.660015 Si / 1000 Ang^3
#
#
#
# Elastic Constant Matrix: (Units=GPa)
#
#
# Indices 1 2 3 4 5 6 
#
# 1 151.2128 22.1180 23.2078 0.0000 -16.4335 0.0000
# 2 22.1180 65.4979 15.0788 0.0000 -0.2866 0.0000
# 3 23.2078 15.0788 96.3350 0.0000 2.6381 0.0000
# 4 0.0000 0.0000 0.0000 33.6929 0.0000 -1.1436
# 5 -16.4335 -0.2866 2.6381 0.0000 48.5792 0.0000
# 6 0.0000 0.0000 0.0000 -1.1436 0.0000 31.4907
#
#
#
# Elastic Compliance Matrix: (Units=1/GPa)
#
#
# Indices 1 2 3 4 5 6 
#
# 1 0.007443 -0.002151 -0.001527 0.000000 0.002588 0.000000
# 2 -0.002151 0.016462 -0.002044 0.000000 -0.000519 0.000000
# 3 -0.001527 -0.002044 0.011099 0.000000 -0.001132 0.000000
# 4 0.000000 0.000000 0.000000 0.029716 0.000000 0.001079
# 5 0.002588 -0.000519 -0.001132 0.000000 0.021519 0.000000
# 6 0.000000 0.000000 0.000000 0.001079 0.000000 0.031795
#
#
# Mechanical properties :
#
#
# Convention : Reuss Voigt Hill
#
# Bulk Modulus (GPa) = 42.44448 48.20610 45.32529
# Shear Modulus (GPa) = 36.40769 39.59528 38.00148
#
# Velocity S-wave (km/s) = 3.84654 4.01140 3.92984
# Velocity P-wave (km/s) = 6.08088 6.40670 6.24592
#
# Compressibility (1/GPa) = 0.02356019
#
# Stress axis : x y z
#
# Youngs Moduli (GPa) = 134.34565 60.74482 90.09486
#
# Poissons Ratio (x) = 0.13064 0.13761
# Poissons Ratio (y) = 0.28893 0.18419
# Poissons Ratio (z) = 0.20520 0.12419
#
# Static dielectric constant tensor:
#      x y z
#    x 2.013670 0.000000 0.007120 
#    y 0.000000 1.981390 0.000000 
#    z 0.007120 0.000000 1.975680 
# 
# From -- ./inp_files/26844.got.cif
#   From: 2010.05.17/outbox.cif.g08.bks.cpg/sg9_14_cif.got.tgz:26844.got - 2010.06.03 20:04:27.
