data_PCOD9141698
_publ_section_title
;
Structure prediction by ZEFSAII (Michael W. Deem and Ramdas Pophale) SiO2 
 PCOD9141698
Probable space group: P 2/M
;
_chemical_formula_sum "Si O2"
_cell_formula_units_Z 24
_cell_length_a 5.237789
_cell_length_b 21.944383
_cell_length_c 14.383658
_cell_angle_alpha 90.000000
_cell_angle_beta 113.807768
_cell_angle_gamma 90.000000
_cell_volume 1512.574235
_symmetry_space_group_name_H-M "P 2/M"
_symmetry_group_IT_number 10
_symmetry_cell_setting 'monoclinic'
loop_
_space_group_symop_operation_xyz
x,y,z
-x,y,-z
-x,-y,-z
x,-y,z
loop_
_atom_site_type_symbol
_atom_site_label
_atom_site_fract_x
_atom_site_fract_y
_atom_site_fract_z
Si Si1 0.083436 0.858157 0.614187
Si Si2 0.861886 0.569895 0.876561
Si Si3 0.336264 0.215735 0.816191
Si Si4 0.084955 0.854270 0.114495
Si Si5 0.362016 0.354794 0.876783
Si Si6 0.338424 0.072052 0.317268
O O1 0.185059 0.805598 0.699233
O O2 0.345641 0.903876 0.642200
O O3 0.000000 0.836116 0.500000
O O4 0.828743 0.893537 0.625723
O O5 0.832193 0.500000 0.840991
O O6 0.572064 0.604700 0.846900
O O7 0.073561 0.609298 0.846517
O O8 0.000000 0.567717 0.000000
O O9 0.169816 0.181146 0.873908
O O10 0.326879 0.287418 0.831726
O O11 0.653424 0.191710 0.858107
O O12 0.186564 0.906844 0.199530
O O13 0.000000 0.876255 0.000000
O O14 0.500000 0.348760 0.000000
O O15 0.328322 0.000000 0.328177
#
# Coordination Sequence:
#
# PCOD9141698 Si02
#       6
#     4   4   4   4   4   4
#     4  10  21  36  52  69  93 120 147 195 246 276
#     4   9  17  27  39  60  91 124 153 179 211 253
#     4  10  20  32  47  70  93 118 160 194 225 277
#     4  10  19  32  48  66  95 126 150 188 231 268
#     4  10  17  26  43  63  88 121 151 182 217 259
#     4  10  21  34  50  73  93 117 156 189 225 285
#
# _framework density 15.866989999999999
#
# number of rings (size 3 to 8) (size 9 to 14) (size 15 to 20)
#    0.000    2.167    0.000    4.000    0.000    5.667 
#    0.000    0.000    0.000    6.000    0.000    0.000 
#    0.000    4.000    0.000    0.000    0.000    0.000 
#
# Total GULP energy -133928.290154 kJ/mol
# GULP energy per Si atom -5580.345423 kJ/mol
# Density = 1.583088 g / cm^3
# Si number density = 15.866990 Si / 1000 Ang^3
#
#
#
# Elastic Constant Matrix: (Units=GPa)
#
#
# Indices 1 2 3 4 5 6 
#
# 1 98.1793 24.2655 5.9114 0.0000 -15.8469 0.0000
# 2 24.2655 81.3942 8.1558 0.0000 -5.1355 0.0000
# 3 5.9114 8.1558 73.8803 0.0000 -15.8861 0.0000
# 4 0.0000 0.0000 0.0000 4.3661 0.0000 -0.2059
# 5 -15.8469 -5.1355 -15.8861 0.0000 13.1400 0.0000
# 6 0.0000 0.0000 0.0000 -0.2059 0.0000 19.5363
#
#
#
# Elastic Compliance Matrix: (Units=1/GPa)
#
#
# Indices 1 2 3 4 5 6 
#
# 1 0.013982 -0.003269 0.003504 0.000000 0.019821 0.000000
# 2 -0.003269 0.013372 -0.001268 0.000000 -0.000249 0.000000
# 3 0.003504 -0.001268 0.019184 0.000000 0.026924 0.000000
# 4 0.000000 0.000000 0.000000 0.229154 0.000000 0.002415
# 5 0.019821 -0.000249 0.026924 0.000000 0.132461 0.000000
# 6 0.000000 0.000000 0.000000 0.002415 0.000000 0.051212
#
#
# Mechanical properties :
#
#
# Convention : Reuss Voigt Hill
#
# Bulk Modulus (GPa) = 22.48611 36.67992 29.58302
# Shear Modulus (GPa) = 10.49859 21.74987 16.12423
#
# Velocity S-wave (km/s) = 2.57507 3.70640 3.19127
# Velocity P-wave (km/s) = 4.80039 6.44079 5.68012
#
# Compressibility (1/GPa) = 0.04447189
#
# Stress axis : x y z
#
# Youngs Moduli (GPa) = 71.52261 74.78467 52.12586
#
# Poissons Ratio (x) = 0.24445 -0.18265
# Poissons Ratio (y) = 0.23379 0.06611
# Poissons Ratio (z) = -0.25062 0.09484
#
# Static dielectric constant tensor:
#      x y z
#    x 1.537220 0.000000 -0.002730 
#    y 0.000000 1.493480 0.000000 
#    z -0.002730 0.000000 1.522570 
# 
# From -- ./inp_files/39651.got.cif
#   From: 2010.05.17/outbox.cif.g08.bks.cpg/sg10_20_cif.got.tgz:39651.got - 2010.06.03 11:33:40.
