data_PCOD9141592
_publ_section_title
;
Structure prediction by ZEFSAII (Michael W. Deem and Ramdas Pophale) SiO2 
 PCOD9141592
Probable space group: P 2/M
;
_chemical_formula_sum "Si O2"
_cell_formula_units_Z 28
_cell_length_a 7.878886
_cell_length_b 18.208033
_cell_length_c 15.640860
_cell_angle_alpha 90.000000
_cell_angle_beta 141.700047
_cell_angle_gamma 90.000000
_cell_volume 1390.672624
_symmetry_space_group_name_H-M "P 2/M"
_symmetry_group_IT_number 10
_symmetry_cell_setting 'monoclinic'
loop_
_space_group_symop_operation_xyz
x,y,z
-x,y,-z
-x,-y,-z
x,-y,z
loop_
_atom_site_type_symbol
_atom_site_label
_atom_site_fract_x
_atom_site_fract_y
_atom_site_fract_z
Si Si1 0.796988 0.689282 0.581622
Si Si2 0.434563 0.725848 0.696470
Si Si3 0.802797 0.417776 0.339086
Si Si4 0.243561 0.857986 0.197443
Si Si5 0.150569 0.184716 0.739985
Si Si6 0.217226 0.915581 0.507145
Si Si7 0.660086 0.086983 0.956502
O O1 0.500000 0.670754 0.500000
O O2 0.723545 0.721259 0.457136
O O3 0.997014 0.620032 0.650625
O O4 0.964374 0.749441 0.703118
O O5 0.427725 0.642768 0.729277
O O6 0.717390 0.770604 0.800662
O O7 0.271655 0.774610 0.702292
O O8 0.710210 0.500000 0.281713
O O9 0.000000 0.422100 0.500000
O O10 0.494799 0.879637 0.356577
O O11 0.302142 0.900333 0.131047
O O12 0.945881 0.884077 0.108088
O O13 0.406676 0.140072 0.878163
O O14 0.931433 0.123880 0.628374
O O15 0.000000 0.910093 0.500000
O O16 0.263330 0.000000 0.507826
O O17 0.616637 0.000000 0.954712
#
# Coordination Sequence:
#
# PCOD9141592 Si02
#       7
#     4   4   4   4   4   4   4
#     4  10  18  28  45  68  91 118 156 194 222 263
#     4   9  16  28  45  64  91 120 151 177 225 275
#     4   8  15  27  45  69  98 124 142 172 226 281
#     4  10  17  25  38  64  94 118 144 194 234 274
#     4  10  17  29  44  64  89 121 149 192 233 277
#     4  11  16  21  38  61  84 115 151 185 232 277
#     4  10  18  26  39  65  95 116 151 201 242 270
#
# _framework density 20.134141
#
# number of rings (size 3 to 8) (size 9 to 14) (size 15 to 20)
#    0.000    2.286    4.286    3.429    0.000    0.286 
#    0.000    0.000    0.000    2.571    0.000   19.000 
#    0.000    0.000    0.000   39.286    0.000    0.000 
#
# Total GULP energy -156090.821796 kJ/mol
# GULP energy per Si atom -5574.672207 kJ/mol
# Density = 2.008831 g / cm^3
# Si number density = 20.134141 Si / 1000 Ang^3
#
#
#
# Elastic Constant Matrix: (Units=GPa)
#
#
# Indices 1 2 3 4 5 6 
#
# 1 65.1126 24.4955 22.4948 0.0000 11.5755 0.0000
# 2 24.4955 188.9795 51.6342 0.0000 17.6570 0.0000
# 3 22.4948 51.6342 112.6991 0.0000 10.8180 0.0000
# 4 0.0000 0.0000 0.0000 28.3954 0.0000 -15.5093
# 5 11.5755 17.6570 10.8180 0.0000 14.8610 0.0000
# 6 0.0000 0.0000 0.0000 -15.5093 0.0000 86.8286
#
#
#
# Elastic Compliance Matrix: (Units=1/GPa)
#
#
# Indices 1 2 3 4 5 6 
#
# 1 0.018516 -0.000667 -0.002238 0.000000 -0.012000 0.000000
# 2 -0.000667 0.006532 -0.002327 0.000000 -0.005547 0.000000
# 3 -0.002238 -0.002327 0.010701 0.000000 -0.003282 0.000000
# 4 0.000000 0.000000 0.000000 0.039024 0.000000 0.006970
# 5 -0.012000 -0.005547 -0.003282 0.000000 0.085618 0.000000
# 6 0.000000 0.000000 0.000000 0.006970 0.000000 0.012762
#
#
# Mechanical properties :
#
#
# Convention : Reuss Voigt Hill
#
# Bulk Modulus (GPa) = 39.55077 62.67114 51.11095
# Shear Modulus (GPa) = 26.03548 43.89476 34.96512
#
# Velocity S-wave (km/s) = 3.59987 4.67424 4.17178
# Velocity P-wave (km/s) = 6.07989 7.76696 6.97462
#
# Compressibility (1/GPa) = 0.02528396
#
# Stress axis : x y z
#
# Youngs Moduli (GPa) = 54.00844 153.08733 93.44839
#
# Poissons Ratio (x) = 0.10215 0.20915
# Poissons Ratio (y) = 0.03604 0.21746
# Poissons Ratio (z) = 0.12088 0.35625
#
# Static dielectric constant tensor:
#      x y z
#    x 1.858240 0.000000 0.011280 
#    y 0.000000 1.729820 0.000000 
#    z 0.011280 0.000000 1.707860 
# 
# From -- ./inp_files/83022.got.cif
#   From: 2010.05.17/outbox.cif.g08.bks.cpg/sg10_42_cif.got.tgz:83022.got - 2010.06.03 11:33:40.
