data_PCOD9141096
_publ_section_title
;
Structure prediction by ZEFSAII (Michael W. Deem and Ramdas Pophale) SiO2 
 PCOD9141096
Probable space group: C C
;
_chemical_formula_sum "Si O2"
_cell_formula_units_Z 28
_cell_length_a 21.587375
_cell_length_b 7.836299
_cell_length_c 8.925102
_cell_angle_alpha 90.000000
_cell_angle_beta 43.983239
_cell_angle_gamma 90.000000
_cell_volume 1048.488562
_symmetry_space_group_name_H-M "C C"
_symmetry_group_IT_number 9
_symmetry_cell_setting 'monoclinic'
loop_
_space_group_symop_operation_xyz
x,y,z
x,-y,1/2+z
1/2+x,1/2+y,z
1/2+x,1/2-y,1/2+z
loop_
_atom_site_type_symbol
_atom_site_label
_atom_site_fract_x
_atom_site_fract_y
_atom_site_fract_z
Si Si1 0.668650 0.136986 0.985890
Si Si2 0.305702 0.842263 0.547836
Si Si3 0.396145 0.655068 0.854056
Si Si4 0.744639 0.199441 0.356747
Si Si5 0.980924 0.508668 0.680145
Si Si6 0.977100 0.874640 0.528989
Si Si7 0.155821 0.115698 0.789552
O O1 0.748969 0.203431 0.738583
O O2 0.709006 0.970716 0.992967
O O3 0.659245 0.278403 0.130081
O O4 0.576049 0.069865 0.070414
O O5 0.301444 0.802713 0.377283
O O6 0.405633 0.898854 0.418801
O O7 0.240451 0.001214 0.668447
O O8 0.401572 0.489647 0.739919
O O9 0.426110 0.835837 0.729811
O O10 0.302871 0.669988 0.105710
O O11 0.461319 0.623529 0.881462
O O12 0.655212 0.285122 0.447673
O O13 0.993757 0.675412 0.549452
O O14 0.063791 0.981114 0.428996
#
# Coordination Sequence:
#
# PCOD9141096 Si02
#       7
#     4   4   4   4   4   4   4
#     4  12  27  49  80 113 160 215 269 339 412 502
#     4  12  27  49  80 113 160 215 269 339 412 502
#     4  12  28  50  77 116 157 208 275 338 412 502
#     4  12  26  47  72 111 156 200 264 333 408 488
#     4  12  26  52  80 110 160 218 270 328 422 490
#     4  12  28  50  77 116 157 208 275 338 412 502
#     4  12  26  47  72 111 156 200 264 333 408 488
#
# _framework density 26.705107999999999
#
# number of rings (size 3 to 8) (size 9 to 14) (size 15 to 20)
#    0.000    0.000    5.714    3.429    4.000    1.143 
#    0.000    0.000    0.000    0.000    0.000    0.000 
#    0.000    0.000    0.000    0.000    0.000    0.000 
#
# Total GULP energy -78168.050329 kJ/mol
# GULP energy per Si atom -5583.432166 kJ/mol
# Density = 2.664433 g / cm^3
# Si number density = 26.705108 Si / 1000 Ang^3
#
#
#
# Elastic Constant Matrix: (Units=GPa)
#
#
# Indices 1 2 3 4 5 6 
#
# 1 86.6966 -0.1054 16.0839 0.0000 -3.3757 0.0000
# 2 -0.1054 108.1007 14.4159 0.0000 29.8125 0.0000
# 3 16.0839 14.4159 79.9043 0.0000 9.4666 0.0000
# 4 0.0000 0.0000 0.0000 45.7175 0.0000 -8.8733
# 5 -3.3757 29.8125 9.4666 0.0000 48.3939 0.0000
# 6 0.0000 0.0000 0.0000 -8.8733 0.0000 28.0667
#
#
#
# Elastic Compliance Matrix: (Units=1/GPa)
#
#
# Indices 1 2 3 4 5 6 
#
# 1 0.012067 -0.000018 -0.002587 0.000000 0.001359 0.000000
# 2 -0.000018 0.011262 -0.001235 0.000000 -0.006698 0.000000
# 3 -0.002587 -0.001235 0.013503 0.000000 -0.002061 0.000000
# 4 0.000000 0.000000 0.000000 0.023303 0.000000 0.007367
# 5 0.001359 -0.006698 -0.002061 0.000000 0.025288 0.000000
# 6 0.000000 0.000000 0.000000 0.007367 0.000000 0.037959
#
#
# Mechanical properties :
#
#
# Convention : Reuss Voigt Hill
#
# Bulk Modulus (GPa) = 34.30152 37.27670 35.78911
# Shear Modulus (GPa) = 35.51668 40.72278 38.11973
#
# Velocity S-wave (km/s) = 3.65082 3.90924 3.78224
# Velocity P-wave (km/s) = 5.53568 5.86218 5.70127
#
# Compressibility (1/GPa) = 0.02915323
#
# Stress axis : x y z
#
# Youngs Moduli (GPa) = 82.86888 88.79083 74.05975
#
# Poissons Ratio (x) = 0.00160 0.19157
# Poissons Ratio (y) = 0.00149 0.09145
# Poissons Ratio (z) = 0.21436 0.10964
#
# Static dielectric constant tensor:
#      x y z
#    x 2.057710 0.000000 -0.131680 
#    y 0.000000 2.203600 0.000000 
#    z -0.131680 0.000000 2.235970 
# 
# From -- ./inp_files/11291.got.cif
#   From: 2010.05.17/outbox.cif.g08.bks.cpg/sg9_6_cif.got.tgz:11291.got - 2010.06.03 20:04:27.
