data_PCOD9141936
_publ_section_title
;
Structure prediction by ZEFSAII (Michael W. Deem and Ramdas Pophale) SiO2 
 PCOD9141936
Probable space group: P 2/M
;
_chemical_formula_sum "Si O2"
_cell_formula_units_Z 16
_cell_length_a 6.907408
_cell_length_b 12.507232
_cell_length_c 9.163211
_cell_angle_alpha 90.000000
_cell_angle_beta 57.219934
_cell_angle_gamma 90.000000
_cell_volume 665.569591
_symmetry_space_group_name_H-M "P 2/M"
_symmetry_group_IT_number 10
_symmetry_cell_setting 'monoclinic'
loop_
_space_group_symop_operation_xyz
x,y,z
-x,y,-z
-x,-y,-z
x,-y,z
loop_
_atom_site_type_symbol
_atom_site_label
_atom_site_fract_x
_atom_site_fract_y
_atom_site_fract_z
Si Si1 0.114847 0.000000 0.789544
Si Si2 0.793391 0.621976 0.962213
Si Si3 0.450534 0.758054 0.278851
Si Si4 0.121565 0.226881 0.668282
Si Si5 0.546871 0.000000 0.807243
O O1 0.058036 0.102348 0.715435
O O2 0.376427 0.000000 0.734438
O O3 0.000000 0.000000 0.000000
O O4 0.765430 0.500000 0.925743
O O5 0.905366 0.701274 0.798984
O O6 0.559685 0.671174 0.124932
O O7 0.000000 0.620613 0.000000
O O8 0.673143 0.766647 0.295949
O O9 0.237709 0.734851 0.471929
O O10 0.387705 0.874195 0.239031
O O11 0.500000 0.000000 0.000000
#
# Coordination Sequence:
#
# PCOD9141936 Si02
#       5
#     2   4   4   4   2
#     4  10  17  29  51  74  98 130 162 195 243 295
#     4   9  17  28  44  70  99 124 156 198 239 280
#     4   9  17  29  46  68  96 128 157 192 241 288
#     4   9  16  27  46  71  96 124 159 196 235 285
#     4  10  19  31  49  74 101 126 158 202 248 294
#
# _framework density 24.039559000000001
#
# number of rings (size 3 to 8) (size 9 to 14) (size 15 to 20)
#    0.000    2.750    0.000    4.500    0.000    4.000 
#    0.000    5.000    0.000   12.750    0.000    1.750 
#    0.000    0.000    0.000    0.000    0.000    0.000 
#
# Total GULP energy -89172.761802 kJ/mol
# GULP energy per Si atom -5573.297613 kJ/mol
# Density = 2.398484 g / cm^3
# Si number density = 24.039559 Si / 1000 Ang^3
#
#
#
# Elastic Constant Matrix: (Units=GPa)
#
#
# Indices 1 2 3 4 5 6 
#
# 1 131.0954 43.0691 25.1796 0.0000 -7.6180 0.0000
# 2 43.0691 220.1541 114.2340 0.0000 -35.2179 0.0000
# 3 25.1796 114.2340 157.3109 0.0000 -25.0151 0.0000
# 4 0.0000 0.0000 0.0000 -9.5094 0.0000 -0.3543
# 5 -7.6180 -35.2179 -25.0151 0.0000 40.4572 0.0000
# 6 0.0000 0.0000 0.0000 -0.3543 0.0000 6.3257
#
#
#
# Elastic Compliance Matrix: (Units=1/GPa)
#
#
# Indices 1 2 3 4 5 6 
#
# 1 0.008158 -0.001458 -0.000227 0.000000 0.000127 0.000000
# 2 -0.001458 0.007999 -0.005003 0.000000 0.003595 0.000000
# 3 -0.000227 -0.005003 0.010344 0.000000 0.001998 0.000000
# 4 0.000000 0.000000 0.000000 -0.104941 0.000000 -0.005878
# 5 0.000127 0.003595 0.001998 0.000000 0.029106 0.000000
# 6 0.000000 0.000000 0.000000 -0.005878 0.000000 0.157757
#
#
# Mechanical properties :
#
#
# Convention : Reuss Voigt Hill
#
# Bulk Modulus (GPa) = 76.19498 97.05844 86.62671
# Shear Modulus (GPa) = 39.62775 29.19320 34.41048
#
# Velocity S-wave (km/s) = 4.06450 3.48858 3.78750
# Velocity P-wave (km/s) = 7.33426 7.52921 7.43238
#
# Compressibility (1/GPa) = 0.01312422
#
# Stress axis : x y z
#
# Youngs Moduli (GPa) = 122.57966 125.01996 96.67288
#
# Poissons Ratio (x) = 0.18227 0.02194
# Poissons Ratio (y) = 0.17871 0.48370
# Poissons Ratio (z) = 0.02782 0.62553
#
# Static dielectric constant tensor:
#      x y z
#    x 2.012880 0.000000 0.030090 
#    y 0.000000 1.886250 0.000000 
#    z 0.030090 0.000000 2.007370 
# 
# From -- ./inp_files/17676.got.cif
#   From: 2010.05.17/outbox.cif.g08.bks.cpg/sg10_9_cif.got.tgz:17676.got - 2010.06.03 11:33:40.
