data_PCOD9141927
_publ_section_title
;
Structure prediction by ZEFSAII (Michael W. Deem and Ramdas Pophale) SiO2 
 PCOD9141927
Probable space group: P 2/M
;
_chemical_formula_sum "Si O2"
_cell_formula_units_Z 32
_cell_length_a 23.740427
_cell_length_b 8.786954
_cell_length_c 15.493165
_cell_angle_alpha 90.000000
_cell_angle_beta 39.631475
_cell_angle_gamma 90.000000
_cell_volume 2061.501510
_symmetry_space_group_name_H-M "P 2/M"
_symmetry_group_IT_number 10
_symmetry_cell_setting 'monoclinic'
loop_
_space_group_symop_operation_xyz
x,y,z
-x,y,-z
-x,-y,-z
x,-y,z
loop_
_atom_site_type_symbol
_atom_site_label
_atom_site_fract_x
_atom_site_fract_y
_atom_site_fract_z
Si Si1 0.384809 0.316620 0.492793
Si Si2 0.081491 0.817115 0.788877
Si Si3 0.371876 0.684627 0.209443
Si Si4 0.884092 0.183692 0.052611
Si Si5 0.699387 0.682129 0.222724
Si Si6 0.566668 0.315949 0.047443
Si Si7 0.575538 0.818901 0.222542
Si Si8 0.753960 0.316562 0.493777
O O1 0.395915 0.500000 0.475599
O O2 0.347760 0.276450 0.630807
O O3 0.478533 0.241194 0.363461
O O4 0.313369 0.273699 0.504139
O O5 0.110925 0.773847 0.851638
O O6 0.150414 0.748109 0.640911
O O7 0.084902 0.000000 0.780656
O O8 0.978945 0.772147 0.900763
O O9 0.370301 0.500000 0.210430
O O10 0.464676 0.724788 0.145879
O O11 0.290913 0.736321 0.364038
O O12 0.377888 0.731887 0.102594
O O13 0.799468 0.259285 0.109956
O O14 0.876738 0.000000 0.057037
O O15 0.697810 0.500000 0.217628
O O16 0.645513 0.754051 0.208006
O O17 0.570364 0.500000 0.050784
O O18 0.594015 0.241707 0.104494
O O19 0.576478 0.000000 0.222825
O O20 0.758557 0.500000 0.489261
#
# Coordination Sequence:
#
# PCOD9141927 Si02
#       8
#     4   4   4   4   4   4   4   4
#     4  10  20  34  49  68  97 131 167 203 234 274
#     4   9  18  31  48  70  99 132 159 191 242 292
#     4   8  15  28  51  73  93 124 160 197 243 286
#     4   9  18  33  49  68  97 130 163 198 237 286
#     4  11  22  35  51  70  93 128 170 208 241 276
#     4   9  16  32  52  69  92 126 163 200 239 285
#     4  12  24  34  47  69  97 132 167 202 241 285
#     4  10  17  29  49  75 100 126 162 201 236 281
#
# _framework density 15.522667
#
# number of rings (size 3 to 8) (size 9 to 14) (size 15 to 20)
#    0.000    2.250    2.500    3.375    0.000    3.500 
#    0.000    3.125    0.000    0.000    0.000    0.875 
#    0.000    7.000    0.000    0.000    0.000    0.000 
#
# Total GULP energy -178489.862397 kJ/mol
# GULP energy per Si atom -5577.808200 kJ/mol
# Density = 1.548734 g / cm^3
# Si number density = 15.522667 Si / 1000 Ang^3
#
#
#
# Elastic Constant Matrix: (Units=GPa)
#
#
# Indices 1 2 3 4 5 6 
#
# 1 92.8219 33.5313 71.8227 0.0000 5.6265 0.0000
# 2 33.5313 26.2593 37.4620 0.0000 2.0204 0.0000
# 3 71.8227 37.4620 156.6561 0.0000 7.2943 0.0000
# 4 0.0000 0.0000 0.0000 32.3299 0.0000 -0.8485
# 5 5.6265 2.0204 7.2943 0.0000 20.3171 0.0000
# 6 0.0000 0.0000 0.0000 -0.8485 0.0000 20.8799
#
#
#
# Elastic Compliance Matrix: (Units=1/GPa)
#
#
# Indices 1 2 3 4 5 6 
#
# 1 0.022611 -0.021340 -0.005157 0.000000 -0.002288 0.000000
# 2 -0.021340 0.077953 -0.008921 0.000000 0.001361 0.000000
# 3 -0.005157 -0.008921 0.010956 0.000000 -0.001618 0.000000
# 4 0.000000 0.000000 0.000000 0.030964 0.000000 0.001258
# 5 -0.002288 0.001361 -0.001618 0.000000 0.050299 0.000000
# 6 0.000000 0.000000 0.000000 0.001258 0.000000 0.047944
#
#
# Mechanical properties :
#
#
# Convention : Reuss Voigt Hill
#
# Bulk Modulus (GPa) = 24.57886 62.37439 43.47662
# Shear Modulus (GPa) = 15.37867 23.56680 19.47273
#
# Velocity S-wave (km/s) = 3.15099 3.90066 3.54569
# Velocity P-wave (km/s) = 5.39508 7.78183 6.69566
#
# Compressibility (1/GPa) = 0.04068537
#
# Stress axis : x y z
#
# Youngs Moduli (GPa) = 44.22582 12.82818 91.27043
#
# Poissons Ratio (x) = 0.27375 0.47068
# Poissons Ratio (y) = 0.94377 0.81423
# Poissons Ratio (z) = 0.22807 0.11444
#
# Static dielectric constant tensor:
#      x y z
#    x 1.492150 0.000000 0.011650 
#    y 0.000000 1.519990 0.000000 
#    z 0.011650 0.000000 1.524450 
# 
# From -- ./inp_files/69970.got.cif
#   From: 2010.05.17/outbox.cif.g08.bks.cpg/sg10_35_cif.got.tgz:69970.got - 2010.06.03 11:33:40.
