data_PCOD9141676
_publ_section_title
;
Structure prediction by ZEFSAII (Michael W. Deem and Ramdas Pophale) SiO2 
 PCOD9141676
Probable space group: P 2/M
;
_chemical_formula_sum "Si O2"
_cell_formula_units_Z 32
_cell_length_a 26.221253
_cell_length_b 22.114698
_cell_length_c 5.146551
_cell_angle_alpha 90.000000
_cell_angle_beta 124.502377
_cell_angle_gamma 90.000000
_cell_volume 2459.416409
_symmetry_space_group_name_H-M "P 2/M"
_symmetry_group_IT_number 10
_symmetry_cell_setting 'monoclinic'
loop_
_space_group_symop_operation_xyz
x,y,z
-x,y,-z
-x,-y,-z
x,-y,z
loop_
_atom_site_type_symbol
_atom_site_label
_atom_site_fract_x
_atom_site_fract_y
_atom_site_fract_z
Si Si1 0.931425 0.427143 0.364639
Si Si2 0.574577 0.068244 0.203793
Si Si3 0.853653 0.426834 0.643094
Si Si4 0.628482 0.723448 0.952399
Si Si5 0.425034 0.853783 0.295503
Si Si6 0.722544 0.626397 0.127397
Si Si7 0.429755 0.332217 0.715180
Si Si8 0.337684 0.429050 0.545260
O O1 0.935166 0.500000 0.356471
O O2 0.905684 0.414525 0.575829
O O3 0.000000 0.403350 0.500000
O O4 0.881567 0.409889 0.002469
O O5 0.590831 0.114375 0.479403
O O6 0.598956 0.000000 0.305236
O O7 0.500000 0.063873 0.000000
O O8 0.589085 0.098172 0.970796
O O9 0.840000 0.500000 0.599407
O O10 0.792837 0.389101 0.397823
O O11 0.613991 0.793237 0.860737
O O12 0.584358 0.688492 0.618056
O O13 0.695848 0.694342 0.087534
O O14 0.610003 0.707333 0.194081
O O15 0.500000 0.840493 0.500000
O O16 0.682896 0.588040 0.223489
O O17 0.706932 0.603554 0.792978
O O18 0.404344 0.399801 0.681653
O O19 0.500000 0.325245 0.000000
O O20 0.335308 0.500000 0.499740
#
# Coordination Sequence:
#
# PCOD9141676 Si02
#       8
#     4   4   4   4   4   4   4   4
#     4   9  17  27  39  58  79  95 115 145 181 223
#     4   9  17  27  39  58  79  95 115 145 181 223
#     4  10  17  26  42  57  73  99 123 146 185 230
#     4  10  20  31  42  57  75  95 123 157 188 221
#     4  10  17  26  42  57  73  99 123 146 185 230
#     4  10  20  31  42  57  75  95 123 157 188 221
#     4  10  19  30  42  54  70  90 116 155 196 235
#     4  10  19  30  42  54  70  90 116 155 196 235
#
# _framework density 13.011217
#
# number of rings (size 3 to 8) (size 9 to 14) (size 15 to 20)
#    0.000    2.250    0.000    4.500    0.000    5.250 
#    0.000    0.000    0.000    4.500    0.000    0.000 
#    0.000    0.000    0.000    0.000    0.000    0.000 
#
# Total GULP energy -178317.393485 kJ/mol
# GULP energy per Si atom -5572.418546 kJ/mol
# Density = 1.298160 g / cm^3
# Si number density = 13.011217 Si / 1000 Ang^3
#
#
#
# Elastic Constant Matrix: (Units=GPa)
#
#
# Indices 1 2 3 4 5 6 
#
# 1 14.1230 4.3249 0.8531 0.0000 1.9434 0.0000
# 2 4.3249 57.5317 1.1923 0.0000 7.5258 0.0000
# 3 0.8531 1.1923 27.2389 0.0000 -7.3346 0.0000
# 4 0.0000 0.0000 0.0000 5.2872 0.0000 3.3665
# 5 1.9434 7.5258 -7.3346 0.0000 22.8031 0.0000
# 6 0.0000 0.0000 0.0000 3.3665 0.0000 -1.8604
#
#
#
# Elastic Compliance Matrix: (Units=1/GPa)
#
#
# Indices 1 2 3 4 5 6 
#
# 1 0.073266 -0.004661 -0.003676 0.000000 -0.005888 0.000000
# 2 -0.004661 0.018637 -0.002429 0.000000 -0.006535 0.000000
# 3 -0.003676 -0.002429 0.040765 0.000000 0.014227 0.000000
# 4 0.000000 0.000000 0.000000 0.087880 0.000000 0.159023
# 5 -0.005888 -0.006535 0.014227 0.000000 0.051088 0.000000
# 6 0.000000 0.000000 0.000000 0.159023 0.000000 -0.249752
#
#
# Mechanical properties :
#
#
# Convention : Reuss Voigt Hill
#
# Bulk Modulus (GPa) = 8.99814 12.40382 10.70098
# Shear Modulus (GPa) = 62.13934 11.41420 36.77677
#
# Velocity S-wave (km/s) = 6.91823 2.96507 5.32229
# Velocity P-wave (km/s) = 8.41110 4.61260 6.78317
#
# Compressibility (1/GPa) = 0.11113403
#
# Stress axis : x y z
#
# Youngs Moduli (GPa) = 13.64883 53.65565 24.53113
#
# Poissons Ratio (x) = 0.25011 0.09018
# Poissons Ratio (y) = 0.06362 0.05960
# Poissons Ratio (z) = 0.05018 0.13036
#
# Static dielectric constant tensor:
#      x y z
#    x 1.433030 0.000000 -0.011650 
#    y 0.000000 1.415330 0.000000 
#    z -0.011650 0.000000 1.436100 
# 
# From -- ./inp_files/12786.got.cif
#   From: 2010.05.17/outbox.cif.g08.bks.cpg/sg10_7_cif.got.tgz:12786.got - 2010.06.03 11:33:40.
