data_PCOD9141910
_publ_section_title
;
Structure prediction by ZEFSAII (Michael W. Deem and Ramdas Pophale) SiO2 
 PCOD9141910
Probable space group: P 2/M
;
_chemical_formula_sum "Si O2"
_cell_formula_units_Z 24
_cell_length_a 13.854977
_cell_length_b 20.276271
_cell_length_c 8.557114
_cell_angle_alpha 90.000000
_cell_angle_beta 152.116924
_cell_angle_gamma 90.000000
_cell_volume 1124.241371
_symmetry_space_group_name_H-M "P 2/M"
_symmetry_group_IT_number 10
_symmetry_cell_setting 'monoclinic'
loop_
_space_group_symop_operation_xyz
x,y,z
-x,y,-z
-x,-y,-z
x,-y,z
loop_
_atom_site_type_symbol
_atom_site_label
_atom_site_fract_x
_atom_site_fract_y
_atom_site_fract_z
Si Si1 0.644698 0.500000 0.855989
Si Si2 0.073657 0.500000 0.286177
Si Si3 0.236475 0.000000 0.905685
Si Si4 0.648985 0.863027 0.860781
Si Si5 0.937427 0.000000 0.734332
Si Si6 0.077210 0.143261 0.289036
Si Si7 0.221595 0.394467 0.725381
Si Si8 0.225450 0.243685 0.735087
O O1 0.500000 0.500000 0.500000
O O2 0.632079 0.436756 0.950737
O O3 0.869254 0.500000 0.099453
O O4 0.192875 0.435389 0.523045
O O5 0.000000 0.500000 0.000000
O O6 0.166141 0.000000 0.984766
O O7 0.000000 0.000000 0.500000
O O8 0.356188 0.932205 0.053329
O O9 0.500000 0.862925 0.500000
O O10 0.876725 0.859550 0.112799
O O11 0.630325 0.800255 0.946095
O O12 0.827862 0.930010 0.550185
O O13 0.000000 0.000000 0.000000
O O14 0.204046 0.203288 0.542979
O O15 0.000000 0.151422 0.000000
O O16 0.286877 0.319157 0.799006
O O17 0.000000 0.393422 0.500000
O O18 0.000000 0.245615 0.500000
#
# Coordination Sequence:
#
# PCOD9141910 Si02
#       8
#     2   2   2   4   2   4   4   4
#     4   9  17  31  52  72  92 121 153 185 228 274
#     4   9  17  31  52  74  94 119 153 193 226 264
#     4  10  17  29  48  67  87 118 160 196 227 273
#     4  10  19  30  46  70  95 119 152 198 239 269
#     4   8  14  25  42  63  84 108 145 188 222 257
#     4   9  17  30  48  67  89 123 160 190 226 277
#     4   8  16  31  48  68  95 125 155 184 221 277
#     4   9  17  30  48  68  92 125 159 186 222 278
#
# _framework density 21.347728
#
# number of rings (size 3 to 8) (size 9 to 14) (size 15 to 20)
#    0.000    3.000    0.000    3.750    0.000    1.333 
#    0.000    2.500    0.000    2.000    0.000   15.167 
#    0.000    0.000    0.000    0.000    0.000    0.000 
#
# Total GULP energy -133729.525935 kJ/mol
# GULP energy per Si atom -5572.063581 kJ/mol
# Density = 2.129914 g / cm^3
# Si number density = 21.347728 Si / 1000 Ang^3
#
#
#
# Elastic Constant Matrix: (Units=GPa)
#
#
# Indices 1 2 3 4 5 6 
#
# 1 64.8321 23.2453 8.9884 0.0000 -11.2242 0.0000
# 2 23.2453 268.1486 109.4351 0.0000 -39.9212 0.0000
# 3 8.9884 109.4351 141.4413 0.0000 -42.0190 0.0000
# 4 0.0000 0.0000 0.0000 18.1200 0.0000 -6.1411
# 5 -11.2242 -39.9212 -42.0190 0.0000 40.7597 0.0000
# 6 0.0000 0.0000 0.0000 -6.1411 0.0000 7.2108
#
#
#
# Elastic Compliance Matrix: (Units=1/GPa)
#
#
# Indices 1 2 3 4 5 6 
#
# 1 0.016505 -0.001277 0.001323 0.000000 0.004658 0.000000
# 2 -0.001277 0.005607 -0.003936 0.000000 0.001083 0.000000
# 3 0.001323 -0.003936 0.012965 0.000000 0.009875 0.000000
# 4 0.000000 0.000000 0.000000 0.077581 0.000000 0.066072
# 5 0.004658 0.001083 0.009875 0.000000 0.037058 0.000000
# 6 0.000000 0.000000 0.000000 0.066072 0.000000 0.194952
#
#
# Mechanical properties :
#
#
# Convention : Reuss Voigt Hill
#
# Bulk Modulus (GPa) = 36.63252 84.19553 60.41403
# Shear Modulus (GPa) = 13.82947 35.40164 24.61555
#
# Velocity S-wave (km/s) = 2.54799 4.07668 3.39938
# Velocity P-wave (km/s) = 5.08463 7.85397 6.61582
#
# Compressibility (1/GPa) = 0.02729815
#
# Stress axis : x y z
#
# Youngs Moduli (GPa) = 60.58597 178.33467 77.13304
#
# Poissons Ratio (x) = 0.22780 -0.10207
# Poissons Ratio (y) = 0.07739 0.30356
# Poissons Ratio (z) = -0.08017 0.70185
#
# Static dielectric constant tensor:
#      x y z
#    x 1.605510 0.000000 0.197000 
#    y 0.000000 1.809300 0.000000 
#    z 0.197000 0.000000 1.648400 
# 
# From -- ./inp_files/33082.got.cif
#   From: 2010.05.17/outbox.cif.g08.bks.cpg/sg10_17_cif.got.tgz:33082.got - 2010.06.03 11:33:40.
