data_PCOD9141604
_publ_section_title
;
Structure prediction by ZEFSAII (Michael W. Deem and Ramdas Pophale) SiO2 
 PCOD9141604
Probable space group: P 2/M
;
_chemical_formula_sum "Si O2"
_cell_formula_units_Z 28
_cell_length_a 11.642466
_cell_length_b 8.584848
_cell_length_c 19.095957
_cell_angle_alpha 90.000000
_cell_angle_beta 62.268520
_cell_angle_gamma 90.000000
_cell_volume 1689.390504
_symmetry_space_group_name_H-M "P 2/M"
_symmetry_group_IT_number 10
_symmetry_cell_setting 'monoclinic'
loop_
_space_group_symop_operation_xyz
x,y,z
-x,y,-z
-x,-y,-z
x,-y,z
loop_
_atom_site_type_symbol
_atom_site_label
_atom_site_fract_x
_atom_site_fract_y
_atom_site_fract_z
Si Si1 0.102942 0.185601 0.063130
Si Si2 0.026998 0.315221 0.384664
Si Si3 0.011537 0.187876 0.236050
Si Si4 0.799669 0.813020 0.542437
Si Si5 0.823153 0.684517 0.095441
Si Si6 0.485469 0.810008 0.423910
Si Si7 0.725818 0.188154 0.259477
O O1 0.104435 0.231576 0.144375
O O2 0.956856 0.231865 0.081264
O O3 0.116762 0.000000 0.054283
O O4 0.195975 0.264697 0.979641
O O5 0.015157 0.500000 0.393235
O O6 0.140987 0.257863 0.403717
O O7 0.046645 0.263278 0.299530
O O8 0.895947 0.238361 0.452805
O O9 0.863487 0.231034 0.256437
O O10 0.014517 0.000000 0.241686
O O11 0.653368 0.762587 0.567608
O O12 0.803569 0.000000 0.546342
O O13 0.840940 0.500000 0.093579
O O14 0.722373 0.739777 0.182771
O O15 0.500000 0.757630 0.500000
O O16 0.606333 0.761728 0.341723
O O17 0.486774 0.000000 0.424538
O O18 0.724826 0.000000 0.253480
#
# Coordination Sequence:
#
# PCOD9141604 Si02
#       7
#     4   4   4   4   4   4   4
#     4   9  16  27  43  62  87 120 155 191 229 268
#     4  11  21  32  47  67  94 123 152 189 231 274
#     4   9  17  29  47  69  92 120 154 190 227 270
#     4  10  19  33  52  69  89 119 156 193 227 267
#     4  10  17  25  39  62  93 124 153 184 223 274
#     4   9  17  30  50  73  92 115 152 194 229 263
#     4   9  17  30  47  67  93 123 155 189 227 273
#
# _framework density 16.574024999999999
#
# number of rings (size 3 to 8) (size 9 to 14) (size 15 to 20)
#    0.000    2.429    0.000    6.857    0.000    5.143 
#    0.000    1.429    0.000    3.000    0.000    1.000 
#    0.000    8.000    0.000    0.000    0.000    0.000 
#
# Total GULP energy -156060.780738 kJ/mol
# GULP energy per Si atom -5573.599312 kJ/mol
# Density = 1.653630 g / cm^3
# Si number density = 16.574025 Si / 1000 Ang^3
#
#
#
# Elastic Constant Matrix: (Units=GPa)
#
#
# Indices 1 2 3 4 5 6 
#
# 1 43.3646 3.9446 45.5604 0.0000 2.4390 0.0000
# 2 3.9446 8.6627 14.8018 0.0000 3.5890 0.0000
# 3 45.5604 14.8018 157.0133 0.0000 16.3773 0.0000
# 4 0.0000 0.0000 0.0000 18.0220 0.0000 43.6619
# 5 2.4390 3.5890 16.3773 0.0000 22.2214 0.0000
# 6 0.0000 0.0000 0.0000 43.6619 0.0000 115.6769
#
#
#
# Elastic Compliance Matrix: (Units=1/GPa)
#
#
# Indices 1 2 3 4 5 6 
#
# 1 0.033466 0.000568 -0.010152 0.000000 0.003717 0.000000
# 2 0.000568 0.141585 -0.012046 0.000000 -0.014052 0.000000
# 3 -0.010152 -0.012046 0.010975 0.000000 -0.005029 0.000000
# 4 0.000000 0.000000 0.000000 0.648534 0.000000 -0.244787
# 5 0.003717 -0.014052 -0.005029 0.000000 0.050569 0.000000
# 6 0.000000 0.000000 0.000000 -0.244787 0.000000 0.101039
#
#
# Mechanical properties :
#
#
# Convention : Reuss Voigt Hill
#
# Bulk Modulus (GPa) = 7.00459 37.51712 22.26085
# Shear Modulus (GPa) = 4.64245 40.83297 22.73771
#
# Velocity S-wave (km/s) = 1.67545 4.96892 3.70792
# Velocity P-wave (km/s) = 2.82458 7.45691 5.63843
#
# Compressibility (1/GPa) = 0.14276359
#
# Stress axis : x y z
#
# Youngs Moduli (GPa) = 29.88151 7.06292 91.11803
#
# Poissons Ratio (x) = -0.00401 0.92502
# Poissons Ratio (y) = -0.01696 1.09764
# Poissons Ratio (z) = 0.30335 0.08508
#
# Static dielectric constant tensor:
#      x y z
#    x 1.536440 0.000000 0.011890 
#    y 0.000000 1.549940 0.000000 
#    z 0.011890 0.000000 1.597490 
# 
# From -- ./inp_files/83196.got.cif
#   From: 2010.05.17/outbox.cif.g08.bks.cpg/sg10_42_cif.got.tgz:83196.got - 2010.06.03 11:33:40.
