data_PCOD9141450
_publ_section_title
;
Structure prediction by ZEFSAII (Michael W. Deem and Ramdas Pophale) SiO2 
 PCOD9141450
Probable space group: P 2/M
;
_chemical_formula_sum "Si O2"
_cell_formula_units_Z 18
_cell_length_a 7.566511
_cell_length_b 19.801516
_cell_length_c 10.577005
_cell_angle_alpha 90.000000
_cell_angle_beta 152.346315
_cell_angle_gamma 90.000000
_cell_volume 735.517298
_symmetry_space_group_name_H-M "P 2/M"
_symmetry_group_IT_number 10
_symmetry_cell_setting 'monoclinic'
loop_
_space_group_symop_operation_xyz
x,y,z
-x,y,-z
-x,-y,-z
x,-y,z
loop_
_atom_site_type_symbol
_atom_site_label
_atom_site_fract_x
_atom_site_fract_y
_atom_site_fract_z
Si Si1 0.403993 0.640628 0.180877
Si Si2 0.448427 0.500000 0.315117
Si Si3 0.335427 0.923723 0.606157
Si Si4 0.121068 0.303511 0.330412
Si Si5 0.832834 0.156384 0.105040
O O1 0.582133 0.568833 0.333289
O O2 0.716958 0.694642 0.425014
O O3 0.000000 0.648956 0.000000
O O4 0.237395 0.651109 0.935937
O O5 0.500000 0.500000 0.500000
O O6 0.000000 0.500000 0.000000
O O7 0.000000 0.925935 0.500000
O O8 0.135814 0.895900 0.354445
O O9 0.480261 0.000000 0.683497
O O10 0.643364 0.872648 0.858904
O O11 0.500000 0.329750 0.500000
O O12 0.022225 0.229472 0.217640
O O13 0.500000 0.162810 0.000000
#
# Coordination Sequence:
#
# PCOD9141450 Si02
#       5
#     4   2   4   4   4
#     4   9  17  28  44  67  93 122 152 188 230 271
#     4  10  16  26  44  68  95 120 153 196 233 264
#     4   9  17  30  49  71  92 115 150 196 236 268
#     4  10  19  31  46  67  96 125 151 183 230 278
#     4  10  19  31  49  71  92 119 155 190 227 273
#
# _framework density 24.472570000000001
#
# number of rings (size 3 to 8) (size 9 to 14) (size 15 to 20)
#    0.000    2.444    0.000    5.333    0.000    2.667 
#    0.000    0.000    0.000    4.000    0.000    4.667 
#    0.000    0.000    0.000    0.000    0.000    0.000 
#
# Total GULP energy -100524.076729 kJ/mol
# GULP energy per Si atom -5584.670929 kJ/mol
# Density = 2.441687 g / cm^3
# Si number density = 24.472570 Si / 1000 Ang^3
#
#
#
# Elastic Constant Matrix: (Units=GPa)
#
#
# Indices 1 2 3 4 5 6 
#
# 1 68.8034 -16.6449 11.1790 0.0000 26.1285 0.0000
# 2 -16.6449 134.9622 64.4018 0.0000 1.5078 0.0000
# 3 11.1790 64.4018 207.2945 0.0000 -28.4245 0.0000
# 4 0.0000 0.0000 0.0000 45.9458 0.0000 -4.8241
# 5 26.1285 1.5078 -28.4245 0.0000 -5.7290 0.0000
# 6 0.0000 0.0000 0.0000 -4.8241 0.0000 12.6736
#
#
#
# Elastic Compliance Matrix: (Units=1/GPa)
#
#
# Indices 1 2 3 4 5 6 
#
# 1 0.006805 -0.000518 0.002399 0.000000 0.018997 0.000000
# 2 -0.000518 0.007972 -0.001479 0.000000 0.007075 0.000000
# 3 0.002399 -0.001479 0.003928 0.000000 -0.008939 0.000000
# 4 0.000000 0.000000 0.000000 0.022671 0.000000 0.008629
# 5 0.018997 0.007075 -0.008939 0.000000 -0.041694 0.000000
# 6 0.000000 0.000000 0.000000 0.008629 0.000000 0.082189
#
#
# Mechanical properties :
#
#
# Convention : Reuss Voigt Hill
#
# Bulk Modulus (GPa) = 51.25562 58.77021 55.01291
# Shear Modulus (GPa) = 57.09713 34.05303 45.57508
#
# Velocity S-wave (km/s) = 4.83547 3.73430 4.32011
# Velocity P-wave (km/s) = 7.22255 6.53148 6.88569
#
# Compressibility (1/GPa) = 0.01951005
#
# Stress axis : x y z
#
# Youngs Moduli (GPa) = 146.95413 125.43473 254.56035
#
# Poissons Ratio (x) = 0.06493 -0.61064
# Poissons Ratio (y) = 0.07607 0.37645
# Poissons Ratio (z) = -0.35251 0.18550
#
# Static dielectric constant tensor:
#      x y z
#    x 2.062080 0.000000 -0.040490 
#    y 0.000000 1.967170 0.000000 
#    z -0.040490 0.000000 2.014910 
# 
# From -- ./inp_files/4111.got.cif
#   From: 2010.05.17/outbox.cif.g08.bks.cpg/sg10_3_cif.got.tgz:4111.got - 2010.06.03 11:33:40.
