data_PCOD9141534
_publ_section_title
;
Structure prediction by ZEFSAII (Michael W. Deem and Ramdas Pophale) SiO2 
 PCOD9141534
Probable space group: P 2/M
;
_chemical_formula_sum "Si O2"
_cell_formula_units_Z 21
_cell_length_a 8.360916
_cell_length_b 15.746734
_cell_length_c 14.304668
_cell_angle_alpha 90.000000
_cell_angle_beta 143.773130
_cell_angle_gamma 90.000000
_cell_volume 1113.006982
_symmetry_space_group_name_H-M "P 2/M"
_symmetry_group_IT_number 10
_symmetry_cell_setting 'monoclinic'
loop_
_space_group_symop_operation_xyz
x,y,z
-x,y,-z
-x,-y,-z
x,-y,z
loop_
_atom_site_type_symbol
_atom_site_label
_atom_site_fract_x
_atom_site_fract_y
_atom_site_fract_z
Si Si1 0.000000 0.283205 0.000000
Si Si2 0.713026 0.000000 0.016651
Si Si3 0.185156 0.356268 0.460444
Si Si4 0.000000 0.205793 0.500000
Si Si5 0.429401 0.865578 0.207693
Si Si6 0.191803 0.601084 0.248315
Si Si7 0.667543 0.000000 0.674910
Si Si8 0.000000 0.500000 0.500000
O O1 0.741869 0.221090 0.871314
O O2 0.994558 0.345433 0.908741
O O3 0.675698 0.079512 0.929148
O O4 0.500000 0.000000 0.000000
O O5 0.015293 0.000000 0.198279
O O6 0.492653 0.384486 0.630979
O O7 0.164553 0.362684 0.339692
O O8 0.993286 0.425645 0.416577
O O9 0.112418 0.266133 0.470383
O O10 0.746483 0.151839 0.346127
O O11 0.388892 0.919204 0.284014
O O12 0.140994 0.500000 0.222824
O O13 0.500000 0.000000 0.500000
#
# Coordination Sequence:
#
# PCOD9141534 Si02
#       8
#     2   2   4   2   4   4   2   1
#     4  12  23  41  64  88 136 174 206 275 325 392
#     4  11  25  44  71  99 135 174 206 264 330 382
#     4  10  20  36  63  87 122 165 222 266 322 375
#     4  11  24  38  66 101 122 172 222 271 319 383
#     4  11  24  46  65  93 138 171 214 264 331 390
#     4  11  21  39  60  93 122 176 222 269 324 397
#     4  11  25  44  73  99 127 178 214 256 320 400
#     4  10  16  34  60  80 120 156 206 276 324 354
#
# _framework density 18.867806999999999
#
# number of rings (size 3 to 8) (size 9 to 14) (size 15 to 20)
#    0.000    1.143    5.714    1.429    2.667    3.810 
#    0.000    0.000    0.000    2.286    0.000    0.000 
#    0.000    0.000    0.000    0.000    0.000    0.000 
#
# Total GULP energy -117017.618632 kJ/mol
# GULP energy per Si atom -5572.267554 kJ/mol
# Density = 1.882486 g / cm^3
# Si number density = 18.867807 Si / 1000 Ang^3
#
#
#
# Elastic Constant Matrix: (Units=GPa)
#
#
# Indices 1 2 3 4 5 6 
#
# 1 82.7473 32.9961 41.9085 0.0000 -13.1142 0.0000
# 2 32.9961 82.1546 49.7096 0.0000 -10.5440 0.0000
# 3 41.9085 49.7096 130.0933 0.0000 -7.1203 0.0000
# 4 0.0000 0.0000 0.0000 17.3555 0.0000 9.2111
# 5 -13.1142 -10.5440 -7.1203 0.0000 32.9909 0.0000
# 6 0.0000 0.0000 0.0000 9.2111 0.0000 4.7858
#
#
#
# Elastic Compliance Matrix: (Units=1/GPa)
#
#
# Indices 1 2 3 4 5 6 
#
# 1 0.016057 -0.003769 -0.003490 0.000000 0.004425 0.000000
# 2 -0.003769 0.017203 -0.005202 0.000000 0.002877 0.000000
# 3 -0.003490 -0.005202 0.010759 0.000000 -0.000728 0.000000
# 4 0.000000 0.000000 0.000000 -2.682663 0.000000 5.163220
# 5 0.004425 0.002877 -0.000728 0.000000 0.032833 0.000000
# 6 0.000000 0.000000 0.000000 5.163220 0.000000 -9.728504
#
#
# Mechanical properties :
#
#
# Convention : Reuss Voigt Hill
#
# Bulk Modulus (GPa) = 52.36594 60.46932 56.41763
# Shear Modulus (GPa) = -0.40640 22.38516 10.98938
#
# Velocity S-wave (km/s) = -0.46461 3.44818 2.41600
# Velocity P-wave (km/s) = 5.24658 6.92617 6.14404
#
# Compressibility (1/GPa) = 0.01909638
#
# Stress axis : x y z
#
# Youngs Moduli (GPa) = 62.27843 58.13068 92.94692
#
# Poissons Ratio (x) = 0.21911 0.32440
# Poissons Ratio (y) = 0.23475 0.48347
# Poissons Ratio (z) = 0.21736 0.30237
#
# Static dielectric constant tensor:
#      x y z
#    x 1.730960 0.000000 -0.016550 
#    y 0.000000 1.645550 0.000000 
#    z -0.016550 0.000000 1.681720 
# 
# From -- ./inp_files/62258.got.cif
#   From: 2010.05.17/outbox.cif.g08.bks.cpg/sg10_32_cif.got.tgz:62258.got - 2010.06.03 11:33:40.
