data_PCOD9141311
_publ_section_title
;
Structure prediction by ZEFSAII (Michael W. Deem and Ramdas Pophale) SiO2 
 PCOD9141311
Probable space group: P 2/M
;
_chemical_formula_sum "Si O2"
_cell_formula_units_Z 20
_cell_length_a 9.479667
_cell_length_b 12.786221
_cell_length_c 10.731138
_cell_angle_alpha 90.000000
_cell_angle_beta 46.136417
_cell_angle_gamma 90.000000
_cell_volume 937.802373
_symmetry_space_group_name_H-M "P 2/M"
_symmetry_group_IT_number 10
_symmetry_cell_setting 'monoclinic'
loop_
_space_group_symop_operation_xyz
x,y,z
-x,y,-z
-x,-y,-z
x,-y,z
loop_
_atom_site_type_symbol
_atom_site_label
_atom_site_fract_x
_atom_site_fract_y
_atom_site_fract_z
Si Si1 0.740553 0.121658 0.496495
Si Si2 0.273659 0.267635 0.991055
Si Si3 0.152764 0.500000 0.019920
Si Si4 0.278334 0.500000 0.205619
Si Si5 0.735931 0.730171 0.721817
Si Si6 0.264059 0.120340 0.779383
O O1 0.808659 0.199277 0.563547
O O2 0.502436 0.122559 0.639201
O O3 0.795603 0.154913 0.322662
O O4 0.799905 0.000000 0.480815
O O5 0.255119 0.386270 0.950928
O O6 0.504032 0.247272 0.864938
O O7 0.194518 0.189900 0.936061
O O8 0.191387 0.252350 0.180951
O O9 0.118482 0.500000 0.191485
O O10 0.000000 0.500000 0.000000
O O11 0.251989 0.604811 0.300264
O O12 0.500000 0.500000 0.000000
O O13 0.208347 0.000000 0.828058
#
# Coordination Sequence:
#
# PCOD9141311 Si02
#       6
#     4   4   2   2   4   4
#     4   8  14  23  35  58  89 113 133 166 208 248
#     4   9  15  25  40  60  81 109 141 170 203 247
#     4  10  18  28  43  63  85 111 141 175 213 249
#     4  10  14  28  43  59  85 109 133 169 217 251
#     4   9  14  23  41  60  82 112 137 167 204 250
#     4   8  14  24  37  55  86 117 135 162 210 251
#
# _framework density 21.326454999999999
#
# number of rings (size 3 to 8) (size 9 to 14) (size 15 to 20)
#    0.000    3.200    4.000    1.200    0.000    0.800 
#    0.000    5.000    0.000    5.400    0.000   11.200 
#    0.000   12.800    0.000    0.000    0.000    0.000 
#
# Total GULP energy -111360.924705 kJ/mol
# GULP energy per Si atom -5568.046235 kJ/mol
# Density = 2.127792 g / cm^3
# Si number density = 21.326455 Si / 1000 Ang^3
#
#
#
# Elastic Constant Matrix: (Units=GPa)
#
#
# Indices 1 2 3 4 5 6 
#
# 1 129.4440 59.0888 59.5586 0.0000 33.2498 0.0000
# 2 59.0888 130.2370 88.9506 0.0000 66.7591 0.0000
# 3 59.5586 88.9506 120.4522 0.0000 41.0211 0.0000
# 4 0.0000 0.0000 0.0000 21.8206 0.0000 45.8194
# 5 33.2498 66.7591 41.0211 0.0000 46.6786 0.0000
# 6 0.0000 0.0000 0.0000 45.8194 0.0000 15.0581
#
#
#
# Elastic Compliance Matrix: (Units=1/GPa)
#
#
# Indices 1 2 3 4 5 6 
#
# 1 0.010544 -0.000287 -0.003687 0.000000 -0.003860 0.000000
# 2 -0.000287 0.041859 -0.014916 0.000000 -0.046554 0.000000
# 3 -0.003687 -0.014916 0.018525 0.000000 0.007679 0.000000
# 4 0.000000 0.000000 0.000000 -0.008503 0.000000 0.025874
# 5 -0.003860 -0.046554 0.007679 0.000000 0.084006 0.000000
# 6 0.000000 0.000000 0.000000 0.025874 0.000000 -0.012322
#
#
# Mechanical properties :
#
#
# Convention : Reuss Voigt Hill
#
# Bulk Modulus (GPa) = 30.16673 88.36992 59.26832
# Shear Modulus (GPa) = 27.33162 28.21380 27.77271
#
# Velocity S-wave (km/s) = 3.58380 3.64118 3.61261
# Velocity P-wave (km/s) = 5.59471 7.69443 6.72700
#
# Compressibility (1/GPa) = 0.03314910
#
# Stress axis : x y z
#
# Youngs Moduli (GPa) = 94.83668 23.88955 53.98153
#
# Poissons Ratio (x) = 0.00686 0.19904
# Poissons Ratio (y) = 0.02721 0.80516
# Poissons Ratio (z) = 0.34969 0.35633
#
# Static dielectric constant tensor:
#      x y z
#    x 1.810100 0.000000 -0.037590 
#    y 0.000000 1.765430 0.000000 
#    z -0.037590 0.000000 1.811350 
# 
# From -- ./inp_files/32711.got.cif
#   From: 2010.05.17/outbox.cif.g08.bks.cpg/sg10_17_cif.got.tgz:32711.got - 2010.06.03 11:33:40.
