data_PCOD9141122
_publ_section_title
;
Structure prediction by ZEFSAII (Michael W. Deem and Ramdas Pophale) SiO2 
 PCOD9141122
Probable space group: C C
;
_chemical_formula_sum "Si O2"
_cell_formula_units_Z 20
_cell_length_a 11.027855
_cell_length_b 14.266074
_cell_length_c 5.433405
_cell_angle_alpha 90.000000
_cell_angle_beta 117.689050
_cell_angle_gamma 90.000000
_cell_volume 756.915771
_symmetry_space_group_name_H-M "C C"
_symmetry_group_IT_number 9
_symmetry_cell_setting 'monoclinic'
loop_
_space_group_symop_operation_xyz
x,y,z
x,-y,1/2+z
1/2+x,1/2+y,z
1/2+x,1/2-y,1/2+z
loop_
_atom_site_type_symbol
_atom_site_label
_atom_site_fract_x
_atom_site_fract_y
_atom_site_fract_z
Si Si1 0.074320 0.549443 0.182920
Si Si2 0.395780 0.268912 0.588828
Si Si3 0.661448 0.230938 0.511557
Si Si4 0.778285 0.396260 0.299877
Si Si5 0.482376 0.450579 0.916753
O O1 0.119498 0.492374 0.466267
O O2 0.122298 0.655933 0.266945
O O3 0.908177 0.548808 0.026634
O O4 0.528759 0.249722 0.550886
O O5 0.278925 0.307782 0.299920
O O6 0.340096 0.173457 0.652642
O O7 0.434612 0.344037 0.833021
O O8 0.716416 0.326604 0.447132
O O9 0.648522 0.451284 0.073113
O O10 0.437151 0.492412 0.133303
#
# Coordination Sequence:
#
# PCOD9141122 Si02
#       5
#     4   4   4   4   4
#     4  12  28  48  77 118 157 200 256 329 389 449
#     4  12  27  50  81 113 154 206 264 313 383 470
#     4  12  27  50  81 113 154 206 264 313 383 470
#     4  12  26  50  82 106 158 212 264 300 386 484
#     4  12  28  48  77 118 157 200 256 329 389 449
#
# _framework density 26.423017000000002
#
# number of rings (size 3 to 8) (size 9 to 14) (size 15 to 20)
#    0.000    0.000    4.000    4.800    5.600    1.600 
#    0.000    0.000    0.000    0.000    0.000    0.000 
#    0.000    0.000    0.000    0.000    0.000    0.000 
#
# Total GULP energy -56248.515326 kJ/mol
# GULP energy per Si atom -5624.851533 kJ/mol
# Density = 2.636288 g / cm^3
# Si number density = 26.423017 Si / 1000 Ang^3
#
#
#
# Elastic Constant Matrix: (Units=GPa)
#
#
# Indices 1 2 3 4 5 6 
#
# 1 167.3916 19.2503 49.0125 0.0000 -3.0893 0.0000
# 2 19.2503 100.2659 58.2777 0.0000 -15.3744 0.0000
# 3 49.0125 58.2777 172.7373 0.0000 -10.9270 0.0000
# 4 0.0000 0.0000 0.0000 66.9062 0.0000 -2.4375
# 5 -3.0893 -15.3744 -10.9270 0.0000 47.3776 0.0000
# 6 0.0000 0.0000 0.0000 -2.4375 0.0000 47.1477
#
#
#
# Elastic Compliance Matrix: (Units=1/GPa)
#
#
# Indices 1 2 3 4 5 6 
#
# 1 0.006519 -0.000228 -0.001777 0.000000 -0.000059 0.000000
# 2 -0.000228 0.012882 -0.004077 0.000000 0.003225 0.000000
# 3 -0.001777 -0.004077 0.007690 0.000000 0.000335 0.000000
# 4 0.000000 0.000000 0.000000 0.014975 0.000000 0.000774
# 5 -0.000059 0.003225 0.000335 0.000000 0.022227 0.000000
# 6 0.000000 0.000000 0.000000 0.000774 0.000000 0.021250
#
#
# Mechanical properties :
#
#
# Convention : Reuss Voigt Hill
#
# Bulk Modulus (GPa) = 66.99202 77.05285 72.02244
# Shear Modulus (GPa) = 48.69415 53.20991 50.95203
#
# Velocity S-wave (km/s) = 4.29752 4.49237 4.39603
# Velocity P-wave (km/s) = 7.07345 7.49221 7.28583
#
# Compressibility (1/GPa) = 0.01492715
#
# Stress axis : x y z
#
# Youngs Moduli (GPa) = 153.38973 77.63017 130.03970
#
# Poissons Ratio (x) = 0.01770 0.23102
# Poissons Ratio (y) = 0.03498 0.53020
# Poissons Ratio (z) = 0.27251 0.31652
#
# Static dielectric constant tensor:
#      x y z
#    x 2.091670 0.000000 0.003530 
#    y 0.000000 2.011780 0.000000 
#    z 0.003530 0.000000 2.058700 
# 
# From -- ./inp_files/1485.got.cif
#   From: 2010.05.17/outbox.cif.g08.bks.cpg/sg9_1_cif.got.tgz:1485.got - 2010.06.03 20:04:27.
