data_PCOD9141261
_publ_section_title
;
Structure prediction by ZEFSAII (Michael W. Deem and Ramdas Pophale) SiO2 
 PCOD9141261
Probable space group: C C
;
_chemical_formula_sum "Si O2"
_cell_formula_units_Z 16
_cell_length_a 15.000000
_cell_length_b 12.000000
_cell_length_c 9.000000
_cell_angle_alpha 90.000000
_cell_angle_beta 110.000000
_cell_angle_gamma 90.000000
_cell_volume 1522.302046
_symmetry_space_group_name_H-M "C C"
_symmetry_group_IT_number 9
_symmetry_cell_setting 'monoclinic'
loop_
_space_group_symop_operation_xyz
x,y,z
x,-y,1/2+z
1/2+x,1/2+y,z
1/2+x,1/2-y,1/2+z
loop_
_atom_site_type_symbol
_atom_site_label
_atom_site_fract_x
_atom_site_fract_y
_atom_site_fract_z
Si Si1 0.311280 0.863612 0.173140
Si Si2 0.346851 0.257671 0.244628
Si Si3 0.028642 0.715718 0.758735
Si Si4 0.844231 0.041062 0.574243
Si Si5 0.758838 0.587018 0.980688
Si Si6 0.232744 0.675679 0.953401
Si Si7 0.973208 0.072914 0.393135
Si Si8 0.052687 0.839328 0.462251
O O1 0.424620 0.841612 0.207593
O O2 0.293615 0.901833 0.332040
O O3 0.256997 0.746146 0.114637
O O4 0.265582 0.959785 0.042573
O O5 0.295484 0.364748 0.142290
O O6 0.291339 0.249193 0.367586
O O7 0.458018 0.291897 0.324620
O O8 0.329144 0.153399 0.130996
O O9 0.027962 0.820932 0.869651
O O10 0.123021 0.652878 0.861041
O O11 0.051995 0.765144 0.609500
O O12 0.897242 0.104342 0.473124
O O13 0.781017 0.943863 0.476317
O O14 0.918597 0.976750 0.720775
O O15 0.654485 0.645343 0.940430
O O16 0.030111 0.968226 0.489682
#
# Coordination Sequence:
#
# PCOD9141261 Si02
#       8
#     4   4   4   4   4   4   4   4
#     4  12  27  49  69 103 149 183 235 297 355 427
#     4  11  23  43  71 100 139 178 239 295 341 418
#     4  12  24  44  73 102 142 188 231 288 365 414
#     4  11  21  39  68  97 134 173 224 290 344 396
#     4  12  28  45  72 103 142 192 233 290 358 430
#     4  12  23  45  70 102 140 182 232 292 354 421
#     4  11  19  38  68  98 131 171 227 283 336 402
#     4  11  23  41  75 103 131 185 237 291 343 412
#
# _framework density 10.510398
#
# number of rings (size 3 to 8) (size 9 to 14) (size 15 to 20)
#    0.000    0.500    7.500    2.250    1.750    3.000 
#    4.500    0.000    0.000    0.000    0.000    0.000 
#    0.000    0.000    0.000    0.000    0.000    0.000 
#
# Total GULP energy -89270.319326 kJ/mol
# GULP energy per Si atom -5579.394958 kJ/mol
# Density = 1.048648 g / cm^3
# Si number density = 10.510398 Si / 1000 Ang^3
#
#
#
# Elastic Constant Matrix: (Units=GPa)
#
#
# Indices 1 2 3 4 5 6 
#
# 1 109.7253 -3.4834 23.6997 0.0000 3.0441 0.0000
# 2 -3.4834 31.3887 -2.2043 0.0000 -15.2255 0.0000
# 3 23.6997 -2.2043 50.7885 0.0000 -14.2368 0.0000
# 4 0.0000 0.0000 0.0000 27.7627 0.0000 -14.2598
# 5 3.0441 -15.2255 -14.2368 0.0000 29.2190 0.0000
# 6 0.0000 0.0000 0.0000 -14.2598 0.0000 2.5596
#
#
#
# Elastic Compliance Matrix: (Units=1/GPa)
#
#
# Indices 1 2 3 4 5 6 
#
# 1 0.010601 -0.001802 -0.006483 0.000000 -0.005203 0.000000
# 2 -0.001802 0.047159 0.011384 0.000000 0.030308 0.000000
# 3 -0.006483 0.011384 0.029025 0.000000 0.020750 0.000000
# 4 0.000000 0.000000 0.000000 -0.019350 0.000000 -0.107801
# 5 -0.005203 0.030308 0.020750 0.000000 0.060669 0.000000
# 6 0.000000 0.000000 0.000000 -0.107801 0.000000 -0.209880
#
#
# Mechanical properties :
#
#
# Convention : Reuss Voigt Hill
#
# Bulk Modulus (GPa) = 10.75484 25.32516 18.04000
# Shear Modulus (GPa) = -87.75578 23.50098 -32.12740
#
# Velocity S-wave (km/s) = -6.46821 3.34726 -3.91367
# Velocity P-wave (km/s) = 7.11732 5.19737 3.43828
#
# Compressibility (1/GPa) = 0.09298140
#
# Stress axis : x y z
#
# Youngs Moduli (GPa) = 94.32940 21.20470 34.45261
#
# Poissons Ratio (x) = 0.03822 0.22337
# Poissons Ratio (y) = 0.17002 -0.39220
# Poissons Ratio (z) = 0.61158 -0.24139
#
# Static dielectric constant tensor:
#      x y z
#    x 1.791220 0.000000 -0.004280 
#    y 0.000000 1.780920 0.000000 
#    z -0.004280 0.000000 1.828050 
# 
# From -- ./inp_files/9105.got.cif
#   From: 2010.05.17/outbox.ucp.g08.bks.cvg/sg9_5_cif.got.tgz:9105.got - 2010.06.11 13:03:20.
