data_PCOD9141271
_publ_section_title
;
Structure prediction by ZEFSAII (Michael W. Deem and Ramdas Pophale) SiO2 
 PCOD9141271
Probable space group: C C
;
_chemical_formula_sum "Si O2"
_cell_formula_units_Z 16
_cell_length_a 18.000000
_cell_length_b 15.000000
_cell_length_c 9.000000
_cell_angle_alpha 90.000000
_cell_angle_beta 40.000000
_cell_angle_gamma 90.000000
_cell_volume 1561.973892
_symmetry_space_group_name_H-M "C C"
_symmetry_group_IT_number 9
_symmetry_cell_setting 'monoclinic'
loop_
_space_group_symop_operation_xyz
x,y,z
x,-y,1/2+z
1/2+x,1/2+y,z
1/2+x,1/2-y,1/2+z
loop_
_atom_site_type_symbol
_atom_site_label
_atom_site_fract_x
_atom_site_fract_y
_atom_site_fract_z
Si Si1 0.906320 0.398218 0.436260
Si Si2 0.350986 0.399381 0.685748
Si Si3 0.846130 0.295069 0.039186
Si Si4 0.531716 0.794455 0.488153
Si Si5 0.649979 0.609011 0.221807
Si Si6 0.112696 0.086768 0.920625
Si Si7 0.210648 0.542645 0.690840
Si Si8 0.482300 0.055800 0.506301
O O1 0.785558 0.371806 0.546452
O O2 0.900399 0.476945 0.568148
O O3 0.977997 0.438548 0.190220
O O4 0.975566 0.321622 0.415411
O O5 0.327255 0.304489 0.637509
O O6 0.487742 0.394365 0.529888
O O7 0.298768 0.482818 0.661717
O O8 0.282175 0.413789 0.945773
O O9 0.925756 0.291987 0.768508
O O10 0.722893 0.348556 0.206440
O O11 0.928195 0.354449 0.022182
O O12 0.584505 0.695482 0.388499
O O13 0.628123 0.873372 0.376380
O O14 0.631790 0.515772 0.338095
O O15 0.616307 0.595366 0.097704
O O16 0.114200 0.473577 0.772851
#
# Coordination Sequence:
#
# PCOD9141271 Si02
#       8
#     4   4   4   4   4   4   4   4
#     4  11  22  44  76 112 145 191 250 308 371 436
#     4  12  29  49  75 108 156 203 246 309 387 443
#     4  12  27  48  75 115 145 196 255 310 374 453
#     4  11  28  46  79 113 147 198 259 308 377 449
#     4  12  26  47  76 110 151 196 249 316 375 446
#     4  12  29  48  75 109 157 195 250 311 383 448
#     4  11  25  51  74 108 151 197 250 307 373 450
#     4  11  22  45  80 107 146 192 249 311 362 445
#
# _framework density 10.243449
#
# number of rings (size 3 to 8) (size 9 to 14) (size 15 to 20)
#    0.000    0.500    2.500    5.250    8.750    1.000 
#    0.000    0.000    0.000    0.000    0.000    0.000 
#    0.000    0.000    0.000    0.000    0.000    0.000 
#
# Total GULP energy -89314.084776 kJ/mol
# GULP energy per Si atom -5582.130298 kJ/mol
# Density = 1.022013 g / cm^3
# Si number density = 10.243449 Si / 1000 Ang^3
#
#
#
# Elastic Constant Matrix: (Units=GPa)
#
#
# Indices 1 2 3 4 5 6 
#
# 1 152.3162 54.6350 52.0472 0.0000 -15.0765 0.0000
# 2 54.6350 161.8339 67.1250 0.0000 -5.7348 0.0000
# 3 52.0472 67.1250 139.9150 0.0000 -5.4999 0.0000
# 4 0.0000 0.0000 0.0000 44.2047 0.0000 -2.9814
# 5 -15.0765 -5.7348 -5.4999 0.0000 43.7427 0.0000
# 6 0.0000 0.0000 0.0000 -2.9814 0.0000 46.4119
#
#
#
# Elastic Compliance Matrix: (Units=1/GPa)
#
#
# Indices 1 2 3 4 5 6 
#
# 1 0.008152 -0.001810 -0.002073 0.000000 0.002312 0.000000
# 2 -0.001810 0.008129 -0.003225 0.000000 0.000036 0.000000
# 3 -0.002073 -0.003225 0.009468 0.000000 0.000053 0.000000
# 4 0.000000 0.000000 0.000000 0.022720 0.000000 0.001460
# 5 0.002312 0.000036 0.000053 0.000000 0.023669 0.000000
# 6 0.000000 0.000000 0.000000 0.001460 0.000000 0.021640
#
#
# Mechanical properties :
#
#
# Convention : Reuss Voigt Hill
#
# Bulk Modulus (GPa) = 86.71699 89.07553 87.89626
# Shear Modulus (GPa) = 44.70687 45.55572 45.13129
#
# Velocity S-wave (km/s) = 4.67649 4.72068 4.69863
# Velocity P-wave (km/s) = 8.46046 8.56077 8.51076
#
# Compressibility (1/GPa) = 0.01153177
#
# Stress axis : x y z
#
# Youngs Moduli (GPa) = 122.67223 123.01061 105.62132
#
# Poissons Ratio (x) = 0.22268 0.21896
# Poissons Ratio (y) = 0.22207 0.34066
# Poissons Ratio (z) = 0.25431 0.39674
#
# Static dielectric constant tensor:
#      x y z
#    x 1.731080 0.000000 -0.006600 
#    y 0.000000 1.747530 0.000000 
#    z -0.006600 0.000000 1.789250 
# 
# From -- ./inp_files/10892.got.cif
#   From: 2010.05.17/outbox.ucp.g08.bks.cvg/sg9_6_cif.got.tgz:10892.got - 2010.06.11 13:03:20.
