data_PCOD9141301
_publ_section_title
;
Structure prediction by ZEFSAII (Michael W. Deem and Ramdas Pophale) SiO2 
 PCOD9141301
Probable space group: P 2/M
;
_chemical_formula_sum "Si O2"
_cell_formula_units_Z 28
_cell_length_a 8.401789
_cell_length_b 23.468692
_cell_length_c 14.019799
_cell_angle_alpha 90.000000
_cell_angle_beta 151.382852
_cell_angle_gamma 90.000000
_cell_volume 1324.026869
_symmetry_space_group_name_H-M "P 2/M"
_symmetry_group_IT_number 10
_symmetry_cell_setting 'monoclinic'
loop_
_space_group_symop_operation_xyz
x,y,z
-x,y,-z
-x,-y,-z
x,-y,z
loop_
_atom_site_type_symbol
_atom_site_label
_atom_site_fract_x
_atom_site_fract_y
_atom_site_fract_z
Si Si1 0.787148 0.251474 0.789164
Si Si2 0.871978 0.565977 0.243471
Si Si3 0.200345 0.618052 0.242408
Si Si4 0.223966 0.841703 0.936302
Si Si5 0.211391 0.935039 0.211051
Si Si6 0.365057 0.157984 0.651777
Si Si7 0.466473 0.568216 0.202889
O O1 0.724733 0.315429 0.725077
O O2 0.465045 0.213752 0.644528
O O3 0.000000 0.254715 0.000000
O O4 0.994713 0.214551 0.821355
O O5 0.974217 0.500000 0.295269
O O6 0.783611 0.582983 0.304892
O O7 0.126388 0.600237 0.311688
O O8 0.500000 0.568470 0.000000
O O9 0.452543 0.583517 0.306842
O O10 0.842883 0.602449 0.005508
O O11 0.403699 0.841837 0.133270
O O12 0.500000 0.841406 0.000000
O O13 0.995756 0.898194 0.821070
O O14 0.534582 0.897563 0.356044
O O15 0.273753 0.000000 0.271918
O O16 0.000000 0.936556 0.000000
O O17 0.000000 0.157704 0.500000
O O18 0.412421 0.500000 0.163692
#
# Coordination Sequence:
#
# PCOD9141301 Si02
#       7
#     4   4   4   4   4   4   4
#     4   9  17  30  42  62  89 121 165 193 233 290
#     4   8  14  21  29  49  79 110 140 178 237 295
#     4  10  14  22  36  51  77 118 148 186 232 290
#     4   9  18  31  49  73  97 127 159 200 241 286
#     4   8  15  30  51  73  99 129 162 195 233 290
#     4   9  18  33  51  68  95 131 164 200 239 281
#     4   9  15  21  32  53  81 112 143 186 245 293
#
# _framework density 21.147608000000002
#
# number of rings (size 3 to 8) (size 9 to 14) (size 15 to 20)
#    0.000    3.143    1.429    4.286    0.000    2.286 
#    0.000    2.857    0.000    0.857    0.000    0.000 
#    0.000    5.143    0.000    3.143    0.571    0.000 
#
# Total GULP energy -156232.766098 kJ/mol
# GULP energy per Si atom -5579.741646 kJ/mol
# Density = 2.109947 g / cm^3
# Si number density = 21.147608 Si / 1000 Ang^3
#
#
#
# Elastic Constant Matrix: (Units=GPa)
#
#
# Indices 1 2 3 4 5 6 
#
# 1 182.4830 84.1446 35.2844 0.0000 44.4862 0.0000
# 2 84.1446 170.6476 28.4123 0.0000 37.9154 0.0000
# 3 35.2844 28.4123 51.4277 0.0000 15.0778 0.0000
# 4 0.0000 0.0000 0.0000 2.7556 0.0000 4.1689
# 5 44.4862 37.9154 15.0778 0.0000 55.3583 0.0000
# 6 0.0000 0.0000 0.0000 4.1689 0.0000 16.3218
#
#
#
# Elastic Compliance Matrix: (Units=1/GPa)
#
#
# Indices 1 2 3 4 5 6 
#
# 1 0.008278 -0.002693 -0.003023 0.000000 -0.003984 0.000000
# 2 -0.002693 0.008135 -0.001791 0.000000 -0.002920 0.000000
# 3 -0.003023 -0.001791 0.023297 0.000000 -0.002689 0.000000
# 4 0.000000 0.000000 0.000000 0.591431 0.000000 -0.151064
# 5 -0.003984 -0.002920 -0.002689 0.000000 0.023998 0.000000
# 6 0.000000 0.000000 0.000000 -0.151064 0.000000 0.099853
#
#
# Mechanical properties :
#
#
# Convention : Reuss Voigt Hill
#
# Bulk Modulus (GPa) = 40.49353 77.80454 59.14904
# Shear Modulus (GPa) = 6.42478 32.00161 19.21320
#
# Velocity S-wave (km/s) = 1.74490 3.89427 3.01745
# Velocity P-wave (km/s) = 4.82174 7.55589 6.33801
#
# Compressibility (1/GPa) = 0.02469530
#
# Stress axis : x y z
#
# Youngs Moduli (GPa) = 120.80883 122.92900 42.92440
#
# Poissons Ratio (x) = 0.33105 0.12978
# Poissons Ratio (y) = 0.32534 0.07686
# Poissons Ratio (z) = 0.36525 0.22011
#
# Static dielectric constant tensor:
#      x y z
#    x 1.785780 0.000000 -0.037170 
#    y 0.000000 1.702720 0.000000 
#    z -0.037170 0.000000 1.850460 
# 
# From -- ./inp_files/75538.got.cif
#   From: 2010.05.17/outbox.cif.g08.bks.cpg/sg10_38_cif.got.tgz:75538.got - 2010.06.03 11:33:40.
