data_PCOD9141418
_publ_section_title
;
Structure prediction by ZEFSAII (Michael W. Deem and Ramdas Pophale) SiO2 
 PCOD9141418
Probable space group: P 2/M
;
_chemical_formula_sum "Si O2"
_cell_formula_units_Z 24
_cell_length_a 9.583121
_cell_length_b 27.892040
_cell_length_c 5.454455
_cell_angle_alpha 90.000000
_cell_angle_beta 45.288940
_cell_angle_gamma 90.000000
_cell_volume 1036.102534
_symmetry_space_group_name_H-M "P 2/M"
_symmetry_group_IT_number 10
_symmetry_cell_setting 'monoclinic'
loop_
_space_group_symop_operation_xyz
x,y,z
-x,y,-z
-x,-y,-z
x,-y,z
loop_
_atom_site_type_symbol
_atom_site_label
_atom_site_fract_x
_atom_site_fract_y
_atom_site_fract_z
Si Si1 0.773243 0.654669 0.806484
Si Si2 0.741965 0.095444 0.455574
Si Si3 0.232082 0.695695 0.687314
Si Si4 0.373086 0.800750 0.407040
Si Si5 0.705749 0.056565 0.001040
Si Si6 0.371991 0.447143 0.907701
O O1 0.691147 0.663378 0.634250
O O2 0.000000 0.669436 0.500000
O O3 0.687317 0.685238 0.139159
O O4 0.761741 0.599495 0.902530
O O5 0.762507 0.152396 0.448385
O O6 0.812559 0.075997 0.108835
O O7 0.506075 0.083182 0.741967
O O8 0.805568 0.068594 0.621167
O O9 0.263438 0.750512 0.573366
O O10 0.000000 0.685365 0.000000
O O11 0.500000 0.807209 0.500000
O O12 0.500000 0.798869 0.000000
O O13 0.671737 0.000000 0.063775
O O14 0.500000 0.442354 0.500000
O O15 0.275522 0.500000 0.013434
O O16 0.500000 0.446971 0.000000
#
# Coordination Sequence:
#
# PCOD9141418 Si02
#       6
#     4   4   4   4   4   4
#     4  10  21  39  58  78 106 141 183 225 258 309
#     4  10  16  27  38  63  96 125 155 205 247 302
#     4  10  23  39  55  77 107 142 180 222 266 311
#     4  12  21  34  52  76 104 136 171 219 264 309
#     4  10  16  25  41  61  97 134 156 192 259 314
#     4  10  21  36  57  85 117 145 173 218 269 317
#
# _framework density 23.163730000000001
#
# number of rings (size 3 to 8) (size 9 to 14) (size 15 to 20)
#    0.000    1.667    3.333    4.500    0.000    4.333 
#    0.000    0.000    0.000    6.000    0.000    0.000 
#    0.000    7.333    0.000    0.000    0.000    0.000 
#
# Total GULP energy -134136.943622 kJ/mol
# GULP energy per Si atom -5589.039318 kJ/mol
# Density = 2.311101 g / cm^3
# Si number density = 23.163730 Si / 1000 Ang^3
#
#
#
# Elastic Constant Matrix: (Units=GPa)
#
#
# Indices 1 2 3 4 5 6 
#
# 1 79.1076 -14.5953 47.0734 0.0000 36.4909 0.0000
# 2 -14.5953 154.0537 51.1797 0.0000 22.7705 0.0000
# 3 47.0734 51.1797 181.5048 0.0000 52.1123 0.0000
# 4 0.0000 0.0000 0.0000 8.6407 0.0000 43.6955
# 5 36.4909 22.7705 52.1123 0.0000 50.8529 0.0000
# 6 0.0000 0.0000 0.0000 43.6955 0.0000 -4.4713
#
#
#
# Elastic Compliance Matrix: (Units=1/GPa)
#
#
# Indices 1 2 3 4 5 6 
#
# 1 0.022589 0.005416 -0.002884 0.000000 -0.015679 0.000000
# 2 0.005416 0.008555 -0.002269 0.000000 -0.005392 0.000000
# 3 -0.002884 -0.002269 0.008517 0.000000 -0.005643 0.000000
# 4 0.000000 0.000000 0.000000 0.002295 0.000000 0.022432
# 5 -0.015679 -0.005392 -0.005643 0.000000 0.039112 0.000000
# 6 0.000000 0.000000 0.000000 0.022432 0.000000 -0.004436
#
#
# Mechanical properties :
#
#
# Convention : Reuss Voigt Hill
#
# Bulk Modulus (GPa) = 24.88374 64.66459 44.77416
# Shear Modulus (GPa) = 55.86438 33.07169 44.46804
#
# Velocity S-wave (km/s) = 4.91625 3.78264 4.38622
# Velocity P-wave (km/s) = 6.55682 6.85964 6.70994
#
# Compressibility (1/GPa) = 0.04018689
#
# Stress axis : x y z
#
# Youngs Moduli (GPa) = 44.27017 116.89037 117.40765
#
# Poissons Ratio (x) = -0.63303 0.33859
# Poissons Ratio (y) = -0.23975 0.26637
# Poissons Ratio (z) = 0.12767 0.26520
#
# Static dielectric constant tensor:
#      x y z
#    x 2.065360 0.000000 -0.014410 
#    y 0.000000 1.806260 0.000000 
#    z -0.014410 0.000000 1.893910 
# 
# From -- ./inp_files/7980.got.cif
#   From: 2010.05.17/outbox.cif.g08.bks.cpg/sg10_4_cif.got.tgz:7980.got - 2010.06.03 11:33:40.
