data_PCOD9141456
_publ_section_title
;
Structure prediction by ZEFSAII (Michael W. Deem and Ramdas Pophale) SiO2 
 PCOD9141456
Probable space group: P 2/M
;
_chemical_formula_sum "Si O2"
_cell_formula_units_Z 16
_cell_length_a 8.546078
_cell_length_b 10.979582
_cell_length_c 7.949137
_cell_angle_alpha 90.000000
_cell_angle_beta 67.045423
_cell_angle_gamma 90.000000
_cell_volume 686.822809
_symmetry_space_group_name_H-M "P 2/M"
_symmetry_group_IT_number 10
_symmetry_cell_setting 'monoclinic'
loop_
_space_group_symop_operation_xyz
x,y,z
-x,y,-z
-x,-y,-z
x,-y,z
loop_
_atom_site_type_symbol
_atom_site_label
_atom_site_fract_x
_atom_site_fract_y
_atom_site_fract_z
Si Si1 0.021512 0.500000 0.189159
Si Si2 0.351530 0.500000 0.699587
Si Si3 0.142384 0.746961 0.293273
Si Si4 0.014024 0.000000 0.290358
Si Si5 0.517436 0.251900 0.289365
Si Si6 0.359816 0.000000 0.710294
O O1 0.824251 0.500000 0.329012
O O2 0.111431 0.622400 0.208667
O O3 0.000000 0.500000 0.000000
O O4 0.500000 0.500000 0.500000
O O5 0.378841 0.375355 0.791425
O O6 0.330644 0.747309 0.289963
O O7 0.000000 0.744506 0.500000
O O8 0.106449 0.873105 0.209919
O O9 0.000000 0.000000 0.500000
O O10 0.173475 0.000000 0.708406
O O11 0.500000 0.250202 0.500000
O O12 0.607935 0.125527 0.205541
O O13 0.500000 0.000000 0.500000
#
# Coordination Sequence:
#
# PCOD9141456 Si02
#       6
#     2   2   4   2   4   2
#     4  12  26  42  59  87 125 163 201 249 306 362
#     4  10  19  36  58  81 108 149 197 243 289 344
#     4  11  20  36  60  89 118 157 204 251 299 359
#     4  10  18  30  55  90 119 150 198 254 299 350
#     4  10  18  30  52  83 114 146 186 240 294 346
#     4  10  16  26  44  78 119 148 174 234 303 348
#
# _framework density 23.295673000000001
#
# number of rings (size 3 to 8) (size 9 to 14) (size 15 to 20)
#    0.000    1.500    0.000   12.375    0.000    0.000 
#    0.000    3.125    0.000    0.000    0.000    5.250 
#    0.000    0.000    0.000    0.000    0.000    0.000 
#
# Total GULP energy -89507.126837 kJ/mol
# GULP energy per Si atom -5594.195427 kJ/mol
# Density = 2.324265 g / cm^3
# Si number density = 23.295673 Si / 1000 Ang^3
#
#
#
# Elastic Constant Matrix: (Units=GPa)
#
#
# Indices 1 2 3 4 5 6 
#
# 1 238.3233 117.2270 34.8758 0.0000 49.4594 0.0000
# 2 117.2270 319.5265 34.9682 0.0000 33.0046 0.0000
# 3 34.8758 34.9682 51.0095 0.0000 -5.2043 0.0000
# 4 0.0000 0.0000 0.0000 -49.7488 0.0000 23.4845
# 5 49.4594 33.0046 -5.2043 0.0000 32.6268 0.0000
# 6 0.0000 0.0000 0.0000 23.4845 0.0000 46.3740
#
#
#
# Elastic Compliance Matrix: (Units=1/GPa)
#
#
# Indices 1 2 3 4 5 6 
#
# 1 0.008154 -0.001057 -0.006102 0.000000 -0.012265 0.000000
# 2 -0.001057 0.004076 -0.002367 0.000000 -0.002898 0.000000
# 3 -0.006102 -0.002367 0.027027 0.000000 0.015956 0.000000
# 4 0.000000 0.000000 0.000000 -0.016223 0.000000 0.008215
# 5 -0.012265 -0.002898 0.015956 0.000000 0.054720 0.000000
# 6 0.000000 0.000000 0.000000 0.008215 0.000000 0.017403
#
#
# Mechanical properties :
#
#
# Convention : Reuss Voigt Hill
#
# Bulk Modulus (GPa) = 49.49326 109.22237 79.35781
# Shear Modulus (GPa) = 41.34129 33.96961 37.65545
#
# Velocity S-wave (km/s) = 4.21721 3.82277 4.02483
# Velocity P-wave (km/s) = 6.70857 8.15303 7.46582
#
# Compressibility (1/GPa) = 0.02020477
#
# Stress axis : x y z
#
# Youngs Moduli (GPa) = 122.63558 245.34884 37.00021
#
# Poissons Ratio (x) = 0.25931 0.22578
# Poissons Ratio (y) = 0.12961 0.08759
# Poissons Ratio (z) = 0.74832 0.58078
#
# Static dielectric constant tensor:
#      x y z
#    x 3.189790 0.000000 -0.666790 
#    y 0.000000 1.934470 0.000000 
#    z -0.666790 0.000000 2.140400 
# 
# From -- ./inp_files/17350.got.cif
#   From: 2010.05.17/outbox.cif.g08.bks.cpg/sg10_9_cif.got.tgz:17350.got - 2010.06.03 11:33:40.
