data_PCOD9141871
_publ_section_title
;
Structure prediction by ZEFSAII (Michael W. Deem and Ramdas Pophale) SiO2 
 PCOD9141871
Probable space group: P 2/M
;
_chemical_formula_sum "Si O2"
_cell_formula_units_Z 32
_cell_length_a 20.536421
_cell_length_b 14.421909
_cell_length_c 14.563472
_cell_angle_alpha 90.000000
_cell_angle_beta 23.795010
_cell_angle_gamma 90.000000
_cell_volume 1740.279310
_symmetry_space_group_name_H-M "P 2/M"
_symmetry_group_IT_number 10
_symmetry_cell_setting 'monoclinic'
loop_
_space_group_symop_operation_xyz
x,y,z
-x,y,-z
-x,-y,-z
x,-y,z
loop_
_atom_site_type_symbol
_atom_site_label
_atom_site_fract_x
_atom_site_fract_y
_atom_site_fract_z
Si Si1 0.160996 0.786485 0.916530
Si Si2 0.331577 0.201242 0.517170
Si Si3 0.991929 0.111254 0.617516
Si Si4 0.677699 0.396532 0.225299
Si Si5 0.616451 0.606702 0.765425
Si Si6 0.335040 0.110011 0.851321
Si Si7 0.481028 0.394929 0.309954
Si Si8 0.827736 0.784364 0.456257
O O1 0.192326 0.816987 0.771632
O O2 0.220128 0.682090 0.859309
O O3 0.276199 0.850927 0.829910
O O4 0.985085 0.787103 0.188015
O O5 0.498403 0.156822 0.334826
O O6 0.356939 0.312595 0.489203
O O7 0.300437 0.174038 0.451528
O O8 0.120526 0.161577 0.518550
O O9 0.000000 0.137912 0.500000
O O10 0.016728 0.000000 0.591940
O O11 0.813041 0.131395 0.888189
O O12 0.500000 0.394235 0.500000
O O13 0.744346 0.500000 0.149123
O O14 0.639508 0.377718 0.166968
O O15 0.675971 0.500000 0.698195
O O16 0.506113 0.608282 0.816051
O O17 0.757552 0.682767 0.572052
O O18 0.500000 0.629311 0.000000
O O19 0.354961 0.000000 0.821954
O O20 0.426988 0.500000 0.404224
#
# Coordination Sequence:
#
# PCOD9141871 Si02
#       8
#     4   4   4   4   4   4   4   4
#     4  11  20  35  51  78 114 150 177 221 274 329
#     4  11  20  34  54  79 111 146 185 223 266 319
#     4   9  20  41  63  81 108 143 177 229 293 333
#     4  10  17  28  50  78 106 141 186 226 261 309
#     4   9  19  37  57  77 110 150 185 223 275 329
#     4  10  21  36  56  81 108 144 189 224 264 330
#     4   9  17  30  50  77 104 137 181 223 264 311
#     4  10  23  36  55  84 111 141 181 228 276 332
#
# _framework density 18.387854000000001
#
# number of rings (size 3 to 8) (size 9 to 14) (size 15 to 20)
#    0.000    2.125    2.500    0.750    0.000    4.000 
#    0.000    0.000    0.000   10.500    0.000    0.000 
#    0.000    0.000    0.000    0.000    0.000    0.000 
#
# Total GULP energy -178227.313261 kJ/mol
# GULP energy per Si atom -5569.603539 kJ/mol
# Density = 1.834600 g / cm^3
# Si number density = 18.387854 Si / 1000 Ang^3
#
#
#
# Elastic Constant Matrix: (Units=GPa)
#
#
# Indices 1 2 3 4 5 6 
#
# 1 128.5524 39.9707 40.2111 0.0000 16.7214 0.0000
# 2 39.9707 56.4290 28.0348 0.0000 2.8328 0.0000
# 3 40.2111 28.0348 46.9936 0.0000 1.3231 0.0000
# 4 0.0000 0.0000 0.0000 17.1130 0.0000 1.0691
# 5 16.7214 2.8328 1.3231 0.0000 24.3956 0.0000
# 6 0.0000 0.0000 0.0000 1.0691 0.0000 21.7887
#
#
#
# Elastic Compliance Matrix: (Units=1/GPa)
#
#
# Indices 1 2 3 4 5 6 
#
# 1 0.012703 -0.004715 -0.007839 0.000000 -0.007734 0.000000
# 2 -0.004715 0.027046 -0.012121 0.000000 0.000749 0.000000
# 3 -0.007839 -0.012121 0.035081 0.000000 0.004878 0.000000
# 4 0.000000 0.000000 0.000000 0.058615 0.000000 -0.002876
# 5 -0.007734 0.000749 0.004878 0.000000 0.045941 0.000000
# 6 0.000000 0.000000 0.000000 -0.002876 0.000000 0.046036
#
#
# Mechanical properties :
#
#
# Convention : Reuss Voigt Hill
#
# Bulk Modulus (GPa) = 39.24775 49.82314 44.53544
# Shear Modulus (GPa) = 17.65132 20.91003 19.28068
#
# Velocity S-wave (km/s) = 3.10166 3.37585 3.24165
# Velocity P-wave (km/s) = 5.84960 6.50766 6.18738
#
# Compressibility (1/GPa) = 0.02547917
#
# Stress axis : x y z
#
# Youngs Moduli (GPa) = 78.72076 36.97446 28.50570
#
# Poissons Ratio (x) = 0.17435 0.22346
# Poissons Ratio (y) = 0.37119 0.34552
# Poissons Ratio (z) = 0.61709 0.44816
#
# Static dielectric constant tensor:
#      x y z
#    x 1.673030 0.000000 0.010430 
#    y 0.000000 1.638170 0.000000 
#    z 0.010430 0.000000 1.627420 
# 
# From -- ./inp_files/70732.got.cif
#   From: 2010.05.17/outbox.cif.g08.bks.cpg/sg10_36_cif.got.tgz:70732.got - 2010.06.03 11:33:40.
