data_PCOD9141161
_publ_section_title
;
Structure prediction by ZEFSAII (Michael W. Deem and Ramdas Pophale) SiO2 
 PCOD9141161
Probable space group: C C
;
_chemical_formula_sum "Si O2"
_cell_formula_units_Z 28
_cell_length_a 10.537257
_cell_length_b 14.829281
_cell_length_c 7.683340
_cell_angle_alpha 90.000000
_cell_angle_beta 74.442972
_cell_angle_gamma 90.000000
_cell_volume 1156.613151
_symmetry_space_group_name_H-M "C C"
_symmetry_group_IT_number 9
_symmetry_cell_setting 'monoclinic'
loop_
_space_group_symop_operation_xyz
x,y,z
x,-y,1/2+z
1/2+x,1/2+y,z
1/2+x,1/2-y,1/2+z
loop_
_atom_site_type_symbol
_atom_site_label
_atom_site_fract_x
_atom_site_fract_y
_atom_site_fract_z
Si Si1 0.860870 0.101145 0.528180
Si Si2 0.848489 0.703812 0.928105
Si Si3 0.216543 0.877802 0.811688
Si Si4 0.130143 0.203212 0.713600
Si Si5 0.503969 0.893902 0.829486
Si Si6 0.074055 0.415145 0.204860
Si Si7 0.999697 0.975291 0.290389
O O1 0.905239 0.196115 0.435266
O O2 0.722997 0.118522 0.669629
O O3 0.970190 0.051763 0.603243
O O4 0.860989 0.024770 0.382062
O O5 0.759341 0.708300 0.787374
O O6 0.965997 0.631769 0.866704
O O7 0.758362 0.679640 0.127207
O O8 0.354482 0.916674 0.832964
O O9 0.168701 0.822986 0.001185
O O10 0.120710 0.955971 0.771829
O O11 0.051032 0.296817 0.744109
O O12 0.042206 0.124081 0.838105
O O13 0.582642 0.977957 0.724570
O O14 0.527554 0.892646 0.026892
#
# Coordination Sequence:
#
# PCOD9141161 Si02
#       7
#     4   4   4   4   4   4   4
#     4  12  28  49  79 118 163 225 274 348 417 508
#     4  12  28  51  85 118 165 216 280 349 425 508
#     4  12  28  50  83 119 161 217 283 343 420 504
#     4  12  27  54  81 124 163 218 283 350 425 505
#     4  12  27  50  82 119 169 216 276 359 420 506
#     4  12  27  50  80 122 167 221 278 347 430 504
#     4  12  27  50  78 116 164 217 280 342 423 505
#
# _framework density 24.208615000000002
#
# number of rings (size 3 to 8) (size 9 to 14) (size 15 to 20)
#    0.000    0.000    4.286    4.286    4.000    4.571 
#    0.000    0.000    0.000    0.000    0.000    0.000 
#    0.000    0.000    0.000    0.000    0.000    0.000 
#
# Total GULP energy -78226.063639 kJ/mol
# GULP energy per Si atom -5587.575974 kJ/mol
# Density = 2.415351 g / cm^3
# Si number density = 24.208615 Si / 1000 Ang^3
#
#
#
# Elastic Constant Matrix: (Units=GPa)
#
#
# Indices 1 2 3 4 5 6 
#
# 1 109.0877 45.9082 36.8659 0.0000 -0.6973 0.0000
# 2 45.9082 189.5116 51.4654 0.0000 -15.8005 0.0000
# 3 36.8659 51.4654 113.5791 0.0000 3.2633 0.0000
# 4 0.0000 0.0000 0.0000 33.3976 0.0000 -2.6031
# 5 -0.6973 -15.8005 3.2633 0.0000 34.6737 0.0000
# 6 0.0000 0.0000 0.0000 -2.6031 0.0000 50.5325
#
#
#
# Elastic Compliance Matrix: (Units=1/GPa)
#
#
# Indices 1 2 3 4 5 6 
#
# 1 0.010877 -0.001955 -0.002632 0.000000 -0.000425 0.000000
# 2 -0.001955 0.006698 -0.002494 0.000000 0.003248 0.000000
# 3 -0.002632 -0.002494 0.010852 0.000000 -0.002211 0.000000
# 4 0.000000 0.000000 0.000000 0.030063 0.000000 0.001549
# 5 -0.000425 0.003248 -0.002211 0.000000 0.030520 0.000000
# 6 0.000000 0.000000 0.000000 0.001549 0.000000 0.019869
#
#
# Mechanical properties :
#
#
# Convention : Reuss Voigt Hill
#
# Bulk Modulus (GPa) = 70.10344 75.62860 72.86602
# Shear Modulus (GPa) = 39.12457 42.25001 40.68729
#
# Velocity S-wave (km/s) = 4.02449 4.18215 4.10408
# Velocity P-wave (km/s) = 7.11451 7.39112 7.25413
#
# Compressibility (1/GPa) = 0.01426463
#
# Stress axis : x y z
#
# Youngs Moduli (GPa) = 91.94006 149.28845 92.14617
#
# Poissons Ratio (x) = 0.29192 0.24254
# Poissons Ratio (y) = 0.17978 0.22980
# Poissons Ratio (z) = 0.24200 0.37230
#
# Static dielectric constant tensor:
#      x y z
#    x 2.012470 0.000000 0.077750 
#    y 0.000000 0.568560 0.000000 
#    z 0.077750 0.000000 2.041850 
# 
# From -- ./inp_files/7362.got.cif
#   From: 2010.05.17/outbox.cif.g08.bks.cpg/sg9_4_cif.got.tgz:7362.got - 2010.06.03 20:04:27.
