data_PCOD9141991
_publ_section_title
;
Structure prediction by ZEFSAII (Michael W. Deem and Ramdas Pophale) SiO2 
 PCOD9141991
Probable space group: P 2/M
;
_chemical_formula_sum "Si O2"
_cell_formula_units_Z 28
_cell_length_a 32.333544
_cell_length_b 7.915806
_cell_length_c 9.795160
_cell_angle_alpha 90.000000
_cell_angle_beta 144.581245
_cell_angle_gamma 90.000000
_cell_volume 1452.945649
_symmetry_space_group_name_H-M "P 2/M"
_symmetry_group_IT_number 10
_symmetry_cell_setting 'monoclinic'
loop_
_space_group_symop_operation_xyz
x,y,z
-x,y,-z
-x,-y,-z
x,-y,z
loop_
_atom_site_type_symbol
_atom_site_label
_atom_site_fract_x
_atom_site_fract_y
_atom_site_fract_z
Si Si1 0.187107 0.695335 0.147921
Si Si2 0.581019 0.793910 0.216013
Si Si3 0.701129 0.196972 0.337003
Si Si4 0.304898 0.196951 0.256876
Si Si5 0.945104 0.706352 0.048471
Si Si6 0.903379 0.705626 0.627039
Si Si7 0.744252 0.697088 0.163756
O O1 0.179409 0.500000 0.086011
O O2 0.235483 0.705814 0.415093
O O3 0.233538 0.783063 0.156220
O O4 0.109970 0.765134 0.984330
O O5 0.626411 0.748540 0.203470
O O6 0.629920 0.737198 0.474762
O O7 0.578765 0.000000 0.215188
O O8 0.500000 0.732608 0.000000
O O9 0.706112 0.217679 0.189332
O O10 0.711467 0.000000 0.400692
O O11 0.317319 0.000000 0.265262
O O12 0.294459 0.282557 0.083821
O O13 0.943548 0.500000 0.048891
O O14 0.027538 0.761373 0.273366
O O15 0.916509 0.753596 0.820553
O O16 0.904346 0.500000 0.625060
O O17 0.825655 0.763680 0.371499
O O18 0.748935 0.500000 0.211302
#
# Coordination Sequence:
#
# PCOD9141991 Si02
#       7
#     4   4   4   4   4   4   4
#     4  10  17  30  52  76  99 131 173 214 251 298
#     4   8  16  34  58  79  97 125 168 206 238 291
#     4  10  19  31  52  79 105 132 164 207 252 295
#     4  10  21  35  52  75 104 134 163 207 258 301
#     4   8  13  24  45  72  97 123 168 219 251 279
#     4   8  14  25  44  71  98 127 167 215 250 280
#     4  11  20  33  52  75 103 137 173 208 248 300
#
# _framework density 19.271194999999999
#
# number of rings (size 3 to 8) (size 9 to 14) (size 15 to 20)
#    0.000    2.714    1.429    3.429    0.000    0.000 
#    0.000    1.429    0.000   28.286    0.000    0.000 
#    0.000    0.000    0.000    0.000    0.000    0.000 
#
# Total GULP energy -156108.116495 kJ/mol
# GULP energy per Si atom -5575.289875 kJ/mol
# Density = 1.922733 g / cm^3
# Si number density = 19.271195 Si / 1000 Ang^3
#
#
#
# Elastic Constant Matrix: (Units=GPa)
#
#
# Indices 1 2 3 4 5 6 
#
# 1 103.0400 -2.1167 61.7975 0.0000 16.1030 0.0000
# 2 -2.1167 23.3705 0.4312 0.0000 4.4543 0.0000
# 3 61.7975 0.4312 84.0683 0.0000 14.5946 0.0000
# 4 0.0000 0.0000 0.0000 19.7845 0.0000 -4.7949
# 5 16.1030 4.4543 14.5946 0.0000 33.6620 0.0000
# 6 0.0000 0.0000 0.0000 -4.7949 0.0000 21.7918
#
#
#
# Elastic Compliance Matrix: (Units=1/GPa)
#
#
# Indices 1 2 3 4 5 6 
#
# 1 0.017781 0.002493 -0.012490 0.000000 -0.003421 0.000000
# 2 0.002493 0.044301 -0.000903 0.000000 -0.006663 0.000000
# 3 -0.012490 -0.000903 0.021653 0.000000 -0.003294 0.000000
# 4 0.000000 0.000000 0.000000 0.053392 0.000000 0.011748
# 5 -0.003421 -0.006663 -0.003294 0.000000 0.033653 0.000000
# 6 0.000000 0.000000 0.000000 0.011748 0.000000 0.048474
#
#
# Mechanical properties :
#
#
# Convention : Reuss Voigt Hill
#
# Bulk Modulus (GPa) = 16.14574 36.74474 26.44524
# Shear Modulus (GPa) = 19.10591 25.07211 22.08901
#
# Velocity S-wave (km/s) = 3.15210 3.61087 3.38926
# Velocity P-wave (km/s) = 4.65231 6.04095 5.39153
#
# Compressibility (1/GPa) = 0.06193585
#
# Stress axis : x y z
#
# Youngs Moduli (GPa) = 56.23833 22.57260 46.18385
#
# Poissons Ratio (x) = -0.05627 0.57683
# Poissons Ratio (y) = -0.14020 0.04170
# Poissons Ratio (z) = 0.70241 0.02038
#
# Static dielectric constant tensor:
#      x y z
#    x 1.675620 0.000000 0.026510 
#    y 0.000000 1.701060 0.000000 
#    z 0.026510 0.000000 1.656890 
# 
# From -- ./inp_files/37099.got.cif
#   From: 2010.05.17/outbox.cif.g08.bks.cpg/sg10_19_cif.got.tgz:37099.got - 2010.06.03 11:33:40.
