data_PCOD9141140
_publ_section_title
;
Structure prediction by ZEFSAII (Michael W. Deem and Ramdas Pophale) SiO2 
 PCOD9141140
Probable space group: C C
;
_chemical_formula_sum "Si O2"
_cell_formula_units_Z 20
_cell_length_a 14.328709
_cell_length_b 11.137960
_cell_length_c 7.785986
_cell_angle_alpha 90.000000
_cell_angle_beta 145.162290
_cell_angle_gamma 90.000000
_cell_volume 709.831894
_symmetry_space_group_name_H-M "C C"
_symmetry_group_IT_number 9
_symmetry_cell_setting 'monoclinic'
loop_
_space_group_symop_operation_xyz
x,y,z
x,-y,1/2+z
1/2+x,1/2+y,z
1/2+x,1/2-y,1/2+z
loop_
_atom_site_type_symbol
_atom_site_label
_atom_site_fract_x
_atom_site_fract_y
_atom_site_fract_z
Si Si1 0.465650 0.304849 0.294180
Si Si2 0.488753 0.536824 0.175663
Si Si3 0.189824 0.351356 0.345339
Si Si4 0.783124 0.613326 0.861398
Si Si5 0.925320 0.622447 0.736252
O O1 0.527420 0.394545 0.238200
O O2 0.472749 0.387798 0.476380
O O3 0.573517 0.190456 0.515355
O O4 0.301615 0.238059 0.989053
O O5 0.306040 0.538737 0.977735
O O6 0.620018 0.598058 0.501243
O O7 0.318142 0.241931 0.549212
O O8 0.081711 0.370210 0.350806
O O9 0.934784 0.612759 0.954093
O O10 0.815209 0.491920 0.014458
#
# Coordination Sequence:
#
# PCOD9141140 Si02
#       5
#     4   4   4   4   4
#     4  12  29  51  89 124 172 222 281 350 429 500
#     4  12  28  54  84 127 170 220 285 349 426 507
#     4  12  26  54  86 124 172 217 286 344 424 506
#     4  12  27  57  91 119 179 220 281 360 425 497
#     4  12  26  54  84 130 169 223 281 349 420 510
#
# _framework density 28.175685000000001
#
# number of rings (size 3 to 8) (size 9 to 14) (size 15 to 20)
#    0.000    0.000    6.000    1.200    2.800    4.800 
#   14.400    0.000    0.000    0.000    0.000    0.000 
#    0.000    0.000    0.000    0.000    0.000    0.000 
#
# Total GULP energy -56085.973933 kJ/mol
# GULP energy per Si atom -5608.597393 kJ/mol
# Density = 2.811156 g / cm^3
# Si number density = 28.175685 Si / 1000 Ang^3
#
#
#
# Elastic Constant Matrix: (Units=GPa)
#
#
# Indices 1 2 3 4 5 6 
#
# 1 139.3339 28.0591 70.5159 0.0000 6.1013 0.0000
# 2 28.0591 144.7835 90.6655 0.0000 -11.1877 0.0000
# 3 70.5159 90.6655 141.2960 0.0000 -14.5515 0.0000
# 4 0.0000 0.0000 0.0000 70.6417 0.0000 -3.5446
# 5 6.1013 -11.1877 -14.5515 0.0000 49.9170 0.0000
# 6 0.0000 0.0000 0.0000 -3.5446 0.0000 61.7770
#
#
#
# Elastic Compliance Matrix: (Units=1/GPa)
#
#
# Indices 1 2 3 4 5 6 
#
# 1 0.010284 0.001982 -0.006689 0.000000 -0.002763 0.000000
# 2 0.001982 0.011938 -0.008659 0.000000 -0.000091 0.000000
# 3 -0.006689 -0.008659 0.016347 0.000000 0.003642 0.000000
# 4 0.000000 0.000000 0.000000 0.014197 0.000000 0.000815
# 5 -0.002763 -0.000091 0.003642 0.000000 0.021412 0.000000
# 6 0.000000 0.000000 0.000000 0.000815 0.000000 0.016234
#
#
# Mechanical properties :
#
#
# Convention : Reuss Voigt Hill
#
# Bulk Modulus (GPa) = 84.47592 89.32160 86.89876
# Shear Modulus (GPa) = 41.29213 52.21197 46.75205
#
# Velocity S-wave (km/s) = 3.83237 4.30942 4.07788
# Velocity P-wave (km/s) = 7.04483 7.51877 7.28566
#
# Compressibility (1/GPa) = 0.01183769
#
# Stress axis : x y z
#
# Youngs Moduli (GPa) = 97.23904 83.76623 61.17470
#
# Poissons Ratio (x) = -0.16603 0.40918
# Poissons Ratio (y) = -0.19273 0.52970
# Poissons Ratio (z) = 0.65040 0.72531
#
# Static dielectric constant tensor:
#      x y z
#    x 2.335620 0.000000 0.011420 
#    y 0.000000 2.218110 0.000000 
#    z 0.011420 0.000000 2.181900 
# 
# From -- ./inp_files/7126.got.cif
#   From: 2010.05.17/outbox.cif.g08.bks.cpg/sg9_4_cif.got.tgz:7126.got - 2010.06.03 20:04:27.
