data_PCOD9141407
_publ_section_title
;
Structure prediction by ZEFSAII (Michael W. Deem and Ramdas Pophale) SiO2 
 PCOD9141407
Probable space group: P 2/M
;
_chemical_formula_sum "Si O2"
_cell_formula_units_Z 16
_cell_length_a 5.473212
_cell_length_b 19.249758
_cell_length_c 9.246323
_cell_angle_alpha 90.000000
_cell_angle_beta 53.705821
_cell_angle_gamma 90.000000
_cell_volume 785.173095
_symmetry_space_group_name_H-M "P 2/M"
_symmetry_group_IT_number 10
_symmetry_cell_setting 'monoclinic'
loop_
_space_group_symop_operation_xyz
x,y,z
-x,y,-z
-x,-y,-z
x,-y,z
loop_
_atom_site_type_symbol
_atom_site_label
_atom_site_fract_x
_atom_site_fract_y
_atom_site_fract_z
Si Si1 0.862006 0.500000 0.887992
Si Si2 0.949239 0.787829 0.300756
Si Si3 0.535536 0.845197 0.714469
Si Si4 0.366819 0.000000 0.383180
Si Si5 0.137658 0.374202 0.612344
O O1 0.983540 0.431274 0.766459
O O2 0.500000 0.500000 0.000000
O O3 0.000000 0.500000 0.000000
O O4 0.747765 0.821867 0.502235
O O5 0.787709 0.813808 0.212846
O O6 0.930092 0.705166 0.319902
O O7 0.286586 0.813808 0.212846
O O8 0.525766 0.928109 0.724238
O O9 0.500000 0.000000 0.500000
O O10 0.000000 0.000000 0.500000
O O11 0.500000 0.383469 0.500000
O O12 0.000000 0.383467 0.500000
#
# Coordination Sequence:
#
# PCOD9141407 Si02
#       5
#     2   4   4   2   4
#     4  12  28  46  58  84 122 150 174 232 300 348
#     4  10  16  27  44  69  99 125 178 227 258 295
#     4  10  16  25  36  65 105 135 177 207 271 311
#     4  12  16  20  34  52  96 158 162 190 260 354
#     4  12  21  38  65  88 105 145 197 236 270 332
#
# _framework density 20.377673999999999
#
# number of rings (size 3 to 8) (size 9 to 14) (size 15 to 20)
#    0.000    1.000   10.000    2.250    0.000    0.000 
#    0.000    0.000    0.000    0.000    0.000    0.000 
#    0.000    0.000    0.000   38.250    0.000    0.500 
#
# Total GULP energy -89359.968886 kJ/mol
# GULP energy per Si atom -5584.998055 kJ/mol
# Density = 2.033129 g / cm^3
# Si number density = 20.377674 Si / 1000 Ang^3
#
#
#
# Elastic Constant Matrix: (Units=GPa)
#
#
# Indices 1 2 3 4 5 6 
#
# 1 281.0363 83.9287 61.2265 0.0000 19.4534 0.0000
# 2 83.9287 207.4333 70.2285 0.0000 1.2966 0.0000
# 3 61.2265 70.2285 58.0530 0.0000 1.6783 0.0000
# 4 0.0000 0.0000 0.0000 -13.9164 0.0000 3.7430
# 5 19.4534 1.2966 1.6783 0.0000 8.9643 0.0000
# 6 0.0000 0.0000 0.0000 3.7430 0.0000 25.5670
#
#
#
# Elastic Compliance Matrix: (Units=1/GPa)
#
#
# Indices 1 2 3 4 5 6 
#
# 1 0.005545 -0.000513 -0.004909 0.000000 -0.011040 0.000000
# 2 -0.000513 0.008216 -0.009448 0.000000 0.001693 0.000000
# 3 -0.004909 -0.009448 0.033667 0.000000 0.005716 0.000000
# 4 0.000000 0.000000 0.000000 -0.069136 0.000000 0.010121
# 5 -0.011040 0.001693 0.005716 0.000000 0.134197 0.000000
# 6 0.000000 0.000000 0.000000 0.010121 0.000000 0.037631
#
#
# Mechanical properties :
#
#
# Convention : Reuss Voigt Hill
#
# Bulk Modulus (GPa) = 56.53016 108.58776 82.55896
# Shear Modulus (GPa) = 26.91701 26.19891 26.55796
#
# Velocity S-wave (km/s) = 3.63837 3.58951 3.61402
# Velocity P-wave (km/s) = 6.74179 8.40135 7.61691
#
# Compressibility (1/GPa) = 0.01768967
#
# Stress axis : x y z
#
# Youngs Moduli (GPa) = 180.34372 121.70929 29.70270
#
# Poissons Ratio (x) = 0.06239 0.14581
# Poissons Ratio (y) = 0.09244 0.28063
# Poissons Ratio (z) = 0.88528 1.14989
#
# Static dielectric constant tensor:
#      x y z
#    x 1.724310 0.000000 0.001130 
#    y 0.000000 1.680720 0.000000 
#    z 0.001130 0.000000 1.712440 
# 
# From -- ./inp_files/14464.got.cif
#   From: 2010.05.17/outbox.cif.g08.bks.cpg/sg10_8_cif.got.tgz:14464.got - 2010.06.03 11:33:40.
