data_PCOD9142192
_publ_section_title
;
Structure prediction by ZEFSAII (Michael W. Deem and Ramdas Pophale) SiO2 
 PCOD9142192
Probable space group: P 2/M
;
_chemical_formula_sum "Si O2"
_cell_formula_units_Z 32
_cell_length_a 19.964186
_cell_length_b 8.956652
_cell_length_c 29.773002
_cell_angle_alpha 90.000000
_cell_angle_beta 23.918015
_cell_angle_gamma 90.000000
_cell_volume 2158.414124
_symmetry_space_group_name_H-M "P 2/M"
_symmetry_group_IT_number 10
_symmetry_cell_setting 'monoclinic'
loop_
_space_group_symop_operation_xyz
x,y,z
-x,y,-z
-x,-y,-z
x,-y,z
loop_
_atom_site_type_symbol
_atom_site_label
_atom_site_fract_x
_atom_site_fract_y
_atom_site_fract_z
Si Si1 0.891549 0.323039 0.426925
Si Si2 0.610208 0.822457 0.827292
Si Si3 0.102131 0.320621 0.731590
Si Si4 0.064927 0.680060 0.411617
Si Si5 0.687836 0.823072 0.478544
Si Si6 0.397693 0.328817 0.609609
Si Si7 0.207987 0.825464 0.192820
Si Si8 0.750914 0.178175 0.936795
O O1 0.863700 0.500000 0.442698
O O2 0.939308 0.276736 0.448371
O O3 0.744339 0.239084 0.492026
O O4 0.055075 0.279860 0.298479
O O5 0.657035 0.801555 0.851214
O O6 0.755101 0.744024 0.710748
O O7 0.617132 0.000000 0.814646
O O8 0.422025 0.771886 0.935388
O O9 0.107897 0.500000 0.722895
O O10 0.189722 0.247781 0.634239
O O11 0.215818 0.281545 0.705057
O O12 0.916378 0.262434 0.849717
O O13 0.074992 0.500000 0.404868
O O14 0.000000 0.728259 0.500000
O O15 0.503694 0.771953 0.577917
O O16 0.704064 0.000000 0.466803
O O17 0.500000 0.329016 0.500000
O O18 0.394502 0.500000 0.627855
O O19 0.265148 0.801128 0.107195
O O20 0.154425 0.000000 0.229109
O O21 0.770529 0.000000 0.932285
#
# Coordination Sequence:
#
# PCOD9142192 Si02
#       8
#     4   4   4   4   4   4   4   4
#     4  10  18  28  44  64  86 113 145 181 219 260
#     4   9  18  30  44  64  87 113 146 179 217 259
#     4  10  19  29  41  58  84 118 152 183 215 250
#     4   9  19  35  51  66  86 112 143 182 226 265
#     4  11  19  27  41  61  85 113 147 184 217 254
#     4   8  16  29  41  55  79 113 149 183 216 249
#     4   9  16  27  41  58  84 116 146 177 212 249
#     4  10  18  27  41  61  88 119 148 180 212 250
#
# _framework density 14.825699999999999
#
# number of rings (size 3 to 8) (size 9 to 14) (size 15 to 20)
#    0.000    2.500    1.250    3.000    0.000    5.500 
#    0.000    0.000    0.000    3.750    0.000    0.000 
#    0.000    1.000    0.000   11.250    0.000    5.625 
#
# Total GULP energy -178282.435400 kJ/mol
# GULP energy per Si atom -5571.326106 kJ/mol
# Density = 1.479196 g / cm^3
# Si number density = 14.825700 Si / 1000 Ang^3
#
#
#
# Elastic Constant Matrix: (Units=GPa)
#
#
# Indices 1 2 3 4 5 6 
#
# 1 94.2853 46.7366 64.2260 0.0000 -17.0260 0.0000
# 2 46.7366 49.9089 34.8493 0.0000 -9.7852 0.0000
# 3 64.2260 34.8493 79.0631 0.0000 -18.9764 0.0000
# 4 0.0000 0.0000 0.0000 37.3038 0.0000 -0.2152
# 5 -17.0260 -9.7852 -18.9764 0.0000 21.0798 0.0000
# 6 0.0000 0.0000 0.0000 -0.2152 0.0000 18.6169
#
#
#
# Elastic Compliance Matrix: (Units=1/GPa)
#
#
# Indices 1 2 3 4 5 6 
#
# 1 0.031018 -0.016478 -0.017548 0.000000 0.001607 0.000000
# 2 -0.016478 0.037802 -0.002882 0.000000 0.001644 0.000000
# 3 -0.017548 -0.002882 0.031189 0.000000 0.012566 0.000000
# 4 0.000000 0.000000 0.000000 0.026809 0.000000 0.000310
# 5 0.001607 0.001644 0.012566 0.000000 0.060812 0.000000
# 6 0.000000 0.000000 0.000000 0.000310 0.000000 0.053718
#
#
# Mechanical properties :
#
#
# Convention : Reuss Voigt Hill
#
# Bulk Modulus (GPa) = 38.17836 57.20903 47.69369
# Shear Modulus (GPa) = 15.43707 20.56313 18.00010
#
# Velocity S-wave (km/s) = 3.23032 3.72827 3.48820
# Velocity P-wave (km/s) = 6.30243 7.56339 6.96152
#
# Compressibility (1/GPa) = 0.02619285
#
# Stress axis : x y z
#
# Youngs Moduli (GPa) = 32.23926 26.45368 32.06208
#
# Poissons Ratio (x) = 0.43591 0.56263
# Poissons Ratio (y) = 0.53125 0.09240
# Poissons Ratio (z) = 0.56574 0.07623
#
# Static dielectric constant tensor:
#      x y z
#    x 1.511350 0.000000 -0.029730 
#    y 0.000000 1.497240 0.000000 
#    z -0.029730 0.000000 1.476600 
# 
# From -- ./inp_files/72030.got.cif
#   From: 2010.05.17/outbox.cif.g08.bks.cpg/sg10_37_cif.got.tgz:72030.got - 2010.06.03 11:33:40.
