data_PCOD9142748
_publ_section_title
;
Structure prediction by ZEFSAII (Michael W. Deem and Ramdas Pophale) SiO2 
 PCOD9142748
Probable space group: P 2/M
;
_chemical_formula_sum "Si O2"
_cell_formula_units_Z 28
_cell_length_a 17.257067
_cell_length_b 7.340012
_cell_length_c 23.578518
_cell_angle_alpha 90.000000
_cell_angle_beta 24.904554
_cell_angle_gamma 90.000000
_cell_volume 1257.690136
_symmetry_space_group_name_H-M "P 2/M"
_symmetry_group_IT_number 10
_symmetry_cell_setting 'monoclinic'
loop_
_space_group_symop_operation_xyz
x,y,z
-x,y,-z
-x,-y,-z
x,-y,z
loop_
_atom_site_type_symbol
_atom_site_label
_atom_site_fract_x
_atom_site_fract_y
_atom_site_fract_z
Si Si1 0.328046 0.209844 0.372970
Si Si2 0.275879 0.280370 0.843097
Si Si3 0.316161 0.207775 0.592938
Si Si4 0.705065 0.222402 0.847094
Si Si5 0.911001 0.720414 0.148182
Si Si6 0.800247 0.779432 0.657205
Si Si7 0.090295 0.776623 0.634711
O O1 0.526810 0.216754 0.268770
O O2 0.331490 0.281994 0.306692
O O3 0.183961 0.286461 0.513831
O O4 0.269393 0.000000 0.405742
O O5 0.275885 0.500000 0.842895
O O6 0.221847 0.223491 0.815469
O O7 0.113946 0.223013 0.993393
O O8 0.500000 0.290541 0.500000
O O9 0.163053 0.208187 0.743667
O O10 0.218126 0.286310 0.602094
O O11 0.368387 0.000000 0.543125
O O12 0.753036 0.284495 0.751342
O O13 0.875569 0.276220 0.774623
O O14 0.703496 0.000000 0.848654
O O15 0.500000 0.281358 0.000000
O O16 0.908611 0.500000 0.152718
O O17 0.000000 0.729791 0.500000
O O18 0.795718 0.000000 0.665463
O O19 0.093877 0.000000 0.634117
#
# Coordination Sequence:
#
# PCOD9142748 Si02
#       7
#     4   4   4   4   4   4   4
#     4  10  18  29  51  77  99 127 165 204 250 297
#     4   9  19  35  52  71  97 128 164 208 252 295
#     4  10  20  32  48  73 105 133 159 201 254 300
#     4   9  16  26  41  64  97 134 166 201 248 295
#     4   9  19  36  53  68  94 133 170 204 246 296
#     4   9  15  26  44  68  97 126 161 204 243 288
#     4   9  17  29  44  67 102 135 160 198 250 300
#
# _framework density 22.263034999999999
#
# number of rings (size 3 to 8) (size 9 to 14) (size 15 to 20)
#    0.000    2.714    1.429    1.714    0.000    3.714 
#    0.000    5.000    0.000    0.429    0.000    0.000 
#    0.000    4.000    0.000    0.000    0.000    0.000 
#
# Total GULP energy -156271.731520 kJ/mol
# GULP energy per Si atom -5581.133269 kJ/mol
# Density = 2.221236 g / cm^3
# Si number density = 22.263035 Si / 1000 Ang^3
#
#
#
# Elastic Constant Matrix: (Units=GPa)
#
#
# Indices 1 2 3 4 5 6 
#
# 1 144.1640 4.6257 81.2879 0.0000 -10.5519 0.0000
# 2 4.6257 82.4067 -0.5771 0.0000 0.6869 0.0000
# 3 81.2879 -0.5771 106.6481 0.0000 -9.1301 0.0000
# 4 0.0000 0.0000 0.0000 20.7408 0.0000 -5.1946
# 5 -10.5519 0.6869 -9.1301 0.0000 41.6336 0.0000
# 6 0.0000 0.0000 0.0000 -5.1946 0.0000 32.1304
#
#
#
# Elastic Compliance Matrix: (Units=1/GPa)
#
#
# Indices 1 2 3 4 5 6 
#
# 1 0.012259 -0.000762 -0.009255 0.000000 0.001090 0.000000
# 2 -0.000762 0.012184 0.000625 0.000000 -0.000257 0.000000
# 3 -0.009255 0.000625 0.016543 0.000000 0.001272 0.000000
# 4 0.000000 0.000000 0.000000 0.050249 0.000000 0.008124
# 5 0.001090 -0.000257 0.001272 0.000000 0.024579 0.000000
# 6 0.000000 0.000000 0.000000 0.008124 0.000000 0.032437
#
#
# Mechanical properties :
#
#
# Convention : Reuss Voigt Hill
#
# Bulk Modulus (GPa) = 45.04066 55.98796 50.51431
# Shear Modulus (GPa) = 28.66393 35.42644 32.04519
#
# Velocity S-wave (km/s) = 3.59208 3.99340 3.79804
# Velocity P-wave (km/s) = 6.12202 6.81659 6.47862
#
# Compressibility (1/GPa) = 0.02220216
#
# Stress axis : x y z
#
# Youngs Moduli (GPa) = 81.57147 82.07331 60.44854
#
# Poissons Ratio (x) = 0.06254 0.55944
# Poissons Ratio (y) = 0.06216 -0.03777
# Poissons Ratio (z) = 0.75493 -0.05128
#
# Static dielectric constant tensor:
#      x y z
#    x 1.827260 0.000000 -0.013150 
#    y 0.000000 1.864850 0.000000 
#    z -0.013150 0.000000 1.775640 
# 
# From -- ./inp_files/49098.got.cif
#   From: 2010.05.17/outbox.cif.g08.bks.cpg/sg10_25_cif.got.tgz:49098.got - 2010.06.03 11:33:40.
