data_PCOD9142267
_publ_section_title
;
Structure prediction by ZEFSAII (Michael W. Deem and Ramdas Pophale) SiO2 
 PCOD9142267
Probable space group: P 2/M
;
_chemical_formula_sum "Si O2"
_cell_formula_units_Z 24
_cell_length_a 10.116300
_cell_length_b 12.133389
_cell_length_c 9.572708
_cell_angle_alpha 90.000000
_cell_angle_beta 91.600886
_cell_angle_gamma 90.000000
_cell_volume 1174.543450
_symmetry_space_group_name_H-M "P 2/M"
_symmetry_group_IT_number 10
_symmetry_cell_setting 'monoclinic'
loop_
_space_group_symop_operation_xyz
x,y,z
-x,y,-z
-x,-y,-z
x,-y,z
loop_
_atom_site_type_symbol
_atom_site_label
_atom_site_fract_x
_atom_site_fract_y
_atom_site_fract_z
Si Si1 0.275475 0.373810 0.911024
Si Si2 0.275380 0.000000 0.893902
Si Si3 0.980893 0.127304 0.738106
Si Si4 0.374488 0.176237 0.079439
Si Si5 0.316396 0.126435 0.383884
Si Si6 0.000000 0.711323 0.000000
Si Si7 0.738769 0.801682 0.325017
O O1 0.315924 0.500000 0.904321
O O2 0.284099 0.309088 0.763947
O O3 0.354275 0.298905 0.024093
O O4 0.125010 0.361473 0.960406
O O5 0.299379 0.902525 0.777390
O O6 0.260412 0.903326 0.016574
O O7 0.840464 0.125609 0.658582
O O8 0.103570 0.174524 0.652591
O O9 0.019387 0.000000 0.780856
O O10 0.972908 0.208863 0.868460
O O11 0.385130 0.169637 0.245207
O O12 0.500000 0.126600 0.000000
O O13 0.331181 0.191626 0.528106
O O14 0.356550 0.000000 0.406978
#
# Coordination Sequence:
#
# PCOD9142267 Si02
#       7
#     4   2   4   4   4   2   4
#     4  10  22  40  60  81 112 154 196 237 281 328
#     4  10  19  36  53  84 113 150 180 231 282 343
#     4  10  18  27  52  87 124 150 177 218 287 355
#     4  11  23  39  59  83 116 149 197 238 277 334
#     4  11  20  33  55  88 120 153 180 225 292 344
#     4  10  18  32  58  88 114 145 187 236 282 340
#     4  10  20  34  56  83 123 149 186 228 284 351
#
# _framework density 20.43347
#
# number of rings (size 3 to 8) (size 9 to 14) (size 15 to 20)
#    0.000    1.667    4.167    1.250    0.000    1.667 
#    0.000    5.000    0.000    3.000    0.000    0.000 
#    0.000    0.000    0.000    0.000    0.000    0.000 
#
# Total GULP energy -133614.618776 kJ/mol
# GULP energy per Si atom -5567.275782 kJ/mol
# Density = 2.038696 g / cm^3
# Si number density = 20.433470 Si / 1000 Ang^3
#
#
#
# Elastic Constant Matrix: (Units=GPa)
#
#
# Indices 1 2 3 4 5 6 
#
# 1 50.7510 7.0562 19.8591 0.0000 -14.7159 0.0000
# 2 7.0562 154.7181 49.4053 0.0000 -9.3036 0.0000
# 3 19.8591 49.4053 170.6901 0.0000 -28.5362 0.0000
# 4 0.0000 0.0000 0.0000 12.6565 0.0000 22.1456
# 5 -14.7159 -9.3036 -28.5362 0.0000 23.2751 0.0000
# 6 0.0000 0.0000 0.0000 22.1456 0.0000 22.5411
#
#
#
# Elastic Compliance Matrix: (Units=1/GPa)
#
#
# Indices 1 2 3 4 5 6 
#
# 1 0.024143 -0.000114 -0.000291 0.000000 0.014862 0.000000
# 2 -0.000114 0.007125 -0.001994 0.000000 0.000332 0.000000
# 3 -0.000291 -0.001994 0.007931 0.000000 0.008743 0.000000
# 4 0.000000 0.000000 0.000000 -0.109884 0.000000 0.107956
# 5 0.014862 0.000332 0.008743 0.000000 0.063213 0.000000
# 6 0.000000 0.000000 0.000000 0.107956 0.000000 -0.061698
#
#
# Mechanical properties :
#
#
# Convention : Reuss Voigt Hill
#
# Bulk Modulus (GPa) = 29.06874 58.75559 43.91216
# Shear Modulus (GPa) = -94.50929 31.68378 -31.41275
#
# Velocity S-wave (km/s) = -6.80827 3.94202 -3.92512
# Velocity P-wave (km/s) = 6.89540 7.03820 0.99744
#
# Compressibility (1/GPa) = 0.03440122
#
# Stress axis : x y z
#
# Youngs Moduli (GPa) = 41.41924 140.34848 126.08555
#
# Poissons Ratio (x) = 0.01606 0.03672
# Poissons Ratio (y) = 0.00474 0.25136
# Poissons Ratio (z) = 0.01206 0.27980
#
# Static dielectric constant tensor:
#      x y z
#    x 2.010230 0.000000 0.071200 
#    y 0.000000 1.688940 0.000000 
#    z 0.071200 0.000000 1.755990 
# 
# From -- ./inp_files/24090.got.cif
#   From: 2010.05.17/outbox.cif.g08.bks.cpg/sg10_13_cif.got.tgz:24090.got - 2010.06.03 11:33:40.
