data_PCOD9142173
_publ_section_title
;
Structure prediction by ZEFSAII (Michael W. Deem and Ramdas Pophale) SiO2 
 PCOD9142173
Probable space group: P 2/M
;
_chemical_formula_sum "Si O2"
_cell_formula_units_Z 32
_cell_length_a 11.283892
_cell_length_b 17.737512
_cell_length_c 14.750779
_cell_angle_alpha 90.000000
_cell_angle_beta 30.709479
_cell_angle_gamma 90.000000
_cell_volume 1507.716964
_symmetry_space_group_name_H-M "P 2/M"
_symmetry_group_IT_number 10
_symmetry_cell_setting 'monoclinic'
loop_
_space_group_symop_operation_xyz
x,y,z
-x,y,-z
-x,-y,-z
x,-y,z
loop_
_atom_site_type_symbol
_atom_site_label
_atom_site_fract_x
_atom_site_fract_y
_atom_site_fract_z
Si Si1 0.104612 0.784997 0.079657
Si Si2 0.248439 0.706739 0.166556
Si Si3 0.376152 0.585322 0.841342
Si Si4 0.491687 0.202506 0.336946
Si Si5 0.245865 0.712837 0.361806
Si Si6 0.811009 0.914193 0.207594
Si Si7 0.282444 0.664889 0.717537
Si Si8 0.967553 0.584716 0.261523
O O1 0.201097 0.760396 0.112747
O O2 0.940964 0.858303 0.191404
O O3 0.942022 0.719279 0.146269
O O4 0.312685 0.792682 0.871204
O O5 0.275256 0.750605 0.243501
O O6 0.052039 0.643047 0.281574
O O7 0.500000 0.666208 0.000000
O O8 0.467525 0.500000 0.776315
O O9 0.566401 0.648025 0.742595
O O10 0.281183 0.610696 0.805574
O O11 0.173093 0.585033 0.050374
O O12 0.263098 0.225603 0.430838
O O13 0.570329 0.125862 0.334698
O O14 0.527360 0.271094 0.383635
O O15 0.000000 0.676329 0.500000
O O16 0.777175 0.000000 0.258666
O O17 0.000000 0.914799 0.000000
O O18 0.258430 0.614582 0.642910
O O19 0.935671 0.500000 0.315360
#
# Coordination Sequence:
#
# PCOD9142173 Si02
#       8
#     4   4   4   4   4   4   4   4
#     4   9  15  25  48  73  96 122 151 185 233 280
#     4  11  18  32  48  65  92 126 157 195 236 268
#     4  10  18  28  44  65  92 122 153 198 245 283
#     4   9  15  27  47  70  95 126 155 187 226 274
#     4  11  22  34  47  65  90 126 168 197 224 273
#     4   8  14  25  47  81 110 122 139 183 237 280
#     4   9  14  24  42  69  93 112 149 197 240 277
#     4  10  18  26  44  70  92 116 152 199 246 288
#
# _framework density 21.224143000000002
#
# number of rings (size 3 to 8) (size 9 to 14) (size 15 to 20)
#    0.000    2.375    2.500    4.875    0.000    2.000 
#    0.000    0.000    0.000   20.250    0.000    7.875 
#    0.000    0.000    0.000    0.000    0.000    0.000 
#
# Total GULP energy -178377.122039 kJ/mol
# GULP energy per Si atom -5574.285064 kJ/mol
# Density = 2.117584 g / cm^3
# Si number density = 21.224143 Si / 1000 Ang^3
#
#
#
# Elastic Constant Matrix: (Units=GPa)
#
#
# Indices 1 2 3 4 5 6 
#
# 1 168.3560 55.4850 24.8901 0.0000 -21.8914 0.0000
# 2 55.4850 147.8806 13.1720 0.0000 -15.2848 0.0000
# 3 24.8901 13.1720 43.5612 0.0000 -15.7336 0.0000
# 4 0.0000 0.0000 0.0000 11.3870 0.0000 -3.9940
# 5 -21.8914 -15.2848 -15.7336 0.0000 35.0512 0.0000
# 6 0.0000 0.0000 0.0000 -3.9940 0.0000 11.8396
#
#
#
# Elastic Compliance Matrix: (Units=1/GPa)
#
#
# Indices 1 2 3 4 5 6 
#
# 1 0.007404 -0.002290 -0.002660 0.000000 0.002432 0.000000
# 2 -0.002290 0.007845 -0.000411 0.000000 0.001806 0.000000
# 3 -0.002660 -0.000411 0.028567 0.000000 0.010982 0.000000
# 4 0.000000 0.000000 0.000000 0.099605 0.000000 0.033601
# 5 0.002432 0.001806 0.010982 0.000000 0.035766 0.000000
# 6 0.000000 0.000000 0.000000 0.033601 0.000000 0.095797
#
#
# Mechanical properties :
#
#
# Convention : Reuss Voigt Hill
#
# Bulk Modulus (GPa) = 30.21722 60.76578 45.49150
# Shear Modulus (GPa) = 16.85000 29.40561 23.12780
#
# Velocity S-wave (km/s) = 2.82069 3.72624 3.30463
# Velocity P-wave (km/s) = 4.98764 6.87065 6.00343
#
# Compressibility (1/GPa) = 0.03309371
#
# Stress axis : x y z
#
# Youngs Moduli (GPa) = 135.06529 127.47582 35.00537
#
# Poissons Ratio (x) = 0.29188 0.09311
# Poissons Ratio (y) = 0.30926 0.01440
# Poissons Ratio (z) = 0.35924 0.05245
#
# Static dielectric constant tensor:
#      x y z
#    x 1.766490 0.000000 0.054790 
#    y 0.000000 1.743010 0.000000 
#    z 0.054790 0.000000 2.039810 
# 
# From -- ./inp_files/77134.got.cif
#   From: 2010.05.17/outbox.cif.g08.bks.cpg/sg10_39_cif.got.tgz:77134.got - 2010.06.03 11:33:40.
