data_PCOD9142882
_publ_section_title
;
Structure prediction by ZEFSAII (Michael W. Deem and Ramdas Pophale) SiO2 
 PCOD9142882
Probable space group: P 2/M
;
_chemical_formula_sum "Si O2"
_cell_formula_units_Z 32
_cell_length_a 17.434566
_cell_length_b 8.504180
_cell_length_c 12.046073
_cell_angle_alpha 90.000000
_cell_angle_beta 96.384732
_cell_angle_gamma 90.000000
_cell_volume 1774.953638
_symmetry_space_group_name_H-M "P 2/M"
_symmetry_group_IT_number 10
_symmetry_cell_setting 'monoclinic'
loop_
_space_group_symop_operation_xyz
x,y,z
-x,y,-z
-x,-y,-z
x,-y,z
loop_
_atom_site_type_symbol
_atom_site_label
_atom_site_fract_x
_atom_site_fract_y
_atom_site_fract_z
Si Si1 0.827922 0.315535 0.459692
Si Si2 0.234065 0.814070 0.905457
Si Si3 0.417716 0.809481 0.527461
Si Si4 0.314609 0.810961 0.702720
Si Si5 0.266787 0.813118 0.362928
Si Si6 0.033995 0.185492 0.124287
Si Si7 0.909672 0.312385 0.260704
Si Si8 0.797440 0.682470 0.865061
O O1 0.836284 0.500000 0.485729
O O2 0.753001 0.283326 0.370304
O O3 0.806026 0.227140 0.569020
O O4 0.896510 0.264407 0.387336
O O5 0.303589 0.780318 0.830766
O O6 0.155807 0.768008 0.826785
O O7 0.231773 0.000000 0.927597
O O8 0.237268 0.723225 0.020862
O O9 0.500000 0.747766 0.500000
O O10 0.392741 0.771877 0.649840
O O11 0.345140 0.762655 0.438959
O O12 0.420879 0.000000 0.521742
O O13 0.300059 0.000000 0.684310
O O14 0.257503 0.727647 0.245037
O O15 0.269637 0.000000 0.347514
O O16 0.124404 0.218353 0.137017
O O17 0.990534 0.269154 0.218427
O O18 0.018566 0.000000 0.130198
O O19 0.000000 0.241345 0.000000
O O20 0.897702 0.500000 0.254439
O O21 0.818012 0.500000 0.863806
#
# Coordination Sequence:
#
# PCOD9142882 Si02
#       8
#     4   4   4   4   4   4   4   4
#     4   9  17  30  49  73 101 132 168 209 252 299
#     4  10  18  30  48  72 101 133 173 214 254 299
#     4   8  14  28  54  85 109 130 161 204 251 296
#     4   8  15  27  47  75 104 133 166 208 250 292
#     4  10  20  35  54  76 104 136 170 207 251 305
#     4  11  22  35  52  74 101 133 171 217 261 303
#     4  10  19  31  50  75 101 131 169 215 260 300
#     4  12  24  36  52  72 100 136 173 214 259 307
#
# _framework density 18.028639999999999
#
# number of rings (size 3 to 8) (size 9 to 14) (size 15 to 20)
#    0.000    2.250    1.250    3.750    0.000    2.500 
#    0.000    0.625    0.000   13.875    0.000    5.250 
#    0.000    0.000    0.000    0.000    0.000    0.000 
#
# Total GULP energy -178398.404688 kJ/mol
# GULP energy per Si atom -5574.950146 kJ/mol
# Density = 1.798761 g / cm^3
# Si number density = 18.028640 Si / 1000 Ang^3
#
#
#
# Elastic Constant Matrix: (Units=GPa)
#
#
# Indices 1 2 3 4 5 6 
#
# 1 67.0375 -7.1247 27.7851 0.0000 -24.4248 0.0000
# 2 -7.1247 12.9693 -3.2693 0.0000 -0.3118 0.0000
# 3 27.7851 -3.2693 76.7309 0.0000 -15.3990 0.0000
# 4 0.0000 0.0000 0.0000 22.0622 0.0000 -3.3543
# 5 -24.4248 -0.3118 -15.3990 0.0000 24.4253 0.0000
# 6 0.0000 0.0000 0.0000 -3.3543 0.0000 2.0604
#
#
#
# Elastic Compliance Matrix: (Units=1/GPa)
#
#
# Indices 1 2 3 4 5 6 
#
# 1 0.027239 0.014478 -0.004285 0.000000 0.024722 0.000000
# 2 0.014478 0.085905 0.001767 0.000000 0.016688 0.000000
# 3 -0.004285 0.001767 0.015804 0.000000 0.005701 0.000000
# 4 0.000000 0.000000 0.000000 0.060236 0.000000 0.098065
# 5 0.024722 0.016688 0.005701 0.000000 0.069469 0.000000
# 6 0.000000 0.000000 0.000000 0.098065 0.000000 0.644997
#
#
# Mechanical properties :
#
#
# Convention : Reuss Voigt Hill
#
# Bulk Modulus (GPa) = 6.54165 21.28000 13.91082
# Shear Modulus (GPa) = 5.37237 18.99936 12.18586
#
# Velocity S-wave (km/s) = 1.72811 3.24982 2.60266
# Velocity P-wave (km/s) = 2.76011 5.09027 4.09445
#
# Compressibility (1/GPa) = 0.15286667
#
# Stress axis : x y z
#
# Youngs Moduli (GPa) = 36.71196 11.64072 63.27638
#
# Poissons Ratio (x) = -0.16853 0.27116
# Poissons Ratio (y) = -0.53152 -0.11179
# Poissons Ratio (z) = 0.15732 -0.02057
#
# Static dielectric constant tensor:
#      x y z
#    x 1.616010 0.000000 -0.032370 
#    y 0.000000 1.605230 0.000000 
#    z -0.032370 0.000000 1.645920 
# 
# From -- ./inp_files/52810.got.cif
#   From: 2010.05.17/outbox.cif.g08.bks.cpg/sg10_27_cif.got.tgz:52810.got - 2010.06.03 11:33:40.
