data_PCOD9142083
_publ_section_title
;
Structure prediction by ZEFSAII (Michael W. Deem and Ramdas Pophale) SiO2 
 PCOD9142083
Probable space group: P 2/M
;
_chemical_formula_sum "Si O2"
_cell_formula_units_Z 26
_cell_length_a 13.459595
_cell_length_b 21.191136
_cell_length_c 14.353998
_cell_angle_alpha 90.000000
_cell_angle_beta 20.634247
_cell_angle_gamma 90.000000
_cell_volume 1442.767514
_symmetry_space_group_name_H-M "P 2/M"
_symmetry_group_IT_number 10
_symmetry_cell_setting 'monoclinic'
loop_
_space_group_symop_operation_xyz
x,y,z
-x,y,-z
-x,-y,-z
x,-y,z
loop_
_atom_site_type_symbol
_atom_site_label
_atom_site_fract_x
_atom_site_fract_y
_atom_site_fract_z
Si Si1 0.030506 0.713434 0.867135
Si Si2 0.953574 0.430273 0.902447
Si Si3 0.682122 0.500000 0.748638
Si Si4 0.107372 0.848566 0.512467
Si Si5 0.606363 0.070484 0.013252
Si Si6 0.675657 0.405896 0.590968
Si Si7 0.606566 0.736682 0.623997
O O1 0.074454 0.636696 0.832577
O O2 0.274676 0.740357 0.586349
O O3 0.732268 0.731154 0.080687
O O4 0.000000 0.735607 0.000000
O O5 0.035270 0.500000 0.867349
O O6 0.062602 0.429857 0.699836
O O7 0.616682 0.422088 0.205844
O O8 0.640013 0.439950 0.719721
O O9 0.000000 0.500000 0.500000
O O10 0.500000 0.500000 0.000000
O O11 0.338036 0.904102 0.303785
O O12 0.257684 0.790176 0.430884
O O13 0.000000 0.834923 0.500000
O O14 0.848512 0.876861 0.798377
O O15 0.696444 0.000000 0.962489
O O16 0.500000 0.066444 0.000000
O O17 0.706733 0.331434 0.572477
#
# Coordination Sequence:
#
# PCOD9142083 Si02
#       7
#     4   4   2   4   4   4   4
#     4  10  21  35  53  77 102 131 172 221 272 325
#     4  10  17  32  54  68  91 124 154 205 271 333
#     4  12  22  32  48  68  89 124 175 220 256 300
#     4  10  19  32  52  78 111 146 180 206 242 311
#     4   9  17  30  50  78 112 145 172 208 252 294
#     4  10  20  34  48  66  94 128 166 211 263 304
#     4  10  21  36  54  74 105 142 170 218 264 303
#
# _framework density 18.020921999999999
#
# number of rings (size 3 to 8) (size 9 to 14) (size 15 to 20)
#    0.000    2.000    1.538    2.769    0.000    2.769 
#    0.000    2.308    0.000    5.538    0.000    0.000 
#    0.000   43.077    0.000    0.000    0.000    0.000 
#
# Total GULP energy -144893.090974 kJ/mol
# GULP energy per Si atom -5572.811191 kJ/mol
# Density = 1.797991 g / cm^3
# Si number density = 18.020922 Si / 1000 Ang^3
#
#
#
# Elastic Constant Matrix: (Units=GPa)
#
#
# Indices 1 2 3 4 5 6 
#
# 1 38.0342 16.8207 1.0219 0.0000 17.4446 0.0000
# 2 16.8207 82.2031 -2.4138 0.0000 2.4598 0.0000
# 3 1.0219 -2.4138 78.3588 0.0000 6.8465 0.0000
# 4 0.0000 0.0000 0.0000 19.4387 0.0000 -21.0255
# 5 17.4446 2.4598 6.8465 0.0000 25.1104 0.0000
# 6 0.0000 0.0000 0.0000 -21.0255 0.0000 24.8655
#
#
#
# Elastic Compliance Matrix: (Units=1/GPa)
#
#
# Indices 1 2 3 4 5 6 
#
# 1 0.043483 -0.007949 0.001802 0.000000 -0.029921 0.000000
# 2 -0.007949 0.013673 0.000163 0.000000 0.004139 0.000000
# 3 0.001802 0.000163 0.013168 0.000000 -0.004858 0.000000
# 4 0.000000 0.000000 0.000000 0.602383 0.000000 0.509358
# 5 -0.029921 0.004139 -0.004858 0.000000 0.061530 0.000000
# 6 0.000000 0.000000 0.000000 0.509358 0.000000 0.470915
#
#
# Mechanical properties :
#
#
# Convention : Reuss Voigt Hill
#
# Bulk Modulus (GPa) = 17.13634 25.49484 21.31559
# Shear Modulus (GPa) = 4.04344 26.09407 15.06875
#
# Velocity S-wave (km/s) = 1.49954 3.80937 2.89482
# Velocity P-wave (km/s) = 3.53948 5.79021 4.79867
#
# Compressibility (1/GPa) = 0.05835551
#
# Stress axis : x y z
#
# Youngs Moduli (GPa) = 22.99772 73.13918 75.94261
#
# Poissons Ratio (x) = 0.58141 -0.13688
# Poissons Ratio (y) = 0.18282 -0.01240
# Poissons Ratio (z) = -0.04145 -0.01194
#
# Static dielectric constant tensor:
#      x y z
#    x 1.623300 0.000000 -0.000190 
#    y 0.000000 1.612550 0.000000 
#    z -0.000190 0.000000 1.631450 
# 
# From -- ./inp_files/67797.got.cif
#   From: 2010.05.17/outbox.cif.g08.bks.cpg/sg10_34_cif.got.tgz:67797.got - 2010.06.03 11:33:40.
