data_PCOD9142967
_publ_section_title
;
Structure prediction by ZEFSAII (Michael W. Deem and Ramdas Pophale) SiO2 
 PCOD9142967
Probable space group: P 2/M
;
_chemical_formula_sum "Si O2"
_cell_formula_units_Z 30
_cell_length_a 15.439016
_cell_length_b 20.917094
_cell_length_c 16.025341
_cell_angle_alpha 90.000000
_cell_angle_beta 161.462453
_cell_angle_gamma 90.000000
_cell_volume 1645.335048
_symmetry_space_group_name_H-M "P 2/M"
_symmetry_group_IT_number 10
_symmetry_cell_setting 'monoclinic'
loop_
_space_group_symop_operation_xyz
x,y,z
-x,y,-z
-x,-y,-z
x,-y,z
loop_
_atom_site_type_symbol
_atom_site_label
_atom_site_fract_x
_atom_site_fract_y
_atom_site_fract_z
Si Si1 0.303691 0.291165 0.741335
Si Si2 0.655950 0.792814 0.380584
Si Si3 0.695789 0.431307 0.259032
Si Si4 0.038397 0.896046 0.131845
Si Si5 0.445878 0.929362 0.646045
Si Si6 0.060614 0.759932 0.888718
Si Si7 0.801987 0.500000 0.739134
Si Si8 0.194969 0.361452 0.257800
O O1 0.347180 0.236038 0.713999
O O2 0.346235 0.361837 0.738207
O O3 0.000000 0.288835 0.500000
O O4 0.500000 0.285806 0.000000
O O5 0.639857 0.869406 0.375531
O O6 0.929715 0.772754 0.678689
O O7 0.387743 0.763980 0.182162
O O8 0.654779 0.500000 0.266671
O O9 0.000000 0.431308 0.500000
O O10 0.500000 0.431510 0.000000
O O11 0.301198 0.919629 0.423182
O O12 0.031933 0.819249 0.137705
O O13 0.000000 0.912640 0.000000
O O14 0.769844 0.923035 0.931410
O O15 0.373939 0.000000 0.611005
O O16 0.924502 0.695403 0.796547
O O17 0.500000 0.500000 0.500000
O O18 0.828078 0.431196 0.719168
O O19 0.000000 0.500000 0.000000
O O20 0.500000 0.351097 0.500000
O O21 0.000000 0.364103 0.000000
#
# Coordination Sequence:
#
# PCOD9142967 Si02
#       8
#     4   4   4   4   4   4   2   4
#     4  10  19  33  56  78  97 127 165 208 248 295
#     4  10  21  36  52  74 102 130 165 205 252 310
#     4   8  14  25  44  71  97 120 148 185 231 285
#     4  10  20  32  49  75 101 129 172 212 241 286
#     4  10  21  35  51  71 100 139 166 196 254 304
#     4  10  20  33  50  71 103 137 162 206 257 300
#     4   8  16  28  44  68  92 124 172 218 250 282
#     4  10  18  30  50  72  96 132 176 213 247 287
#
# _framework density 18.233367999999999
#
# number of rings (size 3 to 8) (size 9 to 14) (size 15 to 20)
#    0.000    2.400    0.000    2.800    0.000    3.733 
#    0.000    0.000    2.933    0.800    0.000    0.000 
#    0.000    0.000    0.000    0.000    0.000    0.000 
#
# Total GULP energy -167106.150293 kJ/mol
# GULP energy per Si atom -5570.205010 kJ/mol
# Density = 1.819187 g / cm^3
# Si number density = 18.233368 Si / 1000 Ang^3
#
#
#
# Elastic Constant Matrix: (Units=GPa)
#
#
# Indices 1 2 3 4 5 6 
#
# 1 31.7527 44.4389 -0.8064 0.0000 -8.2785 0.0000
# 2 44.4389 170.8805 8.8695 0.0000 -7.8742 0.0000
# 3 -0.8064 8.8695 103.2177 0.0000 4.1028 0.0000
# 4 0.0000 0.0000 0.0000 11.1361 0.0000 -5.4913
# 5 -8.2785 -7.8742 4.1028 0.0000 18.3970 0.0000
# 6 0.0000 0.0000 0.0000 -5.4913 0.0000 -3.9310
#
#
#
# Elastic Compliance Matrix: (Units=1/GPa)
#
#
# Indices 1 2 3 4 5 6 
#
# 1 0.055496 -0.013602 0.000849 0.000000 0.018961 0.000000
# 2 -0.013602 0.009343 -0.000832 0.000000 -0.001936 0.000000
# 3 0.000849 -0.000832 0.009853 0.000000 -0.002172 0.000000
# 4 0.000000 0.000000 0.000000 0.053171 0.000000 -0.074277
# 5 0.018961 -0.001936 -0.002172 0.000000 0.062545 0.000000
# 6 0.000000 0.000000 0.000000 -0.074277 0.000000 -0.150629
#
#
# Mechanical properties :
#
#
# Convention : Reuss Voigt Hill
#
# Bulk Modulus (GPa) = 21.04379 45.65055 33.34717
# Shear Modulus (GPa) = 60.39389 22.01035 41.20212
#
# Velocity S-wave (km/s) = 5.76148 3.47817 4.75880
# Velocity P-wave (km/s) = 7.47168 6.42039 6.96589
#
# Compressibility (1/GPa) = 0.04751997
#
# Stress axis : x y z
#
# Youngs Moduli (GPa) = 18.01948 107.02723 101.49481
#
# Poissons Ratio (x) = 1.45582 -0.08614
# Poissons Ratio (y) = 0.24511 0.08446
# Poissons Ratio (z) = -0.01529 0.08907
#
# Static dielectric constant tensor:
#      x y z
#    x 1.581580 0.000000 -0.000580 
#    y 0.000000 1.710700 0.000000 
#    z -0.000580 0.000000 1.602930 
# 
# From -- ./inp_files/67895.got.cif
#   From: 2010.05.17/outbox.cif.g08.bks.cpg/sg10_34_cif.got.tgz:67895.got - 2010.06.03 11:33:40.
