data_PCOD9142050
_publ_section_title
;
Structure prediction by ZEFSAII (Michael W. Deem and Ramdas Pophale) SiO2 
 PCOD9142050
Probable space group: P 2/M
;
_chemical_formula_sum "Si O2"
_cell_formula_units_Z 26
_cell_length_a 22.482283
_cell_length_b 8.317895
_cell_length_c 10.842383
_cell_angle_alpha 90.000000
_cell_angle_beta 39.033403
_cell_angle_gamma 90.000000
_cell_volume 1276.917592
_symmetry_space_group_name_H-M "P 2/M"
_symmetry_group_IT_number 10
_symmetry_cell_setting 'monoclinic'
loop_
_space_group_symop_operation_xyz
x,y,z
-x,y,-z
-x,-y,-z
x,-y,z
loop_
_atom_site_type_symbol
_atom_site_label
_atom_site_fract_x
_atom_site_fract_y
_atom_site_fract_z
Si Si1 0.595122 0.805985 0.189458
Si Si2 0.382627 0.195651 0.563834
Si Si3 0.880505 0.685480 0.836543
Si Si4 0.000000 0.243849 0.000000
Si Si5 0.184249 0.189331 0.808059
Si Si6 0.770939 0.689768 0.763666
Si Si7 0.935867 0.175789 0.376001
O O1 0.624553 0.751562 0.280889
O O2 0.485931 0.755957 0.349779
O O3 0.598106 0.000000 0.184624
O O4 0.667262 0.744578 0.970818
O O5 0.292788 0.243105 0.626756
O O6 0.380797 0.000000 0.569718
O O7 0.855072 0.500000 0.902512
O O8 0.836712 0.729045 0.776387
O O9 0.993129 0.704180 0.668882
O O10 0.838148 0.798809 0.010270
O O11 0.894925 0.301405 0.128403
O O12 0.970174 0.169915 0.179378
O O13 0.173003 0.000000 0.787810
O O14 0.771543 0.500000 0.743121
O O15 0.827153 0.773629 0.562514
O O16 0.948550 0.000000 0.410885
#
# Coordination Sequence:
#
# PCOD9142050 Si02
#       7
#     4   4   4   2   4   4   4
#     4   9  16  30  50  77 105 134 172 206 249 309
#     4   8  15  27  50  78 105 134 168 210 251 297
#     4  10  20  33  48  73 107 136 166 207 253 306
#     4  10  21  36  55  80 101 124 173 222 253 296
#     4  10  17  31  54  77 104 137 170 210 254 297
#     4  11  22  34  49  75 108 137 166 209 258 307
#     4  11  22  36  54  73  98 134 173 214 256 302
#
# _framework density 20.361533999999999
#
# number of rings (size 3 to 8) (size 9 to 14) (size 15 to 20)
#    0.000    2.154    1.538    5.077    0.000    3.692 
#    0.000   11.923    0.000    0.923    0.000    5.385 
#    0.000    0.000    0.000    0.000    0.000    0.000 
#
# Total GULP energy -144742.529661 kJ/mol
# GULP energy per Si atom -5567.020372 kJ/mol
# Density = 2.031519 g / cm^3
# Si number density = 20.361534 Si / 1000 Ang^3
#
#
#
# Elastic Constant Matrix: (Units=GPa)
#
#
# Indices 1 2 3 4 5 6 
#
# 1 79.8910 11.0145 33.4401 0.0000 -35.1969 0.0000
# 2 11.0145 35.6635 12.7329 0.0000 2.8066 0.0000
# 3 33.4401 12.7329 132.0777 0.0000 -30.1746 0.0000
# 4 0.0000 0.0000 0.0000 -24.5540 0.0000 3.8847
# 5 -35.1969 2.8066 -30.1746 0.0000 36.2600 0.0000
# 6 0.0000 0.0000 0.0000 3.8847 0.0000 -21.5401
#
#
#
# Elastic Compliance Matrix: (Units=1/GPa)
#
#
# Indices 1 2 3 4 5 6 
#
# 1 0.024769 -0.009777 0.000416 0.000000 0.025146 0.000000
# 2 -0.009777 0.033868 -0.004392 0.000000 -0.015767 0.000000
# 3 0.000416 -0.004392 0.009951 0.000000 0.009025 0.000000
# 4 0.000000 0.000000 0.000000 -0.041923 0.000000 -0.007561
# 5 0.025146 -0.015767 0.009025 0.000000 0.060719 0.000000
# 6 0.000000 0.000000 0.000000 -0.007561 0.000000 -0.047789
#
#
# Mechanical properties :
#
#
# Convention : Reuss Voigt Hill
#
# Bulk Modulus (GPa) = 24.34085 40.22302 32.28194
# Shear Modulus (GPa) = 61.88424 10.72949 36.30686
#
# Velocity S-wave (km/s) = 5.51894 2.29803 4.22727
# Velocity P-wave (km/s) = 7.25203 5.18059 6.30200
#
# Compressibility (1/GPa) = 0.04108320
#
# Stress axis : x y z
#
# Youngs Moduli (GPa) = 40.37254 29.52609 100.49080
#
# Poissons Ratio (x) = 0.28869 -0.04184
# Poissons Ratio (y) = 0.39474 0.44132
# Poissons Ratio (z) = -0.01681 0.12967
#
# Static dielectric constant tensor:
#      x y z
#    x 1.747040 0.000000 -0.037320 
#    y 0.000000 1.697420 0.000000 
#    z -0.037320 0.000000 1.767070 
# 
# From -- ./inp_files/57400.got.cif
#   From: 2010.05.17/outbox.cif.g08.bks.cpg/sg10_29_cif.got.tgz:57400.got - 2010.06.03 11:33:40.
