data_PCOD9142390
_publ_section_title
;
Structure prediction by ZEFSAII (Michael W. Deem and Ramdas Pophale) SiO2 
 PCOD9142390
Probable space group: P 2/M
;
_chemical_formula_sum "Si O2"
_cell_formula_units_Z 24
_cell_length_a 16.564761
_cell_length_b 8.572540
_cell_length_c 11.759723
_cell_angle_alpha 90.000000
_cell_angle_beta 121.609366
_cell_angle_gamma 90.000000
_cell_volume 1422.160082
_symmetry_space_group_name_H-M "P 2/M"
_symmetry_group_IT_number 10
_symmetry_cell_setting 'monoclinic'
loop_
_space_group_symop_operation_xyz
x,y,z
-x,y,-z
-x,-y,-z
x,-y,z
loop_
_atom_site_type_symbol
_atom_site_label
_atom_site_fract_x
_atom_site_fract_y
_atom_site_fract_z
Si Si1 0.976233 0.680298 0.847235
Si Si2 0.219069 0.814258 0.244540
Si Si3 0.410306 0.190285 0.509140
Si Si4 0.453645 0.812591 0.797628
Si Si5 0.181578 0.311310 0.965225
Si Si6 0.358474 0.312664 0.947399
O O1 0.961545 0.500000 0.803429
O O2 0.878167 0.770565 0.762827
O O3 0.000000 0.682108 0.000000
O O4 0.073359 0.742501 0.863571
O O5 0.312013 0.757896 0.379879
O O6 0.213317 0.743810 0.113692
O O7 0.224588 0.000000 0.237095
O O8 0.500000 0.240443 0.500000
O O9 0.423682 0.238150 0.649596
O O10 0.409586 0.000000 0.507995
O O11 0.380509 0.758438 0.840513
O O12 0.461330 0.000000 0.805872
O O13 0.555086 0.742334 0.908457
O O14 0.178000 0.500000 0.965316
O O15 0.259369 0.263337 0.930473
O O16 0.360762 0.500000 0.941312
#
# Coordination Sequence:
#
# PCOD9142390 Si02
#       6
#     4   4   4   4   4   4
#     4   8  15  29  45  63  91 123 151 182 227 275
#     4  10  18  28  46  71  95 119 151 190 227 265
#     4   9  18  31  46  66  94 124 150 180 221 270
#     4  10  19  32  49  68  92 123 154 182 225 277
#     4   9  18  31  47  67  93 124 152 183 228 275
#     4  10  19  32  49  69  93 118 151 194 229 260
#
# _framework density 16.875738999999999
#
# number of rings (size 3 to 8) (size 9 to 14) (size 15 to 20)
#    0.000    2.667    0.000    4.500    0.000    5.667 
#    0.000    3.333    0.000    7.000    0.000    7.000 
#    0.000    0.000    0.000    0.000    0.000    0.000 
#
# Total GULP energy -133764.749015 kJ/mol
# GULP energy per Si atom -5573.531209 kJ/mol
# Density = 1.683733 g / cm^3
# Si number density = 16.875739 Si / 1000 Ang^3
#
#
#
# Elastic Constant Matrix: (Units=GPa)
#
#
# Indices 1 2 3 4 5 6 
#
# 1 161.2983 14.0101 64.5817 0.0000 15.1689 0.0000
# 2 14.0101 15.2312 9.2554 0.0000 1.9056 0.0000
# 3 64.5817 9.2554 96.2892 0.0000 8.1251 0.0000
# 4 0.0000 0.0000 0.0000 -72.6700 0.0000 36.1184
# 5 15.1689 1.9056 8.1251 0.0000 20.4405 0.0000
# 6 0.0000 0.0000 0.0000 36.1184 0.0000 10.8620
#
#
#
# Elastic Compliance Matrix: (Units=1/GPa)
#
#
# Indices 1 2 3 4 5 6 
#
# 1 0.009131 -0.004636 -0.005322 0.000000 -0.004228 0.000000
# 2 -0.004636 0.072394 -0.003694 0.000000 -0.001840 0.000000
# 3 -0.005322 -0.003694 0.014431 0.000000 -0.001443 0.000000
# 4 0.000000 0.000000 0.000000 -0.005188 0.000000 0.017250
# 5 -0.004228 -0.001840 -0.001443 0.000000 0.052806 0.000000
# 6 0.000000 0.000000 0.000000 0.017250 0.000000 0.034706
#
#
# Mechanical properties :
#
#
# Convention : Reuss Voigt Hill
#
# Bulk Modulus (GPa) = 14.56598 49.83478 32.20038
# Shear Modulus (GPa) = 21.88494 4.05792 12.97143
#
# Velocity S-wave (km/s) = 3.60506 1.55236 2.77545
# Velocity P-wave (km/s) = 5.09692 5.72779 5.42154
#
# Compressibility (1/GPa) = 0.06865315
#
# Stress axis : x y z
#
# Youngs Moduli (GPa) = 109.52041 13.81330 69.29315
#
# Poissons Ratio (x) = 0.06404 0.36875
# Poissons Ratio (y) = 0.50773 0.25597
# Poissons Ratio (z) = 0.58283 0.05103
#
# Static dielectric constant tensor:
#      x y z
#    x 1.597270 0.000000 0.013860 
#    y 0.000000 1.577860 0.000000 
#    z 0.013860 0.000000 1.543910 
# 
# From -- ./inp_files/52871.got.cif
#   From: 2010.05.17/outbox.cif.g08.bks.cpg/sg10_27_cif.got.tgz:52871.got - 2010.06.03 11:33:40.
