data_PCOD9142145
_publ_section_title
;
Structure prediction by ZEFSAII (Michael W. Deem and Ramdas Pophale) SiO2 
 PCOD9142145
Probable space group: P 2/M
;
_chemical_formula_sum "Si O2"
_cell_formula_units_Z 32
_cell_length_a 16.725968
_cell_length_b 12.892833
_cell_length_c 23.433102
_cell_angle_alpha 90.000000
_cell_angle_beta 17.875702
_cell_angle_gamma 90.000000
_cell_volume 1551.105500
_symmetry_space_group_name_H-M "P 2/M"
_symmetry_group_IT_number 10
_symmetry_cell_setting 'monoclinic'
loop_
_space_group_symop_operation_xyz
x,y,z
-x,y,-z
-x,-y,-z
x,-y,z
loop_
_atom_site_type_symbol
_atom_site_label
_atom_site_fract_x
_atom_site_fract_y
_atom_site_fract_z
Si Si1 0.686616 0.110897 0.580846
Si Si2 0.721431 0.719462 0.457539
Si Si3 0.621123 0.880712 0.999546
Si Si4 0.297328 0.387299 0.817642
Si Si5 0.786143 0.314481 0.817896
Si Si6 0.865718 0.819540 0.028910
Si Si7 0.076348 0.228799 0.388175
Si Si8 0.120565 0.879274 0.740993
O O1 0.712381 0.192359 0.512597
O O2 0.385965 0.108398 0.802484
O O3 0.862128 0.145482 0.514274
O O4 0.776672 0.000000 0.497755
O O5 0.476235 0.649326 0.642686
O O6 0.992872 0.656551 0.285602
O O7 0.724351 0.787692 0.397830
O O8 0.354725 0.827803 0.201040
O O9 0.582057 0.000000 0.009241
O O10 0.725642 0.804664 0.878871
O O11 0.840459 0.878196 0.899404
O O12 0.388806 0.500000 0.776067
O O13 0.268956 0.294752 0.882697
O O14 0.000000 0.397034 0.000000
O O15 0.916584 0.311548 0.667488
O O16 0.500000 0.362592 0.000000
O O17 0.066982 0.847163 0.842671
O O18 0.000000 0.828036 0.000000
O O19 0.000000 0.274888 0.500000
O O20 0.215288 0.000000 0.672434
#
# Coordination Sequence:
#
# PCOD9142145 Si02
#       8
#     4   4   4   4   4   4   4   4
#     4  10  19  30  44  66 101 143 180 214 256 306
#     4   9  18  33  54  78 104 135 177 220 259 309
#     4   9  17  28  41  61  95 139 178 209 244 289
#     4   9  19  39  63  80  97 125 167 226 287 325
#     4   8  16  28  43  65 100 139 169 199 249 308
#     4  10  21  36  53  73 102 137 176 218 263 318
#     4  10  18  25  37  62  95 132 178 222 250 283
#     4  10  19  32  52  79 112 147 178 208 246 302
#
# _framework density 20.630448000000001
#
# number of rings (size 3 to 8) (size 9 to 14) (size 15 to 20)
#    0.000    2.625    0.000    1.875    0.000    8.250 
#    0.000    6.250    0.000   12.750    0.000    0.000 
#    0.000  117.500    0.000    0.000    0.000    0.000 
#
# Total GULP energy -178184.237355 kJ/mol
# GULP energy per Si atom -5568.257417 kJ/mol
# Density = 2.058349 g / cm^3
# Si number density = 20.630448 Si / 1000 Ang^3
#
#
#
# Elastic Constant Matrix: (Units=GPa)
#
#
# Indices 1 2 3 4 5 6 
#
# 1 79.4487 9.0706 34.1261 0.0000 14.8507 0.0000
# 2 9.0706 64.3141 11.4947 0.0000 0.6708 0.0000
# 3 34.1261 11.4947 107.5919 0.0000 -2.8107 0.0000
# 4 0.0000 0.0000 0.0000 243.1159 0.0000 -39.9378
# 5 14.8507 0.6708 -2.8107 0.0000 37.0463 0.0000
# 6 0.0000 0.0000 0.0000 -39.9378 0.0000 13.7339
#
#
#
# Elastic Compliance Matrix: (Units=1/GPa)
#
#
# Indices 1 2 3 4 5 6 
#
# 1 0.016254 -0.001292 -0.005197 0.000000 -0.006887 0.000000
# 2 -0.001292 0.015960 -0.001292 0.000000 0.000131 0.000000
# 3 -0.005197 -0.001292 0.011158 0.000000 0.002953 0.000000
# 4 0.000000 0.000000 0.000000 0.007875 0.000000 0.022901
# 5 -0.006887 0.000131 0.002953 0.000000 0.029976 0.000000
# 6 0.000000 0.000000 0.000000 0.022901 0.000000 0.139409
#
#
# Mechanical properties :
#
#
# Convention : Reuss Voigt Hill
#
# Bulk Modulus (GPa) = 35.95785 40.08193 38.01989
# Shear Modulus (GPa) = 20.36950 71.89011 46.12981
#
# Velocity S-wave (km/s) = 3.14562 5.90951 4.73377
# Velocity P-wave (km/s) = 5.53720 8.12611 6.95321
#
# Compressibility (1/GPa) = 0.02781034
#
# Stress axis : x y z
#
# Youngs Moduli (GPa) = 61.52371 62.65499 89.62129
#
# Poissons Ratio (x) = 0.08093 0.46579
# Poissons Ratio (y) = 0.07947 0.11579
# Poissons Ratio (z) = 0.31976 0.08095
#
# Static dielectric constant tensor:
#      x y z
#    x 1.761360 0.000000 -0.034710 
#    y 0.000000 1.792340 0.000000 
#    z -0.034710 0.000000 1.820490 
# 
# From -- ./inp_files/90183.got.cif
#   From: 2010.05.17/outbox.cif.g08.bks.cpg/sg10_46_cif.got.tgz:90183.got - 2010.06.03 11:33:40.
