data_PCOD9142254
_publ_section_title
;
Structure prediction by ZEFSAII (Michael W. Deem and Ramdas Pophale) SiO2 
 PCOD9142254
Probable space group: P 2/M
;
_chemical_formula_sum "Si O2"
_cell_formula_units_Z 32
_cell_length_a 14.598649
_cell_length_b 7.638799
_cell_length_c 16.151197
_cell_angle_alpha 90.000000
_cell_angle_beta 87.430126
_cell_angle_gamma 90.000000
_cell_volume 1799.307817
_symmetry_space_group_name_H-M "P 2/M"
_symmetry_group_IT_number 10
_symmetry_cell_setting 'monoclinic'
loop_
_space_group_symop_operation_xyz
x,y,z
-x,y,-z
-x,-y,-z
x,-y,z
loop_
_atom_site_type_symbol
_atom_site_label
_atom_site_fract_x
_atom_site_fract_y
_atom_site_fract_z
Si Si1 0.616196 0.206542 0.667187
Si Si2 0.907885 0.213267 0.900190
Si Si3 0.598688 0.202406 0.975026
Si Si4 0.111949 0.788274 0.907337
Si Si5 0.274283 0.785124 0.178826
Si Si6 0.403390 0.705000 0.691536
Si Si7 0.394162 0.711200 0.513145
Si Si8 0.689317 0.704150 0.139809
O O1 0.685712 0.270912 0.734609
O O2 0.514014 0.283656 0.683449
O O3 0.650189 0.236930 0.571961
O O4 0.604589 0.000000 0.679367
O O5 0.827776 0.272124 0.842252
O O6 0.012248 0.268597 0.878552
O O7 0.908362 0.000000 0.899986
O O8 0.884294 0.264527 0.995772
O O9 0.656196 0.275876 0.896149
O O10 0.581108 0.000000 0.952339
O O11 0.500000 0.283452 0.000000
O O12 0.658324 0.207276 0.055826
O O13 0.201352 0.720574 0.857524
O O14 0.114976 0.000000 0.905182
O O15 0.272572 0.000000 0.177702
O O16 0.378679 0.500000 0.694136
O O17 0.365414 0.776163 0.605256
O O18 0.362479 0.779625 0.777839
O O19 0.500000 0.769657 0.500000
O O20 0.393834 0.500000 0.515766
O O21 0.664532 0.500000 0.131746
#
# Coordination Sequence:
#
# PCOD9142254 Si02
#       8
#     4   4   4   4   4   4   4   4
#     4  10  18  27  45  71  92 112 143 187 225 251
#     4   8  14  27  48  67  83 112 151 185 217 264
#     4  10  19  31  46  62  86 123 159 182 205 252
#     4   9  16  29  50  67  81 111 154 189 218 261
#     4   9  16  27  43  65  92 117 143 176 219 266
#     4   9  19  33  45  59  87 126 154 173 213 270
#     4   8  15  30  47  60  82 118 151 178 215 265
#     4  11  21  31  44  65  92 119 147 185 227 261
#
# _framework density 17.784618999999999
#
# number of rings (size 3 to 8) (size 9 to 14) (size 15 to 20)
#    0.000    2.750    1.250    3.000    0.000    4.500 
#    0.000    2.500    0.000    0.000    0.000    0.875 
#    0.000    7.000    0.000    0.000    0.000    0.000 
#
# Total GULP energy -178309.355412 kJ/mol
# GULP energy per Si atom -5572.167357 kJ/mol
# Density = 1.774414 g / cm^3
# Si number density = 17.784619 Si / 1000 Ang^3
#
#
#
# Elastic Constant Matrix: (Units=GPa)
#
#
# Indices 1 2 3 4 5 6 
#
# 1 91.1009 -8.8162 35.7131 0.0000 22.3013 0.0000
# 2 -8.8162 30.3280 -1.8879 0.0000 -0.2894 0.0000
# 3 35.7131 -1.8879 94.1157 0.0000 33.9094 0.0000
# 4 0.0000 0.0000 0.0000 12.9812 0.0000 5.4892
# 5 22.3013 -0.2894 33.9094 0.0000 20.2990 0.0000
# 6 0.0000 0.0000 0.0000 5.4892 0.0000 -19.0403
#
#
#
# Elastic Compliance Matrix: (Units=1/GPa)
#
#
# Indices 1 2 3 4 5 6 
#
# 1 0.015596 0.004408 0.000807 0.000000 -0.018419 0.000000
# 2 0.004408 0.034281 0.001466 0.000000 -0.006804 0.000000
# 3 0.000807 0.001466 0.026776 0.000000 -0.045595 0.000000
# 4 0.000000 0.000000 0.000000 0.068664 0.000000 0.019795
# 5 -0.018419 -0.006804 -0.045595 0.000000 0.145568 0.000000
# 6 0.000000 0.000000 0.000000 0.019795 0.000000 -0.046813
#
#
# Mechanical properties :
#
#
# Convention : Reuss Voigt Hill
#
# Bulk Modulus (GPa) = 11.10923 29.50694 20.30808
# Shear Modulus (GPa) = 19.17806 15.55036 17.36421
#
# Velocity S-wave (km/s) = 3.28739 2.96018 3.12807
# Velocity P-wave (km/s) = 4.54635 5.32080 4.94875
#
# Compressibility (1/GPa) = 0.09001522
#
# Stress axis : x y z
#
# Youngs Moduli (GPa) = 64.11801 29.17098 37.34687
#
# Poissons Ratio (x) = -0.12859 -0.03013
# Poissons Ratio (y) = -0.28265 -0.05476
# Poissons Ratio (z) = -0.05173 -0.04277
#
# Static dielectric constant tensor:
#      x y z
#    x 1.605800 0.000000 0.009540 
#    y 0.000000 1.671880 0.000000 
#    z 0.009540 0.000000 1.631700 
# 
# From -- ./inp_files/66074.got.cif
#   From: 2010.05.17/outbox.cif.g08.bks.cpg/sg10_34_cif.got.tgz:66074.got - 2010.06.03 11:33:40.
