data_PCOD9142465
_publ_section_title
;
Structure prediction by ZEFSAII (Michael W. Deem and Ramdas Pophale) SiO2 
 PCOD9142465
Probable space group: P 2/M
;
_chemical_formula_sum "Si O2"
_cell_formula_units_Z 26
_cell_length_a 24.102808
_cell_length_b 13.158334
_cell_length_c 5.299257
_cell_angle_alpha 90.000000
_cell_angle_beta 75.506523
_cell_angle_gamma 90.000000
_cell_volume 1627.188644
_symmetry_space_group_name_H-M "P 2/M"
_symmetry_group_IT_number 10
_symmetry_cell_setting 'monoclinic'
loop_
_space_group_symop_operation_xyz
x,y,z
-x,y,-z
-x,-y,-z
x,-y,z
loop_
_atom_site_type_symbol
_atom_site_label
_atom_site_fract_x
_atom_site_fract_y
_atom_site_fract_z
Si Si1 0.000000 0.277935 0.000000
Si Si2 0.465888 0.123967 0.289106
Si Si3 0.665538 0.877190 0.582238
Si Si4 0.264189 0.123422 0.995266
Si Si5 0.862815 0.188866 0.766556
Si Si6 0.935483 0.384229 0.692336
Si Si7 0.078611 0.884929 0.778299
O O1 0.950439 0.351804 0.961535
O O2 0.028565 0.196525 0.778089
O O3 0.500000 0.155744 0.500000
O O4 0.400012 0.158912 0.361146
O O5 0.464926 0.000000 0.291051
O O6 0.500000 0.155101 0.000000
O O7 0.695707 0.851932 0.811539
O O8 0.662919 0.000000 0.576410
O O9 0.703810 0.847248 0.299061
O O10 0.203756 0.179195 0.094810
O O11 0.254453 0.000000 0.003460
O O12 0.888212 0.300805 0.675898
O O13 0.876088 0.125538 0.498711
O O14 0.895853 0.145162 0.976528
O O15 0.917140 0.500000 0.682100
O O16 0.000000 0.375381 0.500000
O O17 0.058032 0.000000 0.807550
#
# Coordination Sequence:
#
# PCOD9142465 Si02
#       7
#     2   4   4   4   4   4   4
#     4  10  20  34  50  74  92 118 144 184 232 298
#     4   9  15  23  36  56  83 112 150 194 222 245
#     4   9  17  27  41  60  83 120 157 186 222 257
#     4  10  18  29  43  59  86 118 154 189 219 267
#     4  11  22  35  50  72  91 121 158 193 236 286
#     4  10  20  37  55  71  91 116 149 197 246 293
#     4  11  21  33  49  69  96 120 146 182 231 284
#
# _framework density 15.978481
#
# number of rings (size 3 to 8) (size 9 to 14) (size 15 to 20)
#    0.000    2.000    1.538    3.692    0.000    4.923 
#    0.000    2.308    0.000    0.000    0.000    0.000 
#    0.000    0.000    0.000    0.000    0.000   15.385 
#
# Total GULP energy -144813.545024 kJ/mol
# GULP energy per Si atom -5569.751732 kJ/mol
# Density = 1.594211 g / cm^3
# Si number density = 15.978481 Si / 1000 Ang^3
#
#
#
# Elastic Constant Matrix: (Units=GPa)
#
#
# Indices 1 2 3 4 5 6 
#
# 1 72.6447 21.0225 18.7879 0.0000 -13.2232 0.0000
# 2 21.0225 75.1007 17.6125 0.0000 -3.9468 0.0000
# 3 18.7879 17.6125 88.1306 0.0000 -7.8870 0.0000
# 4 0.0000 0.0000 0.0000 6.8646 0.0000 -0.3139
# 5 -13.2232 -3.9468 -7.8870 0.0000 29.5061 0.0000
# 6 0.0000 0.0000 0.0000 -0.3139 0.0000 5.4124
#
#
#
# Elastic Compliance Matrix: (Units=1/GPa)
#
#
# Indices 1 2 3 4 5 6 
#
# 1 0.016588 -0.003792 -0.002212 0.000000 0.006336 0.000000
# 2 -0.003792 0.014875 -0.002191 0.000000 -0.000295 0.000000
# 3 -0.002212 -0.002191 0.012439 0.000000 0.002041 0.000000
# 4 0.000000 0.000000 0.000000 0.146062 0.000000 0.008471
# 5 0.006336 -0.000295 0.002041 0.000000 0.037237 0.000000
# 6 0.000000 0.000000 0.000000 0.008471 0.000000 0.185251
#
#
# Mechanical properties :
#
#
# Convention : Reuss Voigt Hill
#
# Bulk Modulus (GPa) = 36.34554 38.96910 37.65732
# Shear Modulus (GPa) = 11.41525 20.25351 15.83438
#
# Velocity S-wave (km/s) = 2.67575 3.56413 3.15140
# Velocity P-wave (km/s) = 5.68701 6.43263 6.07128
#
# Compressibility (1/GPa) = 0.02751369
#
# Stress axis : x y z
#
# Youngs Moduli (GPa) = 60.28405 67.22624 80.39425
#
# Poissons Ratio (x) = 0.25491 0.17779
# Poissons Ratio (y) = 0.22859 0.17613
# Poissons Ratio (z) = 0.13332 0.14728
#
# Static dielectric constant tensor:
#      x y z
#    x 1.556420 0.000000 0.019840 
#    y 0.000000 1.507520 0.000000 
#    z 0.019840 0.000000 1.621090 
# 
# From -- ./inp_files/13058.got.cif
#   From: 2010.05.17/outbox.cif.g08.bks.cpg/sg10_7_cif.got.tgz:13058.got - 2010.06.03 11:33:40.
