data_PCOD9142019
_publ_section_title
;
Structure prediction by ZEFSAII (Michael W. Deem and Ramdas Pophale) SiO2 
 PCOD9142019
Probable space group: P 2/M
;
_chemical_formula_sum "Si O2"
_cell_formula_units_Z 22
_cell_length_a 14.607614
_cell_length_b 9.590875
_cell_length_c 8.856184
_cell_angle_alpha 90.000000
_cell_angle_beta 103.597641
_cell_angle_gamma 90.000000
_cell_volume 1205.972240
_symmetry_space_group_name_H-M "P 2/M"
_symmetry_group_IT_number 10
_symmetry_cell_setting 'monoclinic'
loop_
_space_group_symop_operation_xyz
x,y,z
-x,y,-z
-x,-y,-z
x,-y,z
loop_
_atom_site_type_symbol
_atom_site_label
_atom_site_fract_x
_atom_site_fract_y
_atom_site_fract_z
Si Si1 0.947405 0.166380 0.822235
Si Si2 0.579324 0.000000 0.258443
Si Si3 0.116675 0.157679 0.664340
Si Si4 0.371751 0.000000 0.230041
Si Si5 0.604362 0.239257 0.515814
Si Si6 0.747121 0.000000 0.092758
Si Si7 0.810571 0.659999 0.583882
O O1 0.856020 0.254699 0.741289
O O2 0.019949 0.191372 0.710946
O O3 0.928632 0.000000 0.820721
O O4 0.000000 0.202753 0.000000
O O5 0.469632 0.000000 0.175637
O O6 0.597907 0.864184 0.369453
O O7 0.652910 0.000000 0.153767
O O8 0.152861 0.263484 0.553904
O O9 0.110842 0.000000 0.593075
O O10 0.191310 0.131540 0.828769
O O11 0.376916 0.865636 0.338107
O O12 0.281495 0.000000 0.090143
O O13 0.500000 0.303085 0.500000
O O14 0.697044 0.331789 0.539460
O O15 0.841317 0.500000 0.600387
#
# Coordination Sequence:
#
# PCOD9142019 Si02
#       7
#     4   2   4   2   4   2   4
#     4  10  23  39  62  87 111 140 182 232 285 330
#     4   9  15  33  52  86 113 143 176 241 281 323
#     4   9  20  37  57  83 110 142 187 224 272 327
#     4   9  19  27  58  88 115 136 184 238 292 309
#     4   9  19  35  54  83 115 145 183 230 278 333
#     4  10  17  30  56  88 111 142 177 233 275 342
#     4  12  24  37  58  80 110 157 188 224 275 323
#
# _framework density 18.242543000000001
#
# number of rings (size 3 to 8) (size 9 to 14) (size 15 to 20)
#    0.545    1.636    1.818    2.455    6.364    3.636 
#    0.000    0.000    0.000    0.000    0.000    2.545 
#    0.000    0.000    0.000    0.000    0.000    0.000 
#
# Total GULP energy -122639.699684 kJ/mol
# GULP energy per Si atom -5574.531804 kJ/mol
# Density = 1.820102 g / cm^3
# Si number density = 18.242543 Si / 1000 Ang^3
#
#
#
# Elastic Constant Matrix: (Units=GPa)
#
#
# Indices 1 2 3 4 5 6 
#
# 1 101.5476 34.1652 35.9352 0.0000 5.8746 0.0000
# 2 34.1652 67.1298 25.0994 0.0000 8.4080 0.0000
# 3 35.9352 25.0994 79.4390 0.0000 28.3961 0.0000
# 4 0.0000 0.0000 0.0000 3.1514 0.0000 6.8302
# 5 5.8746 8.4080 28.3961 0.0000 33.8354 0.0000
# 6 0.0000 0.0000 0.0000 6.8302 0.0000 9.6535
#
#
#
# Elastic Compliance Matrix: (Units=1/GPa)
#
#
# Indices 1 2 3 4 5 6 
#
# 1 0.013409 -0.005130 -0.005812 0.000000 0.003824 0.000000
# 2 -0.005130 0.018859 -0.003259 0.000000 -0.001061 0.000000
# 3 -0.005812 -0.003259 0.022281 0.000000 -0.016880 0.000000
# 4 0.000000 0.000000 0.000000 -0.594840 0.000000 0.420869
# 5 0.003824 -0.001061 -0.016880 0.000000 0.043321 0.000000
# 6 0.000000 0.000000 0.000000 0.420869 0.000000 -0.194189
#
#
# Mechanical properties :
#
#
# Convention : Reuss Voigt Hill
#
# Bulk Modulus (GPa) = 38.24502 48.72401 43.48451
# Shear Modulus (GPa) = -7.64477 19.52250 5.93887
#
# Velocity S-wave (km/s) = -2.04932 3.27488 1.80626
# Velocity P-wave (km/s) = 3.92564 6.40834 5.31401
#
# Compressibility (1/GPa) = 0.02614720
#
# Stress axis : x y z
#
# Youngs Moduli (GPa) = 74.57602 53.02548 44.88158
#
# Poissons Ratio (x) = 0.27205 0.26084
# Poissons Ratio (y) = 0.38261 0.14625
# Poissons Ratio (z) = 0.43342 0.17279
#
# Static dielectric constant tensor:
#      x y z
#    x 1.681340 0.000000 0.019100 
#    y 0.000000 1.663910 0.000000 
#    z 0.019100 0.000000 1.636430 
# 
# From -- ./inp_files/27369.got.cif
#   From: 2010.05.17/outbox.cif.g08.bks.cpg/sg10_14_cif.got.tgz:27369.got - 2010.06.03 11:33:40.
