data_PCOD9142727
_publ_section_title
;
Structure prediction by ZEFSAII (Michael W. Deem and Ramdas Pophale) SiO2 
 PCOD9142727
Probable space group: P 2/M
;
_chemical_formula_sum "Si O2"
_cell_formula_units_Z 28
_cell_length_a 16.804790
_cell_length_b 7.496295
_cell_length_c 11.016844
_cell_angle_alpha 90.000000
_cell_angle_beta 119.576688
_cell_angle_gamma 90.000000
_cell_volume 1206.991871
_symmetry_space_group_name_H-M "P 2/M"
_symmetry_group_IT_number 10
_symmetry_cell_setting 'monoclinic'
loop_
_space_group_symop_operation_xyz
x,y,z
-x,y,-z
-x,-y,-z
x,-y,z
loop_
_atom_site_type_symbol
_atom_site_label
_atom_site_fract_x
_atom_site_fract_y
_atom_site_fract_z
Si Si1 0.281155 0.212914 0.094173
Si Si2 0.891289 0.714585 0.686202
Si Si3 0.601528 0.209639 0.590763
Si Si4 0.731196 0.285348 0.180270
Si Si5 0.058971 0.282834 0.661892
Si Si6 0.708744 0.285556 0.425533
Si Si7 0.902416 0.203040 0.955638
O O1 0.342128 0.283447 0.251213
O O2 0.177135 0.288066 0.024439
O O3 0.271099 0.000000 0.104036
O O4 0.314878 0.240863 0.982738
O O5 0.890171 0.500000 0.697745
O O6 0.815452 0.759478 0.529217
O O7 0.860325 0.798843 0.788498
O O8 0.993368 0.768829 0.724383
O O9 0.500000 0.287084 0.500000
O O10 0.652768 0.223698 0.500437
O O11 0.590897 0.000000 0.610451
O O12 0.735113 0.500000 0.189936
O O13 0.836965 0.219085 0.256943
O O14 0.685648 0.222969 0.272092
O O15 0.061936 0.500000 0.661754
O O16 0.000000 0.228504 0.500000
O O17 0.701391 0.500000 0.421746
O O18 0.919977 0.000000 0.008463
O O19 0.000000 0.292154 0.000000
#
# Coordination Sequence:
#
# PCOD9142727 Si02
#       7
#     4   4   4   4   4   4   4
#     4  10  21  37  55  80 113 145 182 232 281 329
#     4  10  18  29  50  77 105 142 189 230 266 316
#     4  10  22  42  66  86 105 140 189 234 282 340
#     4  10  20  34  55  83 116 153 188 224 273 330
#     4   9  15  27  47  73 109 151 191 227 259 306
#     4  10  20  35  57  86 114 141 180 230 281 332
#     4  10  20  33  49  72 109 150 184 225 278 326
#
# _framework density 23.198166000000001
#
# number of rings (size 3 to 8) (size 9 to 14) (size 15 to 20)
#    0.000    2.143    2.857    0.857    0.000    2.286 
#    0.000    0.714    0.000    5.143    0.000    0.000 
#    0.000    0.000    0.000    0.000    0.000    0.000 
#
# Total GULP energy -156316.127242 kJ/mol
# GULP energy per Si atom -5582.718830 kJ/mol
# Density = 2.314537 g / cm^3
# Si number density = 23.198166 Si / 1000 Ang^3
#
#
#
# Elastic Constant Matrix: (Units=GPa)
#
#
# Indices 1 2 3 4 5 6 
#
# 1 82.4359 2.6152 59.2029 0.0000 5.5948 0.0000
# 2 2.6152 66.4176 5.3185 0.0000 6.0149 0.0000
# 3 59.2029 5.3185 159.3541 0.0000 -20.0637 0.0000
# 4 0.0000 0.0000 0.0000 21.0793 0.0000 -5.9015
# 5 5.5948 6.0149 -20.0637 0.0000 32.1282 0.0000
# 6 0.0000 0.0000 0.0000 -5.9015 0.0000 18.8669
#
#
#
# Elastic Compliance Matrix: (Units=1/GPa)
#
#
# Indices 1 2 3 4 5 6 
#
# 1 0.018313 0.000653 -0.007860 0.000000 -0.008220 0.000000
# 2 0.000653 0.015472 -0.001235 0.000000 -0.003782 0.000000
# 3 -0.007860 -0.001235 0.010244 0.000000 0.007997 0.000000
# 4 0.000000 0.000000 0.000000 0.051993 0.000000 0.016263
# 5 -0.008220 -0.003782 0.007997 0.000000 0.038259 0.000000
# 6 0.000000 0.000000 0.000000 0.016263 0.000000 0.058090
#
#
# Mechanical properties :
#
#
# Convention : Reuss Voigt Hill
#
# Bulk Modulus (GPa) = 36.84141 49.16452 43.00297
# Shear Modulus (GPa) = 22.90396 30.48627 26.69511
#
# Velocity S-wave (km/s) = 3.14557 3.62908 3.39594
# Velocity P-wave (km/s) = 5.39523 6.22893 5.82701
#
# Compressibility (1/GPa) = 0.02714337
#
# Stress axis : x y z
#
# Youngs Moduli (GPa) = 54.60666 64.63328 97.62140
#
# Poissons Ratio (x) = -0.04219 0.76733
# Poissons Ratio (y) = -0.03565 0.12056
# Poissons Ratio (z) = 0.42922 0.07982
#
# Static dielectric constant tensor:
#      x y z
#    x 1.860630 0.000000 -0.003080 
#    y 0.000000 1.883350 0.000000 
#    z -0.003080 0.000000 1.956880 
# 
# From -- ./inp_files/28360.got.cif
#   From: 2010.05.17/outbox.cif.g08.bks.cpg/sg10_15_cif.got.tgz:28360.got - 2010.06.03 11:33:40.
