data_PCOD9142190
_publ_section_title
;
Structure prediction by ZEFSAII (Michael W. Deem and Ramdas Pophale) SiO2 
 PCOD9142190
Probable space group: P 2/M
;
_chemical_formula_sum "Si O2"
_cell_formula_units_Z 32
_cell_length_a 21.099504
_cell_length_b 9.336437
_cell_length_c 15.145411
_cell_angle_alpha 90.000000
_cell_angle_beta 137.158428
_cell_angle_gamma 90.000000
_cell_volume 2028.740345
_symmetry_space_group_name_H-M "P 2/M"
_symmetry_group_IT_number 10
_symmetry_cell_setting 'monoclinic'
loop_
_space_group_symop_operation_xyz
x,y,z
-x,y,-z
-x,-y,-z
x,-y,z
loop_
_atom_site_type_symbol
_atom_site_label
_atom_site_fract_x
_atom_site_fract_y
_atom_site_fract_z
Si Si1 0.825076 0.328304 0.996326
Si Si2 0.459903 0.334855 0.334522
Si Si3 0.789903 0.833689 0.635697
Si Si4 0.605397 0.172318 0.368136
Si Si5 0.472324 0.171788 0.069681
Si Si6 0.975622 0.329127 0.874485
Si Si7 0.676488 0.663474 0.976650
Si Si8 0.308892 0.167103 0.275925
O O1 0.809680 0.500000 0.965586
O O2 0.777775 0.294116 0.042270
O O3 0.933970 0.300879 0.093555
O O4 0.769235 0.238125 0.866471
O O5 0.480700 0.500000 0.376282
O O6 0.547917 0.249887 0.386776
O O7 0.403113 0.255074 0.353330
O O8 0.387981 0.333978 0.177520
O O9 0.714094 0.787588 0.485141
O O10 0.883187 0.744260 0.743468
O O11 0.731429 0.824941 0.667131
O O12 0.814384 0.000000 0.646241
O O13 0.553132 0.207811 0.223400
O O14 0.599613 0.000000 0.375041
O O15 0.463242 0.000000 0.059849
O O16 0.500000 0.219827 0.000000
O O17 0.376500 0.239044 0.007508
O O18 0.960723 0.500000 0.863284
O O19 0.000000 0.281703 0.000000
O O20 0.679946 0.500000 0.012018
O O21 0.323849 0.000000 0.268447
#
# Coordination Sequence:
#
# PCOD9142190 Si02
#       8
#     4   4   4   4   4   4   4   4
#     4   9  17  30  45  64  90 119 154 193 229 261
#     4   9  17  29  44  62  86 117 154 189 221 260
#     4  10  21  32  43  62  89 121 155 191 228 269
#     4   9  18  33  47  62  90 121 147 181 228 275
#     4   9  17  30  50  73  93 114 143 179 221 274
#     4  10  19  31  48  66  87 120 159 199 236 262
#     4   8  15  27  44  66  92 117 142 177 220 268
#     4  10  18  27  41  61  85 118 156 189 223 261
#
# _framework density 15.773334999999999
#
# number of rings (size 3 to 8) (size 9 to 14) (size 15 to 20)
#    0.000    2.750    1.250    1.500    0.000    5.500 
#    0.000    2.500    0.000    0.000    0.000    0.875 
#    0.000    7.000    0.000    0.000    0.000    0.000 
#
# Total GULP energy -178304.147904 kJ/mol
# GULP energy per Si atom -5572.004622 kJ/mol
# Density = 1.573743 g / cm^3
# Si number density = 15.773335 Si / 1000 Ang^3
#
#
#
# Elastic Constant Matrix: (Units=GPa)
#
#
# Indices 1 2 3 4 5 6 
#
# 1 107.2297 40.3445 53.6493 0.0000 12.6246 0.0000
# 2 40.3445 42.8102 37.3077 0.0000 10.3575 0.0000
# 3 53.6493 37.3077 74.0371 0.0000 21.5011 0.0000
# 4 0.0000 0.0000 0.0000 15.0273 0.0000 8.0568
# 5 12.6246 10.3575 21.5011 0.0000 28.2417 0.0000
# 6 0.0000 0.0000 0.0000 8.0568 0.0000 26.1955
#
#
#
# Elastic Compliance Matrix: (Units=1/GPa)
#
#
# Indices 1 2 3 4 5 6 
#
# 1 0.016489 -0.009101 -0.007949 0.000000 0.002018 0.000000
# 2 -0.009101 0.046689 -0.016871 0.000000 -0.000210 0.000000
# 3 -0.007949 -0.016871 0.032018 0.000000 -0.014636 0.000000
# 4 0.000000 0.000000 0.000000 0.079686 0.000000 -0.024508
# 5 0.002018 -0.000210 -0.014636 0.000000 0.045726 0.000000
# 6 0.000000 0.000000 0.000000 -0.024508 0.000000 0.045712
#
#
# Mechanical properties :
#
#
# Convention : Reuss Voigt Hill
#
# Bulk Modulus (GPa) = 36.55567 54.07554 45.31560
# Shear Modulus (GPa) = 14.56534 20.07793 17.32164
#
# Velocity S-wave (km/s) = 3.04207 3.57165 3.31744
# Velocity P-wave (km/s) = 5.96363 7.16702 6.59284
#
# Compressibility (1/GPa) = 0.02735554
#
# Stress axis : x y z
#
# Youngs Moduli (GPa) = 60.64595 21.41831 31.23200
#
# Poissons Ratio (x) = 0.19492 0.24825
# Poissons Ratio (y) = 0.55192 0.52692
# Poissons Ratio (z) = 0.48206 0.36135
#
# Static dielectric constant tensor:
#      x y z
#    x 1.527980 0.000000 0.004780 
#    y 0.000000 1.530220 0.000000 
#    z 0.004780 0.000000 1.538200 
# 
# From -- ./inp_files/66117.got.cif
#   From: 2010.05.17/outbox.cif.g08.bks.cpg/sg10_34_cif.got.tgz:66117.got - 2010.06.03 11:33:40.
