data_PCOD9142066
_publ_section_title
;
Structure prediction by ZEFSAII (Michael W. Deem and Ramdas Pophale) SiO2 
 PCOD9142066
Probable space group: P 2/M
;
_chemical_formula_sum "Si O2"
_cell_formula_units_Z 32
_cell_length_a 8.654478
_cell_length_b 15.635113
_cell_length_c 25.685086
_cell_angle_alpha 90.000000
_cell_angle_beta 29.577333
_cell_angle_gamma 90.000000
_cell_volume 1715.521561
_symmetry_space_group_name_H-M "P 2/M"
_symmetry_group_IT_number 10
_symmetry_cell_setting 'monoclinic'
loop_
_space_group_symop_operation_xyz
x,y,z
-x,y,-z
-x,-y,-z
x,-y,z
loop_
_atom_site_type_symbol
_atom_site_label
_atom_site_fract_x
_atom_site_fract_y
_atom_site_fract_z
Si Si1 0.349971 0.904104 0.174789
Si Si2 0.242894 0.133797 0.035247
Si Si3 0.579135 0.256352 0.771373
Si Si4 0.335268 0.747011 0.375673
Si Si5 0.108956 0.321393 0.050406
Si Si6 0.833295 0.597364 0.233775
Si Si7 0.216719 0.098625 0.742040
Si Si8 0.656359 0.597915 0.824444
O O1 0.367111 0.829964 0.212109
O O2 0.064905 0.886763 0.217236
O O3 0.307893 0.000000 0.208055
O O4 0.667444 0.901370 0.047188
O O5 0.282137 0.235667 0.018527
O O6 0.922469 0.113383 0.158746
O O7 0.500000 0.098910 0.000000
O O8 0.687470 0.247565 0.680362
O O9 0.734785 0.335652 0.755978
O O10 0.212104 0.282735 0.878466
O O11 0.559491 0.666090 0.320928
O O12 0.514339 0.831672 0.343361
O O13 0.000000 0.738104 0.500000
O O14 0.012137 0.378344 0.128035
O O15 0.331369 0.372607 0.946516
O O16 0.717585 0.500000 0.264561
O O17 0.081166 0.603336 0.207859
O O18 0.314499 0.000000 0.708400
O O19 0.630882 0.500000 0.813758
#
# Coordination Sequence:
#
# PCOD9142066 Si02
#       8
#     4   4   4   4   4   4   4   4
#     4  10  21  36  58  88 124 160 189 225 275 338
#     4  10  17  31  56  84 119 158 193 224 260 329
#     4  11  23  37  55  84 121 151 188 237 294 340
#     4  11  25  44  64  84 107 143 192 252 304 341
#     4  11  20  32  55  88 124 161 191 221 270 330
#     4  10  21  39  62  86 113 155 199 231 273 340
#     4  10  20  38  62  86 115 156 199 233 273 336
#     4  11  22  36  58  87 123 158 188 226 277 340
#
# _framework density 18.653217999999999
#
# number of rings (size 3 to 8) (size 9 to 14) (size 15 to 20)
#    0.000    1.500    3.750    3.000    0.000    6.500 
#    0.000    3.125    0.000    3.000    0.000    0.000 
#    0.000    0.000    0.000    0.000    0.000    0.000 
#
# Total GULP energy -178684.220019 kJ/mol
# GULP energy per Si atom -5583.881876 kJ/mol
# Density = 1.861076 g / cm^3
# Si number density = 18.653218 Si / 1000 Ang^3
#
#
#
# Elastic Constant Matrix: (Units=GPa)
#
#
# Indices 1 2 3 4 5 6 
#
# 1 78.1105 61.6413 29.8804 0.0000 14.2473 0.0000
# 2 61.6413 156.2929 38.3704 0.0000 10.2001 0.0000
# 3 29.8804 38.3704 87.9637 0.0000 1.7303 0.0000
# 4 0.0000 0.0000 0.0000 9.9639 0.0000 -0.9202
# 5 14.2473 10.2001 1.7303 0.0000 10.8203 0.0000
# 6 0.0000 0.0000 0.0000 -0.9202 0.0000 18.4751
#
#
#
# Elastic Compliance Matrix: (Units=1/GPa)
#
#
# Indices 1 2 3 4 5 6 
#
# 1 0.024732 -0.006904 -0.004893 0.000000 -0.025275 0.000000
# 2 -0.006904 0.009544 -0.001826 0.000000 0.000385 0.000000
# 3 -0.004893 -0.001826 0.013709 0.000000 0.005971 0.000000
# 4 0.000000 0.000000 0.000000 0.100826 0.000000 0.005022
# 5 -0.025275 0.000385 0.005971 0.000000 0.124381 0.000000
# 6 0.000000 0.000000 0.000000 0.005022 0.000000 0.054377
#
#
# Mechanical properties :
#
#
# Convention : Reuss Voigt Hill
#
# Bulk Modulus (GPa) = 48.21239 64.68350 56.44795
# Shear Modulus (GPa) = 13.82253 20.68351 17.25302
#
# Velocity S-wave (km/s) = 2.72513 3.33354 3.04457
# Velocity P-wave (km/s) = 5.98369 7.04051 6.53351
#
# Compressibility (1/GPa) = 0.02074155
#
# Stress axis : x y z
#
# Youngs Moduli (GPa) = 40.43302 104.77700 72.94333
#
# Poissons Ratio (x) = 0.72334 0.35689
# Poissons Ratio (y) = 0.27913 0.13317
# Poissons Ratio (z) = 0.19783 0.19129
#
# Static dielectric constant tensor:
#      x y z
#    x 1.688220 0.000000 -0.004180 
#    y 0.000000 1.660760 0.000000 
#    z -0.004180 0.000000 1.614960 
# 
# From -- ./inp_files/88248.got.cif
#   From: 2010.05.17/outbox.cif.g08.bks.cpg/sg10_45_cif.got.tgz:88248.got - 2010.06.03 11:33:40.
