data_PCOD9142615
_publ_section_title
;
Structure prediction by ZEFSAII (Michael W. Deem and Ramdas Pophale) SiO2 
 PCOD9142615
Probable space group: P 2/M
;
_chemical_formula_sum "Si O2"
_cell_formula_units_Z 32
_cell_length_a 13.057925
_cell_length_b 7.606070
_cell_length_c 23.566663
_cell_angle_alpha 90.000000
_cell_angle_beta 39.279244
_cell_angle_gamma 90.000000
_cell_volume 1481.853381
_symmetry_space_group_name_H-M "P 2/M"
_symmetry_group_IT_number 10
_symmetry_cell_setting 'monoclinic'
loop_
_space_group_symop_operation_xyz
x,y,z
-x,y,-z
-x,-y,-z
x,-y,z
loop_
_atom_site_type_symbol
_atom_site_label
_atom_site_fract_x
_atom_site_fract_y
_atom_site_fract_z
Si Si1 0.017635 0.796616 0.930042
Si Si2 0.102755 0.710586 0.183812
Si Si3 0.450210 0.704468 0.210426
Si Si4 0.507076 0.715622 0.683873
Si Si5 0.323767 0.802614 0.987554
Si Si6 0.124130 0.285989 0.495890
Si Si7 0.115036 0.284332 0.307443
Si Si8 0.214639 0.302827 0.742893
O O1 0.133828 0.690100 0.839818
O O2 0.842234 0.798720 0.976906
O O3 0.074459 0.000000 0.908951
O O4 0.000000 0.723579 0.000000
O O5 0.085249 0.500000 0.191870
O O6 0.258886 0.742908 0.076853
O O7 0.122671 0.774347 0.239180
O O8 0.932681 0.780295 0.230187
O O9 0.424211 0.500000 0.234288
O O10 0.529507 0.773276 0.234995
O O11 0.273018 0.779102 0.273564
O O12 0.550079 0.713005 0.108994
O O13 0.495252 0.500000 0.685872
O O14 0.691991 0.768481 0.593019
O O15 0.385807 0.780927 0.686535
O O16 0.384003 0.000000 0.968424
O O17 0.126110 0.500000 0.493133
O O18 0.000000 0.228952 0.500000
O O19 0.044992 0.233789 0.589626
O O20 0.120183 0.500000 0.304344
O O21 0.242615 0.500000 0.708113
#
# Coordination Sequence:
#
# PCOD9142615 Si02
#       8
#     4   4   4   4   4   4   4   4
#     4   9  17  29  44  62  87 120 157 192 226 270
#     4   9  18  33  48  64  93 129 160 188 224 272
#     4  10  18  29  47  71  95 119 154 197 235 270
#     4   9  16  26  44  72 100 120 147 191 238 278
#     4  10  20  32  46  67  94 125 160 194 230 274
#     4   9  14  25  45  71  99 121 146 187 236 278
#     4   9  17  29  47  69  92 123 159 191 226 274
#     4   9  17  28  43  65  93 122 149 184 229 272
#
# _framework density 21.594580000000001
#
# number of rings (size 3 to 8) (size 9 to 14) (size 15 to 20)
#    0.000    2.750    1.250    1.125    0.000    1.250 
#    0.000    3.750    0.000    3.750    0.000    4.375 
#    0.000    4.000    0.000    0.000    0.000    0.000 
#
# Total GULP energy -178291.541389 kJ/mol
# GULP energy per Si atom -5571.610668 kJ/mol
# Density = 2.154543 g / cm^3
# Si number density = 21.594580 Si / 1000 Ang^3
#
#
#
# Elastic Constant Matrix: (Units=GPa)
#
#
# Indices 1 2 3 4 5 6 
#
# 1 43.7822 2.3329 11.8594 0.0000 1.2750 0.0000
# 2 2.3329 43.6528 -6.3465 0.0000 -0.6334 0.0000
# 3 11.8594 -6.3465 81.7312 0.0000 2.7037 0.0000
# 4 0.0000 0.0000 0.0000 -82.8642 0.0000 -7.2603
# 5 1.2750 -0.6334 2.7037 0.0000 38.8723 0.0000
# 6 0.0000 0.0000 0.0000 -7.2603 0.0000 -3.1046
#
#
#
# Elastic Compliance Matrix: (Units=1/GPa)
#
#
# Indices 1 2 3 4 5 6 
#
# 1 0.023927 -0.001809 -0.003594 0.000000 -0.000564 0.000000
# 2 -0.001809 0.023309 0.002063 0.000000 0.000296 0.000000
# 3 -0.003594 0.002063 0.012942 0.000000 -0.000749 0.000000
# 4 0.000000 0.000000 0.000000 -0.015178 0.000000 0.035494
# 5 -0.000564 0.000296 -0.000749 0.000000 0.025801 0.000000
# 6 0.000000 0.000000 0.000000 0.035494 0.000000 -0.405105
#
#
# Mechanical properties :
#
#
# Convention : Reuss Voigt Hill
#
# Bulk Modulus (GPa) = 18.69277 20.53976 19.61627
# Shear Modulus (GPa) = -16.13983 1.33540 -7.40221
#
# Velocity S-wave (km/s) = -2.73683 0.78723 -1.85344
# Velocity P-wave (km/s) = 1.14541 3.21846 2.12680
#
# Compressibility (1/GPa) = 0.05349661
#
# Stress axis : x y z
#
# Youngs Moduli (GPa) = 41.79456 42.90205 77.27017
#
# Poissons Ratio (x) = 0.07762 0.27768
# Poissons Ratio (y) = 0.07562 -0.15939
# Poissons Ratio (z) = 0.15019 -0.08849
#
# Static dielectric constant tensor:
#      x y z
#    x 1.821180 0.000000 -0.010340 
#    y 0.000000 1.843090 0.000000 
#    z -0.010340 0.000000 1.783670 
# 
# From -- ./inp_files/83862.got.cif
#   From: 2010.05.17/outbox.cif.g08.bks.cpg/sg10_42_cif.got.tgz:83862.got - 2010.06.03 11:33:40.
