data_PCOD9142620
_publ_section_title
;
Structure prediction by ZEFSAII (Michael W. Deem and Ramdas Pophale) SiO2 
 PCOD9142620
Probable space group: P 2/M
;
_chemical_formula_sum "Si O2"
_cell_formula_units_Z 30
_cell_length_a 15.675158
_cell_length_b 22.618631
_cell_length_c 15.561446
_cell_angle_alpha 90.000000
_cell_angle_beta 19.997360
_cell_angle_gamma 90.000000
_cell_volume 1886.795770
_symmetry_space_group_name_H-M "P 2/M"
_symmetry_group_IT_number 10
_symmetry_cell_setting 'monoclinic'
loop_
_space_group_symop_operation_xyz
x,y,z
-x,y,-z
-x,-y,-z
x,-y,z
loop_
_atom_site_type_symbol
_atom_site_label
_atom_site_fract_x
_atom_site_fract_y
_atom_site_fract_z
Si Si1 0.311790 0.155932 0.356075
Si Si2 0.926121 0.933947 0.293268
Si Si3 0.000000 0.117763 0.500000
Si Si4 0.579503 0.230549 0.594651
Si Si5 0.342554 0.935877 0.046461
Si Si6 0.047680 0.169171 0.055898
Si Si7 0.955635 0.432157 0.938969
Si Si8 0.455972 0.362886 0.438416
O O1 0.271701 0.107083 0.469634
O O2 0.368407 0.214887 0.354650
O O3 0.088973 0.155788 0.497734
O O4 0.524803 0.125684 0.099072
O O5 0.137783 0.939320 0.165089
O O6 0.027712 0.895536 0.118058
O O7 0.838978 0.000000 0.353321
O O8 0.790414 0.074385 0.736703
O O9 0.552101 0.298982 0.597627
O O10 0.820752 0.206346 0.313871
O O11 0.319044 0.197791 0.817122
O O12 0.474565 0.000000 0.917194
O O13 0.000000 0.166830 0.000000
O O14 0.949019 0.500000 0.914867
O O15 0.192842 0.396857 0.677291
O O16 0.690331 0.399804 0.180008
O O17 0.000000 0.433825 0.000000
O O18 0.500000 0.355415 0.500000
#
# Coordination Sequence:
#
# PCOD9142620 Si02
#       8
#     4   4   2   4   4   4   4   4
#     4  10  20  34  50  67  96 125 159 200 258 309
#     4   9  19  33  48  67  91 121 158 205 262 310
#     4  10  21  32  48  74  90 120 157 198 256 320
#     4  11  22  36  52  72 101 134 170 210 250 291
#     4  10  18  32  50  69  93 117 153 200 256 320
#     4  11  21  35  52  70  93 127 171 217 254 292
#     4   9  17  29  46  71 102 133 166 204 241 273
#     4  10  18  29  47  71  98 135 174 203 232 278
#
# _framework density 15.899972
#
# number of rings (size 3 to 8) (size 9 to 14) (size 15 to 20)
#    0.000    2.000    1.333    3.400    0.000    5.067 
#    0.000    0.000    0.000    2.400    0.000    0.000 
#    0.000    0.000    0.000    3.600    0.000    0.000 
#
# Total GULP energy -167078.145923 kJ/mol
# GULP energy per Si atom -5569.271531 kJ/mol
# Density = 1.586378 g / cm^3
# Si number density = 15.899972 Si / 1000 Ang^3
#
#
#
# Elastic Constant Matrix: (Units=GPa)
#
#
# Indices 1 2 3 4 5 6 
#
# 1 74.8806 39.3035 25.5386 0.0000 2.6708 0.0000
# 2 39.3035 121.8785 45.2414 0.0000 -0.6843 0.0000
# 3 25.5386 45.2414 97.1507 0.0000 -1.8360 0.0000
# 4 0.0000 0.0000 0.0000 21.4129 0.0000 -1.2539
# 5 2.6708 -0.6843 -1.8360 0.0000 18.8089 0.0000
# 6 0.0000 0.0000 0.0000 -1.2539 0.0000 20.1161
#
#
#
# Elastic Compliance Matrix: (Units=1/GPa)
#
#
# Indices 1 2 3 4 5 6 
#
# 1 0.016611 -0.004512 -0.002318 0.000000 -0.002749 0.000000
# 2 -0.004512 0.011145 -0.003992 0.000000 0.000657 0.000000
# 3 -0.002318 -0.003992 0.012788 0.000000 0.001432 0.000000
# 4 0.000000 0.000000 0.000000 0.046872 0.000000 0.002922
# 5 -0.002749 0.000657 0.001432 0.000000 0.053720 0.000000
# 6 0.000000 0.000000 0.000000 0.002922 0.000000 0.049894
#
#
# Mechanical properties :
#
#
# Convention : Reuss Voigt Hill
#
# Bulk Modulus (GPa) = 52.90253 57.11963 55.01108
# Shear Modulus (GPa) = 22.83372 24.32266 23.57819
#
# Velocity S-wave (km/s) = 3.79368 3.91542 3.85503
# Velocity P-wave (km/s) = 7.24801 7.51286 7.38162
#
# Compressibility (1/GPa) = 0.01890269
#
# Stress axis : x y z
#
# Youngs Moduli (GPa) = 60.19993 89.72373 78.19573
#
# Poissons Ratio (x) = 0.40483 0.18122
# Poissons Ratio (y) = 0.27162 0.31213
# Poissons Ratio (z) = 0.13951 0.35815
#
# Static dielectric constant tensor:
#      x y z
#    x 1.543120 0.000000 -0.028140 
#    y 0.000000 1.535150 0.000000 
#    z -0.028140 0.000000 1.600820 
# 
# From -- ./inp_files/59559.got.cif
#   From: 2010.05.17/outbox.cif.g08.bks.cpg/sg10_30_cif.got.tgz:59559.got - 2010.06.03 11:33:40.
