data_PCOD9142268
_publ_section_title
;
Structure prediction by ZEFSAII (Michael W. Deem and Ramdas Pophale) SiO2 
 PCOD9142268
Probable space group: P 2/M
;
_chemical_formula_sum "Si O2"
_cell_formula_units_Z 32
_cell_length_a 20.571331
_cell_length_b 7.736740
_cell_length_c 30.145470
_cell_angle_alpha 90.000000
_cell_angle_beta 23.344464
_cell_angle_gamma 90.000000
_cell_volume 1901.168665
_symmetry_space_group_name_H-M "P 2/M"
_symmetry_group_IT_number 10
_symmetry_cell_setting 'monoclinic'
loop_
_space_group_symop_operation_xyz
x,y,z
-x,y,-z
-x,-y,-z
x,-y,z
loop_
_atom_site_type_symbol
_atom_site_label
_atom_site_fract_x
_atom_site_fract_y
_atom_site_fract_z
Si Si1 0.393561 0.291550 0.431088
Si Si2 0.821011 0.287535 0.512931
Si Si3 0.555917 0.205022 0.417641
Si Si4 0.729448 0.295893 0.171998
Si Si5 0.115730 0.700235 0.383524
Si Si6 0.392359 0.704764 0.269486
Si Si7 0.759057 0.803438 0.053669
Si Si8 0.887414 0.210387 0.162974
O O1 0.393157 0.500000 0.432624
O O2 0.241179 0.233682 0.496487
O O3 0.420309 0.230060 0.464298
O O4 0.557153 0.238676 0.301610
O O5 0.822987 0.500000 0.512023
O O6 0.687404 0.232725 0.634071
O O7 0.998639 0.225694 0.418613
O O8 0.500000 0.277253 0.500000
O O9 0.729113 0.273056 0.289779
O O10 0.580738 0.000000 0.407638
O O11 0.718467 0.500000 0.168861
O O12 0.758605 0.203005 0.107563
O O13 0.859658 0.266531 0.129466
O O14 0.145647 0.500000 0.352201
O O15 0.285920 0.777400 0.295009
O O16 0.000000 0.700156 0.500000
O O17 0.359732 0.500000 0.289866
O O18 0.586453 0.726903 0.146560
O O19 0.757682 0.000000 0.039051
O O20 0.936325 0.726572 0.930127
O O21 0.888488 0.000000 0.162478
#
# Coordination Sequence:
#
# PCOD9142268 Si02
#       8
#     4   4   4   4   4   4   4   4
#     4   9  16  26  42  63  84 104 129 163 199 236
#     4   8  12  22  38  58  81 104 134 167 196 227
#     4   9  18  33  49  60  74  99 131 167 205 245
#     4  10  18  28  41  58  79 105 137 168 194 223
#     4   7  11  19  36  56  74 102 137 169 194 219
#     4   9  15  25  39  56  78 107 143 171 189 219
#     4  11  20  27  37  54  81 112 136 161 195 234
#     4   9  19  32  42  56  77 102 132 163 201 245
#
# _framework density 16.831752999999999
#
# number of rings (size 3 to 8) (size 9 to 14) (size 15 to 20)
#    0.000    3.000    1.250    2.625    0.000    3.250 
#    0.000    0.000    0.000    4.125    0.000    0.000 
#    0.000    1.000    0.000   12.500    0.000    0.000 
#
# Total GULP energy -178140.741815 kJ/mol
# GULP energy per Si atom -5566.898182 kJ/mol
# Density = 1.679344 g / cm^3
# Si number density = 16.831753 Si / 1000 Ang^3
#
#
#
# Elastic Constant Matrix: (Units=GPa)
#
#
# Indices 1 2 3 4 5 6 
#
# 1 115.2396 -1.0436 62.9578 0.0000 -26.1341 0.0000
# 2 -1.0436 21.2732 1.2098 0.0000 0.1918 0.0000
# 3 62.9578 1.2098 65.1454 0.0000 -20.6317 0.0000
# 4 0.0000 0.0000 0.0000 20.0614 0.0000 -23.4067
# 5 -26.1341 0.1918 -20.6317 0.0000 31.4061 0.0000
# 6 0.0000 0.0000 0.0000 -23.4067 0.0000 42.6826
#
#
#
# Elastic Compliance Matrix: (Units=1/GPa)
#
#
# Indices 1 2 3 4 5 6 
#
# 1 0.018993 0.001851 -0.016905 0.000000 0.004688 0.000000
# 2 0.001851 0.047267 -0.002867 0.000000 -0.000632 0.000000
# 3 -0.016905 -0.002867 0.034461 0.000000 0.008589 0.000000
# 4 0.000000 0.000000 0.000000 0.138400 0.000000 0.075897
# 5 0.004688 -0.000632 0.008589 0.000000 0.041388 0.000000
# 6 0.000000 0.000000 0.000000 0.075897 0.000000 0.065050
#
#
# Mechanical properties :
#
#
# Convention : Reuss Voigt Hill
#
# Bulk Modulus (GPa) = 15.41311 36.43402 25.92357
# Shear Modulus (GPa) = 12.40612 28.06562 20.23587
#
# Velocity S-wave (km/s) = 2.71784 4.08784 3.47110
# Velocity P-wave (km/s) = 4.36187 6.63125 5.61246
#
# Compressibility (1/GPa) = 0.06487983
#
# Stress axis : x y z
#
# Youngs Moduli (GPa) = 52.65103 21.15636 29.01844
#
# Poissons Ratio (x) = -0.03916 0.49055
# Poissons Ratio (y) = -0.09745 0.08318
# Poissons Ratio (z) = 0.89006 0.06065
#
# Static dielectric constant tensor:
#      x y z
#    x 1.594200 0.000000 -0.048820 
#    y 0.000000 1.624650 0.000000 
#    z -0.048820 0.000000 1.587000 
# 
# From -- ./inp_files/68198.got.cif
#   From: 2010.05.17/outbox.cif.g08.bks.cpg/sg10_35_cif.got.tgz:68198.got - 2010.06.03 11:33:40.
