data_PCOD9142879
_publ_section_title
;
Structure prediction by ZEFSAII (Michael W. Deem and Ramdas Pophale) SiO2 
 PCOD9142879
Probable space group: P 2/M
;
_chemical_formula_sum "Si O2"
_cell_formula_units_Z 26
_cell_length_a 11.115953
_cell_length_b 9.498434
_cell_length_c 27.005525
_cell_angle_alpha 90.000000
_cell_angle_beta 154.334676
_cell_angle_gamma 90.000000
_cell_volume 1234.960938
_symmetry_space_group_name_H-M "P 2/M"
_symmetry_group_IT_number 10
_symmetry_cell_setting 'monoclinic'
loop_
_space_group_symop_operation_xyz
x,y,z
-x,y,-z
-x,-y,-z
x,-y,z
loop_
_atom_site_type_symbol
_atom_site_label
_atom_site_fract_x
_atom_site_fract_y
_atom_site_fract_z
Si Si1 0.573645 0.172086 0.898147
Si Si2 0.800645 0.650908 0.517554
Si Si3 0.337712 0.161311 0.618613
Si Si4 0.500000 0.265939 0.500000
Si Si5 0.463648 0.666209 0.759761
Si Si6 0.984639 0.835770 0.251649
Si Si7 0.802775 0.163489 0.084908
O O1 0.607639 0.251499 0.858725
O O2 0.269189 0.211682 0.807505
O O3 0.585793 0.000000 0.896299
O O4 0.773296 0.217952 0.017922
O O5 0.770103 0.500000 0.479936
O O6 0.644728 0.768653 0.428279
O O7 0.665924 0.647871 0.520967
O O8 0.129148 0.676437 0.644510
O O9 0.489279 0.251947 0.717072
O O10 0.000000 0.164140 0.500000
O O11 0.428460 0.000000 0.654050
O O12 0.730734 0.178575 0.614328
O O13 0.534998 0.500000 0.784147
O O14 0.986415 0.770418 0.196950
O O15 0.924249 0.000000 0.221329
O O16 0.879108 0.000000 0.105635
O O17 0.500000 0.166734 0.000000
#
# Coordination Sequence:
#
# PCOD9142879 Si02
#       7
#     4   4   4   2   4   4   4
#     4   9  15  27  47  69  93 123 162 204 241 283
#     4  10  21  34  46  64  97 137 168 193 233 288
#     4   9  18  32  50  70  92 121 161 207 247 284
#     4  12  20  30  46  70  99 138 167 196 225 286
#     4  10  18  30  48  71  98 126 158 200 247 292
#     4   9  17  27  41  67  98 128 163 202 242 279
#     4   7  12  24  42  62  89 124 159 198 243 284
#
# _framework density 21.053298999999999
#
# number of rings (size 3 to 8) (size 9 to 14) (size 15 to 20)
#    0.000    2.769    1.538    3.231    0.000    3.692 
#    0.000    0.000    0.000    6.000    0.000    1.077 
#    0.000    7.385    0.000    0.000    0.000    0.000 
#
# Total GULP energy -144812.200273 kJ/mol
# GULP energy per Si atom -5569.700010 kJ/mol
# Density = 2.100538 g / cm^3
# Si number density = 21.053299 Si / 1000 Ang^3
#
#
#
# Elastic Constant Matrix: (Units=GPa)
#
#
# Indices 1 2 3 4 5 6 
#
# 1 52.8522 33.2602 25.3412 0.0000 -33.6239 0.0000
# 2 33.2602 82.0298 30.3831 0.0000 -36.5518 0.0000
# 3 25.3412 30.3831 103.7487 0.0000 -39.9434 0.0000
# 4 0.0000 0.0000 0.0000 -11.5868 0.0000 6.4459
# 5 -33.6239 -36.5518 -39.9434 0.0000 51.3972 0.0000
# 6 0.0000 0.0000 0.0000 6.4459 0.0000 -29.9828
#
#
#
# Elastic Compliance Matrix: (Units=1/GPa)
#
#
# Indices 1 2 3 4 5 6 
#
# 1 0.034154 -0.005716 0.000526 0.000000 0.018687 0.000000
# 2 -0.005716 0.018820 -0.000574 0.000000 0.009198 0.000000
# 3 0.000526 -0.000574 0.013775 0.000000 0.010642 0.000000
# 4 0.000000 0.000000 0.000000 -0.098029 0.000000 -0.021075
# 5 0.018687 0.009198 0.010642 0.000000 0.046493 0.000000
# 6 0.000000 0.000000 0.000000 -0.021075 0.000000 -0.037883
#
#
# Mechanical properties :
#
#
# Convention : Reuss Voigt Hill
#
# Bulk Modulus (GPa) = 18.10885 46.28886 32.19885
# Shear Modulus (GPa) = 688.26945 11.94194 350.10569
#
# Velocity S-wave (km/s) = 18.10048 2.38423 12.90953
# Velocity P-wave (km/s) = 21.10584 5.44184 15.41217
#
# Compressibility (1/GPa) = 0.05522163
#
# Stress axis : x y z
#
# Youngs Moduli (GPa) = 29.27888 53.13574 72.59420
#
# Poissons Ratio (x) = 0.30374 -0.03821
# Poissons Ratio (y) = 0.16737 0.04165
# Poissons Ratio (z) = -0.01541 0.03049
#
# Static dielectric constant tensor:
#      x y z
#    x 1.799320 0.000000 0.010260 
#    y 0.000000 1.756240 0.000000 
#    z 0.010260 0.000000 1.809180 
# 
# From -- ./inp_files/92652.got.cif
#   From: 2010.05.17/outbox.cif.g08.bks.cpg/sg10_47_cif.got.tgz:92652.got - 2010.06.03 11:33:40.
