data_PCOD9142367
_publ_section_title
;
Structure prediction by ZEFSAII (Michael W. Deem and Ramdas Pophale) SiO2 
 PCOD9142367
Probable space group: P 2/M
;
_chemical_formula_sum "Si O2"
_cell_formula_units_Z 22
_cell_length_a 22.434920
_cell_length_b 10.805523
_cell_length_c 11.837759
_cell_angle_alpha 90.000000
_cell_angle_beta 159.918783
_cell_angle_gamma 90.000000
_cell_volume 985.324228
_symmetry_space_group_name_H-M "P 2/M"
_symmetry_group_IT_number 10
_symmetry_cell_setting 'monoclinic'
loop_
_space_group_symop_operation_xyz
x,y,z
-x,y,-z
-x,-y,-z
x,-y,z
loop_
_atom_site_type_symbol
_atom_site_label
_atom_site_fract_x
_atom_site_fract_y
_atom_site_fract_z
Si Si1 0.368808 0.726347 0.673621
Si Si2 0.291407 0.000000 0.524327
Si Si3 0.749783 0.500000 0.946524
Si Si4 0.874175 0.000000 0.532671
Si Si5 0.830135 0.500000 0.340128
Si Si6 0.741447 0.000000 0.792929
Si Si7 0.292221 0.726457 0.284694
Si Si8 0.873890 0.266580 0.563109
O O1 0.399329 0.874334 0.721808
O O2 0.364907 0.686088 0.536947
O O3 0.186022 0.716644 0.414284
O O4 0.500000 0.671985 0.000000
O O5 0.216140 0.000000 0.265400
O O6 0.152940 0.000000 0.378572
O O7 0.726923 0.500000 0.039741
O O8 0.960498 0.500000 0.307715
O O9 0.681198 0.621812 0.761325
O O10 0.803940 0.137542 0.385282
O O11 0.063787 0.000000 0.811658
O O12 0.799473 0.378053 0.357965
O O13 0.652631 0.866445 0.653336
O O14 0.082368 0.736439 0.928316
#
# Coordination Sequence:
#
# PCOD9142367 Si02
#       8
#     4   2   2   2   2   2   4   4
#     4  10  18  28  45  71 100 124 150 185 226 272
#     4   8  14  24  40  64  95 128 151 174 217 272
#     4   9  18  33  51  68  88 119 158 195 230 271
#     4   8  13  23  42  68  93 117 148 185 222 263
#     4   9  18  33  51  68  88 119 158 195 230 271
#     4   8  13  23  42  68  93 117 148 185 222 263
#     4   9  17  30  48  69  94 123 153 185 225 272
#     4   9  17  30  48  69  94 123 153 185 225 272
#
# _framework density 22.327676
#
# number of rings (size 3 to 8) (size 9 to 14) (size 15 to 20)
#    0.000    3.091    0.000    1.091    0.000    5.091 
#    0.000    5.455    0.000    7.636    0.000    0.000 
#    0.000    8.727    0.000    0.000    0.000    0.000 
#
# Total GULP energy -122511.921848 kJ/mol
# GULP energy per Si atom -5568.723720 kJ/mol
# Density = 2.227686 g / cm^3
# Si number density = 22.327676 Si / 1000 Ang^3
#
#
#
# Elastic Constant Matrix: (Units=GPa)
#
#
# Indices 1 2 3 4 5 6 
#
# 1 47.8754 42.8236 31.1539 0.0000 -17.7986 0.0000
# 2 42.8236 170.6835 39.9336 0.0000 -45.2769 0.0000
# 3 31.1539 39.9336 85.4673 0.0000 -22.0271 0.0000
# 4 0.0000 0.0000 0.0000 24.1632 0.0000 -40.9316
# 5 -17.7986 -45.2769 -22.0271 0.0000 43.1438 0.0000
# 6 0.0000 0.0000 0.0000 -40.9316 0.0000 21.4330
#
#
#
# Elastic Compliance Matrix: (Units=1/GPa)
#
#
# Indices 1 2 3 4 5 6 
#
# 1 0.032361 -0.005191 -0.008445 0.000000 0.003591 0.000000
# 2 -0.005191 0.009211 -0.000544 0.000000 0.007247 0.000000
# 3 -0.008445 -0.000544 0.016107 0.000000 0.004169 0.000000
# 4 0.000000 0.000000 0.000000 -0.018517 0.000000 -0.035362
# 5 0.003591 0.007247 0.004169 0.000000 0.034394 0.000000
# 6 0.000000 0.000000 0.000000 -0.035362 0.000000 -0.020875
#
#
# Mechanical properties :
#
#
# Convention : Reuss Voigt Hill
#
# Bulk Modulus (GPa) = 34.10657 59.09427 46.60042
# Shear Modulus (GPa) = 55.05769 30.42235 42.74002
#
# Velocity S-wave (km/s) = 4.97116 3.69526 4.37992
# Velocity P-wave (km/s) = 6.94684 6.68812 6.81871
#
# Compressibility (1/GPa) = 0.02931986
#
# Stress axis : x y z
#
# Youngs Moduli (GPa) = 30.90117 108.56836 62.08379
#
# Poissons Ratio (x) = 0.56355 0.52431
# Poissons Ratio (y) = 0.16040 0.03376
# Poissons Ratio (z) = 0.26097 0.05904
#
# Static dielectric constant tensor:
#      x y z
#    x 1.795750 0.000000 0.041560 
#    y 0.000000 1.863690 0.000000 
#    z 0.041560 0.000000 1.899310 
# 
# From -- ./inp_files/57711.got.cif
#   From: 2010.05.17/outbox.cif.g08.bks.cpg/sg10_29_cif.got.tgz:57711.got - 2010.06.03 11:33:40.
