data_PCOD9142532
_publ_section_title
;
Structure prediction by ZEFSAII (Michael W. Deem and Ramdas Pophale) SiO2 
 PCOD9142532
Probable space group: P 2/M
;
_chemical_formula_sum "Si O2"
_cell_formula_units_Z 32
_cell_length_a 13.560442
_cell_length_b 7.352111
_cell_length_c 27.427670
_cell_angle_alpha 90.000000
_cell_angle_beta 145.560357
_cell_angle_gamma 90.000000
_cell_volume 1546.451939
_symmetry_space_group_name_H-M "P 2/M"
_symmetry_group_IT_number 10
_symmetry_cell_setting 'monoclinic'
loop_
_space_group_symop_operation_xyz
x,y,z
-x,y,-z
-x,-y,-z
x,-y,z
loop_
_atom_site_type_symbol
_atom_site_label
_atom_site_fract_x
_atom_site_fract_y
_atom_site_fract_z
Si Si1 0.469897 0.207921 0.246333
Si Si2 0.084011 0.276387 0.981275
Si Si3 0.410899 0.278521 0.388558
Si Si4 0.843716 0.719628 0.403314
Si Si5 0.188983 0.703208 0.207357
Si Si6 0.476886 0.294557 0.137915
Si Si7 0.143583 0.722200 0.704112
Si Si8 0.238939 0.279101 0.422042
O O1 0.659060 0.214141 0.347358
O O2 0.333014 0.306477 0.223814
O O3 0.491488 0.298504 0.202683
O O4 0.414554 0.000000 0.216636
O O5 0.083136 0.500000 0.981957
O O6 0.970892 0.215537 0.888495
O O7 0.283204 0.214884 0.053638
O O8 0.000000 0.223110 0.000000
O O9 0.416559 0.500000 0.386748
O O10 0.293441 0.212616 0.295462
O O11 0.313989 0.232356 0.399511
O O12 0.613045 0.220525 0.478341
O O13 0.840862 0.500000 0.402904
O O14 0.866148 0.776292 0.356541
O O15 0.000000 0.783460 0.500000
O O16 0.133838 0.500000 0.200391
O O17 0.468783 0.500000 0.115039
O O18 0.665287 0.215861 0.198686
O O19 0.149104 0.500000 0.708408
O O20 0.960547 0.781402 0.652707
O O21 0.235386 0.500000 0.423272
#
# Coordination Sequence:
#
# PCOD9142532 Si02
#       8
#     4   4   4   4   4   4   4   4
#     4  11  21  30  41  62  94 124 146 182 228 267
#     4   9  15  25  44  64  84 114 151 190 223 258
#     4   8  15  24  40  64  91 113 138 183 227 267
#     4   9  18  30  45  65  87 119 158 186 209 258
#     4  10  18  29  46  65  85 117 154 187 221 266
#     4   9  16  30  46  62  84 117 156 186 215 263
#     4   8  14  23  40  62  85 111 142 180 217 257
#     4   8  13  24  39  64  92 111 136 179 233 264
#
# _framework density 20.692526999999998
#
# number of rings (size 3 to 8) (size 9 to 14) (size 15 to 20)
#    0.000    3.000    1.250    2.625    1.750    0.250 
#    0.000    1.250    0.000    0.750    0.000   10.500 
#    0.000    0.000    0.000    5.625    0.000    6.250 
#
# Total GULP energy -178213.941683 kJ/mol
# GULP energy per Si atom -5569.185678 kJ/mol
# Density = 2.064543 g / cm^3
# Si number density = 20.692527 Si / 1000 Ang^3
#
#
#
# Elastic Constant Matrix: (Units=GPa)
#
#
# Indices 1 2 3 4 5 6 
#
# 1 62.2036 -1.5457 64.0212 0.0000 29.6545 0.0000
# 2 -1.5457 82.7061 0.0627 0.0000 1.1747 0.0000
# 3 64.0212 0.0627 203.3302 0.0000 33.1644 0.0000
# 4 0.0000 0.0000 0.0000 -4.1413 0.0000 2.5454
# 5 29.6545 1.1747 33.1644 0.0000 41.1515 0.0000
# 6 0.0000 0.0000 0.0000 2.5454 0.0000 -22.1187
#
#
#
# Elastic Compliance Matrix: (Units=1/GPa)
#
#
# Indices 1 2 3 4 5 6 
#
# 1 0.031585 0.000837 -0.007172 0.000000 -0.017005 0.000000
# 2 0.000837 0.012119 -0.000130 0.000000 -0.000845 0.000000
# 3 -0.007172 -0.000130 0.007291 0.000000 -0.000704 0.000000
# 4 0.000000 0.000000 0.000000 -0.259850 0.000000 -0.029904
# 5 -0.017005 -0.000845 -0.000704 0.000000 0.037146 0.000000
# 6 0.000000 0.000000 0.000000 -0.029904 0.000000 -0.048652
#
#
# Mechanical properties :
#
#
# Convention : Reuss Voigt Hill
#
# Bulk Modulus (GPa) = 26.26946 52.59070 39.43008
# Shear Modulus (GPa) = -25.67475 22.02507 -1.82484
#
# Velocity S-wave (km/s) = -3.52628 3.26605 -0.94011
# Velocity P-wave (km/s) = 1.96389 6.30026 4.23299
#
# Compressibility (1/GPa) = 0.03806702
#
# Stress axis : x y z
#
# Youngs Moduli (GPa) = 31.66063 82.51672 137.15359
#
# Poissons Ratio (x) = -0.06909 0.98361
# Poissons Ratio (y) = -0.02651 0.01777
# Poissons Ratio (z) = 0.22706 0.01069
#
# Static dielectric constant tensor:
#      x y z
#    x 1.692760 0.000000 0.033650 
#    y 0.000000 1.808790 0.000000 
#    z 0.033650 0.000000 1.808490 
# 
# From -- ./inp_files/72537.got.cif
#   From: 2010.05.17/outbox.cif.g08.bks.cpg/sg10_37_cif.got.tgz:72537.got - 2010.06.03 11:33:40.
