data_PCOD9142848
_publ_section_title
;
Structure prediction by ZEFSAII (Michael W. Deem and Ramdas Pophale) SiO2 
 PCOD9142848
Probable space group: P 2/M
;
_chemical_formula_sum "Si O2"
_cell_formula_units_Z 32
_cell_length_a 17.732693
_cell_length_b 8.788283
_cell_length_c 24.632477
_cell_angle_alpha 90.000000
_cell_angle_beta 146.432856
_cell_angle_gamma 90.000000
_cell_volume 2122.483207
_symmetry_space_group_name_H-M "P 2/M"
_symmetry_group_IT_number 10
_symmetry_cell_setting 'monoclinic'
loop_
_space_group_symop_operation_xyz
x,y,z
-x,y,-z
-x,-y,-z
x,-y,z
loop_
_atom_site_type_symbol
_atom_site_label
_atom_site_fract_x
_atom_site_fract_y
_atom_site_fract_z
Si Si1 0.854121 0.681800 0.386365
Si Si2 0.688096 0.817660 0.848651
Si Si3 0.574703 0.817207 0.247126
Si Si4 0.500970 0.318720 0.914018
Si Si5 0.116471 0.322505 0.116278
Si Si6 0.781924 0.181611 0.227908
Si Si7 0.087276 0.817178 0.926595
Si Si8 0.793387 0.183493 0.115651
O O1 0.833464 0.500000 0.374521
O O2 0.729756 0.760788 0.344091
O O3 0.845163 0.739721 0.318847
O O4 0.000000 0.716954 0.500000
O O5 0.532214 0.779361 0.769502
O O6 0.750087 0.748554 0.831158
O O7 0.698904 0.000000 0.851738
O O8 0.785827 0.769879 0.958079
O O9 0.517755 0.735005 0.159286
O O10 0.571947 0.000000 0.237374
O O11 0.488986 0.500000 0.911823
O O12 0.374751 0.238161 0.868266
O O13 0.647040 0.261419 0.020810
O O14 0.136389 0.500000 0.137815
O O15 0.050476 0.245772 0.129370
O O16 0.000000 0.303193 0.000000
O O17 0.846697 0.217990 0.208151
O O18 0.783936 0.000000 0.237147
O O19 0.116527 0.770444 0.882266
O O20 0.082600 0.000000 0.925504
O O21 0.774595 0.000000 0.101419
#
# Coordination Sequence:
#
# PCOD9142848 Si02
#       8
#     4   4   4   4   4   4   4   4
#     4  10  21  36  51  67  90 116 142 179 229 276
#     4   9  16  27  43  60  82 115 150 183 218 255
#     4  10  18  30  48  68  88 114 152 189 221 262
#     4  11  20  28  41  61  89 120 149 182 221 260
#     4   9  17  26  37  57  84 113 149 186 217 251
#     4  10  20  32  48  65  84 112 149 187 221 260
#     4   9  16  28  42  56  82 118 153 182 215 255
#     4  10  19  31  44  61  86 118 153 187 218 254
#
# _framework density 15.076681000000001
#
# number of rings (size 3 to 8) (size 9 to 14) (size 15 to 20)
#    0.000    2.250    1.250    4.500    0.000    6.500 
#    0.000    0.000    0.000    0.000    0.000    0.000 
#    0.000    1.000    0.000   11.250    0.000    5.625 
#
# Total GULP energy -178334.758254 kJ/mol
# GULP energy per Si atom -5572.961195 kJ/mol
# Density = 1.504237 g / cm^3
# Si number density = 15.076681 Si / 1000 Ang^3
#
#
#
# Elastic Constant Matrix: (Units=GPa)
#
#
# Indices 1 2 3 4 5 6 
#
# 1 136.7657 29.2947 46.3395 0.0000 2.3273 0.0000
# 2 29.2947 24.5232 19.7108 0.0000 0.8664 0.0000
# 3 46.3395 19.7108 50.6434 0.0000 7.9277 0.0000
# 4 0.0000 0.0000 0.0000 17.0154 0.0000 5.3427
# 5 2.3273 0.8664 7.9277 0.0000 10.9414 0.0000
# 6 0.0000 0.0000 0.0000 5.3427 0.0000 -18.4887
#
#
#
# Elastic Compliance Matrix: (Units=1/GPa)
#
#
# Indices 1 2 3 4 5 6 
#
# 1 0.011685 -0.007244 -0.008542 0.000000 0.004277 0.000000
# 2 -0.007244 0.065675 -0.020709 0.000000 0.011345 0.000000
# 3 -0.008542 -0.020709 0.039569 0.000000 -0.025213 0.000000
# 4 0.000000 0.000000 0.000000 0.053881 0.000000 0.015570
# 5 0.004277 0.011345 -0.025213 0.000000 0.107856 0.000000
# 6 0.000000 0.000000 0.000000 0.015570 0.000000 -0.049588
#
#
# Mechanical properties :
#
#
# Convention : Reuss Voigt Hill
#
# Bulk Modulus (GPa) = 22.75875 44.73583 33.74729
# Shear Modulus (GPa) = 15.78705 9.66612 12.72658
#
# Velocity S-wave (km/s) = 3.23943 2.53480 2.90853
# Velocity P-wave (km/s) = 5.39629 6.18899 5.80618
#
# Compressibility (1/GPa) = 0.04393915
#
# Stress axis : x y z
#
# Youngs Moduli (GPa) = 85.58105 15.22644 25.27213
#
# Poissons Ratio (x) = 0.11029 0.21588
# Poissons Ratio (y) = 0.61992 0.52337
# Poissons Ratio (z) = 0.73104 0.31533
#
# Static dielectric constant tensor:
#      x y z
#    x 1.533690 0.000000 -0.003100 
#    y 0.000000 1.502590 0.000000 
#    z -0.003100 0.000000 1.475040 
# 
# From -- ./inp_files/89958.got.cif
#   From: 2010.05.17/outbox.cif.g08.bks.cpg/sg10_45_cif.got.tgz:89958.got - 2010.06.03 11:33:40.
