data_PCOD9142472
_publ_section_title
;
Structure prediction by ZEFSAII (Michael W. Deem and Ramdas Pophale) SiO2 
 PCOD9142472
Probable space group: P 2/M
;
_chemical_formula_sum "Si O2"
_cell_formula_units_Z 32
_cell_length_a 26.508204
_cell_length_b 12.990375
_cell_length_c 7.923175
_cell_angle_alpha 90.000000
_cell_angle_beta 46.250129
_cell_angle_gamma 90.000000
_cell_volume 1970.871222
_symmetry_space_group_name_H-M "P 2/M"
_symmetry_group_IT_number 10
_symmetry_cell_setting 'monoclinic'
loop_
_space_group_symop_operation_xyz
x,y,z
-x,y,-z
-x,-y,-z
x,-y,z
loop_
_atom_site_type_symbol
_atom_site_label
_atom_site_fract_x
_atom_site_fract_y
_atom_site_fract_z
Si Si1 0.919834 0.874649 0.190311
Si Si2 0.532790 0.890113 0.736327
Si Si3 0.554468 0.717817 0.252596
Si Si4 0.666051 0.120923 0.976857
Si Si5 0.181288 0.874845 0.882758
Si Si6 0.174964 0.123826 0.280854
Si Si7 0.665623 0.183183 0.582837
Si Si8 0.417871 0.616760 0.144824
O O1 0.876795 0.847421 0.121603
O O2 0.878131 0.837811 0.452871
O O3 0.920454 0.000000 0.194588
O O4 0.000000 0.840176 0.000000
O O5 0.496905 0.798279 0.722357
O O6 0.614930 0.879811 0.576720
O O7 0.515525 0.000000 0.696899
O O8 0.500000 0.888079 0.000000
O O9 0.500000 0.662114 0.500000
O O10 0.614507 0.795208 0.179661
O O11 0.586592 0.639978 0.044180
O O12 0.745299 0.143552 0.848240
O O13 0.659578 0.139746 0.788892
O O14 0.651272 0.000000 0.046108
O O15 0.255145 0.826958 0.657631
O O16 0.189503 0.000000 0.860471
O O17 0.162834 0.842756 0.116320
O O18 0.167686 0.000000 0.296578
O O19 0.631592 0.296954 0.659850
O O20 0.399259 0.500000 0.230600
O O21 0.500000 0.631761 0.000000
#
# Coordination Sequence:
#
# PCOD9142472 Si02
#       8
#     4   4   4   4   4   4   4   4
#     4   9  17  30  46  65  94 133 170 196 221 263
#     4  11  19  29  43  64  90 120 158 195 230 283
#     4  11  22  32  43  66  94 124 161 198 248 287
#     4  10  18  29  43  61  93 128 157 195 236 285
#     4  10  19  29  46  69  97 130 159 193 235 283
#     4   9  18  29  41  65  95 130 167 194 228 269
#     4  11  18  31  48  67  84 120 158 197 251 289
#     4  10  20  37  54  65  82 115 163 211 252 293
#
# _framework density 16.236474999999999
#
# number of rings (size 3 to 8) (size 9 to 14) (size 15 to 20)
#    0.000    1.875    5.000    1.500    1.750    1.750 
#    0.000    2.500    0.000    0.000    0.000    0.000 
#    0.000    0.500    0.000    1.250    0.000    0.625 
#
# Total GULP energy -178396.232077 kJ/mol
# GULP energy per Si atom -5574.882252 kJ/mol
# Density = 1.619952 g / cm^3
# Si number density = 16.236475 Si / 1000 Ang^3
#
#
#
# Elastic Constant Matrix: (Units=GPa)
#
#
# Indices 1 2 3 4 5 6 
#
# 1 87.4388 11.3084 55.8167 0.0000 -15.0295 0.0000
# 2 11.3084 52.6474 8.1030 0.0000 -5.1325 0.0000
# 3 55.8167 8.1030 95.7439 0.0000 -11.9477 0.0000
# 4 0.0000 0.0000 0.0000 8.2298 0.0000 -2.2607
# 5 -15.0295 -5.1325 -11.9477 0.0000 26.3858 0.0000
# 6 0.0000 0.0000 0.0000 -2.2607 0.0000 2.4298
#
#
#
# Elastic Compliance Matrix: (Units=1/GPa)
#
#
# Indices 1 2 3 4 5 6 
#
# 1 0.019324 -0.001978 -0.010358 0.000000 0.005932 0.000000
# 2 -0.001978 0.019704 -0.000187 0.000000 0.002621 0.000000
# 3 -0.010358 -0.000187 0.016702 0.000000 0.001626 0.000000
# 4 0.000000 0.000000 0.000000 0.163229 0.000000 0.151874
# 5 0.005932 0.002621 0.001626 0.000000 0.042524 0.000000
# 6 0.000000 0.000000 0.000000 0.151874 0.000000 0.552870
#
#
# Mechanical properties :
#
#
# Convention : Reuss Voigt Hill
#
# Bulk Modulus (GPa) = 32.59157 42.92072 37.75614
# Shear Modulus (GPa) = 5.88494 18.11587 12.00041
#
# Velocity S-wave (km/s) = 1.90588 3.34391 2.72159
# Velocity P-wave (km/s) = 4.99598 6.43437 5.76025
#
# Compressibility (1/GPa) = 0.03068278
#
# Stress axis : x y z
#
# Youngs Moduli (GPa) = 51.74917 50.75231 59.87410
#
# Poissons Ratio (x) = 0.10040 0.62016
# Poissons Ratio (y) = 0.10237 0.01121
# Poissons Ratio (z) = 0.53601 0.00950
#
# Static dielectric constant tensor:
#      x y z
#    x 1.572160 0.000000 0.036260 
#    y 0.000000 1.521300 0.000000 
#    z 0.036260 0.000000 1.595430 
# 
# From -- ./inp_files/37641.got.cif
#   From: 2010.05.17/outbox.cif.g08.bks.cpg/sg10_19_cif.got.tgz:37641.got - 2010.06.03 11:33:40.
