data_PCOD9142360
_publ_section_title
;
Structure prediction by ZEFSAII (Michael W. Deem and Ramdas Pophale) SiO2 
 PCOD9142360
Probable space group: P 2/M
;
_chemical_formula_sum "Si O2"
_cell_formula_units_Z 32
_cell_length_a 22.399269
_cell_length_b 8.319808
_cell_length_c 17.481247
_cell_angle_alpha 90.000000
_cell_angle_beta 147.065126
_cell_angle_gamma 90.000000
_cell_volume 1771.198465
_symmetry_space_group_name_H-M "P 2/M"
_symmetry_group_IT_number 10
_symmetry_cell_setting 'monoclinic'
loop_
_space_group_symop_operation_xyz
x,y,z
-x,y,-z
-x,-y,-z
x,-y,z
loop_
_atom_site_type_symbol
_atom_site_label
_atom_site_fract_x
_atom_site_fract_y
_atom_site_fract_z
Si Si1 0.873988 0.805206 0.640876
Si Si2 0.365961 0.192239 0.649904
Si Si3 0.753209 0.308866 0.160928
Si Si4 0.795674 0.309116 0.977758
Si Si5 0.620203 0.306418 0.162946
Si Si6 0.396622 0.192087 0.140977
Si Si7 0.974450 0.693363 0.057070
Si Si8 0.054531 0.187895 0.723937
O O1 0.749079 0.746597 0.507121
O O2 0.940622 0.752466 0.787311
O O3 0.939331 0.749721 0.634337
O O4 0.875352 0.000000 0.639788
O O5 0.366464 0.228888 0.740396
O O6 0.479471 0.254069 0.735892
O O7 0.367020 0.000000 0.640795
O O8 0.739131 0.500000 0.141205
O O9 0.711512 0.255491 0.199182
O O10 0.878183 0.268031 0.272502
O O11 0.671946 0.235189 0.009517
O O12 0.810790 0.500000 0.007705
O O13 0.852919 0.268105 0.959080
O O14 0.865144 0.214479 0.116696
O O15 0.670611 0.265346 0.860458
O O16 0.625126 0.500000 0.176685
O O17 0.500000 0.266824 0.000000
O O18 0.397289 0.000000 0.149102
O O19 0.982470 0.500000 0.063470
O O20 0.000000 0.756394 0.000000
O O21 0.044322 0.000000 0.695855
#
# Coordination Sequence:
#
# PCOD9142360 Si02
#       8
#     4   4   4   4   4   4   4   4
#     4   9  19  35  51  72 100 128 161 197 236 286
#     4  10  21  34  49  69  96 130 165 202 242 286
#     4  10  18  29  46  67  93 121 157 206 249 285
#     4   9  16  27  46  71  98 124 152 191 235 278
#     4  10  20  33  47  67  95 126 164 208 248 287
#     4  10  18  28  45  69  95 124 161 201 238 279
#     4   9  18  33  54  80 104 125 154 193 235 281
#     4   9  16  28  47  67  91 122 157 198 239 283
#
# _framework density 18.066862
#
# number of rings (size 3 to 8) (size 9 to 14) (size 15 to 20)
#    0.000    2.500    1.250    3.000    0.000    3.500 
#    0.000    0.625    0.000    4.500    0.000    5.250 
#    0.000    0.000    0.000    0.000    0.000    0.000 
#
# Total GULP energy -178304.735864 kJ/mol
# GULP energy per Si atom -5572.022996 kJ/mol
# Density = 1.802574 g / cm^3
# Si number density = 18.066862 Si / 1000 Ang^3
#
#
#
# Elastic Constant Matrix: (Units=GPa)
#
#
# Indices 1 2 3 4 5 6 
#
# 1 153.2911 8.2953 51.9672 0.0000 27.2136 0.0000
# 2 8.2953 9.9193 1.7489 0.0000 5.1984 0.0000
# 3 51.9672 1.7489 63.9134 0.0000 23.7660 0.0000
# 4 0.0000 0.0000 0.0000 11.1509 0.0000 4.7953
# 5 27.2136 5.1984 23.7660 0.0000 24.1697 0.0000
# 6 0.0000 0.0000 0.0000 4.7953 0.0000 23.7448
#
#
#
# Elastic Compliance Matrix: (Units=1/GPa)
#
#
# Indices 1 2 3 4 5 6 
#
# 1 0.009563 -0.005087 -0.006368 0.000000 -0.003412 0.000000
# 2 -0.005087 0.120045 0.013119 0.000000 -0.032992 0.000000
# 3 -0.006368 0.013119 0.029712 0.000000 -0.024867 0.000000
# 4 0.000000 0.000000 0.000000 0.098207 0.000000 -0.019833
# 5 -0.003412 -0.032992 -0.024867 0.000000 0.076764 0.000000
# 6 0.000000 0.000000 0.000000 -0.019833 0.000000 0.046120
#
#
# Mechanical properties :
#
#
# Convention : Reuss Voigt Hill
#
# Bulk Modulus (GPa) = 6.14824 39.01630 22.58227
# Shear Modulus (GPa) = 11.59293 22.82057 17.20675
#
# Velocity S-wave (km/s) = 2.53586 3.55789 3.08943
# Velocity P-wave (km/s) = 3.46188 6.20649 5.02519
#
# Compressibility (1/GPa) = 0.16264830
#
# Stress axis : x y z
#
# Youngs Moduli (GPa) = 104.56620 8.33024 33.65693
#
# Poissons Ratio (x) = 0.04237 0.21432
# Poissons Ratio (y) = 0.53189 -0.44154
# Poissons Ratio (z) = 0.66586 -0.10928
#
# Static dielectric constant tensor:
#      x y z
#    x 1.670060 0.000000 0.048140 
#    y 0.000000 1.624270 0.000000 
#    z 0.048140 0.000000 1.606540 
# 
# From -- ./inp_files/79975.got.cif
#   From: 2010.05.17/outbox.cif.g08.bks.cpg/sg10_40_cif.got.tgz:79975.got - 2010.06.03 11:33:40.
