data_PCOD9142060
_publ_section_title
;
Structure prediction by ZEFSAII (Michael W. Deem and Ramdas Pophale) SiO2 
 PCOD9142060
Probable space group: P 2/M
;
_chemical_formula_sum "Si O2"
_cell_formula_units_Z 32
_cell_length_a 15.622263
_cell_length_b 23.021195
_cell_length_c 8.928448
_cell_angle_alpha 90.000000
_cell_angle_beta 149.312283
_cell_angle_gamma 90.000000
_cell_volume 1638.789587
_symmetry_space_group_name_H-M "P 2/M"
_symmetry_group_IT_number 10
_symmetry_cell_setting 'monoclinic'
loop_
_space_group_symop_operation_xyz
x,y,z
-x,y,-z
-x,-y,-z
x,-y,z
loop_
_atom_site_type_symbol
_atom_site_label
_atom_site_fract_x
_atom_site_fract_y
_atom_site_fract_z
Si Si1 0.524563 0.369490 0.713565
Si Si2 0.632349 0.756323 0.982358
Si Si3 0.831017 0.356346 0.663511
Si Si4 0.683980 0.434414 0.197742
Si Si5 0.172113 0.107846 0.221425
Si Si6 0.746592 0.224456 0.487535
Si Si7 0.679768 0.855899 0.854420
Si Si8 0.477241 0.067281 0.134495
O O1 0.500000 0.369121 0.500000
O O2 0.336802 0.372241 0.497485
O O3 0.610208 0.310515 0.905303
O O4 0.640635 0.418969 0.961166
O O5 0.724948 0.771334 0.276062
O O6 0.440303 0.776635 0.721566
O O7 0.712703 0.792274 0.968621
O O8 0.801161 0.387916 0.458892
O O9 0.829111 0.286227 0.651307
O O10 0.000000 0.375451 0.000000
O O11 0.746407 0.500000 0.309475
O O12 0.500000 0.430495 0.000000
O O13 0.171783 0.166851 0.321686
O O14 0.189823 0.123632 0.073260
O O15 0.339390 0.073235 0.516040
O O16 0.000000 0.076295 0.000000
O O17 0.500000 0.853999 0.500000
O O18 0.650698 0.897349 0.953806
O O19 0.427057 0.000000 0.050412
O O20 0.500000 0.090776 0.000000
#
# Coordination Sequence:
#
# PCOD9142060 Si02
#       8
#     4   4   4   4   4   4   4   4
#     4  10  20  33  56  83 109 146 189 239 284 345
#     4  10  17  31  56  80 106 142 194 230 276 338
#     4  10  20  35  55  80 111 148 187 233 289 347
#     4   9  18  36  57  81 109 146 197 238 278 343
#     4  11  23  36  55  85 120 148 184 237 298 342
#     4  10  18  32  54  78 112 145 183 231 285 340
#     4  10  19  33  56  84 111 148 189 237 280 339
#     4  10  21  40  63  84 110 153 201 236 275 337
#
# _framework density 19.526605
#
# number of rings (size 3 to 8) (size 9 to 14) (size 15 to 20)
#    0.000    2.000    3.750    1.500    1.750    3.000 
#    0.000    3.125    0.000    2.250    0.000    0.000 
#    0.000    0.000    0.000    0.000    0.000    0.000 
#
# Total GULP energy -178463.869931 kJ/mol
# GULP energy per Si atom -5576.995935 kJ/mol
# Density = 1.948216 g / cm^3
# Si number density = 19.526605 Si / 1000 Ang^3
#
#
#
# Elastic Constant Matrix: (Units=GPa)
#
#
# Indices 1 2 3 4 5 6 
#
# 1 98.8626 10.8984 26.9951 0.0000 -20.9939 0.0000
# 2 10.8984 57.9747 20.1339 0.0000 -6.8607 0.0000
# 3 26.9951 20.1339 60.6677 0.0000 -13.7988 0.0000
# 4 0.0000 0.0000 0.0000 5.9880 0.0000 -4.0692
# 5 -20.9939 -6.8607 -13.7988 0.0000 28.9241 0.0000
# 6 0.0000 0.0000 0.0000 -4.0692 0.0000 6.8327
#
#
#
# Elastic Compliance Matrix: (Units=1/GPa)
#
#
# Indices 1 2 3 4 5 6 
#
# 1 0.012774 -0.000156 -0.003961 0.000000 0.007344 0.000000
# 2 -0.000156 0.019575 -0.006053 0.000000 0.001642 0.000000
# 3 -0.003961 -0.006053 0.021620 0.000000 0.006003 0.000000
# 4 0.000000 0.000000 0.000000 0.280537 0.000000 0.167074
# 5 0.007344 0.001642 0.006003 0.000000 0.043157 0.000000
# 6 0.000000 0.000000 0.000000 0.167074 0.000000 0.245856
#
#
# Mechanical properties :
#
#
# Convention : Reuss Voigt Hill
#
# Bulk Modulus (GPa) = 29.73850 37.06218 33.40034
# Shear Modulus (GPa) = 7.63277 18.98080 13.30679
#
# Velocity S-wave (km/s) = 1.97924 3.12115 2.61333
# Velocity P-wave (km/s) = 4.52614 5.65777 5.12330
#
# Compressibility (1/GPa) = 0.03362645
#
# Stress axis : x y z
#
# Youngs Moduli (GPa) = 78.28639 51.08599 46.25279
#
# Poissons Ratio (x) = 0.00799 0.18323
# Poissons Ratio (y) = 0.01224 0.27999
# Poissons Ratio (z) = 0.31013 0.30924
#
# Static dielectric constant tensor:
#      x y z
#    x 1.696830 0.000000 -0.016650 
#    y 0.000000 1.699050 0.000000 
#    z -0.016650 0.000000 1.676820 
# 
# From -- ./inp_files/30631.got.cif
#   From: 2010.05.17/outbox.cif.g08.bks.cpg/sg10_16_cif.got.tgz:30631.got - 2010.06.03 11:33:40.
