data_PCOD9143424
_publ_section_title
;
Structure prediction by ZEFSAII (Michael W. Deem and Ramdas Pophale) SiO2 
 PCOD9143424
Probable space group: P 2/M
;
_chemical_formula_sum "Si O2"
_cell_formula_units_Z 32
_cell_length_a 21.549394
_cell_length_b 7.598664
_cell_length_c 15.934497
_cell_angle_alpha 90.000000
_cell_angle_beta 153.207654
_cell_angle_gamma 90.000000
_cell_volume 1176.127467
_symmetry_space_group_name_H-M "P 2/M"
_symmetry_group_IT_number 10
_symmetry_cell_setting 'monoclinic'
loop_
_space_group_symop_operation_xyz
x,y,z
-x,y,-z
-x,-y,-z
x,-y,z
loop_
_atom_site_type_symbol
_atom_site_label
_atom_site_fract_x
_atom_site_fract_y
_atom_site_fract_z
Si Si1 0.456374 0.787859 0.755590
Si Si2 0.852440 0.283437 0.787498
Si Si3 0.242328 0.210267 0.889693
Si Si4 0.646657 0.293894 0.197819
Si Si5 0.438019 0.703546 0.536676
Si Si6 0.743996 0.793642 0.899929
Si Si7 0.961157 0.703774 0.750687
Si Si8 0.940436 0.288473 0.536151
O O1 0.351344 0.718722 0.698203
O O2 0.441228 0.721936 0.642323
O O3 0.451200 0.000000 0.747416
O O4 0.611798 0.729186 0.971518
O O5 0.848890 0.500000 0.783830
O O6 0.713522 0.218569 0.664875
O O7 0.862050 0.221671 0.702159
O O8 0.000000 0.228284 0.000000
O O9 0.089480 0.257491 0.674550
O O10 0.247784 0.000000 0.897637
O O11 0.252115 0.273748 0.998576
O O12 0.641210 0.500000 0.169322
O O13 0.787756 0.217229 0.331045
O O14 0.500000 0.207492 0.000000
O O15 0.433891 0.500000 0.509038
O O16 0.585210 0.770216 0.681413
O O17 0.771526 0.000000 0.933255
O O18 0.879917 0.708451 0.024607
O O19 0.925052 0.500000 0.697614
O O20 0.959935 0.780410 0.655885
O O21 0.927522 0.500000 0.520376
#
# Coordination Sequence:
#
# PCOD9143424 Si02
#       8
#     4   4   4   4   4   4   4   4
#     4  10  20  34  53  77 103 131 166 206 250 301
#     4   9  18  32  50  74 103 133 169 213 253 293
#     4   8  16  30  48  72  98 124 158 202 248 293
#     4  10  21  36  52  73 103 136 170 208 249 295
#     4  10  18  31  54  79 101 129 166 207 252 298
#     4   9  17  30  48  73 103 129 160 204 250 297
#     4   9  16  29  51  75  97 125 165 208 249 295
#     4   9  17  30  50  75  98 124 162 205 247 292
#
# _framework density 27.207934999999999
#
# number of rings (size 3 to 8) (size 9 to 14) (size 15 to 20)
#    0.000    2.750    0.000    2.625    0.000    6.250 
#    0.000    5.000    0.000   10.875    0.000    0.000 
#    0.000    0.000    0.000    0.000    0.000    0.000 
#
# Total GULP energy -178876.413378 kJ/mol
# GULP energy per Si atom -5589.887918 kJ/mol
# Density = 2.714601 g / cm^3
# Si number density = 27.207935 Si / 1000 Ang^3
#
#
#
# Elastic Constant Matrix: (Units=GPa)
#
#
# Indices 1 2 3 4 5 6 
#
# 1 131.3106 0.6240 47.3065 0.0000 50.1625 0.0000
# 2 0.6240 87.6508 -5.1912 0.0000 6.9541 0.0000
# 3 47.3065 -5.1912 208.4455 0.0000 40.5209 0.0000
# 4 0.0000 0.0000 0.0000 83.4751 0.0000 -0.2334
# 5 50.1625 6.9541 40.5209 0.0000 61.3699 0.0000
# 6 0.0000 0.0000 0.0000 -0.2334 0.0000 1.4821
#
#
#
# Elastic Compliance Matrix: (Units=1/GPa)
#
#
# Indices 1 2 3 4 5 6 
#
# 1 0.011238 0.000559 -0.000847 0.000000 -0.008689 0.000000
# 2 0.000559 0.011610 0.000581 0.000000 -0.002157 0.000000
# 3 -0.000847 0.000581 0.005601 0.000000 -0.003072 0.000000
# 4 0.000000 0.000000 0.000000 0.011985 0.000000 0.001888
# 5 -0.008689 -0.002157 -0.003072 0.000000 0.025670 0.000000
# 6 0.000000 0.000000 0.000000 0.001888 0.000000 0.675037
#
#
# Mechanical properties :
#
#
# Convention : Reuss Voigt Hill
#
# Bulk Modulus (GPa) = 34.43977 56.98728 45.71352
# Shear Modulus (GPa) = 6.66459 54.90991 30.78725
#
# Velocity S-wave (km/s) = 1.56679 4.49726 3.36751
# Velocity P-wave (km/s) = 3.99482 6.92515 5.65315
#
# Compressibility (1/GPa) = 0.02903620
#
# Stress axis : x y z
#
# Youngs Moduli (GPa) = 88.98741 86.12913 178.52933
#
# Poissons Ratio (x) = -0.04816 0.15126
# Poissons Ratio (y) = -0.04976 -0.10381
# Poissons Ratio (z) = 0.07540 -0.05008
#
# Static dielectric constant tensor:
#      x y z
#    x 2.172420 0.000000 -0.081480 
#    y 0.000000 1.956690 0.000000 
#    z -0.081480 0.000000 2.254150 
# 
# From -- ./inp_files/86940.got.cif
#   From: 2010.05.17/outbox.cif.g08.bks.cpg/sg10_44_cif.got.tgz:86940.got - 2010.06.03 11:33:40.
