data_PCOD9143948
_publ_section_title
;
Structure prediction by ZEFSAII (Michael W. Deem and Ramdas Pophale) SiO2 
 PCOD9143948
Probable space group: P 2/M
;
_chemical_formula_sum "Si O2"
_cell_formula_units_Z 28
_cell_length_a 8.710127
_cell_length_b 22.649567
_cell_length_c 14.839344
_cell_angle_alpha 90.000000
_cell_angle_beta 150.013544
_cell_angle_gamma 90.000000
_cell_volume 1463.158027
_symmetry_space_group_name_H-M "P 2/M"
_symmetry_group_IT_number 10
_symmetry_cell_setting 'monoclinic'
loop_
_space_group_symop_operation_xyz
x,y,z
-x,y,-z
-x,-y,-z
x,-y,z
loop_
_atom_site_type_symbol
_atom_site_label
_atom_site_fract_x
_atom_site_fract_y
_atom_site_fract_z
Si Si1 0.863427 0.000000 0.662467
Si Si2 0.637553 0.125040 0.837730
Si Si3 0.261914 0.874960 0.462092
Si Si4 0.239452 0.000000 0.038492
Si Si5 0.307668 0.653977 0.807668
Si Si6 0.765441 0.433391 0.961828
Si Si7 0.689474 0.789998 0.189474
Si Si8 0.854603 0.566609 0.658216
O O1 0.500000 0.000000 0.500000
O O2 0.908512 0.061836 0.635304
O O3 0.056993 0.000000 0.852331
O O4 0.456886 0.123963 0.652295
O O5 0.588889 0.061836 0.862096
O O6 0.506042 0.175975 0.834336
O O7 0.000000 0.132144 0.000000
O O8 0.500000 0.867856 0.500000
O O9 0.009075 0.824025 0.337369
O O10 0.000000 0.000000 0.000000
O O11 0.510066 0.616681 0.840505
O O12 0.258002 0.721822 0.758002
O O13 0.001384 0.616681 0.670945
O O14 0.500000 0.654034 0.000000
O O15 0.635710 0.500000 0.886320
O O16 0.000000 0.423248 0.000000
O O17 0.957025 0.432698 0.152342
O O18 0.500000 0.791946 0.000000
O O19 0.500000 0.576752 0.500000
O O20 0.887538 0.500000 0.636929
#
# Coordination Sequence:
#
# PCOD9143948 Si02
#       8
#     2   4   4   2   4   4   4   4
#     4  10  18  33  58  87 113 142 180 227 283 335
#     4  11  22  39  60  84 113 147 186 231 282 334
#     4  11  22  39  60  84 113 147 186 231 282 334
#     4  10  18  33  58  87 113 142 180 227 283 335
#     4   9  19  35  55  77 106 145 184 222 267 324
#     4   9  17  32  55  82 109 139 177 221 270 323
#     4  11  23  39  56  80 112 149 193 234 277 331
#     4   9  17  32  55  82 109 139 177 221 270 323
#
# _framework density 19.136687999999999
#
# number of rings (size 3 to 8) (size 9 to 14) (size 15 to 20)
#    0.000    2.000    0.000    6.429    0.000    3.429 
#    0.000    9.286    0.000    3.429    0.000    0.000 
#    0.000    0.000    0.000    0.000    0.000    0.000 
#
# Total GULP energy -156362.200828 kJ/mol
# GULP energy per Si atom -5584.364315 kJ/mol
# Density = 1.909313 g / cm^3
# Si number density = 19.136688 Si / 1000 Ang^3
#
#
#
# Elastic Constant Matrix: (Units=GPa)
#
#
# Indices 1 2 3 4 5 6 
#
# 1 107.1057 98.8773 41.7562 0.0000 6.7829 0.0000
# 2 98.8773 223.2345 66.8964 0.0000 23.8688 0.0000
# 3 41.7562 66.8964 100.2474 0.0000 -1.6639 0.0000
# 4 0.0000 0.0000 0.0000 -1.5255 0.0000 -41.8782
# 5 6.7829 23.8688 -1.6639 0.0000 34.4350 0.0000
# 6 0.0000 0.0000 0.0000 -41.8782 0.0000 -57.6356
#
#
#
# Elastic Compliance Matrix: (Units=1/GPa)
#
#
# Indices 1 2 3 4 5 6 
#
# 1 0.016318 -0.006670 -0.002325 0.000000 0.001297 0.000000
# 2 -0.006670 0.008958 -0.003284 0.000000 -0.005054 0.000000
# 3 -0.002325 -0.003284 0.013191 0.000000 0.003371 0.000000
# 4 0.000000 0.000000 0.000000 0.034598 0.000000 -0.025139
# 5 0.001297 -0.005054 0.003371 0.000000 0.032451 0.000000
# 6 0.000000 0.000000 0.000000 -0.025139 0.000000 0.000916
#
#
# Mechanical properties :
#
#
# Convention : Reuss Voigt Hill
#
# Bulk Modulus (GPa) = 71.88577 93.96084 82.92330
# Shear Modulus (GPa) = 36.86617 9.92528 23.39573
#
# Velocity S-wave (km/s) = 4.39391 2.27986 3.50030
# Velocity P-wave (km/s) = 7.96165 7.49245 7.73061
#
# Compressibility (1/GPa) = 0.01391096
#
# Stress axis : x y z
#
# Youngs Moduli (GPa) = 61.28145 111.62822 75.81032
#
# Poissons Ratio (x) = 0.74454 0.17623
# Poissons Ratio (y) = 0.40874 0.24894
# Poissons Ratio (z) = 0.14246 0.36655
#
# Static dielectric constant tensor:
#      x y z
#    x 1.647730 0.000000 0.001040 
#    y 0.000000 1.671350 0.000000 
#    z 0.001040 0.000000 1.646340 
# 
# From -- ./inp_files/62642.got.cif
#   From: 2010.05.17/outbox.cif.g08.bks.cpg/sg10_32_cif.got.tgz:62642.got - 2010.06.03 11:33:40.
