data_PCOD9143383
_publ_section_title
;
Structure prediction by ZEFSAII (Michael W. Deem and Ramdas Pophale) SiO2 
 PCOD9143383
Probable space group: P 2/M
;
_chemical_formula_sum "Si O2"
_cell_formula_units_Z 32
_cell_length_a 22.785658
_cell_length_b 7.861019
_cell_length_c 29.483290
_cell_angle_alpha 90.000000
_cell_angle_beta 161.822220
_cell_angle_gamma 90.000000
_cell_volume 1647.495752
_symmetry_space_group_name_H-M "P 2/M"
_symmetry_group_IT_number 10
_symmetry_cell_setting 'monoclinic'
loop_
_space_group_symop_operation_xyz
x,y,z
-x,y,-z
-x,-y,-z
x,-y,z
loop_
_atom_site_type_symbol
_atom_site_label
_atom_site_fract_x
_atom_site_fract_y
_atom_site_fract_z
Si Si1 0.880757 0.707945 0.055868
Si Si2 0.198157 0.794516 0.664923
Si Si3 0.193143 0.698066 0.357495
Si Si4 0.972278 0.301239 0.929669
Si Si5 0.712410 0.208275 0.167731
Si Si6 0.595163 0.297459 0.920605
Si Si7 0.904455 0.198528 0.219131
Si Si8 0.427515 0.197005 0.398073
O O1 0.886262 0.500000 0.059017
O O2 0.056459 0.762078 0.216620
O O3 0.909249 0.770926 0.025750
O O4 0.693707 0.757631 0.945961
O O5 0.232169 0.735261 0.741412
O O6 0.377798 0.744151 0.766964
O O7 0.000000 0.732946 0.500000
O O8 0.192985 0.000000 0.662229
O O9 0.230313 0.500000 0.376542
O O10 0.392429 0.789493 0.502363
O O11 0.071873 0.716046 0.314070
O O12 0.026267 0.500000 0.972610
O O13 0.755100 0.289121 0.755130
O O14 0.000000 0.224628 0.000000
O O15 0.851824 0.265446 0.230148
O O16 0.713621 0.000000 0.167946
O O17 0.500000 0.261418 0.000000
O O18 0.622084 0.500000 0.944261
O O19 0.716492 0.216393 0.050404
O O20 0.951225 0.000000 0.257025
O O21 0.500000 0.264554 0.500000
O O22 0.374922 0.000000 0.365876
#
# Coordination Sequence:
#
# PCOD9143383 Si02
#       8
#     4   4   4   4   4   4   4   4
#     4   8  16  31  51  76 104 135 170 215 264 317
#     4  10  20  35  54  76 102 136 179 218 259 316
#     4  10  19  33  54  79 110 141 176 222 274 318
#     4  10  20  36  58  81 107 145 186 221 272 331
#     4   9  16  30  52  76 102 133 167 210 264 309
#     4  10  19  32  51  76 106 138 175 216 265 314
#     4  10  18  31  53  78 108 138 173 217 266 317
#     4  11  22  35  54  82 111 141 182 226 270 319
#
# _framework density 19.42342
#
# number of rings (size 3 to 8) (size 9 to 14) (size 15 to 20)
#    0.000    2.250    2.500    2.250    0.000    1.000 
#    0.000    3.750    0.000    3.000    0.000    0.000 
#    0.000    0.000    0.000    0.000    0.000    0.000 
#
# Total GULP energy -178555.990801 kJ/mol
# GULP energy per Si atom -5579.874713 kJ/mol
# Density = 1.937921 g / cm^3
# Si number density = 19.423420 Si / 1000 Ang^3
#
#
#
# Elastic Constant Matrix: (Units=GPa)
#
#
# Indices 1 2 3 4 5 6 
#
# 1 175.2261 1.8592 66.8043 0.0000 4.2417 0.0000
# 2 1.8592 27.0752 -7.3731 0.0000 -4.1931 0.0000
# 3 66.8043 -7.3731 82.3548 0.0000 4.0697 0.0000
# 4 0.0000 0.0000 0.0000 -20.8218 0.0000 -31.7853
# 5 4.2417 -4.1931 4.0697 0.0000 30.2749 0.0000
# 6 0.0000 0.0000 0.0000 -31.7853 0.0000 -25.7876
#
#
#
# Elastic Compliance Matrix: (Units=1/GPa)
#
#
# Indices 1 2 3 4 5 6 
#
# 1 0.008434 -0.002589 -0.007044 0.000000 -0.000593 0.000000
# 2 -0.002589 0.039364 0.005373 0.000000 0.005092 0.000000
# 3 -0.007044 0.005373 0.018374 0.000000 -0.000739 0.000000
# 4 0.000000 0.000000 0.000000 0.054478 0.000000 -0.067148
# 5 -0.000593 0.005092 -0.000739 0.000000 0.033918 0.000000
# 6 0.000000 0.000000 0.000000 -0.067148 0.000000 0.043987
#
#
# Mechanical properties :
#
#
# Convention : Reuss Voigt Hill
#
# Bulk Modulus (GPa) = 17.34577 45.24856 31.29717
# Shear Modulus (GPa) = 22.09516 11.62415 16.85965
#
# Velocity S-wave (km/s) = 3.37642 2.44900 2.94939
# Velocity P-wave (km/s) = 4.91427 5.59850 5.26751
#
# Compressibility (1/GPa) = 0.05765095
#
# Stress axis : x y z
#
# Youngs Moduli (GPa) = 118.56300 25.40412 54.42403
#
# Poissons Ratio (x) = 0.06578 0.38338
# Poissons Ratio (y) = 0.30700 -0.29242
# Poissons Ratio (z) = 0.83519 -0.13649
#
# Static dielectric constant tensor:
#      x y z
#    x 1.712330 0.000000 0.006020 
#    y 0.000000 1.711800 0.000000 
#    z 0.006020 0.000000 1.640450 
# 
# From -- ./inp_files/93737.got.cif
#   From: 2010.05.17/outbox.cif.g08.bks.cpg/sg10_47_cif.got.tgz:93737.got - 2010.06.03 11:33:40.
