data_PCOD9143614
_publ_section_title
;
Structure prediction by ZEFSAII (Michael W. Deem and Ramdas Pophale) SiO2 
 PCOD9143614
Probable space group: P 2/M
;
_chemical_formula_sum "Si O2"
_cell_formula_units_Z 28
_cell_length_a 11.091635
_cell_length_b 14.382642
_cell_length_c 13.661644
_cell_angle_alpha 90.000000
_cell_angle_beta 144.332871
_cell_angle_gamma 90.000000
_cell_volume 1270.754882
_symmetry_space_group_name_H-M "P 2/M"
_symmetry_group_IT_number 10
_symmetry_cell_setting 'monoclinic'
loop_
_space_group_symop_operation_xyz
x,y,z
-x,y,-z
-x,-y,-z
x,-y,z
loop_
_atom_site_type_symbol
_atom_site_label
_atom_site_fract_x
_atom_site_fract_y
_atom_site_fract_z
Si Si1 0.206769 0.225028 0.268122
Si Si2 0.427518 0.753174 0.618577
Si Si3 0.112221 0.894996 0.852665
Si Si4 0.923757 0.610075 0.561677
Si Si5 0.299208 0.700695 0.933226
Si Si6 0.156744 0.105116 0.524581
Si Si7 0.071165 0.394966 0.933733
O O1 0.331961 0.242084 0.250687
O O2 0.338925 0.214439 0.453993
O O3 0.092727 0.321581 0.213160
O O4 0.039593 0.142530 0.161357
O O5 0.357134 0.832180 0.646700
O O6 0.294804 0.662540 0.561208
O O7 0.268653 0.810261 0.935203
O O8 0.969868 0.898105 0.660561
O O9 0.189607 0.000000 0.920479
O O10 0.905914 0.500000 0.572004
O O11 0.105623 0.660310 0.743286
O O12 0.000000 0.618258 0.500000
O O13 0.283915 0.646167 0.027728
O O14 0.500000 0.684419 0.000000
O O15 0.000000 0.146336 0.500000
O O16 0.208625 0.000000 0.587961
O O17 0.054725 0.500000 0.887336
O O18 0.000000 0.398155 0.000000
#
# Coordination Sequence:
#
# PCOD9143614 Si02
#       7
#     4   4   4   4   4   4   4
#     4   9  19  33  53  82 108 142 186 225 284 340
#     4  10  18  32  53  78 112 145 181 226 280 344
#     4   9  18  35  57  81 112 148 188 234 285 343
#     4  11  23  38  58  85 119 155 191 240 297 347
#     4  11  23  40  62  87 117 156 198 246 291 344
#     4   9  16  28  49  76 108 144 180 224 280 334
#     4  10  21  39  59  80 110 149 194 240 286 342
#
# _framework density 22.034147000000001
#
# number of rings (size 3 to 8) (size 9 to 14) (size 15 to 20)
#    0.000    2.143    4.286    0.857    0.000    3.714 
#    0.000    7.143    0.000    6.857    0.000    0.000 
#    0.000    0.000    0.000    0.000    0.000    0.000 
#
# Total GULP energy -155967.905525 kJ/mol
# GULP energy per Si atom -5570.282340 kJ/mol
# Density = 2.198400 g / cm^3
# Si number density = 22.034147 Si / 1000 Ang^3
#
#
#
# Elastic Constant Matrix: (Units=GPa)
#
#
# Indices 1 2 3 4 5 6 
#
# 1 219.4024 69.2980 25.4721 0.0000 29.4163 0.0000
# 2 69.2980 152.2463 8.0474 0.0000 14.4517 0.0000
# 3 25.4721 8.0474 27.5446 0.0000 -0.1112 0.0000
# 4 0.0000 0.0000 0.0000 -0.7271 0.0000 -5.8912
# 5 29.4163 14.4517 -0.1112 0.0000 34.6842 0.0000
# 6 0.0000 0.0000 0.0000 -5.8912 0.0000 24.2631
#
#
#
# Elastic Compliance Matrix: (Units=1/GPa)
#
#
# Indices 1 2 3 4 5 6 
#
# 1 0.006507 -0.002241 -0.005382 0.000000 -0.004603 0.000000
# 2 -0.002241 0.007723 -0.000190 0.000000 -0.001318 0.000000
# 3 -0.005382 -0.000190 0.041356 0.000000 0.004776 0.000000
# 4 0.000000 0.000000 0.000000 -0.463487 0.000000 -0.112537
# 5 -0.004603 -0.001318 0.004776 0.000000 0.033300 0.000000
# 6 0.000000 0.000000 0.000000 -0.112537 0.000000 0.013890
#
#
# Mechanical properties :
#
#
# Convention : Reuss Voigt Hill
#
# Bulk Modulus (GPa) = 25.02329 67.20317 46.11323
# Shear Modulus (GPa) = -15.07092 31.40242 8.16575
#
# Velocity S-wave (km/s) = -2.61814 3.77924 1.92717
# Velocity P-wave (km/s) = 1.49724 7.04339 5.09171
#
# Compressibility (1/GPa) = 0.03996276
#
# Stress axis : x y z
#
# Youngs Moduli (GPa) = 153.66985 129.47763 24.18014
#
# Poissons Ratio (x) = 0.29011 0.13013
# Poissons Ratio (y) = 0.34432 0.00459
# Poissons Ratio (z) = 0.82702 0.02457
#
# Static dielectric constant tensor:
#      x y z
#    x 1.913370 0.000000 -0.018970 
#    y 0.000000 1.786760 0.000000 
#    z -0.018970 0.000000 1.933530 
# 
# From -- ./inp_files/61904.got.cif
#   From: 2010.05.17/outbox.cif.g08.bks.cpg/sg10_31_cif.got.tgz:61904.got - 2010.06.03 11:33:40.
