data_PCOD9143092
_publ_section_title
;
Structure prediction by ZEFSAII (Michael W. Deem and Ramdas Pophale) SiO2 
 PCOD9143092
Probable space group: P 2/M
;
_chemical_formula_sum "Si O2"
_cell_formula_units_Z 32
_cell_length_a 16.336062
_cell_length_b 9.133665
_cell_length_c 21.823847
_cell_angle_alpha 90.000000
_cell_angle_beta 25.905326
_cell_angle_gamma 90.000000
_cell_volume 1422.627821
_symmetry_space_group_name_H-M "P 2/M"
_symmetry_group_IT_number 10
_symmetry_cell_setting 'monoclinic'
loop_
_space_group_symop_operation_xyz
x,y,z
-x,y,-z
-x,-y,-z
x,-y,z
loop_
_atom_site_type_symbol
_atom_site_label
_atom_site_fract_x
_atom_site_fract_y
_atom_site_fract_z
Si Si1 0.381423 0.667928 0.768071
Si Si2 0.643607 0.333646 0.714461
Si Si3 0.712404 0.176964 0.350799
Si Si4 0.291119 0.171905 0.513200
Si Si5 0.265607 0.327102 0.028113
Si Si6 0.711134 0.674022 0.848800
Si Si7 0.067474 0.175118 0.048768
Si Si8 0.035677 0.828690 0.565056
O O1 0.342521 0.500000 0.779750
O O2 0.511115 0.671839 0.742680
O O3 0.516768 0.742632 0.628006
O O4 0.192311 0.752876 0.912110
O O5 0.711454 0.500000 0.675590
O O6 0.490446 0.302069 0.869819
O O7 0.821684 0.232036 0.582217
O O8 0.500000 0.230256 0.500000
O O9 0.793362 0.209866 0.363977
O O10 0.854602 0.228906 0.202910
O O11 0.704817 0.000000 0.348734
O O12 0.153287 0.193260 0.549195
O O13 0.339021 0.000000 0.482613
O O14 0.235962 0.500000 0.031760
O O15 0.206189 0.306336 0.138145
O O16 0.168212 0.222951 0.044488
O O17 0.701275 0.500000 0.843325
O O18 0.842798 0.746489 0.709467
O O19 0.500000 0.730982 0.000000
O O20 0.070593 0.000000 0.039527
O O21 0.003221 0.000000 0.577780
#
# Coordination Sequence:
#
# PCOD9143092 Si02
#       8
#     4   4   4   4   4   4   4   4
#     4   9  17  30  49  74 102 129 160 201 247 293
#     4   8  15  29  49  72  96 123 157 197 240 288
#     4   9  18  32  49  71 100 132 167 207 247 290
#     4   9  17  31  52  76  99 126 165 207 245 291
#     4   9  18  33  53  76 100 127 162 203 245 289
#     4  10  21  36  52  71  98 133 169 201 237 288
#     4  10  18  30  52  78 100 126 162 203 247 293
#     4  10  19  31  50  76 101 125 158 203 250 291
#
# _framework density 22.493586000000001
#
# number of rings (size 3 to 8) (size 9 to 14) (size 15 to 20)
#    0.000    2.750    0.000    2.625    0.000    5.250 
#    0.000    2.500    0.000   10.875    0.000    0.000 
#    0.000    0.000    0.000    0.000    0.000    0.000 
#
# Total GULP energy -178710.831225 kJ/mol
# GULP energy per Si atom -5584.713476 kJ/mol
# Density = 2.244239 g / cm^3
# Si number density = 22.493586 Si / 1000 Ang^3
#
#
#
# Elastic Constant Matrix: (Units=GPa)
#
#
# Indices 1 2 3 4 5 6 
#
# 1 49.5330 9.4315 15.9866 0.0000 7.8044 0.0000
# 2 9.4315 47.7034 76.4736 0.0000 -1.1917 0.0000
# 3 15.9866 76.4736 189.3907 0.0000 13.6353 0.0000
# 4 0.0000 0.0000 0.0000 97.4011 0.0000 -30.3829
# 5 7.8044 -1.1917 13.6353 0.0000 39.3850 0.0000
# 6 0.0000 0.0000 0.0000 -30.3829 0.0000 23.5211
#
#
#
# Elastic Compliance Matrix: (Units=1/GPa)
#
#
# Indices 1 2 3 4 5 6 
#
# 1 0.021769 -0.005752 0.000829 0.000000 -0.004775 0.000000
# 2 -0.005752 0.065392 -0.026812 0.000000 0.012401 0.000000
# 3 0.000829 -0.026812 0.016518 0.000000 -0.006694 0.000000
# 4 0.000000 0.000000 0.000000 0.017196 0.000000 0.022212
# 5 -0.004775 0.012401 -0.006694 0.000000 0.029029 0.000000
# 6 0.000000 0.000000 0.000000 0.022212 0.000000 0.071207
#
#
# Mechanical properties :
#
#
# Convention : Reuss Voigt Hill
#
# Bulk Modulus (GPa) = 24.86983 54.49005 39.67994
# Shear Modulus (GPa) = 16.77949 44.37712 30.57830
#
# Velocity S-wave (km/s) = 2.73420 4.44653 3.69104
# Velocity P-wave (km/s) = 4.58784 7.11614 5.98697
#
# Compressibility (1/GPa) = 0.04020937
#
# Stress axis : x y z
#
# Youngs Moduli (GPa) = 45.93785 15.29243 60.53883
#
# Poissons Ratio (x) = 0.08796 -0.05017
# Poissons Ratio (y) = 0.26422 1.62315
# Poissons Ratio (z) = -0.03807 0.41002
#
# Static dielectric constant tensor:
#      x y z
#    x 1.918050 0.000000 -0.020570 
#    y 0.000000 1.752310 0.000000 
#    z -0.020570 0.000000 1.826820 
# 
# From -- ./inp_files/86939.got.cif
#   From: 2010.05.17/outbox.cif.g08.bks.cpg/sg10_44_cif.got.tgz:86939.got - 2010.06.03 11:33:40.
