data_PCOD9143425
_publ_section_title
;
Structure prediction by ZEFSAII (Michael W. Deem and Ramdas Pophale) SiO2 
 PCOD9143425
Probable space group: P 2/M
;
_chemical_formula_sum "Si O2"
_cell_formula_units_Z 32
_cell_length_a 30.034910
_cell_length_b 7.782390
_cell_length_c 20.995884
_cell_angle_alpha 90.000000
_cell_angle_beta 160.308667
_cell_angle_gamma 90.000000
_cell_volume 1653.646257
_symmetry_space_group_name_H-M "P 2/M"
_symmetry_group_IT_number 10
_symmetry_cell_setting 'monoclinic'
loop_
_space_group_symop_operation_xyz
x,y,z
-x,y,-z
-x,-y,-z
x,-y,z
loop_
_atom_site_type_symbol
_atom_site_label
_atom_site_fract_x
_atom_site_fract_y
_atom_site_fract_z
Si Si1 0.900952 0.798363 0.029516
Si Si2 0.342111 0.702325 0.044893
Si Si3 0.805316 0.698884 0.539514
Si Si4 0.146027 0.209742 0.174157
Si Si5 0.817250 0.292530 0.050944
Si Si6 0.358637 0.801063 0.561526
Si Si7 0.146001 0.710232 0.672169
Si Si8 0.883599 0.709522 0.509658
O O1 0.811278 0.773547 0.970845
O O2 0.041625 0.709265 0.232186
O O3 0.932259 0.000000 0.064876
O O4 0.838988 0.740113 0.879379
O O5 0.310220 0.500000 0.003808
O O6 0.497161 0.720482 0.243907
O O7 0.290289 0.770212 0.043098
O O8 0.255943 0.772273 0.869994
O O9 0.764989 0.500000 0.483641
O O10 0.714607 0.787798 0.469446
O O11 0.806385 0.769017 0.468719
O O12 0.258734 0.273134 0.373826
O O13 0.147962 0.000000 0.180407
O O14 0.000000 0.263680 0.000000
O O15 0.813597 0.500000 0.041703
O O16 0.962289 0.244165 0.273344
O O17 0.379526 0.000000 0.574198
O O18 0.148682 0.500000 0.674387
O O19 0.164469 0.767498 0.624137
O O20 0.000000 0.758188 0.500000
O O21 0.879268 0.500000 0.505123
#
# Coordination Sequence:
#
# PCOD9143425 Si02
#       8
#     4   4   4   4   4   4   4   4
#     4  10  18  31  54  79 102 131 172 217 257 301
#     4  10  20  34  54  79 108 138 172 216 260 304
#     4  10  19  32  51  78 109 134 166 212 263 311
#     4   9  17  33  54  75  98 130 178 220 249 297
#     4   9  17  31  50  76 109 137 165 209 261 306
#     4  11  22  37  55  73 102 141 176 213 259 313
#     4   9  14  26  52  81 103 131 174 215 250 293
#     4   8  14  26  48  78 104 129 166 212 251 293
#
# _framework density 19.351175000000001
#
# number of rings (size 3 to 8) (size 9 to 14) (size 15 to 20)
#    0.000    2.500    2.500    1.875    0.000    0.500 
#    0.000    4.375    0.000   11.625    0.000    0.000 
#    0.000    0.000    0.000    0.000    0.000    0.000 
#
# Total GULP energy -178465.617423 kJ/mol
# GULP energy per Si atom -5577.050544 kJ/mol
# Density = 1.930713 g / cm^3
# Si number density = 19.351175 Si / 1000 Ang^3
#
#
#
# Elastic Constant Matrix: (Units=GPa)
#
#
# Indices 1 2 3 4 5 6 
#
# 1 181.7449 -3.6542 77.5922 0.0000 -19.7018 0.0000
# 2 -3.6542 24.6473 -4.0297 0.0000 -5.0238 0.0000
# 3 77.5922 -4.0297 102.8143 0.0000 -12.2636 0.0000
# 4 0.0000 0.0000 0.0000 -0.3400 0.0000 -9.7094
# 5 -19.7018 -5.0238 -12.2636 0.0000 25.0609 0.0000
# 6 0.0000 0.0000 0.0000 -9.7094 0.0000 15.1184
#
#
#
# Elastic Compliance Matrix: (Units=1/GPa)
#
#
# Indices 1 2 3 4 5 6 
#
# 1 0.008463 0.001112 -0.005865 0.000000 0.004006 0.000000
# 2 0.001112 0.043240 0.002117 0.000000 0.010578 0.000000
# 3 -0.005865 0.002117 0.014588 0.000000 0.002952 0.000000
# 4 0.000000 0.000000 0.000000 -0.152079 0.000000 -0.097668
# 5 0.004006 0.010578 0.002952 0.000000 0.046617 0.000000
# 6 0.000000 0.000000 0.000000 -0.097668 0.000000 0.003420
#
#
# Mechanical properties :
#
#
# Convention : Reuss Voigt Hill
#
# Bulk Modulus (GPa) = 16.38853 49.89145 33.13999
# Shear Modulus (GPa) = -493.09390 23.92108 -234.58641
#
# Velocity S-wave (km/s) = -15.98019 3.51972 -11.02221
# Velocity P-wave (km/s) = 18.22091 6.50815 12.03423
#
# Compressibility (1/GPa) = 0.06101829
#
# Stress axis : x y z
#
# Youngs Moduli (GPa) = 118.16182 23.12697 68.54993
#
# Poissons Ratio (x) = -0.02572 0.40208
# Poissons Ratio (y) = -0.13143 -0.14513
# Poissons Ratio (z) = 0.69307 -0.04896
#
# Static dielectric constant tensor:
#      x y z
#    x 1.695430 0.000000 -0.028380 
#    y 0.000000 1.714110 0.000000 
#    z -0.028380 0.000000 1.637000 
# 
# From -- ./inp_files/87212.got.cif
#   From: 2010.05.17/outbox.cif.g08.bks.cpg/sg10_44_cif.got.tgz:87212.got - 2010.06.03 11:33:40.
