data_PCOD9143639
_publ_section_title
;
Structure prediction by ZEFSAII (Michael W. Deem and Ramdas Pophale) SiO2 
 PCOD9143639
Probable space group: P 2/M
;
_chemical_formula_sum "Si O2"
_cell_formula_units_Z 24
_cell_length_a 15.527823
_cell_length_b 10.027897
_cell_length_c 16.940738
_cell_angle_alpha 90.000000
_cell_angle_beta 29.635263
_cell_angle_gamma 90.000000
_cell_volume 1304.363921
_symmetry_space_group_name_H-M "P 2/M"
_symmetry_group_IT_number 10
_symmetry_cell_setting 'monoclinic'
loop_
_space_group_symop_operation_xyz
x,y,z
-x,y,-z
-x,-y,-z
x,-y,z
loop_
_atom_site_type_symbol
_atom_site_label
_atom_site_fract_x
_atom_site_fract_y
_atom_site_fract_z
Si Si1 0.579298 0.843409 0.520523
Si Si2 0.801993 0.213096 0.567943
Si Si3 0.738340 0.655561 0.941541
Si Si4 0.433271 0.854414 0.801887
Si Si5 0.203946 0.154247 0.247856
Si Si6 0.847829 0.644607 0.379881
O O1 0.500000 0.802458 0.500000
O O2 0.440133 0.830393 0.702744
O O3 0.744508 0.757417 0.415582
O O4 0.625498 0.000000 0.479118
O O5 0.635341 0.137914 0.666866
O O6 0.772459 0.220689 0.684929
O O7 0.811133 0.340291 0.503140
O O8 0.993447 0.149776 0.404132
O O9 0.685012 0.500000 0.973656
O O10 0.715470 0.750046 0.882749
O O11 0.945201 0.655241 0.793746
O O12 0.646063 0.732971 0.086253
O O13 0.351755 0.000000 0.884165
O O14 0.266496 0.000000 0.197245
O O15 0.787908 0.500000 0.400451
#
# Coordination Sequence:
#
# PCOD9143639 Si02
#       6
#     4   4   4   4   4   4
#     4   9  19  36  59  85 106 125 159 209 258 306
#     4   9  18  31  52  78 101 128 172 221 257 294
#     4  10  22  36  48  70 106 142 174 209 250 297
#     4  10  19  33  53  75 101 132 167 206 254 308
#     4  10  18  32  54  76 100 133 176 218 259 303
#     4   9  19  35  54  75 102 138 175 208 249 302
#
# _framework density 18.399773
#
# number of rings (size 3 to 8) (size 9 to 14) (size 15 to 20)
#    0.000    2.500    0.000    2.500    0.000    9.667 
#    0.000    6.667    0.000    5.000    0.000    0.000 
#    0.000    0.000    0.000    0.000    0.000    0.000 
#
# Total GULP energy -133646.108093 kJ/mol
# GULP energy per Si atom -5568.587837 kJ/mol
# Density = 1.835789 g / cm^3
# Si number density = 18.399773 Si / 1000 Ang^3
#
#
#
# Elastic Constant Matrix: (Units=GPa)
#
#
# Indices 1 2 3 4 5 6 
#
# 1 91.0671 40.5243 32.3962 0.0000 27.6758 0.0000
# 2 40.5243 87.7403 47.2169 0.0000 10.6189 0.0000
# 3 32.3962 47.2169 63.8010 0.0000 20.2266 0.0000
# 4 0.0000 0.0000 0.0000 17.4620 0.0000 -6.2575
# 5 27.6758 10.6189 20.2266 0.0000 23.0250 0.0000
# 6 0.0000 0.0000 0.0000 -6.2575 0.0000 18.9418
#
#
#
# Elastic Compliance Matrix: (Units=1/GPa)
#
#
# Indices 1 2 3 4 5 6 
#
# 1 0.020939 -0.008555 0.003365 0.000000 -0.024179 0.000000
# 2 -0.008555 0.022854 -0.017308 0.000000 0.014948 0.000000
# 3 0.003365 -0.017308 0.035379 0.000000 -0.027141 0.000000
# 4 0.000000 0.000000 0.000000 0.064957 0.000000 0.021459
# 5 -0.024179 0.014948 -0.027141 0.000000 0.089442 0.000000
# 6 0.000000 0.000000 0.000000 0.021459 0.000000 0.059882
#
#
# Mechanical properties :
#
#
# Convention : Reuss Voigt Hill
#
# Bulk Modulus (GPa) = 29.26219 53.65367 41.45793
# Shear Modulus (GPa) = 14.29218 20.05050 17.17134
#
# Velocity S-wave (km/s) = 2.79006 3.30466 3.05821
# Velocity P-wave (km/s) = 5.13004 6.61697 5.92038
#
# Compressibility (1/GPa) = 0.03417379
#
# Stress axis : x y z
#
# Youngs Moduli (GPa) = 47.75746 43.75620 28.26554
#
# Poissons Ratio (x) = 0.37436 -0.09510
# Poissons Ratio (y) = 0.40859 0.48922
# Poissons Ratio (z) = -0.16068 0.75734
#
# Static dielectric constant tensor:
#      x y z
#    x 1.628220 0.000000 0.004710 
#    y 0.000000 1.649520 0.000000 
#    z 0.004710 0.000000 1.651330 
# 
# From -- ./inp_files/66337.got.cif
#   From: 2010.05.17/outbox.cif.g08.bks.cpg/sg10_34_cif.got.tgz:66337.got - 2010.06.03 11:33:40.
