data_PCOD9143338
_publ_section_title
;
Structure prediction by ZEFSAII (Michael W. Deem and Ramdas Pophale) SiO2 
 PCOD9143338
Probable space group: P 2/M
;
_chemical_formula_sum "Si O2"
_cell_formula_units_Z 30
_cell_length_a 18.064773
_cell_length_b 7.495387
_cell_length_c 12.843882
_cell_angle_alpha 90.000000
_cell_angle_beta 114.382590
_cell_angle_gamma 90.000000
_cell_volume 1583.982063
_symmetry_space_group_name_H-M "P 2/M"
_symmetry_group_IT_number 10
_symmetry_cell_setting 'monoclinic'
loop_
_space_group_symop_operation_xyz
x,y,z
-x,y,-z
-x,-y,-z
x,-y,z
loop_
_atom_site_type_symbol
_atom_site_label
_atom_site_fract_x
_atom_site_fract_y
_atom_site_fract_z
Si Si1 0.996881 0.500000 0.328706
Si Si2 0.867776 0.788692 0.244096
Si Si3 0.284155 0.292504 0.511059
Si Si4 0.313473 0.217086 0.927395
Si Si5 0.113303 0.198830 0.497769
Si Si6 0.410926 0.289867 0.419379
Si Si7 0.584591 0.784335 0.818020
Si Si8 0.597332 0.783466 0.229573
O O1 0.937594 0.657869 0.246367
O O2 0.053227 0.345151 0.418188
O O3 0.779508 0.735304 0.149044
O O4 0.867157 0.763541 0.369602
O O5 0.880293 0.000000 0.231171
O O6 0.265391 0.500000 0.479663
O O7 0.198568 0.203634 0.486262
O O8 0.337979 0.216846 0.447578
O O9 0.341367 0.278576 0.645502
O O10 0.369993 0.274688 0.863787
O O11 0.315732 0.000000 0.928415
O O12 0.351163 0.277113 0.058388
O O13 0.078006 0.000000 0.469909
O O14 0.500000 0.214565 0.500000
O O15 0.414107 0.500000 0.448177
O O16 0.397282 0.271148 0.289071
O O17 0.493945 0.724692 0.797477
O O18 0.583865 0.000000 0.818976
O O19 0.598030 0.000000 0.231244
#
# Coordination Sequence:
#
# PCOD9143338 Si02
#       8
#     2   4   4   4   4   4   4   4
#     4  12  23  36  56  84 115 147 185 228 278 353
#     4  10  20  34  54  80 116 153 182 224 285 341
#     4  11  21  34  54  77 109 152 189 231 284 331
#     4   9  18  34  52  77 114 151 186 228 278 332
#     4  11  21  35  55  82 114 148 186 229 280 342
#     4  10  21  37  53  73 109 150 188 235 284 321
#     4  10  20  33  54  80 107 147 198 239 271 320
#     4  10  18  31  52  77 110 150 191 229 273 329
#
# _framework density 18.939608
#
# number of rings (size 3 to 8) (size 9 to 14) (size 15 to 20)
#    0.000    1.733    3.333    2.400    0.000    4.000 
#    1.200    0.000    0.000    1.600    0.000    1.867 
#    0.000    4.267    0.000    0.000    0.000    0.267 
#
# Total GULP energy -167073.602709 kJ/mol
# GULP energy per Si atom -5569.120090 kJ/mol
# Density = 1.889650 g / cm^3
# Si number density = 18.939608 Si / 1000 Ang^3
#
#
#
# Elastic Constant Matrix: (Units=GPa)
#
#
# Indices 1 2 3 4 5 6 
#
# 1 71.6058 17.4769 47.8102 0.0000 12.1325 0.0000
# 2 17.4769 67.3757 -0.8766 0.0000 7.5722 0.0000
# 3 47.8102 -0.8766 88.0323 0.0000 -5.9777 0.0000
# 4 0.0000 0.0000 0.0000 135.7685 0.0000 33.6393
# 5 12.1325 7.5722 -5.9777 0.0000 21.9503 0.0000
# 6 0.0000 0.0000 0.0000 33.6393 0.0000 26.8000
#
#
#
# Elastic Compliance Matrix: (Units=1/GPa)
#
#
# Indices 1 2 3 4 5 6 
#
# 1 0.031042 -0.006036 -0.018281 0.000000 -0.020054 0.000000
# 2 -0.006036 0.016618 0.003343 0.000000 -0.001486 0.000000
# 3 -0.018281 0.003343 0.022342 0.000000 0.015036 0.000000
# 4 0.000000 0.000000 0.000000 0.010690 0.000000 -0.013418
# 5 -0.020054 -0.001486 0.015036 0.000000 0.061249 0.000000
# 6 0.000000 0.000000 0.000000 -0.013418 0.000000 0.054156
#
#
# Mechanical properties :
#
#
# Convention : Reuss Voigt Hill
#
# Bulk Modulus (GPa) = 35.64522 39.53718 37.59120
# Shear Modulus (GPa) = 20.21035 47.74399 33.97717
#
# Velocity S-wave (km/s) = 3.27018 5.02626 4.24013
# Velocity P-wave (km/s) = 5.75501 7.38952 6.62288
#
# Compressibility (1/GPa) = 0.02805425
#
# Stress axis : x y z
#
# Youngs Moduli (GPa) = 32.21402 60.17414 44.75870
#
# Poissons Ratio (x) = 0.36323 0.81823
# Poissons Ratio (y) = 0.19445 -0.14962
# Poissons Ratio (z) = 0.58890 -0.20115
#
# Static dielectric constant tensor:
#      x y z
#    x 1.669790 0.000000 0.000830 
#    y 0.000000 1.721040 0.000000 
#    z 0.000830 0.000000 1.616250 
# 
# From -- ./inp_files/53083.got.cif
#   From: 2010.05.17/outbox.cif.g08.bks.cpg/sg10_27_cif.got.tgz:53083.got - 2010.06.03 11:33:40.
