data_PCOD9143381
_publ_section_title
;
Structure prediction by ZEFSAII (Michael W. Deem and Ramdas Pophale) SiO2 
 PCOD9143381
Probable space group: P 2/M
;
_chemical_formula_sum "Si O2"
_cell_formula_units_Z 32
_cell_length_a 14.663208
_cell_length_b 7.377655
_cell_length_c 20.598545
_cell_angle_alpha 90.000000
_cell_angle_beta 40.416825
_cell_angle_gamma 90.000000
_cell_volume 1444.737826
_symmetry_space_group_name_H-M "P 2/M"
_symmetry_group_IT_number 10
_symmetry_cell_setting 'monoclinic'
loop_
_space_group_symop_operation_xyz
x,y,z
-x,y,-z
-x,-y,-z
x,-y,z
loop_
_atom_site_type_symbol
_atom_site_label
_atom_site_fract_x
_atom_site_fract_y
_atom_site_fract_z
Si Si1 0.383717 0.291607 0.216637
Si Si2 0.604017 0.278713 0.298713
Si Si3 0.851769 0.212654 0.555150
Si Si4 0.661872 0.280145 0.898332
Si Si5 0.287930 0.282310 0.501261
Si Si6 0.807362 0.278456 0.305009
Si Si7 0.125335 0.721360 0.104914
Si Si8 0.324322 0.721763 0.884212
O O1 0.416989 0.500000 0.182403
O O2 0.277978 0.289980 0.333878
O O3 0.312934 0.218713 0.189419
O O4 0.533152 0.213767 0.157208
O O5 0.602055 0.500000 0.299298
O O6 0.442950 0.218353 0.395905
O O7 0.699985 0.222340 0.306970
O O8 0.666156 0.220898 0.195675
O O9 0.823111 0.238416 0.494795
O O10 0.000000 0.287103 0.500000
O O11 0.850068 0.000000 0.570359
O O12 0.671059 0.500000 0.896970
O O13 0.771178 0.216785 0.893277
O O14 0.500000 0.230854 0.000000
O O15 0.295991 0.500000 0.500301
O O16 0.242672 0.217987 0.596788
O O17 0.806805 0.500000 0.306024
O O18 0.965984 0.220767 0.203324
O O19 0.124834 0.500000 0.105706
O O20 0.192700 0.776153 0.999609
O O21 0.326268 0.500000 0.882279
#
# Coordination Sequence:
#
# PCOD9143381 Si02
#       8
#     4   4   4   4   4   4   4   4
#     4  10  18  31  53  78 100 131 175 214 249 300
#     4   9  16  28  46  71 102 137 173 212 259 301
#     4  11  25  40  52  73 106 137 163 205 266 313
#     4   9  15  24  42  70 104 135 164 207 255 295
#     4  10  19  34  56  78 101 133 176 216 250 302
#     4   9  18  28  43  72 108 140 168 210 264 306
#     4   9  16  25  37  67 110 141 167 203 256 309
#     4   9  15  25  44  71 103 136 169 206 250 301
#
# _framework density 22.149346000000001
#
# number of rings (size 3 to 8) (size 9 to 14) (size 15 to 20)
#    0.000    2.500    2.500    0.750    1.750    3.000 
#    0.000    2.500    0.000    1.875    0.000    0.875 
#    0.000    1.000    0.000    0.000    0.000    0.000 
#
# Total GULP energy -178752.835415 kJ/mol
# GULP energy per Si atom -5586.026107 kJ/mol
# Density = 2.209893 g / cm^3
# Si number density = 22.149346 Si / 1000 Ang^3
#
#
#
# Elastic Constant Matrix: (Units=GPa)
#
#
# Indices 1 2 3 4 5 6 
#
# 1 180.2186 -2.7460 82.9225 0.0000 13.8440 0.0000
# 2 -2.7460 74.3312 -3.2496 0.0000 -1.3034 0.0000
# 3 82.9225 -3.2496 124.6163 0.0000 22.4870 0.0000
# 4 0.0000 0.0000 0.0000 35.1329 0.0000 -41.0552
# 5 13.8440 -1.3034 22.4870 0.0000 38.5368 0.0000
# 6 0.0000 0.0000 0.0000 -41.0552 0.0000 -11.9510
#
#
#
# Elastic Compliance Matrix: (Units=1/GPa)
#
#
# Indices 1 2 3 4 5 6 
#
# 1 0.008000 0.000065 -0.005369 0.000000 0.000261 0.000000
# 2 0.000065 0.013472 0.000257 0.000000 0.000282 0.000000
# 3 -0.005369 0.000257 0.012579 0.000000 -0.005403 0.000000
# 4 0.000000 0.000000 0.000000 0.005676 0.000000 -0.019500
# 5 0.000261 0.000282 -0.005403 0.000000 0.029018 0.000000
# 6 0.000000 0.000000 0.000000 -0.019500 0.000000 -0.016687
#
#
# Mechanical properties :
#
#
# Convention : Reuss Voigt Hill
#
# Bulk Modulus (GPa) = 41.74044 59.22442 50.48243
# Shear Modulus (GPa) = 71.28953 32.49304 51.89129
#
# Velocity S-wave (km/s) = 5.67941 3.83430 4.84549
# Velocity P-wave (km/s) = 7.86724 6.81169 7.35842
#
# Compressibility (1/GPa) = 0.02395758
#
# Stress axis : x y z
#
# Youngs Moduli (GPa) = 124.99886 74.22859 79.49908
#
# Poissons Ratio (x) = -0.00486 0.42682
# Poissons Ratio (y) = -0.00818 -0.02042
# Poissons Ratio (z) = 0.67110 -0.01907
#
# Static dielectric constant tensor:
#      x y z
#    x 1.779990 0.000000 0.014120 
#    y 0.000000 1.862900 0.000000 
#    z 0.014120 0.000000 1.771590 
# 
# From -- ./inp_files/84735.got.cif
#   From: 2010.05.17/outbox.cif.g08.bks.cpg/sg10_43_cif.got.tgz:84735.got - 2010.06.03 11:33:40.
