data_PCOD9143823
_publ_section_title
;
Structure prediction by ZEFSAII (Michael W. Deem and Ramdas Pophale) SiO2 
 PCOD9143823
Probable space group: P 2/M
;
_chemical_formula_sum "Si O2"
_cell_formula_units_Z 28
_cell_length_a 15.819709
_cell_length_b 13.678119
_cell_length_c 12.263393
_cell_angle_alpha 90.000000
_cell_angle_beta 38.022512
_cell_angle_gamma 90.000000
_cell_volume 1634.540973
_symmetry_space_group_name_H-M "P 2/M"
_symmetry_group_IT_number 10
_symmetry_cell_setting 'monoclinic'
loop_
_space_group_symop_operation_xyz
x,y,z
-x,y,-z
-x,-y,-z
x,-y,z
loop_
_atom_site_type_symbol
_atom_site_label
_atom_site_fract_x
_atom_site_fract_y
_atom_site_fract_z
Si Si1 0.967189 0.290330 0.777048
Si Si2 0.638820 0.760370 0.300554
Si Si3 0.239809 0.386850 0.442074
Si Si4 0.902453 0.114839 0.992952
Si Si5 0.205626 0.612234 0.219275
Si Si6 0.551873 0.613078 0.198026
Si Si7 0.851072 0.612360 0.102369
O O1 0.900550 0.312849 0.727729
O O2 0.124442 0.322020 0.615754
O O3 0.952228 0.183154 0.843106
O O4 0.878243 0.359998 0.948563
O O5 0.500000 0.791120 0.500000
O O6 0.746933 0.847195 0.171152
O O7 0.594076 0.696609 0.240661
O O8 0.732447 0.680848 0.269592
O O9 0.203738 0.500000 0.501456
O O10 0.230127 0.371730 0.321787
O O11 0.394698 0.371779 0.323406
O O12 0.906275 0.000000 0.966038
O O13 0.000000 0.132625 0.000000
O O14 0.153618 0.500000 0.258402
O O15 0.348049 0.619339 0.008056
O O16 0.565308 0.500000 0.226838
O O17 0.817249 0.500000 0.151900
O O18 0.000000 0.632494 0.000000
#
# Coordination Sequence:
#
# PCOD9143823 Si02
#       7
#     4   4   4   4   4   4   4
#     4  11  19  33  55  78 102 137 182 224 269 311
#     4  11  22  34  55  81 107 137 177 222 274 330
#     4  10  21  31  50  82 117 151 185 215 245 302
#     4  10  23  43  63  79 100 132 175 233 289 335
#     4  10  18  33  52  77 113 153 188 215 249 300
#     4  10  20  33  49  77 117 155 179 208 253 311
#     4  10  20  32  47  71 108 148 178 209 255 316
#
# _framework density 17.130192000000001
#
# number of rings (size 3 to 8) (size 9 to 14) (size 15 to 20)
#    0.000    1.714    2.857    4.286    4.000    4.286 
#    0.000    0.000    0.000    1.714    0.000    1.000 
#    0.000    0.000    0.000    0.000    0.000    0.000 
#
# Total GULP energy -156230.258003 kJ/mol
# GULP energy per Si atom -5579.652072 kJ/mol
# Density = 1.709120 g / cm^3
# Si number density = 17.130192 Si / 1000 Ang^3
#
#
#
# Elastic Constant Matrix: (Units=GPa)
#
#
# Indices 1 2 3 4 5 6 
#
# 1 93.5200 49.1302 35.1134 0.0000 -15.0926 0.0000
# 2 49.1302 105.0190 45.5493 0.0000 -9.0101 0.0000
# 3 35.1134 45.5493 98.6524 0.0000 -21.8661 0.0000
# 4 0.0000 0.0000 0.0000 11.6442 0.0000 8.7173
# 5 -15.0926 -9.0101 -21.8661 0.0000 27.2088 0.0000
# 6 0.0000 0.0000 0.0000 8.7173 0.0000 34.6432
#
#
#
# Elastic Compliance Matrix: (Units=1/GPa)
#
#
# Indices 1 2 3 4 5 6 
#
# 1 0.015280 -0.006057 -0.001470 0.000000 0.005289 0.000000
# 2 -0.006057 0.014315 -0.005046 0.000000 -0.002675 0.000000
# 3 -0.001470 -0.005046 0.015134 0.000000 0.009676 0.000000
# 4 0.000000 0.000000 0.000000 0.105813 0.000000 -0.026626
# 5 0.005289 -0.002675 0.009676 0.000000 0.046577 0.000000
# 6 0.000000 0.000000 0.000000 -0.026626 0.000000 0.035566
#
#
# Mechanical properties :
#
#
# Convention : Reuss Voigt Hill
#
# Bulk Modulus (GPa) = 51.06454 61.86414 56.46434
# Shear Modulus (GPa) = 18.91359 25.85914 22.38637
#
# Velocity S-wave (km/s) = 3.32642 3.88953 3.61894
# Velocity P-wave (km/s) = 6.68040 7.50758 7.10604
#
# Compressibility (1/GPa) = 0.01958306
#
# Stress axis : x y z
#
# Youngs Moduli (GPa) = 65.44302 69.85644 66.07430
#
# Poissons Ratio (x) = 0.42314 0.09711
# Poissons Ratio (y) = 0.39641 0.33344
# Poissons Ratio (z) = 0.09618 0.35253
#
# Static dielectric constant tensor:
#      x y z
#    x 1.643290 0.000000 0.004100 
#    y 0.000000 1.555520 0.000000 
#    z 0.004100 0.000000 1.600310 
# 
# From -- ./inp_files/29199.got.cif
#   From: 2010.05.17/outbox.cif.g08.bks.cpg/sg10_15_cif.got.tgz:29199.got - 2010.06.03 11:33:40.
