data_PCOD9143741
_publ_section_title
;
Structure prediction by ZEFSAII (Michael W. Deem and Ramdas Pophale) SiO2 
 PCOD9143741
Probable space group: P 2/M
;
_chemical_formula_sum "Si O2"
_cell_formula_units_Z 32
_cell_length_a 12.507871
_cell_length_b 8.700024
_cell_length_c 20.709385
_cell_angle_alpha 90.000000
_cell_angle_beta 52.317602
_cell_angle_gamma 90.000000
_cell_volume 1783.500882
_symmetry_space_group_name_H-M "P 2/M"
_symmetry_group_IT_number 10
_symmetry_cell_setting 'monoclinic'
loop_
_space_group_symop_operation_xyz
x,y,z
-x,y,-z
-x,-y,-z
x,-y,z
loop_
_atom_site_type_symbol
_atom_site_label
_atom_site_fract_x
_atom_site_fract_y
_atom_site_fract_z
Si Si1 0.462194 0.815038 0.111008
Si Si2 0.732141 0.683779 0.299815
Si Si3 0.977552 0.183001 0.809427
Si Si4 0.726348 0.682994 0.453289
Si Si5 0.702149 0.683069 0.950201
Si Si6 0.453397 0.815993 0.369126
Si Si7 0.983584 0.184919 0.654147
Si Si8 0.299615 0.813107 0.298065
O O1 0.366586 0.751171 0.089363
O O2 0.398182 0.769114 0.202882
O O3 0.463755 0.000000 0.106083
O O4 0.610592 0.749998 0.041618
O O5 0.740561 0.500000 0.292492
O O6 0.711288 0.725058 0.383383
O O7 0.602619 0.746038 0.310267
O O8 0.874321 0.757005 0.226942
O O9 0.856416 0.262821 0.892330
O O10 0.959901 0.217285 0.739098
O O11 0.969005 0.000000 0.820150
O O12 0.712040 0.500000 0.464086
O O13 0.617648 0.762853 0.538815
O O14 0.877069 0.735592 0.416989
O O15 0.692311 0.500000 0.952787
O O16 0.360195 0.763170 0.343786
O O17 0.462471 0.000000 0.364328
O O18 0.852550 0.236564 0.662632
O O19 0.998838 0.000000 0.642118
O O20 0.295564 0.000000 0.299916
#
# Coordination Sequence:
#
# PCOD9143741 Si02
#       8
#     4   4   4   4   4   4   4   4
#     4  10  18  33  53  75 105 143 179 213 252 305
#     4  10  21  37  55  77 106 136 171 222 271 308
#     4  10  18  32  56  81 104 137 177 215 258 311
#     4  10  21  36  53  76 105 135 170 219 270 312
#     4  11  20  30  48  81 115 139 168 211 262 309
#     4  11  22  36  55  77 101 137 181 219 260 311
#     4   9  17  33  54  76 102 135 174 214 258 308
#     4   9  19  35  54  76 105 139 177 219 256 304
#
# _framework density 17.942240000000002
#
# number of rings (size 3 to 8) (size 9 to 14) (size 15 to 20)
#    0.000    2.000    1.250    4.125    0.000    4.000 
#    0.000    6.250    0.000    0.750    0.000    5.250 
#    0.000    0.000    0.000    0.000    0.000    0.000 
#
# Total GULP energy -178665.763942 kJ/mol
# GULP energy per Si atom -5583.305123 kJ/mol
# Density = 1.790140 g / cm^3
# Si number density = 17.942240 Si / 1000 Ang^3
#
#
#
# Elastic Constant Matrix: (Units=GPa)
#
#
# Indices 1 2 3 4 5 6 
#
# 1 85.7790 15.1160 11.0856 0.0000 -26.2356 0.0000
# 2 15.1160 49.9892 14.8872 0.0000 -10.3566 0.0000
# 3 11.0856 14.8872 41.1629 0.0000 -24.4595 0.0000
# 4 0.0000 0.0000 0.0000 14.3299 0.0000 -1.6801
# 5 -26.2356 -10.3566 -24.4595 0.0000 26.1267 0.0000
# 6 0.0000 0.0000 0.0000 -1.6801 0.0000 -9.3731
#
#
#
# Elastic Compliance Matrix: (Units=1/GPa)
#
#
# Indices 1 2 3 4 5 6 
#
# 1 0.020900 -0.004022 0.016564 0.000000 0.034900 0.000000
# 2 -0.004022 0.023292 -0.009589 0.000000 -0.003783 0.000000
# 3 0.016564 -0.009589 0.069699 0.000000 0.078083 0.000000
# 4 0.000000 0.000000 0.000000 0.068348 0.000000 -0.012251
# 5 0.034900 -0.003783 0.078083 0.000000 0.144922 0.000000
# 6 0.000000 0.000000 0.000000 -0.012251 0.000000 -0.104492
#
#
# Mechanical properties :
#
#
# Convention : Reuss Voigt Hill
#
# Bulk Modulus (GPa) = 8.34738 28.78985 18.56861
# Shear Modulus (GPa) = 19.47835 15.27286 17.37561
#
# Velocity S-wave (km/s) = 3.29844 2.92074 3.11532
# Velocity P-wave (km/s) = 4.37821 5.23975 4.82824
#
# Compressibility (1/GPa) = 0.11979805
#
# Stress axis : x y z
#
# Youngs Moduli (GPa) = 47.84632 42.93230 14.34744
#
# Poissons Ratio (x) = 0.17269 -0.23765
# Poissons Ratio (y) = 0.19246 0.13757
# Poissons Ratio (z) = -0.79253 0.41166
#
# Static dielectric constant tensor:
#      x y z
#    x 1.613750 0.000000 -0.008370 
#    y 0.000000 1.599310 0.000000 
#    z -0.008370 0.000000 1.607760 
# 
# From -- ./inp_files/55398.got.cif
#   From: 2010.05.17/outbox.cif.g08.bks.cpg/sg10_28_cif.got.tgz:55398.got - 2010.06.03 11:33:40.
