data_PCOD9143451
_publ_section_title
;
Structure prediction by ZEFSAII (Michael W. Deem and Ramdas Pophale) SiO2 
 PCOD9143451
Probable space group: P 2/M
;
_chemical_formula_sum "Si O2"
_cell_formula_units_Z 24
_cell_length_a 13.495886
_cell_length_b 7.769401
_cell_length_c 11.660402
_cell_angle_alpha 90.000000
_cell_angle_beta 48.198691
_cell_angle_gamma 90.000000
_cell_volume 911.438262
_symmetry_space_group_name_H-M "P 2/M"
_symmetry_group_IT_number 10
_symmetry_cell_setting 'monoclinic'
loop_
_space_group_symop_operation_xyz
x,y,z
-x,y,-z
-x,-y,-z
x,-y,z
loop_
_atom_site_type_symbol
_atom_site_label
_atom_site_fract_x
_atom_site_fract_y
_atom_site_fract_z
Si Si1 0.276276 0.710676 0.998764
Si Si2 0.861091 0.196074 0.573308
Si Si3 0.014815 0.292186 0.747801
Si Si4 0.619405 0.800196 0.497144
Si Si5 0.162036 0.699193 0.846444
Si Si6 0.434495 0.304265 0.205914
O O1 0.284997 0.500000 0.991695
O O2 0.241839 0.771930 0.894853
O O3 0.419579 0.776286 0.932329
O O4 0.137267 0.754132 0.168457
O O5 0.712725 0.250634 0.719915
O O6 0.000000 0.289616 0.500000
O O7 0.881563 0.210395 0.419820
O O8 0.869570 0.000000 0.603721
O O9 0.026506 0.500000 0.734545
O O10 0.036414 0.237379 0.864618
O O11 0.500000 0.800816 0.500000
O O12 0.733510 0.705988 0.338875
O O13 0.576460 0.712008 0.647930
O O14 0.652430 0.000000 0.496402
O O15 0.138670 0.500000 0.894920
O O16 0.443667 0.500000 0.162579
#
# Coordination Sequence:
#
# PCOD9143451 Si02
#       6
#     4   4   4   4   4   4
#     4   9  19  34  55  88 125 154 187 228 277 335
#     4  11  25  44  63  83 110 145 188 242 298 349
#     4  10  20  36  60  88 117 153 192 234 280 332
#     4  11  21  31  48  79 121 159 194 234 275 326
#     4  10  18  31  54  83 118 158 194 226 269 331
#     4  11  21  36  60  86 113 149 192 239 286 337
#
# _framework density 26.332007999999998
#
# number of rings (size 3 to 8) (size 9 to 14) (size 15 to 20)
#    0.000    1.667    3.333    2.000    0.000    4.000 
#    0.000    3.333    0.000    7.000    0.000    0.000 
#    0.000    0.000    0.000    0.000    0.000    0.000 
#
# Total GULP energy -133974.836683 kJ/mol
# GULP energy per Si atom -5582.284862 kJ/mol
# Density = 2.627207 g / cm^3
# Si number density = 26.332008 Si / 1000 Ang^3
#
#
#
# Elastic Constant Matrix: (Units=GPa)
#
#
# Indices 1 2 3 4 5 6 
#
# 1 156.4812 24.3863 53.7624 0.0000 -51.2186 0.0000
# 2 24.3863 62.2848 15.6043 0.0000 -9.8192 0.0000
# 3 53.7624 15.6043 119.3573 0.0000 -41.1224 0.0000
# 4 0.0000 0.0000 0.0000 -12.8454 0.0000 -8.2795
# 5 -51.2186 -9.8192 -41.1224 0.0000 72.5733 0.0000
# 6 0.0000 0.0000 0.0000 -8.2795 0.0000 24.4308
#
#
#
# Elastic Compliance Matrix: (Units=1/GPa)
#
#
# Indices 1 2 3 4 5 6 
#
# 1 0.009069 -0.002251 -0.002100 0.000000 0.004905 0.000000
# 2 -0.002251 0.017251 -0.001223 0.000000 0.000052 0.000000
# 3 -0.002100 -0.001223 0.011079 0.000000 0.004630 0.000000
# 4 0.000000 0.000000 0.000000 -0.063892 0.000000 -0.021653
# 5 0.004905 0.000052 0.004630 0.000000 0.019872 0.000000
# 6 0.000000 0.000000 0.000000 -0.021653 0.000000 0.033594
#
#
# Mechanical properties :
#
#
# Convention : Reuss Voigt Hill
#
# Bulk Modulus (GPa) = 38.09581 58.40326 48.24954
# Shear Modulus (GPa) = 106.67279 33.12311 69.89795
#
# Velocity S-wave (km/s) = 6.37171 3.55054 5.15776
# Velocity P-wave (km/s) = 8.28435 6.24789 7.33712
#
# Compressibility (1/GPa) = 0.02624960
#
# Stress axis : x y z
#
# Youngs Moduli (GPa) = 110.27034 57.96638 90.25716
#
# Poissons Ratio (x) = 0.13049 0.18958
# Poissons Ratio (y) = 0.24822 0.11042
# Poissons Ratio (z) = 0.23161 0.07092
#
# Static dielectric constant tensor:
#      x y z
#    x 2.296790 0.000000 -0.081720 
#    y 0.000000 2.004060 0.000000 
#    z -0.081720 0.000000 2.159430 
# 
# From -- ./inp_files/66313.got.cif
#   From: 2010.05.17/outbox.cif.g08.bks.cpg/sg10_34_cif.got.tgz:66313.got - 2010.06.03 11:33:40.
