data_PCOD9143082
_publ_section_title
;
Structure prediction by ZEFSAII (Michael W. Deem and Ramdas Pophale) SiO2 
 PCOD9143082
Probable space group: P 2/M
;
_chemical_formula_sum "Si O2"
_cell_formula_units_Z 14
_cell_length_a 6.731096
_cell_length_b 11.697001
_cell_length_c 7.697783
_cell_angle_alpha 90.000000
_cell_angle_beta 123.277868
_cell_angle_gamma 90.000000
_cell_volume 506.689982
_symmetry_space_group_name_H-M "P 2/M"
_symmetry_group_IT_number 10
_symmetry_cell_setting 'monoclinic'
loop_
_space_group_symop_operation_xyz
x,y,z
-x,y,-z
-x,-y,-z
x,-y,z
loop_
_atom_site_type_symbol
_atom_site_label
_atom_site_fract_x
_atom_site_fract_y
_atom_site_fract_z
Si Si1 0.250443 0.375689 0.218027
Si Si2 0.751560 0.121714 0.280609
Si Si3 0.240328 0.373458 0.733386
Si Si4 0.500000 0.183189 0.500000
O O1 0.250457 0.500000 0.307034
O O2 0.499256 0.374879 0.232447
O O3 0.280802 0.267941 0.356350
O O4 0.000000 0.366935 0.000000
O O5 0.749939 0.244177 0.182550
O O6 0.560439 0.123379 0.347656
O O7 0.000000 0.118899 0.500000
O O8 0.736008 0.000000 0.175414
O O9 0.232883 0.500000 0.819202
O O10 0.000000 0.374020 0.500000
#
# Coordination Sequence:
#
# PCOD9143082 Si02
#       4
#     4   4   4   2
#     4   9  17  29  48  76 106 134 168 211 257 305
#     4   9  17  29  48  74 101 132 171 211 253 304
#     4   8  14  26  46  70  95 126 163 202 246 295
#     4  10  18  30  52  74  97 136 175 208 253 308
#
# _framework density 27.630306000000001
#
# number of rings (size 3 to 8) (size 9 to 14) (size 15 to 20)
#    0.000    3.143    0.000    0.857    0.000    1.143 
#    0.000    0.000    0.000   48.857    0.000  118.000 
#    0.000    0.000    0.000    0.000    0.000    0.000 
#
# Total GULP energy -78074.948507 kJ/mol
# GULP energy per Si atom -5576.782036 kJ/mol
# Density = 2.756742 g / cm^3
# Si number density = 27.630306 Si / 1000 Ang^3
#
#
#
# Elastic Constant Matrix: (Units=GPa)
#
#
# Indices 1 2 3 4 5 6 
#
# 1 168.4731 19.6322 15.1888 0.0000 41.9080 0.0000
# 2 19.6322 301.2069 27.7282 0.0000 -6.8572 0.0000
# 3 15.1888 27.7282 188.4615 0.0000 50.4153 0.0000
# 4 0.0000 0.0000 0.0000 61.2863 0.0000 21.5369
# 5 41.9080 -6.8572 50.4153 0.0000 40.3976 0.0000
# 6 0.0000 0.0000 0.0000 21.5369 0.0000 23.6207
#
#
#
# Elastic Compliance Matrix: (Units=1/GPa)
#
#
# Indices 1 2 3 4 5 6 
#
# 1 0.009159 -0.001185 0.003050 0.000000 -0.013509 0.000000
# 2 -0.001185 0.003607 -0.001393 0.000000 0.003580 0.000000
# 3 0.003050 -0.001393 0.009270 0.000000 -0.014969 0.000000
# 4 0.000000 0.000000 0.000000 0.024010 0.000000 -0.021892
# 5 -0.013509 0.003580 -0.014969 0.000000 0.058057 0.000000
# 6 0.000000 0.000000 0.000000 -0.021892 0.000000 0.062296
#
#
# Mechanical properties :
#
#
# Convention : Reuss Voigt Hill
#
# Bulk Modulus (GPa) = 43.51680 87.02667 65.27174
# Shear Modulus (GPa) = 28.88249 64.76707 46.82478
#
# Velocity S-wave (km/s) = 3.23665 4.84680 4.12113
# Velocity P-wave (km/s) = 5.45451 7.93014 6.80584
#
# Compressibility (1/GPa) = 0.02297963
#
# Stress axis : x y z
#
# Youngs Moduli (GPa) = 109.17844 277.24112 107.88017
#
# Poissons Ratio (x) = 0.32862 -0.32905
# Poissons Ratio (y) = 0.12941 0.15027
# Poissons Ratio (z) = -0.33301 0.38617
#
# Static dielectric constant tensor:
#      x y z
#    x 2.257980 0.000000 -0.118270 
#    y 0.000000 2.159000 0.000000 
#    z -0.118270 0.000000 2.152170 
# 
# From -- ./inp_files/14050.got.cif
#   From: 2010.05.17/outbox.cif.g08.bks.cpg/sg10_8_cif.got.tgz:14050.got - 2010.06.03 11:33:40.
