data_PCOD9143212
_publ_section_title
;
Structure prediction by ZEFSAII (Michael W. Deem and Ramdas Pophale) SiO2 
 PCOD9143212
Probable space group: P 2/M
;
_chemical_formula_sum "Si O2"
_cell_formula_units_Z 32
_cell_length_a 12.703594
_cell_length_b 8.996004
_cell_length_c 34.285151
_cell_angle_alpha 90.000000
_cell_angle_beta 149.408829
_cell_angle_gamma 90.000000
_cell_volume 1993.986667
_symmetry_space_group_name_H-M "P 2/M"
_symmetry_group_IT_number 10
_symmetry_cell_setting 'monoclinic'
loop_
_space_group_symop_operation_xyz
x,y,z
-x,y,-z
-x,-y,-z
x,-y,z
loop_
_atom_site_type_symbol
_atom_site_label
_atom_site_fract_x
_atom_site_fract_y
_atom_site_fract_z
Si Si1 0.649692 0.322383 0.084573
Si Si2 0.056288 0.176970 0.092459
Si Si3 0.446680 0.678079 0.175480
Si Si4 0.502780 0.677152 0.342243
Si Si5 0.127034 0.171310 0.499617
Si Si6 0.930276 0.177562 0.810574
Si Si7 0.585640 0.822047 0.918114
Si Si8 0.752782 0.322596 0.342364
O O1 0.664297 0.500000 0.093656
O O2 0.548627 0.249940 0.090415
O O3 0.872292 0.253346 0.146147
O O4 0.500000 0.290682 0.000000
O O5 0.232684 0.266417 0.126342
O O6 0.063409 0.209374 0.140897
O O7 0.092995 0.000000 0.098836
O O8 0.827715 0.211187 0.003702
O O9 0.442615 0.500000 0.170103
O O10 0.472630 0.755184 0.142189
O O11 0.629313 0.717718 0.264026
O O12 0.479087 0.500000 0.337564
O O13 0.665673 0.736640 0.425986
O O14 0.283310 0.757620 0.273952
O O15 0.605078 0.710901 0.332443
O O16 0.000000 0.176368 0.500000
O O17 0.969365 0.240693 0.418238
O O18 0.174125 0.000000 0.506068
O O19 0.939125 0.000000 0.808568
O O20 0.562107 0.000000 0.910985
O O21 0.787858 0.500000 0.354045
#
# Coordination Sequence:
#
# PCOD9143212 Si02
#       8
#     4   4   4   4   4   4   4   4
#     4  11  23  38  57  78 101 132 175 223 269 314
#     4  10  21  35  52  74 104 140 176 215 262 314
#     4  11  22  35  52  77 107 140 179 219 260 309
#     4  10  18  31  49  73 105 138 173 212 259 310
#     4   9  17  28  45  71 101 135 172 209 253 308
#     4  11  21  34  54  78 105 138 176 217 263 312
#     4  11  23  39  55  74 102 139 180 220 266 313
#     4   9  18  31  47  70 103 140 172 208 257 309
#
# _framework density 16.048252000000002
#
# number of rings (size 3 to 8) (size 9 to 14) (size 15 to 20)
#    0.000    1.750    2.500    2.625    0.000    6.500 
#    0.000    0.000    0.000    0.000    0.000    0.875 
#    0.000    7.000    0.000    0.000    0.000    0.000 
#
# Total GULP energy -178682.706688 kJ/mol
# GULP energy per Si atom -5583.834584 kJ/mol
# Density = 1.601173 g / cm^3
# Si number density = 16.048252 Si / 1000 Ang^3
#
#
#
# Elastic Constant Matrix: (Units=GPa)
#
#
# Indices 1 2 3 4 5 6 
#
# 1 95.8107 59.9484 75.9347 0.0000 -7.8397 0.0000
# 2 59.9484 71.5466 74.3024 0.0000 0.5617 0.0000
# 3 75.9347 74.3024 146.0648 0.0000 6.7127 0.0000
# 4 0.0000 0.0000 0.0000 33.1384 0.0000 6.4317
# 5 -7.8397 0.5617 6.7127 0.0000 13.7153 0.0000
# 6 0.0000 0.0000 0.0000 6.4317 0.0000 34.1655
#
#
#
# Elastic Compliance Matrix: (Units=1/GPa)
#
#
# Indices 1 2 3 4 5 6 
#
# 1 0.027800 -0.015862 -0.007308 0.000000 0.020117 0.000000
# 2 -0.015862 0.039223 -0.011474 0.000000 -0.005057 0.000000
# 3 -0.007308 -0.011474 0.017036 0.000000 -0.012045 0.000000
# 4 0.000000 0.000000 0.000000 0.031321 0.000000 -0.005896
# 5 0.020117 -0.005057 -0.012045 0.000000 0.090513 0.000000
# 6 0.000000 0.000000 0.000000 -0.005896 0.000000 0.030379
#
#
# Mechanical properties :
#
#
# Convention : Reuss Voigt Hill
#
# Bulk Modulus (GPa) = 67.69988 81.53256 74.61622
# Shear Modulus (GPa) = 16.10390 23.08627 19.59509
#
# Velocity S-wave (km/s) = 3.17119 3.79694 3.49809
# Velocity P-wave (km/s) = 7.46226 8.37480 7.93167
#
# Compressibility (1/GPa) = 0.01477108
#
# Stress axis : x y z
#
# Youngs Moduli (GPa) = 35.97131 25.49521 58.69930
#
# Poissons Ratio (x) = 0.40440 0.42898
# Poissons Ratio (y) = 0.57056 0.67352
# Poissons Ratio (z) = 0.26288 0.29254
#
# Static dielectric constant tensor:
#      x y z
#    x 1.502400 0.000000 -0.006110 
#    y 0.000000 1.531800 0.000000 
#    z -0.006110 0.000000 1.529270 
# 
# From -- ./inp_files/55264.got.cif
#   From: 2010.05.17/outbox.cif.g08.bks.cpg/sg10_28_cif.got.tgz:55264.got - 2010.06.03 11:33:40.
