data_PCOD9143841
_publ_section_title
;
Structure prediction by ZEFSAII (Michael W. Deem and Ramdas Pophale) SiO2 
 PCOD9143841
Probable space group: P 2/M
;
_chemical_formula_sum "Si O2"
_cell_formula_units_Z 32
_cell_length_a 15.783030
_cell_length_b 12.773535
_cell_length_c 17.142174
_cell_angle_alpha 90.000000
_cell_angle_beta 152.143935
_cell_angle_gamma 90.000000
_cell_volume 1614.799286
_symmetry_space_group_name_H-M "P 2/M"
_symmetry_group_IT_number 10
_symmetry_cell_setting 'monoclinic'
loop_
_space_group_symop_operation_xyz
x,y,z
-x,y,-z
-x,-y,-z
x,-y,z
loop_
_atom_site_type_symbol
_atom_site_label
_atom_site_fract_x
_atom_site_fract_y
_atom_site_fract_z
Si Si1 0.062697 0.120037 0.924426
Si Si2 0.819032 0.308988 0.774785
Si Si3 0.581864 0.765157 0.811786
Si Si4 0.276933 0.123502 0.649236
Si Si5 0.793975 0.613755 0.921676
Si Si6 0.999623 0.787395 0.295610
Si Si7 0.713175 0.627310 0.524785
Si Si8 0.716722 0.877511 0.169725
O O1 0.276189 0.150688 0.109770
O O2 0.033696 0.000000 0.920361
O O3 0.019481 0.144025 0.798352
O O4 0.919486 0.196641 0.850746
O O5 0.744497 0.329556 0.799906
O O6 0.696072 0.336538 0.601259
O O7 0.990149 0.386489 0.903591
O O8 0.465837 0.819274 0.783469
O O9 0.730145 0.674692 0.946420
O O10 0.436873 0.696044 0.644096
O O11 0.215176 0.144218 0.687020
O O12 0.135679 0.159228 0.468785
O O13 0.307137 0.000000 0.667729
O O14 0.715013 0.500000 0.855307
O O15 0.808247 0.798008 0.183999
O O16 0.095694 0.677819 0.350159
O O17 0.705990 0.500000 0.511423
O O18 0.760090 0.000000 0.184666
O O19 0.500000 0.870327 0.000000
#
# Coordination Sequence:
#
# PCOD9143841 Si02
#       8
#     4   4   4   4   4   4   4   4
#     4  10  19  34  53  76 109 142 175 215 263 318
#     4   9  19  33  53  80 102 134 175 217 265 315
#     4  10  21  32  48  75 103 138 175 212 260 312
#     4  10  19  32  50  74 106 139 174 215 260 313
#     4  10  18  33  54  76 103 133 177 228 267 304
#     4  10  20  33  55  80 104 136 176 215 261 315
#     4  10  20  36  55  77 107 139 176 220 265 309
#     4  10  19  31  51  79 109 140 173 213 261 310
#
# _framework density 19.816703
#
# number of rings (size 3 to 8) (size 9 to 14) (size 15 to 20)
#    0.000    2.125    0.000    4.500    0.000    2.500 
#    0.000    8.125    0.000    7.125    0.000   18.375 
#    0.000    0.000    0.000    0.000    0.000    0.000 
#
# Total GULP energy -178180.901248 kJ/mol
# GULP energy per Si atom -5568.153164 kJ/mol
# Density = 1.977160 g / cm^3
# Si number density = 19.816703 Si / 1000 Ang^3
#
#
#
# Elastic Constant Matrix: (Units=GPa)
#
#
# Indices 1 2 3 4 5 6 
#
# 1 42.1902 28.4884 1.9322 0.0000 2.0018 0.0000
# 2 28.4884 136.0298 14.3908 0.0000 3.6919 0.0000
# 3 1.9322 14.3908 72.3358 0.0000 -0.9971 0.0000
# 4 0.0000 0.0000 0.0000 7.0228 0.0000 -9.2774
# 5 2.0018 3.6919 -0.9971 0.0000 36.7807 0.0000
# 6 0.0000 0.0000 0.0000 -9.2774 0.0000 9.2478
#
#
#
# Elastic Compliance Matrix: (Units=1/GPa)
#
#
# Indices 1 2 3 4 5 6 
#
# 1 0.027649 -0.005809 0.000404 0.000000 -0.000911 0.000000
# 2 -0.005809 0.008753 -0.001595 0.000000 -0.000606 0.000000
# 3 0.000404 -0.001595 0.014138 0.000000 0.000521 0.000000
# 4 0.000000 0.000000 0.000000 -0.437760 0.000000 -0.439163
# 5 -0.000911 -0.000606 0.000521 0.000000 0.027313 0.000000
# 6 0.000000 0.000000 0.000000 -0.439163 0.000000 -0.332437
#
#
# Mechanical properties :
#
#
# Convention : Reuss Voigt Hill
#
# Bulk Modulus (GPa) = 27.36524 37.79764 32.58144
# Shear Modulus (GPa) = -7.50564 24.32654 8.41045
#
# Velocity S-wave (km/s) = -1.94827 3.50748 2.06236
# Velocity P-wave (km/s) = 2.96280 5.95972 4.70619
#
# Compressibility (1/GPa) = 0.03654271
#
# Stress axis : x y z
#
# Youngs Moduli (GPa) = 36.16767 114.24748 70.73130
#
# Poissons Ratio (x) = 0.66361 -0.02861
# Poissons Ratio (y) = 0.21008 0.11278
# Poissons Ratio (z) = -0.01463 0.18217
#
# Static dielectric constant tensor:
#      x y z
#    x 1.706370 0.000000 0.003740 
#    y 0.000000 1.711010 0.000000 
#    z 0.003740 0.000000 1.836050 
# 
# From -- ./inp_files/78205.got.cif
#   From: 2010.05.17/outbox.cif.g08.bks.cpg/sg10_40_cif.got.tgz:78205.got - 2010.06.03 11:33:40.
