data_PCOD9143511
_publ_section_title
;
Structure prediction by ZEFSAII (Michael W. Deem and Ramdas Pophale) SiO2 
 PCOD9143511
Probable space group: P 2/M
;
_chemical_formula_sum "Si O2"
_cell_formula_units_Z 32
_cell_length_a 11.597635
_cell_length_b 7.437779
_cell_length_c 29.954434
_cell_angle_alpha 90.000000
_cell_angle_beta 150.365149
_cell_angle_gamma 90.000000
_cell_volume 1277.657210
_symmetry_space_group_name_H-M "P 2/M"
_symmetry_group_IT_number 10
_symmetry_cell_setting 'monoclinic'
loop_
_space_group_symop_operation_xyz
x,y,z
-x,y,-z
-x,-y,-z
x,-y,z
loop_
_atom_site_type_symbol
_atom_site_label
_atom_site_fract_x
_atom_site_fract_y
_atom_site_fract_z
Si Si1 0.761799 0.283728 0.397515
Si Si2 0.721423 0.218015 0.043762
Si Si3 0.494775 0.787298 0.221296
Si Si4 0.726931 0.783596 0.549093
Si Si5 0.958917 0.794744 0.207973
Si Si6 0.207614 0.778775 0.757218
Si Si7 0.014562 0.219522 0.952743
Si Si8 0.464897 0.708510 0.375688
O O1 0.766303 0.500000 0.402613
O O2 0.698851 0.240237 0.325835
O O3 0.551216 0.216981 0.357797
O O4 0.000000 0.216679 0.500000
O O5 0.929410 0.272568 0.147889
O O6 0.788722 0.280775 0.016528
O O7 0.703630 0.000000 0.033244
O O8 0.500000 0.273658 0.000000
O O9 0.580022 0.717944 0.202037
O O10 0.241613 0.723770 0.151440
O O11 0.468201 0.000000 0.206875
O O12 0.500000 0.719756 0.500000
O O13 0.676494 0.727002 0.481575
O O14 0.968136 0.723893 0.651861
O O15 0.727632 0.000000 0.550307
O O16 0.809218 0.713327 0.197697
O O17 0.228036 0.795923 0.312929
O O18 0.878466 0.000000 0.178065
O O19 0.210235 0.000000 0.759146
O O20 0.033729 0.000000 0.959928
O O21 0.000000 0.274193 0.000000
O O22 0.406995 0.500000 0.351833
#
# Coordination Sequence:
#
# PCOD9143511 Si02
#       8
#     4   4   4   4   4   4   4   4
#     4  10  22  39  55  74 106 145 181 223 278 327
#     4   9  18  30  50  79 105 137 178 215 264 329
#     4  10  20  34  55  81 108 140 185 226 268 323
#     4  10  18  32  50  72 104 141 179 216 265 318
#     4  10  19  34  54  76 108 141 175 218 267 319
#     4   9  18  31  50  77 105 140 177 219 266 313
#     4   9  18  31  49  78 114 143 172 223 281 324
#     4  11  22  34  52  77 104 137 180 222 267 318
#
# _framework density 25.045843000000001
#
# number of rings (size 3 to 8) (size 9 to 14) (size 15 to 20)
#    0.000    2.250    1.250    1.875    1.750    2.500 
#    0.000    0.625    0.000    0.750    0.000    0.000 
#    0.000    0.000    0.000    0.000    0.000    0.000 
#
# Total GULP energy -178704.948892 kJ/mol
# GULP energy per Si atom -5584.529653 kJ/mol
# Density = 2.498884 g / cm^3
# Si number density = 25.045843 Si / 1000 Ang^3
#
#
#
# Elastic Constant Matrix: (Units=GPa)
#
#
# Indices 1 2 3 4 5 6 
#
# 1 212.2104 5.4895 46.6862 0.0000 -8.4444 0.0000
# 2 5.4895 76.4079 -4.9230 0.0000 4.3298 0.0000
# 3 46.6862 -4.9230 80.9244 0.0000 -3.2745 0.0000
# 4 0.0000 0.0000 0.0000 -219.9592 0.0000 -14.1675
# 5 -8.4444 4.3298 -3.2745 0.0000 42.1521 0.0000
# 6 0.0000 0.0000 0.0000 -14.1675 0.0000 2.9582
#
#
#
# Elastic Compliance Matrix: (Units=1/GPa)
#
#
# Indices 1 2 3 4 5 6 
#
# 1 0.005459 -0.000647 -0.003152 0.000000 0.000915 0.000000
# 2 -0.000647 0.013286 0.001125 0.000000 -0.001407 0.000000
# 3 -0.003152 0.001125 0.014258 0.000000 0.000361 0.000000
# 4 0.000000 0.000000 0.000000 -0.003475 0.000000 -0.016640
# 5 0.000915 -0.001407 0.000361 0.000000 0.024080 0.000000
# 6 0.000000 0.000000 0.000000 -0.016640 0.000000 0.258346
#
#
# Mechanical properties :
#
#
# Convention : Reuss Voigt Hill
#
# Bulk Modulus (GPa) = 36.15917 51.56089 43.86003
# Shear Modulus (GPa) = 15.31292 -13.48377 0.91457
#
# Velocity S-wave (km/s) = 2.47532 -2.32278 0.60494
# Velocity P-wave (km/s) = 4.75796 3.66572 4.24710
#
# Compressibility (1/GPa) = 0.02765550
#
# Stress axis : x y z
#
# Youngs Moduli (GPa) = 183.19005 75.26527 70.13401
#
# Poissons Ratio (x) = 0.04870 0.22103
# Poissons Ratio (y) = 0.11854 -0.07888
# Poissons Ratio (z) = 0.57734 -0.08465
#
# Static dielectric constant tensor:
#      x y z
#    x 1.991410 0.000000 -0.004590 
#    y 0.000000 1.952220 0.000000 
#    z -0.004590 0.000000 1.988760 
# 
# From -- ./inp_files/95039.got.cif
#   From: 2010.05.17/outbox.cif.g08.bks.cpg/sg10_48_cif.got.tgz:95039.got - 2010.06.03 11:33:40.
