data_PCOD9143460
_publ_section_title
;
Structure prediction by ZEFSAII (Michael W. Deem and Ramdas Pophale) SiO2 
 PCOD9143460
Probable space group: P 2/M
;
_chemical_formula_sum "Si O2"
_cell_formula_units_Z 28
_cell_length_a 13.672380
_cell_length_b 7.577210
_cell_length_c 20.369630
_cell_angle_alpha 90.000000
_cell_angle_beta 143.783853
_cell_angle_gamma 90.000000
_cell_volume 1246.813147
_symmetry_space_group_name_H-M "P 2/M"
_symmetry_group_IT_number 10
_symmetry_cell_setting 'monoclinic'
loop_
_space_group_symop_operation_xyz
x,y,z
-x,y,-z
-x,-y,-z
x,-y,z
loop_
_atom_site_type_symbol
_atom_site_label
_atom_site_fract_x
_atom_site_fract_y
_atom_site_fract_z
Si Si1 0.504041 0.213862 0.701445
Si Si2 0.617582 0.293922 0.619810
Si Si3 0.563650 0.215707 0.106059
Si Si4 0.985444 0.294808 0.820419
Si Si5 0.133341 0.784799 0.518112
Si Si6 0.066751 0.213430 0.714634
Si Si7 0.694759 0.791868 0.926633
O O1 0.531586 0.282707 0.643511
O O2 0.323643 0.266587 0.631391
O O3 0.647781 0.275087 0.829066
O O4 0.505328 0.000000 0.697036
O O5 0.500000 0.215402 0.500000
O O6 0.642290 0.500000 0.615176
O O7 0.801683 0.214824 0.724793
O O8 0.754110 0.268506 0.215895
O O9 0.437512 0.281220 0.092630
O O10 0.560876 0.000000 0.105936
O O11 0.500000 0.269090 0.000000
O O12 0.973844 0.500000 0.830357
O O13 0.043817 0.274862 0.776657
O O14 0.123280 0.225229 0.945002
O O15 0.000000 0.725057 0.500000
O O16 0.072143 0.730258 0.412468
O O17 0.130049 0.000000 0.518163
O O18 0.065205 0.000000 0.716311
O O19 0.661361 0.000000 0.904939
#
# Coordination Sequence:
#
# PCOD9143460 Si02
#       7
#     4   4   4   4   4   4   4
#     4  10  21  36  58  87 114 142 179 229 274 316
#     4  10  23  43  62  78 104 145 185 224 277 335
#     4   9  15  27  50  78 108 146 184 211 252 322
#     4  11  23  37  55  80 107 139 185 233 273 320
#     4   9  17  31  54  86 117 142 176 222 271 323
#     4  10  18  31  55  82 110 146 183 223 271 321
#     4  10  20  36  56  81 115 148 181 219 270 330
#
# _framework density 22.457253999999999
#
# number of rings (size 3 to 8) (size 9 to 14) (size 15 to 20)
#    0.000    2.143    1.429    2.143    0.000    6.000 
#    0.000    4.286    0.000    3.429    0.000    0.000 
#    0.000    0.000    0.000    0.000    0.000    0.000 
#
# Total GULP energy -156417.512117 kJ/mol
# GULP energy per Si atom -5586.339718 kJ/mol
# Density = 2.240614 g / cm^3
# Si number density = 22.457254 Si / 1000 Ang^3
#
#
#
# Elastic Constant Matrix: (Units=GPa)
#
#
# Indices 1 2 3 4 5 6 
#
# 1 90.1281 -13.2189 55.1337 0.0000 0.9374 0.0000
# 2 -13.2189 40.8198 -6.1554 0.0000 0.9225 0.0000
# 3 55.1337 -6.1554 166.8827 0.0000 -7.5444 0.0000
# 4 0.0000 0.0000 0.0000 -1.6674 0.0000 4.0921
# 5 0.9374 0.9225 -7.5444 0.0000 42.9004 0.0000
# 6 0.0000 0.0000 0.0000 4.0921 0.0000 8.5748
#
#
#
# Elastic Compliance Matrix: (Units=1/GPa)
#
#
# Indices 1 2 3 4 5 6 
#
# 1 0.014593 0.004041 -0.004728 0.000000 -0.001237 0.000000
# 2 0.004041 0.025760 -0.000417 0.000000 -0.000716 0.000000
# 3 -0.004728 -0.000417 0.007604 0.000000 0.001450 0.000000
# 4 0.000000 0.000000 0.000000 -0.276224 0.000000 0.131821
# 5 -0.001237 -0.000716 0.001450 0.000000 0.023607 0.000000
# 6 0.000000 0.000000 0.000000 0.131821 0.000000 0.053714
#
#
# Mechanical properties :
#
#
# Convention : Reuss Voigt Hill
#
# Bulk Modulus (GPa) = 21.85875 41.03884 31.44879
# Shear Modulus (GPa) = -37.45663 27.43296 -5.01184
#
# Velocity S-wave (km/s) = -4.08843 3.49888 -1.49552
# Velocity P-wave (km/s) = 3.54012 5.88530 3.32448
#
# Compressibility (1/GPa) = 0.04574827
#
# Stress axis : x y z
#
# Youngs Moduli (GPa) = 68.52540 38.82027 131.50252
#
# Poissons Ratio (x) = -0.15686 0.62176
# Poissons Ratio (y) = -0.27689 0.05486
# Poissons Ratio (z) = 0.32399 0.01620
#
# Static dielectric constant tensor:
#      x y z
#    x 1.785420 0.000000 0.016600 
#    y 0.000000 1.860960 0.000000 
#    z 0.016600 0.000000 1.846480 
# 
# From -- ./inp_files/84964.got.cif
#   From: 2010.05.17/outbox.cif.g08.bks.cpg/sg10_43_cif.got.tgz:84964.got - 2010.06.03 11:33:40.
