data_PCOD9143814
_publ_section_title
;
Structure prediction by ZEFSAII (Michael W. Deem and Ramdas Pophale) SiO2 
 PCOD9143814
Probable space group: P 2/M
;
_chemical_formula_sum "Si O2"
_cell_formula_units_Z 32
_cell_length_a 10.459288
_cell_length_b 16.769432
_cell_length_c 15.204093
_cell_angle_alpha 90.000000
_cell_angle_beta 35.404325
_cell_angle_gamma 90.000000
_cell_volume 1544.957481
_symmetry_space_group_name_H-M "P 2/M"
_symmetry_group_IT_number 10
_symmetry_cell_setting 'monoclinic'
loop_
_space_group_symop_operation_xyz
x,y,z
-x,y,-z
-x,-y,-z
x,-y,z
loop_
_atom_site_type_symbol
_atom_site_label
_atom_site_fract_x
_atom_site_fract_y
_atom_site_fract_z
Si Si1 0.137414 0.207903 0.744789
Si Si2 0.229363 0.087264 0.048031
Si Si3 0.002499 0.630095 0.894027
Si Si4 0.397593 0.239023 0.436631
Si Si5 0.499381 0.587551 0.836211
Si Si6 0.230334 0.261496 0.338304
Si Si7 0.739765 0.908787 0.757305
Si Si8 0.500746 0.584037 0.375165
O O1 0.029559 0.293493 0.818348
O O2 0.219311 0.196633 0.598640
O O3 0.361341 0.206335 0.675418
O O4 0.952088 0.148355 0.880228
O O5 0.239069 0.090745 0.149063
O O6 0.156838 0.000000 0.061735
O O7 0.480719 0.098289 0.878123
O O8 0.236150 0.585231 0.754518
O O9 0.000000 0.651790 0.000000
O O10 0.765987 0.592785 0.003740
O O11 0.356484 0.236993 0.356710
O O12 0.400560 0.332747 0.463178
O O13 0.575037 0.500000 0.827946
O O14 0.627344 0.669536 0.791304
O O15 0.529391 0.586166 0.713434
O O16 0.171336 0.177220 0.324731
O O17 0.000000 0.299383 0.500000
O O18 0.812094 0.000000 0.688471
O O19 0.405419 0.500000 0.460848
#
# Coordination Sequence:
#
# PCOD9143814 Si02
#       8
#     4   4   4   4   4   4   4   4
#     4  10  18  33  51  71 105 136 163 207 255 301
#     4   9  18  34  57  80 102 131 164 202 252 303
#     4   9  16  27  48  73  96 129 170 209 253 298
#     4   9  20  33  47  73 104 136 173 207 247 303
#     4   9  17  29  46  72 102 129 167 214 253 298
#     4  11  21  34  53  75 100 137 177 209 252 304
#     4   9  19  36  57  82 105 127 168 216 248 290
#     4   8  14  27  46  67  97 133 168 209 250 292
#
# _framework density 20.712544000000001
#
# number of rings (size 3 to 8) (size 9 to 14) (size 15 to 20)
#    0.000    2.750    0.000    3.375    0.000    2.000 
#    0.000    8.125    0.000    1.875    0.000   14.875 
#    0.000    0.000    0.000    0.000    0.000    0.000 
#
# Total GULP energy -178155.922827 kJ/mol
# GULP energy per Si atom -5567.372588 kJ/mol
# Density = 2.066540 g / cm^3
# Si number density = 20.712544 Si / 1000 Ang^3
#
#
#
# Elastic Constant Matrix: (Units=GPa)
#
#
# Indices 1 2 3 4 5 6 
#
# 1 30.0377 4.8986 -4.5839 0.0000 -7.4231 0.0000
# 2 4.8986 77.3682 10.0346 0.0000 -18.2701 0.0000
# 3 -4.5839 10.0346 36.0072 0.0000 -11.3974 0.0000
# 4 0.0000 0.0000 0.0000 8.9562 0.0000 11.9914
# 5 -7.4231 -18.2701 -11.3974 0.0000 20.7896 0.0000
# 6 0.0000 0.0000 0.0000 11.9914 0.0000 3.0059
#
#
#
# Elastic Compliance Matrix: (Units=1/GPa)
#
#
# Indices 1 2 3 4 5 6 
#
# 1 0.040277 0.001064 0.011711 0.000000 0.021737 0.000000
# 2 0.001064 0.016338 0.000299 0.000000 0.014902 0.000000
# 3 0.011711 0.000299 0.037009 0.000000 0.024734 0.000000
# 4 0.000000 0.000000 0.000000 -0.025719 0.000000 0.102602
# 5 0.021737 0.014902 0.024734 0.000000 0.082518 0.000000
# 6 0.000000 0.000000 0.000000 0.102602 0.000000 -0.076632
#
#
# Mechanical properties :
#
#
# Convention : Reuss Voigt Hill
#
# Bulk Modulus (GPa) = 8.34917 18.23464 13.29190
# Shear Modulus (GPa) = 57.09970 15.42125 36.26048
#
# Velocity S-wave (km/s) = 5.25619 2.73158 4.18862
# Velocity P-wave (km/s) = 6.39347 4.33261 5.46113
#
# Compressibility (1/GPa) = 0.11977244
#
# Stress axis : x y z
#
# Youngs Moduli (GPa) = 24.82813 61.20686 27.02059
#
# Poissons Ratio (x) = -0.06511 -0.31645
# Poissons Ratio (y) = -0.02641 -0.00808
# Poissons Ratio (z) = -0.29077 -0.01831
#
# Static dielectric constant tensor:
#      x y z
#    x 1.744260 0.000000 0.007840 
#    y 0.000000 1.814300 0.000000 
#    z 0.007840 0.000000 1.752090 
# 
# From -- ./inp_files/77136.got.cif
#   From: 2010.05.17/outbox.cif.g08.bks.cpg/sg10_39_cif.got.tgz:77136.got - 2010.06.03 11:33:40.
