data_PCOD9143361
_publ_section_title
;
Structure prediction by ZEFSAII (Michael W. Deem and Ramdas Pophale) SiO2 
 PCOD9143361
Probable space group: P 2/M
;
_chemical_formula_sum "Si O2"
_cell_formula_units_Z 28
_cell_length_a 9.157199
_cell_length_b 19.229110
_cell_length_c 15.622468
_cell_angle_alpha 90.000000
_cell_angle_beta 28.215250
_cell_angle_gamma 90.000000
_cell_volume 1300.575179
_symmetry_space_group_name_H-M "P 2/M"
_symmetry_group_IT_number 10
_symmetry_cell_setting 'monoclinic'
loop_
_space_group_symop_operation_xyz
x,y,z
-x,y,-z
-x,-y,-z
x,-y,z
loop_
_atom_site_type_symbol
_atom_site_label
_atom_site_fract_x
_atom_site_fract_y
_atom_site_fract_z
Si Si1 0.865954 0.083327 0.802629
Si Si2 0.359118 0.736990 0.320920
Si Si3 0.607492 0.500000 0.043899
Si Si4 0.385444 0.645103 0.461498
Si Si5 0.650388 0.500000 0.327641
Si Si6 0.111850 0.078297 0.854012
Si Si7 0.358456 0.353236 0.167374
Si Si8 0.216228 0.111951 0.458145
O O1 0.011998 0.109566 0.815811
O O2 0.007077 0.123822 0.649520
O O3 0.936614 0.000000 0.754259
O O4 0.500000 0.089849 0.000000
O O5 0.491967 0.702581 0.338027
O O6 0.477684 0.706891 0.170133
O O7 0.338618 0.818737 0.347891
O O8 0.000000 0.714056 0.500000
O O9 0.469568 0.427482 0.148481
O O10 0.500000 0.500000 0.000000
O O11 0.978709 0.500000 0.859250
O O12 0.500000 0.656554 0.500000
O O13 0.520765 0.571778 0.357899
O O14 0.012172 0.643879 0.654212
O O15 0.500000 0.500000 0.500000
O O16 0.478346 0.074075 0.669246
O O17 0.972079 0.000000 0.925381
O O18 0.000000 0.112259 0.000000
O O19 0.500000 0.344260 0.000000
O O20 0.000000 0.075879 0.500000
#
# Coordination Sequence:
#
# PCOD9143361 Si02
#       8
#     4   4   2   4   2   4   4   4
#     4  10  21  38  64  96 125 155 195 248 309 362
#     4   9  22  40  56  79 114 154 199 235 281 350
#     4  10  18  31  56  89 114 142 184 237 303 359
#     4  10  19  35  56  80 110 148 186 232 286 344
#     4  10  18  31  52  83 116 142 180 233 291 349
#     4  10  21  38  60  90 125 157 195 244 296 352
#     4  10  19  37  60  83 113 149 190 239 293 351
#     4  11  22  39  59  85 121 162 204 246 292 354
#
# _framework density 21.528936000000002
#
# number of rings (size 3 to 8) (size 9 to 14) (size 15 to 20)
#    0.000    2.000    0.000    5.571    0.000    5.143 
#    0.000   19.286    0.000    0.000    0.000    0.000 
#    0.000    0.000    0.000    0.000    0.000    0.000 
#
# Total GULP energy -156171.922714 kJ/mol
# GULP energy per Si atom -5577.568668 kJ/mol
# Density = 2.147994 g / cm^3
# Si number density = 21.528936 Si / 1000 Ang^3
#
#
#
# Elastic Constant Matrix: (Units=GPa)
#
#
# Indices 1 2 3 4 5 6 
#
# 1 148.8597 36.9127 52.8237 0.0000 5.7385 0.0000
# 2 36.9127 90.2335 15.5837 0.0000 9.6857 0.0000
# 3 52.8237 15.5837 98.0810 0.0000 -3.8934 0.0000
# 4 0.0000 0.0000 0.0000 22.6898 0.0000 8.3814
# 5 5.7385 9.6857 -3.8934 0.0000 39.7007 0.0000
# 6 0.0000 0.0000 0.0000 8.3814 0.0000 35.6362
#
#
#
# Elastic Compliance Matrix: (Units=1/GPa)
#
#
# Indices 1 2 3 4 5 6 
#
# 1 0.009040 -0.002814 -0.004464 0.000000 -0.001058 0.000000
# 2 -0.002814 0.012630 -0.000600 0.000000 -0.002734 0.000000
# 3 -0.004464 -0.000600 0.012776 0.000000 0.002045 0.000000
# 4 0.000000 0.000000 0.000000 0.048266 0.000000 -0.011352
# 5 -0.001058 -0.002734 0.002045 0.000000 0.026209 0.000000
# 6 0.000000 0.000000 0.000000 -0.011352 0.000000 0.030731
#
#
# Mechanical properties :
#
#
# Convention : Reuss Voigt Hill
#
# Bulk Modulus (GPa) = 53.49862 60.86826 57.18344
# Shear Modulus (GPa) = 30.93327 35.06227 32.99777
#
# Velocity S-wave (km/s) = 3.79466 4.03998 3.91924
# Velocity P-wave (km/s) = 6.64099 7.07786 6.86290
#
# Compressibility (1/GPa) = 0.01869207
#
# Stress axis : x y z
#
# Youngs Moduli (GPa) = 110.61679 79.17393 78.27059
#
# Poissons Ratio (x) = 0.22277 0.34938
# Poissons Ratio (y) = 0.31124 0.04696
# Poissons Ratio (z) = 0.49377 0.04750
#
# Static dielectric constant tensor:
#      x y z
#    x 1.836450 0.000000 0.063710 
#    y 0.000000 1.850310 0.000000 
#    z 0.063710 0.000000 1.828700 
# 
# From -- ./inp_files/62594.got.cif
#   From: 2010.05.17/outbox.cif.g08.bks.cpg/sg10_32_cif.got.tgz:62594.got - 2010.06.03 11:33:40.
