data_PCOD9143737
_publ_section_title
;
Structure prediction by ZEFSAII (Michael W. Deem and Ramdas Pophale) SiO2 
 PCOD9143737
Probable space group: P 2/M
;
_chemical_formula_sum "Si O2"
_cell_formula_units_Z 30
_cell_length_a 21.762929
_cell_length_b 13.408653
_cell_length_c 5.434764
_cell_angle_alpha 90.000000
_cell_angle_beta 68.001129
_cell_angle_gamma 90.000000
_cell_volume 1470.457595
_symmetry_space_group_name_H-M "P 2/M"
_symmetry_group_IT_number 10
_symmetry_cell_setting 'monoclinic'
loop_
_space_group_symop_operation_xyz
x,y,z
-x,y,-z
-x,-y,-z
x,-y,z
loop_
_atom_site_type_symbol
_atom_site_label
_atom_site_fract_x
_atom_site_fract_y
_atom_site_fract_z
Si Si1 0.110226 0.161602 0.334659
Si Si2 0.118531 0.393857 0.322200
Si Si3 0.817980 0.342464 0.273034
Si Si4 0.732381 0.879828 0.901430
Si Si5 0.072335 0.170005 0.891496
Si Si6 0.314400 0.773045 0.528399
Si Si7 0.456754 0.223391 0.314869
Si Si8 0.541730 0.000000 0.687406
O O1 0.088444 0.280583 0.367331
O O2 0.190073 0.152742 0.214889
O O3 0.081574 0.114677 0.623128
O O4 0.081575 0.114677 0.132142
O O5 0.079794 0.500000 0.380307
O O6 0.161826 0.394141 0.504569
O O7 0.161825 0.394141 0.009944
O O8 0.865362 0.244839 0.201960
O O9 0.742704 0.309942 0.385945
O O10 0.699195 0.835895 0.702842
O O11 0.727924 0.000000 0.908115
O O12 0.699195 0.835895 0.199577
O O13 0.000000 0.219699 0.000000
O O14 0.386738 0.721632 0.419893
O O15 0.500000 0.236522 0.500000
O O16 0.427581 0.109160 0.358629
O O17 0.500000 0.236522 0.000000
O O18 0.500000 0.000000 0.500000
O O19 0.500000 0.000000 0.000000
#
# Coordination Sequence:
#
# PCOD9143737 Si02
#       8
#     4   4   4   4   4   4   4   2
#     4  10  19  37  51  78 112 136 186 225 270 316
#     4  10  18  32  56  79 111 143 170 221 278 321
#     4  10  19  35  54  81 111 137 182 223 271 314
#     4  12  23  36  57  81 108 149 187 229 273 318
#     4  10  18  32  58  77 104 147 180 216 277 328
#     4  12  21  39  57  77 112 145 183 234 267 316
#     4  10  21  35  49  73 103 140 180 218 265 322
#     4   8  16  30  44  60  96 130 161 210 247 294
#
# _framework density 20.401813000000001
#
# number of rings (size 3 to 8) (size 9 to 14) (size 15 to 20)
#    0.000    1.600    5.333    2.000    1.867    0.000 
#    2.400    0.000    0.000   40.800    0.000    0.000 
#    0.000   10.667    0.000    0.000    0.000    0.000 
#
# Total GULP energy -167002.417838 kJ/mol
# GULP energy per Si atom -5566.747261 kJ/mol
# Density = 2.035538 g / cm^3
# Si number density = 20.401813 Si / 1000 Ang^3
#
#
#
# Elastic Constant Matrix: (Units=GPa)
#
#
# Indices 1 2 3 4 5 6 
#
# 1 125.5170 0.2861 72.2973 0.0000 -0.7982 0.0000
# 2 0.2861 70.8552 9.8020 0.0000 6.9893 0.0000
# 3 72.2973 9.8020 176.5756 0.0000 38.2974 0.0000
# 4 0.0000 0.0000 0.0000 -3.2111 0.0000 25.0435
# 5 -0.7982 6.9893 38.2974 0.0000 54.7812 0.0000
# 6 0.0000 0.0000 0.0000 25.0435 0.0000 -37.3095
#
#
#
# Elastic Compliance Matrix: (Units=1/GPa)
#
#
# Indices 1 2 3 4 5 6 
#
# 1 0.011109 0.000319 -0.005413 0.000000 0.003906 0.000000
# 2 0.000319 0.014335 -0.000625 0.000000 -0.001387 0.000000
# 3 -0.005413 -0.000625 0.009329 0.000000 -0.006521 0.000000
# 4 0.000000 0.000000 0.000000 0.073535 0.000000 0.049359
# 5 0.003906 -0.001387 -0.006521 0.000000 0.023047 0.000000
# 6 0.000000 0.000000 0.000000 0.049359 0.000000 0.006329
#
#
# Mechanical properties :
#
#
# Convention : Reuss Voigt Hill
#
# Bulk Modulus (GPa) = 42.85732 59.74650 51.30191
# Shear Modulus (GPa) = 31.86702 22.22295 27.04498
#
# Velocity S-wave (km/s) = 3.95646 3.30398 3.64485
# Velocity P-wave (km/s) = 6.47485 6.62597 6.55085
#
# Compressibility (1/GPa) = 0.02333324
#
# Stress axis : x y z
#
# Youngs Moduli (GPa) = 90.01517 69.75763 107.19534
#
# Poissons Ratio (x) = -0.02224 0.58029
# Poissons Ratio (y) = -0.02869 0.06704
# Poissons Ratio (z) = 0.48729 0.04363
#
# Static dielectric constant tensor:
#      x y z
#    x 1.748210 0.000000 0.031930 
#    y 0.000000 1.758400 0.000000 
#    z 0.031930 0.000000 1.791680 
# 
# From -- ./inp_files/12688.got.cif
#   From: 2010.05.17/outbox.cif.g08.bks.cpg/sg10_7_cif.got.tgz:12688.got - 2010.06.03 11:33:40.
