data_PCOD9143921
_publ_section_title
;
Structure prediction by ZEFSAII (Michael W. Deem and Ramdas Pophale) SiO2 
 PCOD9143921
Probable space group: P 2/M
;
_chemical_formula_sum "Si O2"
_cell_formula_units_Z 24
_cell_length_a 23.536045
_cell_length_b 8.500886
_cell_length_c 11.042284
_cell_angle_alpha 90.000000
_cell_angle_beta 147.913764
_cell_angle_gamma 90.000000
_cell_volume 1173.574381
_symmetry_space_group_name_H-M "P 2/M"
_symmetry_group_IT_number 10
_symmetry_cell_setting 'monoclinic'
loop_
_space_group_symop_operation_xyz
x,y,z
-x,y,-z
-x,-y,-z
x,-y,z
loop_
_atom_site_type_symbol
_atom_site_label
_atom_site_fract_x
_atom_site_fract_y
_atom_site_fract_z
Si Si1 0.731138 0.685540 0.170074
Si Si2 0.027702 0.691062 0.410092
Si Si3 0.311338 0.809095 0.412493
Si Si4 0.624622 0.811504 0.736656
Si Si5 0.529519 0.176029 0.914555
Si Si6 0.076433 0.809212 0.026369
O O1 0.739195 0.500000 0.193078
O O2 0.851085 0.748222 0.396573
O O3 0.680825 0.732323 0.950842
O O4 0.643247 0.743911 0.105580
O O5 0.022275 0.500000 0.398166
O O6 0.000000 0.737679 0.500000
O O7 0.959425 0.752514 0.172347
O O8 0.312290 0.774557 0.271892
O O9 0.425337 0.746773 0.665575
O O10 0.316130 0.000000 0.437335
O O11 0.199810 0.756936 0.269002
O O12 0.500000 0.764775 0.500000
O O13 0.626195 0.000000 0.754504
O O14 0.541532 0.000000 0.882618
O O15 0.500000 0.163796 0.000000
O O16 0.074698 0.000000 0.021391
O O17 0.000000 0.757863 0.000000
#
# Coordination Sequence:
#
# PCOD9143921 Si02
#       6
#     4   4   4   4   4   4
#     4  11  23  37  57  86 119 149 189 242 288 340
#     4  10  23  43  62  83 119 163 204 244 292 353
#     4   9  18  35  56  84 116 144 183 237 289 340
#     4  10  18  33  57  82 112 148 186 228 281 345
#     4  10  21  37  60  84 112 154 193 230 286 349
#     4  10  22  38  61  91 119 149 195 253 299 346
#
# _framework density 20.450343
#
# number of rings (size 3 to 8) (size 9 to 14) (size 15 to 20)
#    0.000    2.000    1.667    1.500    2.333    2.667 
#    0.000    0.833    0.000    0.000    0.000    0.000 
#    0.000    0.000    0.000    0.000    0.000    0.000 
#
# Total GULP energy -133873.334139 kJ/mol
# GULP energy per Si atom -5578.055589 kJ/mol
# Density = 2.040380 g / cm^3
# Si number density = 20.450343 Si / 1000 Ang^3
#
#
#
# Elastic Constant Matrix: (Units=GPa)
#
#
# Indices 1 2 3 4 5 6 
#
# 1 113.0454 10.2852 19.8020 0.0000 17.0593 0.0000
# 2 10.2852 7.5872 6.3943 0.0000 5.9978 0.0000
# 3 19.8020 6.3943 76.2415 0.0000 21.6229 0.0000
# 4 0.0000 0.0000 0.0000 5.1208 0.0000 9.7442
# 5 17.0593 5.9978 21.6229 0.0000 36.6310 0.0000
# 6 0.0000 0.0000 0.0000 9.7442 0.0000 1.9600
#
#
#
# Elastic Compliance Matrix: (Units=1/GPa)
#
#
# Indices 1 2 3 4 5 6 
#
# 1 0.010425 -0.011354 -0.001088 0.000000 -0.002354 0.000000
# 2 -0.011354 0.166764 -0.005757 0.000000 -0.018619 0.000000
# 3 -0.001088 -0.005757 0.016179 0.000000 -0.008101 0.000000
# 4 0.000000 0.000000 0.000000 -0.023083 0.000000 0.114756
# 5 -0.002354 -0.018619 -0.008101 0.000000 0.036226 0.000000
# 6 0.000000 0.000000 0.000000 0.114756 0.000000 -0.060307
#
#
# Mechanical properties :
#
#
# Convention : Reuss Voigt Hill
#
# Bulk Modulus (GPa) = 6.37064 29.98187 18.17626
# Shear Modulus (GPa) = 21.28347 19.43520 20.35934
#
# Velocity S-wave (km/s) = 3.22955 3.08614 3.15866
# Velocity P-wave (km/s) = 4.12657 5.23370 4.71276
#
# Compressibility (1/GPa) = 0.15696999
#
# Stress axis : x y z
#
# Youngs Moduli (GPa) = 95.92514 5.99651 61.80801
#
# Poissons Ratio (x) = 0.06809 0.06723
# Poissons Ratio (y) = 1.08918 0.35580
# Poissons Ratio (z) = 0.10435 0.03452
#
# Static dielectric constant tensor:
#      x y z
#    x 1.751440 0.000000 0.026000 
#    y 0.000000 1.729670 0.000000 
#    z 0.026000 0.000000 1.762190 
# 
# From -- ./inp_files/56544.got.cif
#   From: 2010.05.17/outbox.cif.g08.bks.cpg/sg10_29_cif.got.tgz:56544.got - 2010.06.03 11:33:40.
