data_PCOD9143291
_publ_section_title
;
Structure prediction by ZEFSAII (Michael W. Deem and Ramdas Pophale) SiO2 
 PCOD9143291
Probable space group: P 2/M
;
_chemical_formula_sum "Si O2"
_cell_formula_units_Z 28
_cell_length_a 18.846392
_cell_length_b 8.714228
_cell_length_c 15.123347
_cell_angle_alpha 90.000000
_cell_angle_beta 141.511067
_cell_angle_gamma 90.000000
_cell_volume 1545.785191
_symmetry_space_group_name_H-M "P 2/M"
_symmetry_group_IT_number 10
_symmetry_cell_setting 'monoclinic'
loop_
_space_group_symop_operation_xyz
x,y,z
-x,y,-z
-x,-y,-z
x,-y,z
loop_
_atom_site_type_symbol
_atom_site_label
_atom_site_fract_x
_atom_site_fract_y
_atom_site_fract_z
Si Si1 0.246133 0.318567 0.730598
Si Si2 0.961375 0.183409 0.863248
Si Si3 0.334713 0.180137 0.999345
Si Si4 0.878865 0.318400 0.132859
Si Si5 0.057227 0.819037 0.430215
Si Si6 0.577508 0.678993 0.260961
Si Si7 0.788669 0.317635 0.574029
O O1 0.230963 0.500000 0.731105
O O2 0.299294 0.239744 0.867890
O O3 0.126870 0.246510 0.581244
O O4 0.337778 0.300404 0.740127
O O5 0.056075 0.240023 0.885433
O O6 0.844087 0.266302 0.719838
O O7 0.948204 0.000000 0.842537
O O8 0.000000 0.220458 0.000000
O O9 0.250977 0.266378 0.985247
O O10 0.313875 0.000000 0.984864
O O11 0.466085 0.219419 0.144494
O O12 0.889678 0.500000 0.136114
O O13 0.942771 0.263211 0.285090
O O14 0.141913 0.780432 0.430771
O O15 0.038825 0.000000 0.421344
O O16 0.542755 0.500000 0.226986
O O17 0.656343 0.708612 0.423687
O O18 0.809909 0.500000 0.579081
#
# Coordination Sequence:
#
# PCOD9143291 Si02
#       7
#     4   4   4   4   4   4   4
#     4  10  20  35  53  74 102 138 182 224 261 303
#     4  10  20  35  58  87 114 135 161 205 258 309
#     4  12  24  35  50  74 104 139 179 221 265 308
#     4  11  22  37  55  75 104 140 175 210 258 316
#     4  10  18  31  51  75 104 134 171 218 264 308
#     4   9  19  35  53  74 103 140 180 219 256 299
#     4   9  17  31  53  79 106 137 173 210 251 303
#
# _framework density 18.113772000000001
#
# number of rings (size 3 to 8) (size 9 to 14) (size 15 to 20)
#    0.000    1.857    0.000    8.143    0.000    6.857 
#    0.000    2.857    0.000    0.857    0.000    6.000 
#    0.000    0.000    0.000    0.000    0.000    0.000 
#
# Total GULP energy -156361.220841 kJ/mol
# GULP energy per Si atom -5584.329316 kJ/mol
# Density = 1.807254 g / cm^3
# Si number density = 18.113772 Si / 1000 Ang^3
#
#
#
# Elastic Constant Matrix: (Units=GPa)
#
#
# Indices 1 2 3 4 5 6 
#
# 1 45.2134 15.7608 35.5355 0.0000 -11.5221 0.0000
# 2 15.7608 66.8661 30.0351 0.0000 -3.5238 0.0000
# 3 35.5355 30.0351 97.9853 0.0000 -11.6836 0.0000
# 4 0.0000 0.0000 0.0000 42.3702 0.0000 -0.9327
# 5 -11.5221 -3.5238 -11.6836 0.0000 28.7740 0.0000
# 6 0.0000 0.0000 0.0000 -0.9327 0.0000 8.6250
#
#
#
# Elastic Compliance Matrix: (Units=1/GPa)
#
#
# Indices 1 2 3 4 5 6 
#
# 1 0.033362 -0.002826 -0.010174 0.000000 0.008882 0.000000
# 2 -0.002826 0.017583 -0.004459 0.000000 -0.000789 0.000000
# 3 -0.010174 -0.004459 0.015460 0.000000 0.001657 0.000000
# 4 0.000000 0.000000 0.000000 0.023658 0.000000 0.002558
# 5 0.008882 -0.000789 0.001657 0.000000 0.038887 0.000000
# 6 0.000000 0.000000 0.000000 0.002558 0.000000 0.116219
#
#
# Mechanical properties :
#
#
# Convention : Reuss Voigt Hill
#
# Bulk Modulus (GPa) = 31.75860 41.41417 36.58638
# Shear Modulus (GPa) = 17.20698 24.53607 20.87152
#
# Velocity S-wave (km/s) = 3.08545 3.68442 3.39816
# Velocity P-wave (km/s) = 5.50130 6.40413 5.96981
#
# Compressibility (1/GPa) = 0.03148753
#
# Stress axis : x y z
#
# Youngs Moduli (GPa) = 29.97421 56.87461 64.68452
#
# Poissons Ratio (x) = 0.16071 0.65809
# Poissons Ratio (y) = 0.08470 0.28842
# Poissons Ratio (z) = 0.30495 0.25359
#
# Static dielectric constant tensor:
#      x y z
#    x 1.636650 0.000000 0.000430 
#    y 0.000000 1.601760 0.000000 
#    z 0.000430 0.000000 1.643980 
# 
# From -- ./inp_files/79279.got.cif
#   From: 2010.05.17/outbox.cif.g08.bks.cpg/sg10_40_cif.got.tgz:79279.got - 2010.06.03 11:33:40.
