data_PCOD9143882
_publ_section_title
;
Structure prediction by ZEFSAII (Michael W. Deem and Ramdas Pophale) SiO2 
 PCOD9143882
Probable space group: P 2/M
;
_chemical_formula_sum "Si O2"
_cell_formula_units_Z 28
_cell_length_a 14.643767
_cell_length_b 9.119079
_cell_length_c 14.529675
_cell_angle_alpha 90.000000
_cell_angle_beta 120.051895
_cell_angle_gamma 90.000000
_cell_volume 1679.434140
_symmetry_space_group_name_H-M "P 2/M"
_symmetry_group_IT_number 10
_symmetry_cell_setting 'monoclinic'
loop_
_space_group_symop_operation_xyz
x,y,z
-x,y,-z
-x,-y,-z
x,-y,z
loop_
_atom_site_type_symbol
_atom_site_label
_atom_site_fract_x
_atom_site_fract_y
_atom_site_fract_z
Si Si1 0.290801 0.830449 0.719618
Si Si2 0.269507 0.672939 0.059587
Si Si3 0.830273 0.163842 0.151454
Si Si4 0.108248 0.176777 0.109588
Si Si5 0.516838 0.177179 0.900526
Si Si6 0.112455 0.675233 0.511410
Si Si7 0.075339 0.170377 0.305541
O O1 0.247926 0.828419 0.802522
O O2 0.412195 0.783426 0.789793
O O3 0.210693 0.736907 0.618737
O O4 0.286814 0.000000 0.686281
O O5 0.280523 0.500000 0.077145
O O6 0.207983 0.746611 0.113136
O O7 0.380834 0.747278 0.090679
O O8 0.196407 0.713345 0.935280
O O9 0.948431 0.176700 0.247237
O O10 0.820272 0.000000 0.103125
O O11 0.101075 0.215174 0.213897
O O12 0.117118 0.000000 0.107664
O O13 0.000000 0.216397 0.000000
O O14 0.528687 0.000000 0.904424
O O15 0.500000 0.217296 0.000000
O O16 0.113566 0.500000 0.513273
O O17 0.118973 0.734317 0.410749
O O18 0.000000 0.723865 0.500000
O O19 0.106904 0.000000 0.333376
#
# Coordination Sequence:
#
# PCOD9143882 Si02
#       7
#     4   4   4   4   4   4   4
#     4  10  20  35  58  81 106 145 190 231 266 315
#     4  12  24  34  51  82 119 152 179 219 279 343
#     4  10  18  33  55  80 110 145 188 229 264 317
#     4  10  20  37  59  81 107 144 190 233 273 319
#     4  10  20  37  59  81 107 144 190 233 273 319
#     4  11  23  35  51  80 119 152 177 217 276 336
#     4  10  20  35  58  81 106 145 190 231 266 315
#
# _framework density 16.672283
#
# number of rings (size 3 to 8) (size 9 to 14) (size 15 to 20)
#    0.000    1.571    4.286    1.714    0.000    3.429 
#    0.000    0.000    0.000    0.857    0.000    6.000 
#    0.000    0.000    0.000    0.000    0.000    0.000 
#
# Total GULP energy -156259.725494 kJ/mol
# GULP energy per Si atom -5580.704482 kJ/mol
# Density = 1.663434 g / cm^3
# Si number density = 16.672283 Si / 1000 Ang^3
#
#
#
# Elastic Constant Matrix: (Units=GPa)
#
#
# Indices 1 2 3 4 5 6 
#
# 1 91.5654 37.3087 31.4233 0.0000 3.6161 0.0000
# 2 37.3087 49.9008 41.6474 0.0000 2.4117 0.0000
# 3 31.4233 41.6474 89.4275 0.0000 -0.0133 0.0000
# 4 0.0000 0.0000 0.0000 9.5964 0.0000 1.0366
# 5 3.6161 2.4117 -0.0133 0.0000 24.6242 0.0000
# 6 0.0000 0.0000 0.0000 1.0366 0.0000 19.1663
#
#
#
# Elastic Compliance Matrix: (Units=1/GPa)
#
#
# Indices 1 2 3 4 5 6 
#
# 1 0.015740 -0.011606 -0.000126 0.000000 -0.001175 0.000000
# 2 -0.011606 0.041597 -0.015294 0.000000 -0.002378 0.000000
# 3 -0.000126 -0.015294 0.018349 0.000000 0.001526 0.000000
# 4 0.000000 0.000000 0.000000 0.104818 0.000000 -0.005669
# 5 -0.001175 -0.002378 0.001526 0.000000 0.041017 0.000000
# 6 0.000000 0.000000 0.000000 -0.005669 0.000000 0.052482
#
#
# Mechanical properties :
#
#
# Convention : Reuss Voigt Hill
#
# Bulk Modulus (GPa) = 46.22453 50.18361 48.20407
# Shear Modulus (GPa) = 14.91355 18.71166 16.81261
#
# Velocity S-wave (km/s) = 2.99408 3.35374 3.17900
# Velocity P-wave (km/s) = 6.30383 6.72028 6.51538
#
# Compressibility (1/GPa) = 0.02163353
#
# Stress axis : x y z
#
# Youngs Moduli (GPa) = 63.53374 24.04041 54.49798
#
# Poissons Ratio (x) = 0.27902 0.00685
# Poissons Ratio (y) = 0.73738 0.83350
# Poissons Ratio (z) = 0.00799 0.36768
#
# Static dielectric constant tensor:
#      x y z
#    x 1.560240 0.000000 -0.000860 
#    y 0.000000 1.563330 0.000000 
#    z -0.000860 0.000000 1.553070 
# 
# From -- ./inp_files/63486.got.cif
#   From: 2010.05.17/outbox.cif.g08.bks.cpg/sg10_32_cif.got.tgz:63486.got - 2010.06.03 11:33:40.
