data_PCOD9143310
_publ_section_title
;
Structure prediction by ZEFSAII (Michael W. Deem and Ramdas Pophale) SiO2 
 PCOD9143310
Probable space group: P 2/M
;
_chemical_formula_sum "Si O2"
_cell_formula_units_Z 32
_cell_length_a 25.043229
_cell_length_b 7.590539
_cell_length_c 12.173159
_cell_angle_alpha 90.000000
_cell_angle_beta 136.476724
_cell_angle_gamma 90.000000
_cell_volume 1593.544812
_symmetry_space_group_name_H-M "P 2/M"
_symmetry_group_IT_number 10
_symmetry_cell_setting 'monoclinic'
loop_
_space_group_symop_operation_xyz
x,y,z
-x,y,-z
-x,-y,-z
x,-y,z
loop_
_atom_site_type_symbol
_atom_site_label
_atom_site_fract_x
_atom_site_fract_y
_atom_site_fract_z
Si Si1 0.646231 0.216122 0.021552
Si Si2 0.530293 0.208039 0.241021
Si Si3 0.274149 0.206216 0.078507
Si Si4 0.188283 0.205663 0.344635
Si Si5 0.140020 0.787768 0.031069
Si Si6 0.578463 0.711297 0.555408
Si Si7 0.331957 0.216216 0.699754
Si Si8 0.974851 0.708839 0.842400
O O1 0.556925 0.278161 0.879512
O O2 0.696248 0.280682 0.993064
O O3 0.645306 0.000000 0.014630
O O4 0.676754 0.267188 0.186740
O O5 0.572849 0.232860 0.420747
O O6 0.586062 0.276254 0.228448
O O7 0.521699 0.000000 0.207323
O O8 0.198345 0.280752 0.025383
O O9 0.345986 0.219660 0.270025
O O10 0.258112 0.000000 0.035319
O O11 0.167399 0.280121 0.192676
O O12 0.262403 0.279597 0.518116
O O13 0.111030 0.219343 0.304023
O O14 0.204928 0.000000 0.351444
O O15 0.146168 0.000000 0.043465
O O16 0.049353 0.746727 0.879239
O O17 0.500000 0.772199 0.500000
O O18 0.580504 0.500000 0.563424
O O19 0.331862 0.000000 0.697663
O O20 0.966408 0.500000 0.837660
O O21 0.000000 0.780990 0.000000
#
# Coordination Sequence:
#
# PCOD9143310 Si02
#       8
#     4   4   4   4   4   4   4   4
#     4   9  17  29  48  73  98 126 163 207 244 279
#     4  10  18  31  52  73  95 126 166 207 246 287
#     4  10  19  32  51  74  98 128 165 201 239 288
#     4   9  16  28  46  68  97 127 153 189 238 288
#     4   9  17  29  47  73 100 123 152 189 236 291
#     4  11  22  33  46  67  98 131 162 200 245 289
#     4   9  17  29  48  75 100 124 161 206 247 285
#     4   9  17  29  47  71  97 122 151 189 236 288
#
# _framework density 20.081016000000002
#
# number of rings (size 3 to 8) (size 9 to 14) (size 15 to 20)
#    0.000    2.500    1.250    1.875    0.000    6.000 
#    0.000    3.125    0.000    4.500    0.000    5.250 
#    0.000    0.000    0.000    0.000    0.000    0.000 
#
# Total GULP energy -178535.145048 kJ/mol
# GULP energy per Si atom -5579.223283 kJ/mol
# Density = 2.003531 g / cm^3
# Si number density = 20.081016 Si / 1000 Ang^3
#
#
#
# Elastic Constant Matrix: (Units=GPa)
#
#
# Indices 1 2 3 4 5 6 
#
# 1 196.5428 6.5186 54.1070 0.0000 -35.5474 0.0000
# 2 6.5186 44.7578 0.3961 0.0000 -3.9804 0.0000
# 3 54.1070 0.3961 45.6744 0.0000 -8.8353 0.0000
# 4 0.0000 0.0000 0.0000 -23.7075 0.0000 -12.0471
# 5 -35.5474 -3.9804 -8.8353 0.0000 70.4779 0.0000
# 6 0.0000 0.0000 0.0000 -12.0471 0.0000 -14.6693
#
#
#
# Elastic Compliance Matrix: (Units=1/GPa)
#
#
# Indices 1 2 3 4 5 6 
#
# 1 0.008142 -0.000846 -0.009073 0.000000 0.002922 0.000000
# 2 -0.000846 0.022543 0.000994 0.000000 0.000971 0.000000
# 3 -0.009073 0.000994 0.032548 0.000000 -0.000440 0.000000
# 4 0.000000 0.000000 0.000000 -0.072391 0.000000 0.059451
# 5 0.002922 0.000971 -0.000440 0.000000 0.015662 0.000000
# 6 0.000000 0.000000 0.000000 0.059451 0.000000 -0.116993
#
#
# Mechanical properties :
#
#
# Convention : Reuss Voigt Hill
#
# Bulk Modulus (GPa) = 22.03372 45.44651 33.74011
# Shear Modulus (GPa) = -64.50653 21.48376 -21.51138
#
# Velocity S-wave (km/s) = -5.67388 3.27441 -3.27652
# Velocity P-wave (km/s) = 5.65045 6.08082 1.58884
#
# Compressibility (1/GPa) = 0.04538499
#
# Stress axis : x y z
#
# Youngs Moduli (GPa) = 122.81842 44.35925 30.72348
#
# Poissons Ratio (x) = 0.03752 0.27875
# Poissons Ratio (y) = 0.10387 -0.03055
# Poissons Ratio (z) = 1.11431 -0.04410
#
# Static dielectric constant tensor:
#      x y z
#    x 1.741860 0.000000 0.013500 
#    y 0.000000 1.730830 0.000000 
#    z 0.013500 0.000000 1.682540 
# 
# From -- ./inp_files/54886.got.cif
#   From: 2010.05.17/outbox.cif.g08.bks.cpg/sg10_28_cif.got.tgz:54886.got - 2010.06.03 11:33:40.
