data_PCOD9143844
_publ_section_title
;
Structure prediction by ZEFSAII (Michael W. Deem and Ramdas Pophale) SiO2 
 PCOD9143844
Probable space group: P 2/M
;
_chemical_formula_sum "Si O2"
_cell_formula_units_Z 30
_cell_length_a 11.322432
_cell_length_b 8.045168
_cell_length_c 22.662632
_cell_angle_alpha 90.000000
_cell_angle_beta 35.379987
_cell_angle_gamma 90.000000
_cell_volume 1195.256359
_symmetry_space_group_name_H-M "P 2/M"
_symmetry_group_IT_number 10
_symmetry_cell_setting 'monoclinic'
loop_
_space_group_symop_operation_xyz
x,y,z
-x,y,-z
-x,-y,-z
x,-y,z
loop_
_atom_site_type_symbol
_atom_site_label
_atom_site_fract_x
_atom_site_fract_y
_atom_site_fract_z
Si Si1 0.459901 0.194511 0.768498
Si Si2 0.704871 0.309815 0.565122
Si Si3 0.601713 0.191554 0.073218
Si Si4 0.737330 0.309828 0.862304
Si Si5 0.028221 0.682741 0.917760
Si Si6 0.100114 0.302243 0.626835
Si Si7 0.343534 0.181323 0.638617
Si Si8 0.941759 0.000000 0.836732
O O1 0.652015 0.222450 0.648065
O O2 0.464869 0.253262 0.834146
O O3 0.265246 0.277230 0.816419
O O4 0.411997 0.000000 0.791116
O O5 0.753341 0.500000 0.559633
O O6 0.870266 0.238361 0.451742
O O7 0.498518 0.299760 0.608977
O O8 0.489870 0.303897 0.071284
O O9 0.537076 0.000000 0.093505
O O10 0.849695 0.192391 0.971078
O O11 0.787593 0.500000 0.860684
O O12 0.884399 0.272171 0.745495
O O13 0.781144 0.149202 0.884025
O O14 0.982666 0.500000 0.912056
O O15 0.000000 0.678416 0.000000
O O16 0.130099 0.500000 0.611454
O O17 0.266772 0.233843 0.605275
O O18 0.447223 0.000000 0.594420
O O19 0.130727 0.143081 0.759136
#
# Coordination Sequence:
#
# PCOD9143844 Si02
#       8
#     4   4   4   4   4   4   4   2
#     4  10  21  35  50  75 110 143 172 214 264 314
#     4  11  21  33  50  73 106 143 179 218 265 320
#     4  10  19  33  55  79 107 138 176 218 262 314
#     4  10  18  33  54  77 107 140 178 224 268 310
#     4   9  17  31  52  78 104 132 170 214 261 313
#     4   9  19  33  49  73 103 136 178 225 265 308
#     4   9  18  31  49  73  98 134 167 222 262 319
#     4   8  18  34  49  78 105 130 172 224 263 316
#
# _framework density 25.099216999999999
#
# number of rings (size 3 to 8) (size 9 to 14) (size 15 to 20)
#    0.400    2.000    0.667    2.400    0.000    6.400 
#    0.000    0.667    0.000    4.000    0.000    4.667 
#    0.000   13.867    0.000    0.000    0.000    0.000 
#
# Total GULP energy -167139.603008 kJ/mol
# GULP energy per Si atom -5571.320100 kJ/mol
# Density = 2.504209 g / cm^3
# Si number density = 25.099217 Si / 1000 Ang^3
#
#
#
# Elastic Constant Matrix: (Units=GPa)
#
#
# Indices 1 2 3 4 5 6 
#
# 1 79.3300 21.5538 5.4514 0.0000 10.8144 0.0000
# 2 21.5538 82.6098 1.0106 0.0000 -3.5558 0.0000
# 3 5.4514 1.0106 112.1228 0.0000 19.6814 0.0000
# 4 0.0000 0.0000 0.0000 3.0083 0.0000 -20.8702
# 5 10.8144 -3.5558 19.6814 0.0000 37.6012 0.0000
# 6 0.0000 0.0000 0.0000 -20.8702 0.0000 2.0099
#
#
#
# Elastic Compliance Matrix: (Units=1/GPa)
#
#
# Indices 1 2 3 4 5 6 
#
# 1 0.014283 -0.003924 0.000140 0.000000 -0.004552 0.000000
# 2 -0.003924 0.013245 -0.000382 0.000000 0.002581 0.000000
# 3 0.000140 -0.000382 0.009832 0.000000 -0.005223 0.000000
# 4 0.000000 0.000000 0.000000 -0.004679 0.000000 -0.048590
# 5 -0.004552 0.002581 -0.005223 0.000000 0.030882 0.000000
# 6 0.000000 0.000000 0.000000 -0.048590 0.000000 -0.007004
#
#
# Mechanical properties :
#
#
# Convention : Reuss Voigt Hill
#
# Bulk Modulus (GPa) = 34.44943 36.67714 35.56328
# Shear Modulus (GPa) = 67.05494 24.92700 45.99097
#
# Velocity S-wave (km/s) = 5.17435 3.15483 4.28526
# Velocity P-wave (km/s) = 7.03233 5.28348 6.21968
#
# Compressibility (1/GPa) = 0.02902806
#
# Stress axis : x y z
#
# Youngs Moduli (GPa) = 70.01481 75.50181 101.70665
#
# Poissons Ratio (x) = 0.29628 -0.01424
# Poissons Ratio (y) = 0.27475 0.03881
# Poissons Ratio (z) = -0.00980 0.02881
#
# Static dielectric constant tensor:
#      x y z
#    x 1.962040 0.000000 0.085210 
#    y 0.000000 2.033500 0.000000 
#    z 0.085210 0.000000 2.135310 
# 
# From -- ./inp_files/88699.got.cif
#   From: 2010.05.17/outbox.cif.g08.bks.cpg/sg10_45_cif.got.tgz:88699.got - 2010.06.03 11:33:40.
