data_PCOD9143364
_publ_section_title
;
Structure prediction by ZEFSAII (Michael W. Deem and Ramdas Pophale) SiO2 
 PCOD9143364
Probable space group: P 2/M
;
_chemical_formula_sum "Si O2"
_cell_formula_units_Z 32
_cell_length_a 12.244066
_cell_length_b 14.571615
_cell_length_c 14.929340
_cell_angle_alpha 90.000000
_cell_angle_beta 37.318432
_cell_angle_gamma 90.000000
_cell_volume 1614.810658
_symmetry_space_group_name_H-M "P 2/M"
_symmetry_group_IT_number 10
_symmetry_cell_setting 'monoclinic'
loop_
_space_group_symop_operation_xyz
x,y,z
-x,y,-z
-x,-y,-z
x,-y,z
loop_
_atom_site_type_symbol
_atom_site_label
_atom_site_fract_x
_atom_site_fract_y
_atom_site_fract_z
Si Si1 0.696414 0.899765 0.646706
Si Si2 0.288321 0.895363 0.152394
Si Si3 0.271177 0.896604 0.885709
Si Si4 0.010114 0.397490 0.704375
Si Si5 0.048940 0.787580 0.171769
Si Si6 0.815103 0.705362 0.563379
Si Si7 0.297484 0.892090 0.655877
Si Si8 0.639192 0.394437 0.834918
O O1 0.746181 0.894677 0.719222
O O2 0.480197 0.895875 0.778981
O O3 0.775949 0.807518 0.554696
O O4 0.755226 0.000000 0.573066
O O5 0.164055 0.825034 0.180838
O O6 0.257401 0.000000 0.139303
O O7 0.500000 0.875800 0.000000
O O8 0.267240 0.882705 0.782099
O O9 0.199966 0.000000 0.951202
O O10 0.159603 0.822563 0.013539
O O11 0.046113 0.500000 0.713483
O O12 0.978336 0.320588 0.799634
O O13 0.829285 0.399618 0.762038
O O14 0.159612 0.361840 0.536787
O O15 0.856189 0.836107 0.293114
O O16 0.665237 0.668625 0.730943
O O17 0.000000 0.706747 0.500000
O O18 0.500000 0.862519 0.500000
O O19 0.283843 0.000000 0.641997
O O20 0.588756 0.500000 0.843379
O O21 0.500000 0.359290 0.000000
#
# Coordination Sequence:
#
# PCOD9143364 Si02
#       8
#     4   4   4   4   4   4   4   4
#     4  10  21  34  53  86 128 163 196 239 289 360
#     4  10  18  31  52  88 133 166 193 230 288 364
#     4  10  21  39  62  90 124 158 198 247 295 352
#     4  10  23  39  55  83 117 153 201 260 311 356
#     4  12  22  36  65  90 117 165 208 246 304 370
#     4  10  20  35  54  77 114 169 206 242 300 364
#     4  10  23  42  64  92 123 156 205 258 294 343
#     4   9  18  33  56  83 112 152 208 264 303 347
#
# _framework density 19.816565000000001
#
# number of rings (size 3 to 8) (size 9 to 14) (size 15 to 20)
#    0.000    1.875    1.250    3.375    3.500    3.750 
#    0.000    1.250    0.000    1.875    0.000    0.000 
#    0.000    0.000    0.000    0.000    0.000    0.000 
#
# Total GULP energy -178903.768111 kJ/mol
# GULP energy per Si atom -5590.742753 kJ/mol
# Density = 1.977146 g / cm^3
# Si number density = 19.816565 Si / 1000 Ang^3
#
#
#
# Elastic Constant Matrix: (Units=GPa)
#
#
# Indices 1 2 3 4 5 6 
#
# 1 56.8396 39.0608 22.2091 0.0000 1.0183 0.0000
# 2 39.0608 160.6256 57.5835 0.0000 4.5860 0.0000
# 3 22.2091 57.5835 85.2723 0.0000 11.7972 0.0000
# 4 0.0000 0.0000 0.0000 919.3009 0.0000-1050.6158
# 5 1.0183 4.5860 11.7972 0.0000 25.3905 0.0000
# 6 0.0000 0.0000 0.0000-1050.6158 0.0000 1253.8064
#
#
#
# Elastic Compliance Matrix: (Units=1/GPa)
#
#
# Indices 1 2 3 4 5 6 
#
# 1 0.021637 -0.004242 -0.002946 0.000000 0.001267 0.000000
# 2 -0.004242 0.009078 -0.005154 0.000000 0.000925 0.000000
# 3 -0.002946 -0.005154 0.016917 0.000000 -0.006811 0.000000
# 4 0.000000 0.000000 0.000000 0.025676 0.000000 0.021515
# 5 0.001267 0.000925 -0.006811 0.000000 0.042332 0.000000
# 6 0.000000 0.000000 0.000000 0.021515 0.000000 0.018826
#
#
# Mechanical properties :
#
#
# Convention : Reuss Voigt Hill
#
# Bulk Modulus (GPa) = 43.57512 60.04935 51.81224
# Shear Modulus (GPa) = 29.97634 451.95853 240.96744
#
# Velocity S-wave (km/s) = 3.89355 15.11841 11.03916
# Velocity P-wave (km/s) = 6.50000 18.30637 13.73633
#
# Compressibility (1/GPa) = 0.02294888
#
# Stress axis : x y z
#
# Youngs Moduli (GPa) = 46.21773 110.15294 59.11186
#
# Poissons Ratio (x) = 0.46722 0.17416
# Poissons Ratio (y) = 0.19603 0.30465
# Poissons Ratio (z) = 0.13617 0.56770
#
# Static dielectric constant tensor:
#      x y z
#    x 1.671100 0.000000 0.002310 
#    y 0.000000 1.719350 0.000000 
#    z 0.002310 0.000000 1.734070 
# 
# From -- ./inp_files/65081.got.cif
#   From: 2010.05.17/outbox.cif.g08.bks.cpg/sg10_33_cif.got.tgz:65081.got - 2010.06.03 11:33:40.
