data_PCOD9143358
_publ_section_title
;
Structure prediction by ZEFSAII (Michael W. Deem and Ramdas Pophale) SiO2 
 PCOD9143358
Probable space group: P 2/M
;
_chemical_formula_sum "Si O2"
_cell_formula_units_Z 28
_cell_length_a 11.381216
_cell_length_b 13.012676
_cell_length_c 18.702463
_cell_angle_alpha 90.000000
_cell_angle_beta 145.127580
_cell_angle_gamma 90.000000
_cell_volume 1583.656664
_symmetry_space_group_name_H-M "P 2/M"
_symmetry_group_IT_number 10
_symmetry_cell_setting 'monoclinic'
loop_
_space_group_symop_operation_xyz
x,y,z
-x,y,-z
-x,-y,-z
x,-y,z
loop_
_atom_site_type_symbol
_atom_site_label
_atom_site_fract_x
_atom_site_fract_y
_atom_site_fract_z
Si Si1 0.893772 0.378493 0.024356
Si Si2 0.085973 0.235796 0.229667
Si Si3 0.548720 0.788194 0.841221
Si Si4 0.881499 0.881539 0.365648
Si Si5 0.248706 0.117905 0.435268
Si Si6 0.638308 0.881958 0.734557
Si Si7 0.297231 0.113631 0.945468
O O1 0.860901 0.500000 0.012589
O O2 0.040186 0.339384 0.162749
O O3 0.679071 0.315249 0.921383
O O4 0.000000 0.356405 0.000000
O O5 0.238193 0.207736 0.370784
O O6 0.160216 0.158803 0.204363
O O7 0.870740 0.198316 0.154217
O O8 0.304672 0.800791 0.732777
O O9 0.588483 0.817220 0.779517
O O10 0.645396 0.871295 0.943465
O O11 0.000000 0.869076 0.500000
O O12 0.050274 0.874357 0.387680
O O13 0.798949 0.000000 0.323404
O O14 0.447860 0.126768 0.584679
O O15 0.251978 0.000000 0.406054
O O16 0.660319 0.000000 0.765871
O O17 0.215201 0.000000 0.890000
O O18 0.500000 0.127385 0.000000
#
# Coordination Sequence:
#
# PCOD9143358 Si02
#       7
#     4   4   4   4   4   4   4
#     4  10  22  42  61  76  98 134 186 242 292 329
#     4  11  21  34  54  79 105 143 185 223 276 323
#     4  11  20  33  55  81 105 141 185 225 268 319
#     4  10  18  31  52  81 117 156 185 204 240 316
#     4  10  20  33  52  80 121 160 180 203 250 322
#     4  11  20  31  50  84 121 150 176 212 257 322
#     4  10  20  32  48  73 110 150 182 218 260 318
#
# _framework density 17.680599999999998
#
# number of rings (size 3 to 8) (size 9 to 14) (size 15 to 20)
#    0.000    1.571    2.857    3.857    0.000    3.429 
#    0.000    2.143    0.000   18.429    0.000    0.000 
#    0.000    0.000    0.000    0.000    0.000    0.000 
#
# Total GULP energy -156084.411039 kJ/mol
# GULP energy per Si atom -5574.443251 kJ/mol
# Density = 1.764036 g / cm^3
# Si number density = 17.680600 Si / 1000 Ang^3
#
#
#
# Elastic Constant Matrix: (Units=GPa)
#
#
# Indices 1 2 3 4 5 6 
#
# 1 66.1096 28.2013 14.1795 0.0000 -1.3585 0.0000
# 2 28.2013 83.7754 33.4922 0.0000 1.1808 0.0000
# 3 14.1795 33.4922 63.5071 0.0000 -4.5080 0.0000
# 4 0.0000 0.0000 0.0000 21.5861 0.0000 -3.5350
# 5 -1.3585 1.1808 -4.5080 0.0000 30.1483 0.0000
# 6 0.0000 0.0000 0.0000 -3.5350 0.0000 14.4247
#
#
#
# Elastic Compliance Matrix: (Units=1/GPa)
#
#
# Indices 1 2 3 4 5 6 
#
# 1 0.017738 -0.005607 -0.000941 0.000000 0.000878 0.000000
# 2 -0.005607 0.016996 -0.007860 0.000000 -0.002094 0.000000
# 3 -0.000941 -0.007860 0.020336 0.000000 0.003306 0.000000
# 4 0.000000 0.000000 0.000000 0.048263 0.000000 0.011828
# 5 0.000878 -0.002094 0.003306 0.000000 0.033785 0.000000
# 6 0.000000 0.000000 0.000000 0.011828 0.000000 0.072224
#
#
# Mechanical properties :
#
#
# Convention : Reuss Voigt Hill
#
# Bulk Modulus (GPa) = 38.08951 40.57089 39.33020
# Shear Modulus (GPa) = 20.25018 22.39975 21.32497
#
# Velocity S-wave (km/s) = 3.38795 3.56323 3.47669
# Velocity P-wave (km/s) = 6.07406 6.31864 6.19755
#
# Compressibility (1/GPa) = 0.02625395
#
# Stress axis : x y z
#
# Youngs Moduli (GPa) = 56.37512 58.83695 49.17332
#
# Poissons Ratio (x) = 0.32993 0.04627
# Poissons Ratio (y) = 0.31612 0.38650
# Poissons Ratio (z) = 0.05304 0.46246
#
# Static dielectric constant tensor:
#      x y z
#    x 1.624940 0.000000 -0.005490 
#    y 0.000000 1.565530 0.000000 
#    z -0.005490 0.000000 1.669080 
# 
# From -- ./inp_files/55782.got.cif
#   From: 2010.05.17/outbox.cif.g08.bks.cpg/sg10_28_cif.got.tgz:55782.got - 2010.06.03 11:33:40.
