data_PCOD9144652
_publ_section_title
;
Structure prediction by ZEFSAII (Michael W. Deem and Ramdas Pophale) SiO2 
 PCOD9144652
Probable space group: P 2/M
;
_chemical_formula_sum "Si O2"
_cell_formula_units_Z 32
_cell_length_a 21.030768
_cell_length_b 7.978810
_cell_length_c 22.363800
_cell_angle_alpha 90.000000
_cell_angle_beta 152.253303
_cell_angle_gamma 90.000000
_cell_volume 1747.100071
_symmetry_space_group_name_H-M "P 2/M"
_symmetry_group_IT_number 10
_symmetry_cell_setting 'monoclinic'
loop_
_space_group_symop_operation_xyz
x,y,z
-x,y,-z
-x,-y,-z
x,-y,z
loop_
_atom_site_type_symbol
_atom_site_label
_atom_site_fract_x
_atom_site_fract_y
_atom_site_fract_z
Si Si1 0.271589 0.697575 0.079564
Si Si2 0.650319 0.800052 0.977478
Si Si3 0.646200 0.797802 0.316719
Si Si4 0.153837 0.297632 0.619792
Si Si5 0.142006 0.703890 0.091039
Si Si6 0.652133 0.701715 0.112799
Si Si7 0.565608 0.698760 0.615463
Si Si8 0.442833 0.808013 0.633816
O O1 0.302446 0.500000 0.113286
O O2 0.251993 0.732648 0.993645
O O3 0.157558 0.741763 0.033365
O O4 0.406305 0.798779 0.210957
O O5 0.495369 0.738620 0.832833
O O6 0.649146 0.000000 0.973427
O O7 0.689361 0.746745 0.076272
O O8 0.772353 0.749240 0.380448
O O9 0.648121 0.736725 0.387346
O O10 0.638942 0.000000 0.313587
O O11 0.151174 0.500000 0.620155
O O12 0.246031 0.235320 0.751602
O O13 0.000000 0.236030 0.500000
O O14 0.141147 0.500000 0.095585
O O15 0.282900 0.763463 0.240079
O O16 0.000000 0.766391 0.000000
O O17 0.648970 0.500000 0.114340
O O18 0.500000 0.765964 0.000000
O O19 0.500000 0.768844 0.500000
O O20 0.583247 0.500000 0.621640
O O21 0.464848 0.723122 0.588169
O O22 0.403892 0.000000 0.590443
#
# Coordination Sequence:
#
# PCOD9144652 Si02
#       8
#     4   4   4   4   4   4   4   4
#     4   9  16  27  46  71  97 127 159 197 240 282
#     4  10  19  30  48  74 101 126 158 202 244 281
#     4   9  18  31  48  71  96 125 160 197 235 286
#     4  10  21  35  51  72  98 125 157 200 244 287
#     4   8  14  26  46  70  94 122 155 191 232 280
#     4  10  19  32  51  75  97 123 159 199 241 285
#     4   9  17  29  47  72  97 122 157 200 239 279
#     4   9  17  29  46  71  98 125 159 199 238 282
#
# _framework density 18.316065999999999
#
# number of rings (size 3 to 8) (size 9 to 14) (size 15 to 20)
#    0.000    2.750    1.250    2.625    0.000    3.750 
#    0.000    0.000    2.750    9.375    0.000    0.000 
#    0.000    0.000    0.000    0.000    0.000    0.000 
#
# Total GULP energy -178220.184371 kJ/mol
# GULP energy per Si atom -5569.380762 kJ/mol
# Density = 1.827438 g / cm^3
# Si number density = 18.316066 Si / 1000 Ang^3
#
#
#
# Elastic Constant Matrix: (Units=GPa)
#
#
# Indices 1 2 3 4 5 6 
#
# 1 193.5689 1.2736 79.6022 0.0000 -6.4813 0.0000
# 2 1.2736 14.4421 9.6121 0.0000 3.7272 0.0000
# 3 79.6022 9.6121 82.4768 0.0000 -4.1807 0.0000
# 4 0.0000 0.0000 0.0000 6.4985 0.0000 -8.1007
# 5 -6.4813 3.7272 -4.1807 0.0000 28.4515 0.0000
# 6 0.0000 0.0000 0.0000 -8.1007 0.0000 75.0782
#
#
#
# Elastic Compliance Matrix: (Units=1/GPa)
#
#
# Indices 1 2 3 4 5 6 
#
# 1 0.008934 0.005376 -0.009251 0.000000 -0.000028 0.000000
# 2 0.005376 0.082019 -0.015345 0.000000 -0.011775 0.000000
# 3 -0.009251 -0.015345 0.023008 0.000000 0.003284 0.000000
# 4 0.000000 0.000000 0.000000 0.177795 0.000000 0.019183
# 5 -0.000028 -0.011775 0.003284 0.000000 0.037166 0.000000
# 6 0.000000 0.000000 0.000000 0.019183 0.000000 0.015389
#
#
# Mechanical properties :
#
#
# Convention : Reuss Voigt Hill
#
# Bulk Modulus (GPa) = 13.24100 52.38486 32.81293
# Shear Modulus (GPa) = 12.25721 35.33898 23.79810
#
# Velocity S-wave (km/s) = 2.58971 4.39726 3.60849
# Velocity P-wave (km/s) = 4.02330 7.37860 5.94267
#
# Compressibility (1/GPa) = 0.07552300
#
# Stress axis : x y z
#
# Youngs Moduli (GPa) = 111.93267 12.19227 43.46404
#
# Poissons Ratio (x) = -0.06555 0.40207
# Poissons Ratio (y) = -0.60178 0.66694
# Poissons Ratio (z) = 1.03544 0.18708
#
# Static dielectric constant tensor:
#      x y z
#    x 1.663050 0.000000 -0.014670 
#    y 0.000000 1.653260 0.000000 
#    z -0.014670 0.000000 1.622550 
# 
# From -- ./inp_files/86142.got.cif
#   From: 2010.05.17/outbox.cif.g08.bks.cpg/sg10_44_cif.got.tgz:86142.got - 2010.06.03 11:33:40.
