data_PCOD9144271
_publ_section_title
;
Structure prediction by ZEFSAII (Michael W. Deem and Ramdas Pophale) SiO2 
 PCOD9144271
Probable space group: P 2/M
;
_chemical_formula_sum "Si O2"
_cell_formula_units_Z 32
_cell_length_a 32.167010
_cell_length_b 8.876298
_cell_length_c 21.411061
_cell_angle_alpha 90.000000
_cell_angle_beta 20.360734
_cell_angle_gamma 90.000000
_cell_volume 2127.022911
_symmetry_space_group_name_H-M "P 2/M"
_symmetry_group_IT_number 10
_symmetry_cell_setting 'monoclinic'
loop_
_space_group_symop_operation_xyz
x,y,z
-x,y,-z
-x,-y,-z
x,-y,z
loop_
_atom_site_type_symbol
_atom_site_label
_atom_site_fract_x
_atom_site_fract_y
_atom_site_fract_z
Si Si1 0.013904 0.318730 0.632518
Si Si2 0.927950 0.179725 0.016828
Si Si3 0.273212 0.680068 0.459165
Si Si4 0.829304 0.679613 0.268228
Si Si5 0.031213 0.180027 0.742819
Si Si6 0.237877 0.179377 0.244417
Si Si7 0.498429 0.181124 0.928920
Si Si8 0.871747 0.326850 0.716126
O O1 0.018514 0.500000 0.626195
O O2 0.000165 0.254849 0.720943
O O3 0.137260 0.257337 0.429094
O O4 0.906788 0.273757 0.736055
O O5 0.048815 0.256630 0.872659
O O6 0.934301 0.211240 0.934057
O O7 0.935354 0.000000 0.014992
O O8 0.824118 0.244869 0.207354
O O9 0.261952 0.500000 0.467985
O O10 0.267190 0.714032 0.542110
O O11 0.158718 0.756581 0.587282
O O12 0.393341 0.739400 0.258854
O O13 0.837930 0.500000 0.248938
O O14 0.041448 0.000000 0.721499
O O15 0.213339 0.229359 0.207786
O O16 0.224059 0.000000 0.269820
O O17 0.369890 0.221378 0.081250
O O18 0.513329 0.000000 0.902836
O O19 0.500000 0.219797 0.000000
O O20 0.829604 0.500000 0.777449
O O21 0.000000 0.327463 0.500000
#
# Coordination Sequence:
#
# PCOD9144271 Si02
#       8
#     4   4   4   4   4   4   4   4
#     4  10  19  30  45  64  86 113 143 174 213 258
#     4   9  16  25  39  59  81 109 140 167 205 252
#     4  10  20  31  44  62  83 113 150 181 212 250
#     4   9  16  26  40  58  80 106 139 176 208 242
#     4  10  19  29  42  62  89 116 142 175 212 252
#     4  10  19  30  46  65  84 111 146 181 216 251
#     4  10  21  34  45  60  85 115 147 182 215 246
#     4   8  16  30  45  62  84 109 138 174 214 255
#
# _framework density 15.044501
#
# number of rings (size 3 to 8) (size 9 to 14) (size 15 to 20)
#    0.000    2.500    0.000    4.500    0.000    8.000 
#    0.000    0.000    0.000    0.000    0.000    0.000 
#    0.000    1.000    0.000   11.000    0.000    8.000 
#
# Total GULP energy -178244.183060 kJ/mol
# GULP energy per Si atom -5570.130721 kJ/mol
# Density = 1.501026 g / cm^3
# Si number density = 15.044501 Si / 1000 Ang^3
#
#
#
# Elastic Constant Matrix: (Units=GPa)
#
#
# Indices 1 2 3 4 5 6 
#
# 1 140.9467 50.0462 57.0113 0.0000 16.4040 0.0000
# 2 50.0462 52.6287 31.1248 0.0000 8.1809 0.0000
# 3 57.0113 31.1248 59.4652 0.0000 15.0303 0.0000
# 4 0.0000 0.0000 0.0000 19.8175 0.0000 4.4014
# 5 16.4040 8.1809 15.0303 0.0000 26.1640 0.0000
# 6 0.0000 0.0000 0.0000 4.4014 0.0000 26.9050
#
#
#
# Elastic Compliance Matrix: (Units=1/GPa)
#
#
# Indices 1 2 3 4 5 6 
#
# 1 0.013350 -0.007414 -0.008644 0.000000 -0.001086 0.000000
# 2 -0.007414 0.031641 -0.009508 0.000000 0.000217 0.000000
# 3 -0.008644 -0.009508 0.032708 0.000000 -0.010397 0.000000
# 4 0.000000 0.000000 0.000000 0.052363 0.000000 -0.008566
# 5 -0.001086 0.000217 -0.010397 0.000000 0.044807 0.000000
# 6 0.000000 0.000000 0.000000 -0.008566 0.000000 0.038569
#
#
# Mechanical properties :
#
#
# Convention : Reuss Voigt Hill
#
# Bulk Modulus (GPa) = 37.64028 58.82282 48.23155
# Shear Modulus (GPa) = 18.28649 22.23452 20.26050
#
# Velocity S-wave (km/s) = 3.49017 3.84854 3.67373
# Velocity P-wave (km/s) = 6.42770 7.67675 7.07982
#
# Compressibility (1/GPa) = 0.02656728
#
# Stress axis : x y z
#
# Youngs Moduli (GPa) = 74.90441 31.60500 30.57312
#
# Poissons Ratio (x) = 0.23432 0.26428
# Poissons Ratio (y) = 0.55535 0.29068
# Poissons Ratio (z) = 0.64749 0.30049
#
# Static dielectric constant tensor:
#      x y z
#    x 1.529900 0.000000 0.030230 
#    y 0.000000 1.503910 0.000000 
#    z 0.030230 0.000000 1.484360 
# 
# From -- ./inp_files/87195.got.cif
#   From: 2010.05.17/outbox.cif.g08.bks.cpg/sg10_44_cif.got.tgz:87195.got - 2010.06.03 11:33:40.
