data_PCOD9144707
_publ_section_title
;
Structure prediction by ZEFSAII (Michael W. Deem and Ramdas Pophale) SiO2 
 PCOD9144707
Probable space group: P 2/M
;
_chemical_formula_sum "Si O2"
_cell_formula_units_Z 28
_cell_length_a 10.474539
_cell_length_b 7.358213
_cell_length_c 14.775490
_cell_angle_alpha 90.000000
_cell_angle_beta 93.485807
_cell_angle_gamma 90.000000
_cell_volume 1136.697564
_symmetry_space_group_name_H-M "P 2/M"
_symmetry_group_IT_number 10
_symmetry_cell_setting 'monoclinic'
loop_
_space_group_symop_operation_xyz
x,y,z
-x,y,-z
-x,-y,-z
x,-y,z
loop_
_atom_site_type_symbol
_atom_site_label
_atom_site_fract_x
_atom_site_fract_y
_atom_site_fract_z
Si Si1 0.252979 0.721968 0.434743
Si Si2 0.686671 0.779153 0.059231
Si Si3 0.969030 0.713909 0.706759
Si Si4 0.582592 0.780773 0.867466
Si Si5 0.035844 0.781474 0.901580
Si Si6 0.481061 0.290765 0.330396
Si Si7 0.236116 0.279295 0.643516
O O1 0.256177 0.500000 0.431165
O O2 0.142219 0.786688 0.362216
O O3 0.390099 0.787221 0.403869
O O4 0.226120 0.767759 0.537054
O O5 0.676090 0.725654 0.953022
O O6 0.684754 0.000000 0.060234
O O7 0.558548 0.721410 0.104602
O O8 0.818510 0.717525 0.108310
O O9 0.973432 0.500000 0.687273
O O10 0.948487 0.733800 0.812941
O O11 0.109763 0.789145 0.688703
O O12 0.597675 0.714169 0.766588
O O13 0.585433 0.000000 0.864035
O O14 0.036267 0.000000 0.905514
O O15 0.000000 0.716544 0.000000
O O16 0.503317 0.500000 0.357338
O O17 0.622948 0.213358 0.320427
O O18 0.234802 0.500000 0.652793
#
# Coordination Sequence:
#
# PCOD9144707 Si02
#       7
#     4   4   4   4   4   4   4
#     4   9  18  32  51  76 105 134 165 204 251 300
#     4   8  16  32  50  69  93 129 173 204 237 295
#     4  10  20  34  54  78 101 130 170 211 249 291
#     4   9  17  31  52  71  94 130 168 205 244 293
#     4  10  21  35  52  73 101 135 169 203 247 303
#     4  10  19  30  49  77 104 127 161 206 251 292
#     4   9  17  32  54  76 100 134 172 204 241 300
#
# _framework density 24.632760999999999
#
# number of rings (size 3 to 8) (size 9 to 14) (size 15 to 20)
#    0.000    2.714    0.000    2.571    2.000    3.714 
#    0.000    2.143    0.000    5.143    0.000    0.000 
#    0.000    0.000    0.000    0.000    0.000    0.000 
#
# Total GULP energy -156497.475169 kJ/mol
# GULP energy per Si atom -5589.195542 kJ/mol
# Density = 2.457670 g / cm^3
# Si number density = 24.632761 Si / 1000 Ang^3
#
#
#
# Elastic Constant Matrix: (Units=GPa)
#
#
# Indices 1 2 3 4 5 6 
#
# 1 68.2792 4.8485 25.0021 0.0000 14.3430 0.0000
# 2 4.8485 90.6815 -14.9328 0.0000 -3.2003 0.0000
# 3 25.0021 -14.9328 109.0192 0.0000 12.3147 0.0000
# 4 0.0000 0.0000 0.0000 15.6408 0.0000 12.4084
# 5 14.3430 -3.2003 12.3147 0.0000 40.8803 0.0000
# 6 0.0000 0.0000 0.0000 12.4084 0.0000 -9.1973
#
#
#
# Elastic Compliance Matrix: (Units=1/GPa)
#
#
# Indices 1 2 3 4 5 6 
#
# 1 0.017144 -0.001687 -0.003591 0.000000 -0.005066 0.000000
# 2 -0.001687 0.011455 0.001851 0.000000 0.000931 0.000000
# 3 -0.003591 0.001851 0.010446 0.000000 -0.001742 0.000000
# 4 0.000000 0.000000 0.000000 0.030882 0.000000 0.041664
# 5 -0.005066 0.000931 -0.001742 0.000000 0.026837 0.000000
# 6 0.000000 0.000000 0.000000 0.041664 0.000000 -0.052517
#
#
# Mechanical properties :
#
#
# Convention : Reuss Voigt Hill
#
# Bulk Modulus (GPa) = 31.06266 33.09063 32.07664
# Shear Modulus (GPa) = 80.86407 26.33554 53.59980
#
# Velocity S-wave (km/s) = 5.73578 3.27330 4.66977
# Velocity P-wave (km/s) = 7.51686 5.26770 6.49045
#
# Compressibility (1/GPa) = 0.03219299
#
# Stress axis : x y z
#
# Youngs Moduli (GPa) = 58.32792 87.29489 95.72608
#
# Poissons Ratio (x) = 0.14724 0.34372
# Poissons Ratio (y) = 0.09838 -0.17717
# Poissons Ratio (z) = 0.20944 -0.16156
#
# Static dielectric constant tensor:
#      x y z
#    x 1.948280 0.000000 -0.012260 
#    y 0.000000 1.957390 0.000000 
#    z -0.012260 0.000000 1.908910 
# 
# From -- ./inp_files/46037.got.cif
#   From: 2010.05.17/outbox.cif.g08.bks.cpg/sg10_24_cif.got.tgz:46037.got - 2010.06.03 11:33:40.
