data_PCOD9144856
_publ_section_title
;
Structure prediction by ZEFSAII (Michael W. Deem and Ramdas Pophale) SiO2 
 PCOD9144856
Probable space group: P 2/M
;
_chemical_formula_sum "Si O2"
_cell_formula_units_Z 32
_cell_length_a 7.361122
_cell_length_b 15.525307
_cell_length_c 14.633419
_cell_angle_alpha 90.000000
_cell_angle_beta 116.893725
_cell_angle_gamma 90.000000
_cell_volume 1491.490229
_symmetry_space_group_name_H-M "P 2/M"
_symmetry_group_IT_number 10
_symmetry_cell_setting 'monoclinic'
loop_
_space_group_symop_operation_xyz
x,y,z
-x,y,-z
-x,-y,-z
x,-y,z
loop_
_atom_site_type_symbol
_atom_site_label
_atom_site_fract_x
_atom_site_fract_y
_atom_site_fract_z
Si Si1 0.285506 0.097840 0.276469
Si Si2 0.029681 0.151297 0.651911
Si Si3 0.766907 0.400207 0.123777
Si Si4 0.287584 0.906199 0.550569
Si Si5 0.622849 0.714421 0.726362
Si Si6 0.960283 0.330321 0.661958
Si Si7 0.313266 0.603582 0.087406
Si Si8 0.663968 0.401774 0.453667
O O1 0.070855 0.110925 0.280429
O O2 0.471634 0.099160 0.391854
O O3 0.351549 0.185082 0.237546
O O4 0.290178 0.000000 0.237687
O O5 0.838813 0.159998 0.537853
O O6 0.104721 0.247790 0.683403
O O7 0.200406 0.101088 0.633906
O O8 0.740704 0.500000 0.098424
O O9 0.547025 0.374181 0.112489
O O10 0.930601 0.390023 0.239971
O O11 0.809548 0.365930 0.031078
O O12 0.226448 0.000000 0.500055
O O13 0.768175 0.709887 0.671348
O O14 0.714566 0.654394 0.825734
O O15 0.419486 0.666981 0.639854
O O16 0.872120 0.375122 0.552354
O O17 0.289687 0.500000 0.098206
O O18 0.500000 0.404455 0.500000
O O19 0.674607 0.500000 0.418479
#
# Coordination Sequence:
#
# PCOD9144856 Si02
#       8
#     4   4   4   4   4   4   4   4
#     4  10  20  33  50  75 106 142 182 229 277 323
#     4  10  19  31  47  73 106 138 179 231 269 317
#     4   9  19  36  55  77 106 138 175 224 278 321
#     4  10  19  31  50  72  98 145 189 225 277 322
#     4  10  20  33  53  78 106 143 183 220 270 327
#     4  10  20  32  49  77 108 143 180 218 266 320
#     4   9  19  36  57  79 105 138 176 226 278 322
#     4   9  17  30  47  70 107 145 174 210 259 319
#
# _framework density 21.455052999999999
#
# number of rings (size 3 to 8) (size 9 to 14) (size 15 to 20)
#    0.000    2.375    0.000    4.125    1.750    5.000 
#    0.000    1.250    0.000    2.250    0.000   10.500 
#    0.000    0.000    0.000    0.000    0.000    0.000 
#
# Total GULP energy -178243.207621 kJ/mol
# GULP energy per Si atom -5570.100238 kJ/mol
# Density = 2.140622 g / cm^3
# Si number density = 21.455053 Si / 1000 Ang^3
#
#
#
# Elastic Constant Matrix: (Units=GPa)
#
#
# Indices 1 2 3 4 5 6 
#
# 1 51.7980 24.5738 26.8667 0.0000 -6.9459 0.0000
# 2 24.5738 119.5166 37.8180 0.0000 -13.4128 0.0000
# 3 26.8667 37.8180 84.3756 0.0000 2.1472 0.0000
# 4 0.0000 0.0000 0.0000 6.3566 0.0000 -7.4570
# 5 -6.9459 -13.4128 2.1472 0.0000 24.3042 0.0000
# 6 0.0000 0.0000 0.0000 -7.4570 0.0000 18.7047
#
#
#
# Elastic Compliance Matrix: (Units=1/GPa)
#
#
# Indices 1 2 3 4 5 6 
#
# 1 0.024900 -0.002121 -0.007146 0.000000 0.006577 0.000000
# 2 -0.002121 0.010814 -0.004318 0.000000 0.005743 0.000000
# 3 -0.007146 -0.004318 0.016211 0.000000 -0.005857 0.000000
# 4 0.000000 0.000000 0.000000 0.295535 0.000000 0.117821
# 5 0.006577 0.005743 -0.005857 0.000000 0.046712 0.000000
# 6 0.000000 0.000000 0.000000 0.117821 0.000000 0.100434
#
#
# Mechanical properties :
#
#
# Convention : Reuss Voigt Hill
#
# Bulk Modulus (GPa) = 40.39184 48.24524 44.31854
# Shear Modulus (GPa) = 9.43349 20.96852 15.20101
#
# Velocity S-wave (km/s) = 2.09914 3.12961 2.66466
# Velocity P-wave (km/s) = 4.97417 5.96613 5.49259
#
# Compressibility (1/GPa) = 0.02475747
#
# Stress axis : x y z
#
# Youngs Moduli (GPa) = 40.16058 92.47391 61.68501
#
# Poissons Ratio (x) = 0.19609 0.44077
# Poissons Ratio (y) = 0.08516 0.26635
# Poissons Ratio (z) = 0.28697 0.39929
#
# Static dielectric constant tensor:
#      x y z
#    x 1.885820 0.000000 -0.021930 
#    y 0.000000 1.820310 0.000000 
#    z -0.021930 0.000000 1.773750 
# 
# From -- ./inp_files/61873.got.cif
#   From: 2010.05.17/outbox.cif.g08.bks.cpg/sg10_31_cif.got.tgz:61873.got - 2010.06.03 11:33:40.
