data_PCOD9144664
_publ_section_title
;
Structure prediction by ZEFSAII (Michael W. Deem and Ramdas Pophale) SiO2 
 PCOD9144664
Probable space group: P 2/M
;
_chemical_formula_sum "Si O2"
_cell_formula_units_Z 30
_cell_length_a 29.354244
_cell_length_b 11.652272
_cell_length_c 5.303163
_cell_angle_alpha 90.000000
_cell_angle_beta 63.485546
_cell_angle_gamma 90.000000
_cell_volume 1623.128979
_symmetry_space_group_name_H-M "P 2/M"
_symmetry_group_IT_number 10
_symmetry_cell_setting 'monoclinic'
loop_
_space_group_symop_operation_xyz
x,y,z
-x,y,-z
-x,-y,-z
x,-y,z
loop_
_atom_site_type_symbol
_atom_site_label
_atom_site_fract_x
_atom_site_fract_y
_atom_site_fract_z
Si Si1 0.100475 0.638519 0.134849
Si Si2 0.964649 0.000000 0.333491
Si Si3 0.619532 0.783256 0.954860
Si Si4 0.785177 0.637939 0.010310
Si Si5 0.571923 0.127748 0.572388
Si Si6 0.485850 0.670864 0.784932
Si Si7 0.722775 0.360460 0.667449
Si Si8 0.056422 0.253218 0.737469
O O1 0.098233 0.500000 0.104874
O O2 0.064350 0.673939 0.460524
O O3 0.156992 0.675100 0.085533
O O4 0.089369 0.699377 0.892815
O O5 0.935091 0.879023 0.375318
O O6 0.000000 0.000000 0.500000
O O7 0.000000 0.000000 0.000000
O O8 0.607362 0.852416 0.240396
O O9 0.573367 0.693651 0.068907
O O10 0.606674 0.853854 0.733698
O O11 0.672005 0.714850 0.819540
O O12 0.787597 0.500000 0.999623
O O13 0.749746 0.667419 0.335580
O O14 0.760087 0.670726 0.807058
O O15 0.524027 0.216004 0.690579
O O16 0.550681 0.000000 0.622316
O O17 0.500000 0.610983 0.500000
O O18 0.500000 0.611030 0.000000
O O19 0.713370 0.500000 0.699361
O O20 0.000000 0.260100 0.000000
#
# Coordination Sequence:
#
# PCOD9144664 Si02
#       8
#     4   2   4   4   4   4   4   4
#     4  11  22  36  56  87 120 149 184 228 289 354
#     4  10  20  38  58  80 112 150 204 242 250 290
#     4  10  19  30  48  75  97 125 165 210 257 305
#     4   9  19  35  55  79 104 134 176 223 266 316
#     4  10  19  31  48  72 101 133 167 204 251 315
#     4   8  16  27  42  64  98 123 155 198 242 303
#     4  10  19  34  55  77  99 128 174 225 268 305
#     4  11  22  36  57  86 120 157 191 230 272 321
#
# _framework density 18.482818999999999
#
# number of rings (size 3 to 8) (size 9 to 14) (size 15 to 20)
#    0.000    2.133    0.000    4.400    0.000    8.533 
#    0.000    0.000    0.000    7.200   34.667    0.000 
#    0.000    0.000    0.000    0.000    0.000    0.000 
#
# Total GULP energy -167014.237059 kJ/mol
# GULP energy per Si atom -5567.141235 kJ/mol
# Density = 1.844075 g / cm^3
# Si number density = 18.482819 Si / 1000 Ang^3
#
#
#
# Elastic Constant Matrix: (Units=GPa)
#
#
# Indices 1 2 3 4 5 6 
#
# 1 76.9393 31.0823 24.3317 0.0000 9.1656 0.0000
# 2 31.0823 102.9045 20.7133 0.0000 3.6045 0.0000
# 3 24.3317 20.7133 99.9236 0.0000 27.4170 0.0000
# 4 0.0000 0.0000 0.0000 14.9424 0.0000 1.6762
# 5 9.1656 3.6045 27.4170 0.0000 41.8818 0.0000
# 6 0.0000 0.0000 0.0000 1.6762 0.0000 17.8449
#
#
#
# Elastic Compliance Matrix: (Units=1/GPa)
#
#
# Indices 1 2 3 4 5 6 
#
# 1 0.015657 -0.004163 -0.002569 0.000000 -0.001386 0.000000
# 2 -0.004163 0.011261 -0.001590 0.000000 0.000983 0.000000
# 3 -0.002569 -0.001590 0.013129 0.000000 -0.007896 0.000000
# 4 0.000000 0.000000 0.000000 0.067636 0.000000 -0.006353
# 5 -0.001386 0.000983 -0.007896 0.000000 0.029264 0.000000
# 6 0.000000 0.000000 0.000000 -0.006353 0.000000 0.056635
#
#
# Mechanical properties :
#
#
# Convention : Reuss Voigt Hill
#
# Bulk Modulus (GPa) = 42.73205 48.00244 45.36725
# Shear Modulus (GPa) = 22.93273 28.50982 25.72128
#
# Velocity S-wave (km/s) = 3.52626 3.93173 3.73451
# Velocity P-wave (km/s) = 6.30472 6.82929 6.57224
#
# Compressibility (1/GPa) = 0.02340164
#
# Stress axis : x y z
#
# Youngs Moduli (GPa) = 63.86987 88.80220 76.16562
#
# Poissons Ratio (x) = 0.36973 0.19567
# Poissons Ratio (y) = 0.26592 0.12112
# Poissons Ratio (z) = 0.16409 0.14121
#
# Static dielectric constant tensor:
#      x y z
#    x 1.631450 0.000000 0.029020 
#    y 0.000000 1.650200 0.000000 
#    z 0.029020 0.000000 1.644410 
# 
# From -- ./inp_files/13138.got.cif
#   From: 2010.05.17/outbox.cif.g08.bks.cpg/sg10_7_cif.got.tgz:13138.got - 2010.06.03 11:33:40.
