data_PCOD9144338
_publ_section_title
;
Structure prediction by ZEFSAII (Michael W. Deem and Ramdas Pophale) SiO2 
 PCOD9144338
Probable space group: P 2/M
;
_chemical_formula_sum "Si O2"
_cell_formula_units_Z 28
_cell_length_a 26.975247
_cell_length_b 7.336937
_cell_length_c 24.748729
_cell_angle_alpha 90.000000
_cell_angle_beta 16.139778
_cell_angle_gamma 90.000000
_cell_volume 1361.598902
_symmetry_space_group_name_H-M "P 2/M"
_symmetry_group_IT_number 10
_symmetry_cell_setting 'monoclinic'
loop_
_space_group_symop_operation_xyz
x,y,z
-x,y,-z
-x,-y,-z
x,-y,z
loop_
_atom_site_type_symbol
_atom_site_label
_atom_site_fract_x
_atom_site_fract_y
_atom_site_fract_z
Si Si1 0.722782 0.222161 0.425188
Si Si2 0.614987 0.215094 0.155042
Si Si3 0.468773 0.221605 0.593672
Si Si4 0.320854 0.281303 0.037435
Si Si5 0.582941 0.722292 0.855791
Si Si6 0.870755 0.777839 0.981276
Si Si7 0.978326 0.277709 0.460405
O O1 0.577807 0.282474 0.622098
O O2 0.627087 0.275428 0.469062
O O3 0.729916 0.000000 0.418294
O O4 0.926215 0.284253 0.221349
O O5 0.647284 0.239439 0.058156
O O6 0.777713 0.282474 0.022383
O O7 0.609529 0.000000 0.171416
O O8 0.500000 0.283418 0.500000
O O9 0.276757 0.275429 0.819390
O O10 0.468902 0.000000 0.593285
O O11 0.318937 0.500000 0.043185
O O12 0.472330 0.215895 0.920011
O O13 0.135326 0.215895 0.257016
O O14 0.578357 0.500000 0.861071
O O15 0.786483 0.779428 0.640550
O O16 0.500000 0.779266 0.000000
O O17 0.878131 0.000000 0.973660
O O18 0.982213 0.500000 0.457215
O O19 0.000000 0.220734 0.500000
#
# Coordination Sequence:
#
# PCOD9144338 Si02
#       7
#     4   4   4   4   4   4   4
#     4   8  14  25  40  56  78 113 150 177 206 250
#     4   9  18  31  44  59  83 115 149 177 203 247
#     4   8  13  20  32  56  87 113 141 179 217 251
#     4  10  19  29  45  68  88 106 135 177 217 251
#     4   9  15  25  42  64  86 106 130 163 206 255
#     4   8  14  25  40  56  78 113 150 177 206 250
#     4   9  15  25  42  64  86 106 130 163 206 255
#
# _framework density 20.564056999999998
#
# number of rings (size 3 to 8) (size 9 to 14) (size 15 to 20)
#    0.000    3.286    1.429    1.714    0.000    1.714 
#    0.000    2.857    0.000    0.857    0.000    0.000 
#    0.000    9.143    0.000   10.286    0.000   11.429 
#
# Total GULP energy -156170.187738 kJ/mol
# GULP energy per Si atom -5577.506705 kJ/mol
# Density = 2.051725 g / cm^3
# Si number density = 20.564057 Si / 1000 Ang^3
#
#
#
# Elastic Constant Matrix: (Units=GPa)
#
#
# Indices 1 2 3 4 5 6 
#
# 1 203.1393 1.1702 167.7744 0.0000 1.8169 0.0000
# 2 1.1702 76.1465 5.3202 0.0000 -4.5890 0.0000
# 3 167.7744 5.3202 221.6461 0.0000 -22.2681 0.0000
# 4 0.0000 0.0000 0.0000 -7.7582 0.0000 15.0154
# 5 1.8169 -4.5890 -22.2681 0.0000 43.5004 0.0000
# 6 0.0000 0.0000 0.0000 15.0154 0.0000 5.8195
#
#
#
# Elastic Compliance Matrix: (Units=1/GPa)
#
#
# Indices 1 2 3 4 5 6 
#
# 1 0.014776 0.000200 -0.011859 0.000000 -0.006667 0.000000
# 2 0.000200 0.013227 -0.000347 0.000000 0.001209 0.000000
# 3 -0.011859 -0.000347 0.014277 0.000000 0.007767 0.000000
# 4 0.000000 0.000000 0.000000 -0.021505 0.000000 0.055487
# 5 -0.006667 0.001209 0.007767 0.000000 0.027370 0.000000
# 6 0.000000 0.000000 0.000000 0.055487 0.000000 0.028669
#
#
# Mechanical properties :
#
#
# Convention : Reuss Voigt Hill
#
# Bulk Modulus (GPa) = 54.74520 94.38462 74.56491
# Shear Modulus (GPa) = 46.76616 30.09016 38.42816
#
# Velocity S-wave (km/s) = 4.77400 3.82938 4.32754
# Velocity P-wave (km/s) = 7.55432 8.09628 7.82999
#
# Compressibility (1/GPa) = 0.01826644
#
# Stress axis : x y z
#
# Youngs Moduli (GPa) = 67.67935 75.60498 70.04314
#
# Poissons Ratio (x) = -0.01510 0.83063
# Poissons Ratio (y) = -0.01352 0.02432
# Poissons Ratio (z) = 0.80260 0.02625
#
# Static dielectric constant tensor:
#      x y z
#    x 1.700430 0.000000 -0.003670 
#    y 0.000000 1.825770 0.000000 
#    z -0.003670 0.000000 1.703760 
# 
# From -- ./inp_files/79525.got.cif
#   From: 2010.05.17/outbox.cif.g08.bks.cpg/sg10_40_cif.got.tgz:79525.got - 2010.06.03 11:33:40.
