data_PCOD9144053
_publ_section_title
;
Structure prediction by ZEFSAII (Michael W. Deem and Ramdas Pophale) SiO2 
 PCOD9144053
Probable space group: P 2/M
;
_chemical_formula_sum "Si O2"
_cell_formula_units_Z 20
_cell_length_a 8.573470
_cell_length_b 13.172475
_cell_length_c 12.261157
_cell_angle_alpha 90.000000
_cell_angle_beta 47.865653
_cell_angle_gamma 90.000000
_cell_volume 1026.856724
_symmetry_space_group_name_H-M "P 2/M"
_symmetry_group_IT_number 10
_symmetry_cell_setting 'monoclinic'
loop_
_space_group_symop_operation_xyz
x,y,z
-x,y,-z
-x,-y,-z
x,-y,z
loop_
_atom_site_type_symbol
_atom_site_label
_atom_site_fract_x
_atom_site_fract_y
_atom_site_fract_z
Si Si1 0.459578 0.295671 0.801316
Si Si2 0.617520 0.500000 0.831262
Si Si3 0.022663 0.885389 0.217364
Si Si4 0.920632 0.500000 0.411340
Si Si5 0.000000 0.230811 0.000000
Si Si6 0.500000 0.163522 0.000000
Si Si7 0.169455 0.274103 0.520559
O O1 0.558610 0.403400 0.786461
O O2 0.212191 0.296890 0.894320
O O3 0.603279 0.250029 0.637839
O O4 0.482978 0.230511 0.899664
O O5 0.859053 0.500000 0.753590
O O6 0.500000 0.500000 0.000000
O O7 0.997991 0.839911 0.107868
O O8 0.915114 0.806205 0.351640
O O9 0.938131 0.000000 0.266855
O O10 0.275042 0.889987 0.117478
O O11 0.000000 0.500000 0.500000
O O12 0.816781 0.390345 0.441025
O O13 0.000000 0.274179 0.500000
#
# Coordination Sequence:
#
# PCOD9144053 Si02
#       7
#     4   2   4   2   2   2   4
#     4  11  21  39  60  93 127 166 204 258 303 373
#     4  12  20  31  65  96 124 160 214 254 308 363
#     4  11  23  42  65  90 123 166 211 263 314 370
#     4  10  18  34  59  98 125 157 184 256 320 359
#     4  10  27  43  58  84 132 169 206 248 317 382
#     4  10  19  37  62  92 122 155 208 264 309 354
#     4  11  20  38  65  98 124 156 211 258 315 364
#
# _framework density 19.476915000000002
#
# number of rings (size 3 to 8) (size 9 to 14) (size 15 to 20)
#    0.000    1.200    7.000    0.600    2.800    1.600 
#    0.000    4.000    0.000    2.400    0.000    0.000 
#    0.000    0.000    0.000    0.000    0.000    0.000 
#
# Total GULP energy -111555.756092 kJ/mol
# GULP energy per Si atom -5577.787805 kJ/mol
# Density = 1.943258 g / cm^3
# Si number density = 19.476915 Si / 1000 Ang^3
#
#
#
# Elastic Constant Matrix: (Units=GPa)
#
#
# Indices 1 2 3 4 5 6 
#
# 1 61.9239 9.1300 32.1606 0.0000 -13.0134 0.0000
# 2 9.1300 117.6437 54.0924 0.0000 5.4202 0.0000
# 3 32.1606 54.0924 168.6651 0.0000 -12.1940 0.0000
# 4 0.0000 0.0000 0.0000 22.1455 0.0000 -5.1388
# 5 -13.0134 5.4202 -12.1940 0.0000 32.5621 0.0000
# 6 0.0000 0.0000 0.0000 -5.1388 0.0000 7.9691
#
#
#
# Elastic Compliance Matrix: (Units=1/GPa)
#
#
# Indices 1 2 3 4 5 6 
#
# 1 0.019177 -0.000386 -0.003057 0.000000 0.006584 0.000000
# 2 -0.000386 0.010259 -0.003444 0.000000 -0.003152 0.000000
# 3 -0.003057 -0.003444 0.007780 0.000000 0.002265 0.000000
# 4 0.000000 0.000000 0.000000 0.053101 0.000000 0.034242
# 5 0.006584 -0.003152 0.002265 0.000000 0.034715 0.000000
# 6 0.000000 0.000000 0.000000 0.034242 0.000000 0.147564
#
#
# Mechanical properties :
#
#
# Convention : Reuss Voigt Hill
#
# Bulk Modulus (GPa) = 42.65921 59.88876 51.27398
# Shear Modulus (GPa) = 16.99609 29.39198 23.19404
#
# Velocity S-wave (km/s) = 2.95723 3.88889 3.45461
# Velocity P-wave (km/s) = 5.79744 7.14002 6.50347
#
# Compressibility (1/GPa) = 0.02344160
#
# Stress axis : x y z
#
# Youngs Moduli (GPa) = 52.14601 97.47354 128.53106
#
# Poissons Ratio (x) = 0.03763 0.39290
# Poissons Ratio (y) = 0.02013 0.44272
# Poissons Ratio (z) = 0.15940 0.33575
#
# Static dielectric constant tensor:
#      x y z
#    x 1.691080 0.000000 -0.038660 
#    y 0.000000 1.681910 0.000000 
#    z -0.038660 0.000000 1.736050 
# 
# From -- ./inp_files/41913.got.cif
#   From: 2010.05.17/outbox.cif.g08.bks.cpg/sg10_21_cif.got.tgz:41913.got - 2010.06.03 11:33:40.
