data_PCOD9144637
_publ_section_title
;
Structure prediction by ZEFSAII (Michael W. Deem and Ramdas Pophale) SiO2 
 PCOD9144637
Probable space group: P 2/M
;
_chemical_formula_sum "Si O2"
_cell_formula_units_Z 32
_cell_length_a 16.511774
_cell_length_b 23.887927
_cell_length_c 9.614406
_cell_angle_alpha 90.000000
_cell_angle_beta 159.260231
_cell_angle_gamma 90.000000
_cell_volume 1342.919807
_symmetry_space_group_name_H-M "P 2/M"
_symmetry_group_IT_number 10
_symmetry_cell_setting 'monoclinic'
loop_
_space_group_symop_operation_xyz
x,y,z
-x,y,-z
-x,-y,-z
x,-y,z
loop_
_atom_site_type_symbol
_atom_site_label
_atom_site_fract_x
_atom_site_fract_y
_atom_site_fract_z
Si Si1 0.013843 0.062292 0.756863
Si Si2 0.299408 0.630955 0.063550
Si Si3 0.383368 0.061457 0.117067
Si Si4 0.523953 0.177456 0.261314
Si Si5 0.616602 0.434416 0.376861
Si Si6 0.981519 0.564857 0.743807
Si Si7 0.196617 0.761371 0.922382
Si Si8 0.881238 0.182495 0.622106
O O1 0.814639 0.061624 0.318950
O O2 0.965295 0.118221 0.764317
O O3 0.247729 0.069180 0.044000
O O4 0.007347 0.000000 0.811101
O O5 0.500000 0.624552 0.500000
O O6 0.412556 0.603598 0.108342
O O7 0.080332 0.599625 0.775002
O O8 0.238697 0.696111 0.963960
O O9 0.490249 0.000000 0.286973
O O10 0.542860 0.112532 0.332988
O O11 0.753662 0.199062 0.558605
O O12 0.424470 0.208617 0.235177
O O13 0.324465 0.182599 0.823409
O O14 0.548729 0.500000 0.257582
O O15 0.748072 0.417509 0.446542
O O16 0.818744 0.432694 0.817799
O O17 0.958679 0.500000 0.667311
O O18 0.000000 0.781187 0.500000
O O19 0.082968 0.778778 0.885588
#
# Coordination Sequence:
#
# PCOD9144637 Si02
#       8
#     4   4   4   4   4   4   4   4
#     4   8  12  19  33  53  78 106 135 174 224 269
#     4  10  19  30  48  71  91 115 149 184 214 252
#     4   8  12  19  33  53  78 106 135 174 224 269
#     4   9  16  26  40  56  78 113 151 181 215 263
#     4   8  14  26  46  72  97 116 138 175 221 262
#     4   8  14  26  46  72  97 116 138 175 221 262
#     4  10  20  33  44  59  88 122 153 184 214 250
#     4   9  16  26  40  56  78 113 151 181 215 263
#
# _framework density 23.828673999999999
#
# number of rings (size 3 to 8) (size 9 to 14) (size 15 to 20)
#    0.000    3.250    1.250    1.875    0.000    3.000 
#    0.000    2.500    0.000    1.500    0.000    1.750 
#    0.000    2.000    0.000    2.250    0.000    2.500 
#
# Total GULP energy -178870.715186 kJ/mol
# GULP energy per Si atom -5589.709850 kJ/mol
# Density = 2.377444 g / cm^3
# Si number density = 23.828674 Si / 1000 Ang^3
#
#
#
# Elastic Constant Matrix: (Units=GPa)
#
#
# Indices 1 2 3 4 5 6 
#
# 1 148.5547 71.2705 60.6269 0.0000 45.1750 0.0000
# 2 71.2705 103.6500 39.3393 0.0000 54.2968 0.0000
# 3 60.6269 39.3393 144.3819 0.0000 31.2248 0.0000
# 4 0.0000 0.0000 0.0000 22.3230 0.0000 3.5743
# 5 45.1750 54.2968 31.2248 0.0000 60.8238 0.0000
# 6 0.0000 0.0000 0.0000 3.5743 0.0000 -4.5235
#
#
#
# Elastic Compliance Matrix: (Units=1/GPa)
#
#
# Indices 1 2 3 4 5 6 
#
# 1 0.011109 -0.005661 -0.002734 0.000000 -0.001793 0.000000
# 2 -0.005661 0.021350 -0.000256 0.000000 -0.014723 0.000000
# 3 -0.002734 -0.000256 0.008611 0.000000 -0.002161 0.000000
# 4 0.000000 0.000000 0.000000 0.039766 0.000000 0.031421
# 5 -0.001793 -0.014723 -0.002161 0.000000 0.032026 0.000000
# 6 0.000000 0.000000 0.000000 0.031421 0.000000 -0.196240
#
#
# Mechanical properties :
#
#
# Convention : Reuss Voigt Hill
#
# Bulk Modulus (GPa) = 42.07436 82.11780 62.09608
# Shear Modulus (GPa) = -85.98153 30.74800 -27.61676
#
# Velocity S-wave (km/s) = -6.01345 3.59608 -3.40806
# Velocity P-wave (km/s) = 5.52449 7.19576 3.26029
#
# Compressibility (1/GPa) = 0.02376745
#
# Stress axis : x y z
#
# Youngs Moduli (GPa) = 90.01850 46.83735 116.12479
#
# Poissons Ratio (x) = 0.26516 0.31752
# Poissons Ratio (y) = 0.50963 0.02972
# Poissons Ratio (z) = 0.24614 0.01199
#
# Static dielectric constant tensor:
#      x y z
#    x 1.928680 0.000000 -0.088860 
#    y 0.000000 1.835460 0.000000 
#    z -0.088860 0.000000 2.011450 
# 
# From -- ./inp_files/54270.got.cif
#   From: 2010.05.17/outbox.cif.g08.bks.cpg/sg10_28_cif.got.tgz:54270.got - 2010.06.03 11:33:40.
