data_PCOD9144730
_publ_section_title
;
Structure prediction by ZEFSAII (Michael W. Deem and Ramdas Pophale) SiO2 
 PCOD9144730
Probable space group: P 2/M
;
_chemical_formula_sum "Si O2"
_cell_formula_units_Z 24
_cell_length_a 9.660230
_cell_length_b 8.083883
_cell_length_c 16.540225
_cell_angle_alpha 90.000000
_cell_angle_beta 134.168988
_cell_angle_gamma 90.000000
_cell_volume 926.493494
_symmetry_space_group_name_H-M "P 2/M"
_symmetry_group_IT_number 10
_symmetry_cell_setting 'monoclinic'
loop_
_space_group_symop_operation_xyz
x,y,z
-x,y,-z
-x,-y,-z
x,-y,z
loop_
_atom_site_type_symbol
_atom_site_label
_atom_site_fract_x
_atom_site_fract_y
_atom_site_fract_z
Si Si1 0.250473 0.190783 0.472796
Si Si2 0.029698 0.805180 0.889304
Si Si3 0.383483 0.693761 0.122976
Si Si4 0.242846 0.197158 0.643690
Si Si5 0.733607 0.200218 0.171792
Si Si6 0.665466 0.313362 0.663567
O O1 0.178246 0.260331 0.529993
O O2 0.482758 0.193473 0.583649
O O3 0.230315 0.287494 0.381014
O O4 0.187590 0.000000 0.435079
O O5 0.150978 0.747380 0.859547
O O6 0.824718 0.717094 0.797027
O O7 0.993098 0.000000 0.867322
O O8 0.177423 0.774683 0.022553
O O9 0.359421 0.500000 0.123516
O O10 0.528994 0.763614 0.249804
O O11 0.519625 0.730129 0.099692
O O12 0.165030 0.246792 0.700954
O O13 0.219512 0.000000 0.628650
O O14 0.716593 0.000000 0.162135
O O15 0.590738 0.500000 0.638782
#
# Coordination Sequence:
#
# PCOD9144730 Si02
#       6
#     4   4   4   4   4   4
#     4  10  19  38  62  78  98 133 180 216 253 312
#     4  11  20  34  54  76 107 141 180 215 248 304
#     4  10  19  30  50  80 112 141 169 207 260 312
#     4   8  17  34  55  78 102 136 177 212 249 305
#     4   8  17  33  52  77 105 140 176 209 251 302
#     4  11  23  36  54  79 108 134 168 219 268 308
#
# _framework density 25.904121
#
# number of rings (size 3 to 8) (size 9 to 14) (size 15 to 20)
#    1.000    1.333    0.000    5.000    0.000    4.667 
#    0.000    1.667    0.000   10.000    0.000    0.000 
#    0.000    0.000    0.000    0.000    0.000    0.000 
#
# Total GULP energy -134113.020751 kJ/mol
# GULP energy per Si atom -5588.042531 kJ/mol
# Density = 2.584516 g / cm^3
# Si number density = 25.904121 Si / 1000 Ang^3
#
#
#
# Elastic Constant Matrix: (Units=GPa)
#
#
# Indices 1 2 3 4 5 6 
#
# 1 92.7735 3.0191 2.1461 0.0000 -2.4753 0.0000
# 2 3.0191 58.9750 10.4773 0.0000 10.2709 0.0000
# 3 2.1461 10.4773 138.8458 0.0000 -0.9086 0.0000
# 4 0.0000 0.0000 0.0000 51.0260 0.0000 35.6142
# 5 -2.4753 10.2709 -0.9086 0.0000 49.1681 0.0000
# 6 0.0000 0.0000 0.0000 35.6142 0.0000 42.9929
#
#
#
# Elastic Compliance Matrix: (Units=1/GPa)
#
#
# Indices 1 2 3 4 5 6 
#
# 1 0.010821 -0.000652 -0.000114 0.000000 0.000679 0.000000
# 2 -0.000652 0.017893 -0.001365 0.000000 -0.003796 0.000000
# 3 -0.000114 -0.001365 0.007310 0.000000 0.000414 0.000000
# 4 0.000000 0.000000 0.000000 0.046460 0.000000 -0.038486
# 5 0.000679 -0.003796 0.000414 0.000000 0.021173 0.000000
# 6 0.000000 0.000000 0.000000 -0.038486 0.000000 0.055141
#
#
# Mechanical properties :
#
#
# Convention : Reuss Voigt Hill
#
# Bulk Modulus (GPa) = 31.48347 35.76437 33.62392
# Shear Modulus (GPa) = 28.79418 46.96750 37.88084
#
# Velocity S-wave (km/s) = 3.33763 4.26270 3.82821
# Velocity P-wave (km/s) = 5.19936 6.16960 5.70514
#
# Compressibility (1/GPa) = 0.03176270
#
# Stress axis : x y z
#
# Youngs Moduli (GPa) = 92.41375 55.88683 136.80446
#
# Poissons Ratio (x) = 0.03644 0.01554
# Poissons Ratio (y) = 0.06025 0.18674
# Poissons Ratio (z) = 0.01050 0.07628
#
# Static dielectric constant tensor:
#      x y z
#    x 2.191280 0.000000 0.001370 
#    y 0.000000 1.876230 0.000000 
#    z 0.001370 0.000000 2.096450 
# 
# From -- ./inp_files/83441.got.cif
#   From: 2010.05.17/outbox.cif.g08.bks.cpg/sg10_42_cif.got.tgz:83441.got - 2010.06.03 11:33:40.
