data_PCOD9144125
_publ_section_title
;
Structure prediction by ZEFSAII (Michael W. Deem and Ramdas Pophale) SiO2 
 PCOD9144125
Probable space group: P 2/M
;
_chemical_formula_sum "Si O2"
_cell_formula_units_Z 32
_cell_length_a 11.107571
_cell_length_b 17.710854
_cell_length_c 14.436013
_cell_angle_alpha 90.000000
_cell_angle_beta 30.402990
_cell_angle_gamma 90.000000
_cell_volume 1437.222435
_symmetry_space_group_name_H-M "P 2/M"
_symmetry_group_IT_number 10
_symmetry_cell_setting 'monoclinic'
loop_
_space_group_symop_operation_xyz
x,y,z
-x,y,-z
-x,-y,-z
x,-y,z
loop_
_atom_site_type_symbol
_atom_site_label
_atom_site_fract_x
_atom_site_fract_y
_atom_site_fract_z
Si Si1 0.715215 0.794283 0.784009
Si Si2 0.203006 0.657476 0.936857
Si Si3 0.628968 0.369035 0.764519
Si Si4 0.611105 0.912424 0.705763
Si Si5 0.019180 0.585414 0.636878
Si Si6 0.851643 0.162710 0.382384
Si Si7 0.382410 0.314103 0.484875
Si Si8 0.107098 0.168840 0.028593
O O1 0.672321 0.721441 0.747481
O O2 0.733095 0.868551 0.709540
O O3 0.952994 0.791894 0.686417
O O4 0.500000 0.798731 0.000000
O O5 0.351170 0.617017 0.922562
O O6 0.427946 0.672360 0.721168
O O7 0.111264 0.739381 0.032530
O O8 0.000000 0.625888 0.000000
O O9 0.800025 0.402780 0.570953
O O10 0.753890 0.398799 0.775567
O O11 0.749780 0.900207 0.517761
O O12 0.577242 0.000000 0.748037
O O13 0.366255 0.866650 0.859894
O O14 0.038049 0.500000 0.656869
O O15 0.135515 0.642572 0.632261
O O16 0.656759 0.224921 0.486877
O O17 0.966248 0.137400 0.210315
O O18 0.500000 0.342369 0.500000
O O19 0.000000 0.150665 0.000000
#
# Coordination Sequence:
#
# PCOD9144125 Si02
#       8
#     4   4   4   4   4   4   4   4
#     4  12  23  42  68 100 129 170 225 285 345 401
#     4  10  19  35  60  94 126 161 217 278 335 388
#     4  10  18  35  62  92 122 161 220 272 323 385
#     4  12  27  44  64  96 137 180 223 277 348 418
#     4  10  21  36  62  97 131 176 221 271 340 409
#     4  12  24  42  69 100 132 171 233 283 340 401
#     4  11  21  36  66  99 128 171 225 285 333 396
#     4  11  23  43  68  93 129 173 224 287 340 405
#
# _framework density 22.265167999999999
#
# number of rings (size 3 to 8) (size 9 to 14) (size 15 to 20)
#    0.000    1.000    5.000    3.375    1.750    2.250 
#    0.000    0.625    0.000   10.875    0.000    0.000 
#    0.000    0.500    0.000    0.000    0.000    0.000 
#
# Total GULP energy -178770.253565 kJ/mol
# GULP energy per Si atom -5586.570424 kJ/mol
# Density = 2.221449 g / cm^3
# Si number density = 22.265168 Si / 1000 Ang^3
#
#
#
# Elastic Constant Matrix: (Units=GPa)
#
#
# Indices 1 2 3 4 5 6 
#
# 1 141.0758 23.4479 15.2406 0.0000 -15.7747 0.0000
# 2 23.4479 71.4264 -7.8674 0.0000 1.8626 0.0000
# 3 15.2406 -7.8674 80.4954 0.0000 6.2539 0.0000
# 4 0.0000 0.0000 0.0000 -0.0692 0.0000 -4.7657
# 5 -15.7747 1.8626 6.2539 0.0000 41.1299 0.0000
# 6 0.0000 0.0000 0.0000 -4.7657 0.0000 16.3370
#
#
#
# Elastic Compliance Matrix: (Units=1/GPa)
#
#
# Indices 1 2 3 4 5 6 
#
# 1 0.008227 -0.003030 -0.002135 0.000000 0.003617 0.000000
# 2 -0.003030 0.015299 0.002240 0.000000 -0.002196 0.000000
# 3 -0.002135 0.002240 0.013274 0.000000 -0.002939 0.000000
# 4 0.000000 0.000000 0.000000 -0.685186 0.000000 -0.199878
# 5 0.003617 -0.002196 -0.002939 0.000000 0.026247 0.000000
# 6 0.000000 0.000000 0.000000 -0.199878 0.000000 0.002903
#
#
# Mechanical properties :
#
#
# Convention : Reuss Voigt Hill
#
# Bulk Modulus (GPa) = 32.31053 39.40441 35.85747
# Shear Modulus (GPa) = -8.29095 28.95797 10.33351
#
# Velocity S-wave (km/s) = -1.93179 3.61029 2.15666
# Velocity P-wave (km/s) = 3.09313 5.92580 4.72666
#
# Compressibility (1/GPa) = 0.03094967
#
# Stress axis : x y z
#
# Youngs Moduli (GPa) = 121.54869 65.36309 75.33244
#
# Poissons Ratio (x) = 0.19807 0.16083
# Poissons Ratio (y) = 0.36833 -0.16872
# Poissons Ratio (z) = 0.25949 -0.14639
#
# Static dielectric constant tensor:
#      x y z
#    x 1.253740 0.000000 0.297950 
#    y 0.000000 1.764330 0.000000 
#    z 0.297950 0.000000 1.752750 
# 
# From -- ./inp_files/65386.got.cif
#   From: 2010.05.17/outbox.cif.g08.bks.cpg/sg10_33_cif.got.tgz:65386.got - 2010.06.03 11:33:40.
