data_PCOD9144906
_publ_section_title
;
Structure prediction by ZEFSAII (Michael W. Deem and Ramdas Pophale) SiO2 
 PCOD9144906
Probable space group: P 2/M
;
_chemical_formula_sum "Si O2"
_cell_formula_units_Z 32
_cell_length_a 31.505954
_cell_length_b 8.109439
_cell_length_c 21.891313
_cell_angle_alpha 90.000000
_cell_angle_beta 160.317436
_cell_angle_gamma 90.000000
_cell_volume 1883.816547
_symmetry_space_group_name_H-M "P 2/M"
_symmetry_group_IT_number 10
_symmetry_cell_setting 'monoclinic'
loop_
_space_group_symop_operation_xyz
x,y,z
-x,y,-z
-x,-y,-z
x,-y,z
loop_
_atom_site_type_symbol
_atom_site_label
_atom_site_fract_x
_atom_site_fract_y
_atom_site_fract_z
Si Si1 0.307250 0.691840 0.212889
Si Si2 0.622398 0.191542 0.121181
Si Si3 0.369609 0.303238 0.544349
Si Si4 0.451503 0.199933 0.785289
Si Si5 0.919640 0.701457 0.832327
Si Si6 0.781516 0.199759 0.445277
Si Si7 0.974301 0.698757 0.154451
Si Si8 0.553935 0.188760 0.484404
O O1 0.307374 0.500000 0.195151
O O2 0.358166 0.705012 0.351408
O O3 0.410783 0.781385 0.311871
O O4 0.165440 0.758521 0.018511
O O5 0.733055 0.262282 0.313501
O O6 0.654857 0.000000 0.153293
O O7 0.500000 0.191203 0.000000
O O8 0.569026 0.261975 0.985552
O O9 0.367019 0.500000 0.534631
O O10 0.446009 0.256976 0.708549
O O11 0.225252 0.244892 0.358242
O O12 0.424545 0.230563 0.556669
O O13 0.322730 0.252848 0.645565
O O14 0.453605 0.000000 0.789834
O O15 0.919824 0.500000 0.831777
O O16 0.980747 0.758067 0.851517
O O17 0.000000 0.753674 0.000000
O O18 0.918066 0.255034 0.651659
O O19 0.777618 0.000000 0.438416
O O20 0.966680 0.500000 0.140623
O O21 0.587540 0.000000 0.541717
#
# Coordination Sequence:
#
# PCOD9144906 Si02
#       8
#     4   4   4   4   4   4   4   4
#     4  10  20  36  56  73  93 124 164 202 244 291
#     4   7  12  24  42  63  90 129 165 192 229 279
#     4  11  20  31  49  70  98 130 163 197 238 290
#     4   9  16  28  45  67  97 129 164 200 235 277
#     4   9  17  29  44  63  91 127 160 188 226 279
#     4   9  16  27  45  68  97 130 163 197 234 281
#     4  10  19  31  48  71  98 128 160 196 238 286
#     4  11  22  36  53  72  96 122 160 209 250 282
#
# _framework density 16.986792000000001
#
# number of rings (size 3 to 8) (size 9 to 14) (size 15 to 20)
#    0.000    2.500    1.250    4.875    0.000    3.000 
#    0.000    0.625    0.000    4.125    0.000    0.875 
#    0.000    7.000    0.000    0.000    0.000    0.000 
#
# Total GULP energy -178392.033444 kJ/mol
# GULP energy per Si atom -5574.751045 kJ/mol
# Density = 1.694813 g / cm^3
# Si number density = 16.986792 Si / 1000 Ang^3
#
#
#
# Elastic Constant Matrix: (Units=GPa)
#
#
# Indices 1 2 3 4 5 6 
#
# 1 59.3849 -2.9689 49.2555 0.0000 -6.1995 0.0000
# 2 -2.9689 15.2353 -3.5331 0.0000 4.8076 0.0000
# 3 49.2555 -3.5331 126.8598 0.0000 -11.1488 0.0000
# 4 0.0000 0.0000 0.0000 19.5524 0.0000 -5.8005
# 5 -6.1995 4.8076 -11.1488 0.0000 20.9142 0.0000
# 6 0.0000 0.0000 0.0000 -5.8005 0.0000 17.3433
#
#
#
# Elastic Compliance Matrix: (Units=1/GPa)
#
#
# Indices 1 2 3 4 5 6 
#
# 1 0.025008 0.002081 -0.009487 0.000000 0.001877 0.000000
# 2 0.002081 0.070983 -0.000221 0.000000 -0.015818 0.000000
# 3 -0.009487 -0.000221 0.011874 0.000000 0.003568 0.000000
# 4 0.000000 0.000000 0.000000 0.056778 0.000000 0.018990
# 5 0.001877 -0.015818 0.003568 0.000000 0.053909 0.000000
# 6 0.000000 0.000000 0.000000 0.018990 0.000000 0.064010
#
#
# Mechanical properties :
#
#
# Convention : Reuss Voigt Hill
#
# Bulk Modulus (GPa) = 10.79799 31.88744 21.34272
# Shear Modulus (GPa) = 15.21209 22.14374 18.67791
#
# Velocity S-wave (km/s) = 2.99578 3.61444 3.31955
# Velocity P-wave (km/s) = 4.28214 6.01926 5.22342
#
# Compressibility (1/GPa) = 0.09260983
#
# Stress axis : x y z
#
# Youngs Moduli (GPa) = 39.98721 14.08796 84.22067
#
# Poissons Ratio (x) = -0.02931 0.79899
# Poissons Ratio (y) = -0.08321 0.01863
# Poissons Ratio (z) = 0.37935 0.00312
#
# Static dielectric constant tensor:
#      x y z
#    x 1.558110 0.000000 -0.017130 
#    y 0.000000 1.598400 0.000000 
#    z -0.017130 0.000000 1.587930 
# 
# From -- ./inp_files/87225.got.cif
#   From: 2010.05.17/outbox.cif.g08.bks.cpg/sg10_44_cif.got.tgz:87225.got - 2010.06.03 11:33:40.
