data_PCOD9144223
_publ_section_title
;
Structure prediction by ZEFSAII (Michael W. Deem and Ramdas Pophale) SiO2 
 PCOD9144223
Probable space group: P 2/M
;
_chemical_formula_sum "Si O2"
_cell_formula_units_Z 32
_cell_length_a 24.703275
_cell_length_b 8.035397
_cell_length_c 12.709832
_cell_angle_alpha 90.000000
_cell_angle_beta 139.239593
_cell_angle_gamma 90.000000
_cell_volume 1647.200945
_symmetry_space_group_name_H-M "P 2/M"
_symmetry_group_IT_number 10
_symmetry_cell_setting 'monoclinic'
loop_
_space_group_symop_operation_xyz
x,y,z
-x,y,-z
-x,-y,-z
x,-y,z
loop_
_atom_site_type_symbol
_atom_site_label
_atom_site_fract_x
_atom_site_fract_y
_atom_site_fract_z
Si Si1 0.273003 0.800253 0.483906
Si Si2 0.283229 0.195581 0.264912
Si Si3 0.461830 0.690583 0.549889
Si Si4 0.638603 0.196638 0.032615
Si Si5 0.908732 0.296999 0.394417
Si Si6 0.243298 0.698243 0.977874
Si Si7 0.791142 0.697010 0.398432
Si Si8 0.460997 0.809881 0.776595
O O1 0.244978 0.762810 0.323129
O O2 0.212785 0.736162 0.485028
O O3 0.367777 0.736238 0.647575
O O4 0.277875 0.000000 0.499083
O O5 0.364733 0.307384 0.384620
O O6 0.241395 0.224722 0.091163
O O7 0.306266 0.000000 0.304783
O O8 0.500000 0.759400 0.500000
O O9 0.490834 0.500000 0.610481
O O10 0.475861 0.800827 0.672568
O O11 0.710291 0.226748 0.223305
O O12 0.626729 0.000000 0.002596
O O13 0.676428 0.261815 0.977379
O O14 0.549449 0.265260 0.942887
O O15 0.911822 0.500000 0.396981
O O16 0.872401 0.246094 0.454434
O O17 0.000000 0.235743 0.500000
O O18 0.837373 0.246718 0.206958
O O19 0.240743 0.500000 0.985242
O O20 0.784316 0.500000 0.372325
O O21 0.455505 0.000000 0.807622
#
# Coordination Sequence:
#
# PCOD9144223 Si02
#       8
#     4   4   4   4   4   4   4   4
#     4   9  19  35  50  66  94 134 176 209 240 285
#     4  10  20  33  49  68  95 134 172 202 240 296
#     4  10  19  28  41  63  91 124 164 214 261 290
#     4  10  19  32  50  70  98 135 171 208 251 298
#     4   8  16  33  56  80 104 127 151 188 242 301
#     4  10  19  31  51  79 105 127 160 207 253 293
#     4  10  20  33  52  77 100 125 162 206 250 295
#     4   9  19  32  45  63  89 130 177 210 241 289
#
# _framework density 19.426895999999999
#
# number of rings (size 3 to 8) (size 9 to 14) (size 15 to 20)
#    0.000    2.500    0.000    4.125    0.000    7.000 
#    0.000    2.500    0.000   14.250    0.000    5.250 
#    0.000    0.000    0.000    0.000    0.000    0.000 
#
# Total GULP energy -178266.146007 kJ/mol
# GULP energy per Si atom -5570.817063 kJ/mol
# Density = 1.938268 g / cm^3
# Si number density = 19.426896 Si / 1000 Ang^3
#
#
#
# Elastic Constant Matrix: (Units=GPa)
#
#
# Indices 1 2 3 4 5 6 
#
# 1 111.7336 6.8863 34.0946 0.0000 -8.3489 0.0000
# 2 6.8863 31.9114 4.7988 0.0000 -1.0562 0.0000
# 3 34.0946 4.7988 36.7170 0.0000 -3.5497 0.0000
# 4 0.0000 0.0000 0.0000 5.5198 0.0000 0.0612
# 5 -8.3489 -1.0562 -3.5497 0.0000 27.8476 0.0000
# 6 0.0000 0.0000 0.0000 0.0612 0.0000 14.6443
#
#
#
# Elastic Compliance Matrix: (Units=1/GPa)
#
#
# Indices 1 2 3 4 5 6 
#
# 1 0.012662 -0.000940 -0.011412 0.000000 0.002306 0.000000
# 2 -0.000940 0.032048 -0.003266 0.000000 0.000517 0.000000
# 3 -0.011412 -0.003266 0.038390 0.000000 0.001348 0.000000
# 4 0.000000 0.000000 0.000000 0.181176 0.000000 -0.000757
# 5 0.002306 0.000517 0.001348 0.000000 0.036793 0.000000
# 6 0.000000 0.000000 0.000000 -0.000757 0.000000 0.068289
#
#
# Mechanical properties :
#
#
# Convention : Reuss Voigt Hill
#
# Bulk Modulus (GPa) = 19.28117 30.21348 24.74732
# Shear Modulus (GPa) = 11.96511 18.57448 15.26980
#
# Velocity S-wave (km/s) = 2.48443 3.09548 2.80663
# Velocity P-wave (km/s) = 4.26338 5.32561 4.82382
#
# Compressibility (1/GPa) = 0.05186407
#
# Stress axis : x y z
#
# Youngs Moduli (GPa) = 78.97355 31.20339 26.04867
#
# Poissons Ratio (x) = 0.02933 0.29728
# Poissons Ratio (y) = 0.07424 0.08507
# Poissons Ratio (z) = 0.90127 0.10190
#
# Static dielectric constant tensor:
#      x y z
#    x 1.734790 0.000000 -0.025290 
#    y 0.000000 1.699150 0.000000 
#    z -0.025290 0.000000 1.716300 
# 
# From -- ./inp_files/55374.got.cif
#   From: 2010.05.17/outbox.cif.g08.bks.cpg/sg10_28_cif.got.tgz:55374.got - 2010.06.03 11:33:40.
