data_PCOD9144980
_publ_section_title
;
Structure prediction by ZEFSAII (Michael W. Deem and Ramdas Pophale) SiO2 
 PCOD9144980
Probable space group: P 2/M
;
_chemical_formula_sum "Si O2"
_cell_formula_units_Z 24
_cell_length_a 18.792801
_cell_length_b 13.893090
_cell_length_c 5.075263
_cell_angle_alpha 90.000000
_cell_angle_beta 103.865944
_cell_angle_gamma 90.000000
_cell_volume 1286.486169
_symmetry_space_group_name_H-M "P 2/M"
_symmetry_group_IT_number 10
_symmetry_cell_setting 'monoclinic'
loop_
_space_group_symop_operation_xyz
x,y,z
-x,y,-z
-x,-y,-z
x,-y,z
loop_
_atom_site_type_symbol
_atom_site_label
_atom_site_fract_x
_atom_site_fract_y
_atom_site_fract_z
Si Si1 0.165417 0.614862 0.240295
Si Si2 0.651050 0.111219 0.452922
Si Si3 0.588098 0.386268 0.059567
Si Si4 0.919719 0.382508 0.334437
Si Si5 0.325105 0.309541 0.354519
Si Si6 0.560893 0.887780 0.866685
O O1 0.158041 0.500000 0.237072
O O2 0.140787 0.648112 0.506044
O O3 0.248811 0.636668 0.244325
O O4 0.107744 0.651470 0.973081
O O5 0.698947 0.201212 0.583659
O O6 0.630427 0.116124 0.127127
O O7 0.671665 0.000000 0.529121
O O8 0.581648 0.135621 0.585661
O O9 0.603090 0.500000 0.024251
O O10 0.628078 0.353475 0.362481
O O11 0.500000 0.376558 0.000000
O O12 0.623784 0.323923 0.856353
O O13 0.921836 0.500000 0.327844
O O14 0.000000 0.351610 0.500000
O O15 0.539599 0.000000 0.824265
O O16 0.500000 0.839362 0.000000
#
# Coordination Sequence:
#
# PCOD9144980 Si02
#       6
#     4   4   4   4   4   4
#     4  10  19  31  49  73 101 131 163 199 239 291
#     4  10  21  34  48  69  97 126 160 208 258 307
#     4  11  24  40  55  72  98 135 180 226 265 302
#     4   9  17  30  49  74 104 133 156 185 235 299
#     4  12  23  36  55  76 101 135 177 218 261 306
#     4   9  17  30  47  65  87 117 153 199 258 313
#
# _framework density 18.655469
#
# number of rings (size 3 to 8) (size 9 to 14) (size 15 to 20)
#    0.000    1.833    0.000    5.000    0.000   10.667 
#    0.000    0.000    0.000    0.000    0.000    0.000 
#    0.000    4.000    0.000    0.000    0.000    0.000 
#
# Total GULP energy -133749.379207 kJ/mol
# GULP energy per Si atom -5572.890800 kJ/mol
# Density = 1.861301 g / cm^3
# Si number density = 18.655469 Si / 1000 Ang^3
#
#
#
# Elastic Constant Matrix: (Units=GPa)
#
#
# Indices 1 2 3 4 5 6 
#
# 1 39.6096 -5.9778 3.4762 0.0000 1.3924 0.0000
# 2 -5.9778 71.4995 16.0934 0.0000 -2.9722 0.0000
# 3 3.4762 16.0934 92.5034 0.0000 -3.7574 0.0000
# 4 0.0000 0.0000 0.0000 16.5271 0.0000 -7.1751
# 5 1.3924 -2.9722 -3.7574 0.0000 20.8847 0.0000
# 6 0.0000 0.0000 0.0000 -7.1751 0.0000 0.7268
#
#
#
# Elastic Compliance Matrix: (Units=1/GPa)
#
#
# Indices 1 2 3 4 5 6 
#
# 1 0.025796 0.002416 -0.001456 0.000000 -0.001638 0.000000
# 2 0.002416 0.014838 -0.002612 0.000000 0.001481 0.000000
# 3 -0.001456 -0.002612 0.011392 0.000000 0.001775 0.000000
# 4 0.000000 0.000000 0.000000 -0.018413 0.000000 -0.181781
# 5 -0.001638 0.001481 0.001775 0.000000 0.048521 0.000000
# 6 0.000000 0.000000 0.000000 -0.181781 0.000000 -0.418710
#
#
# Mechanical properties :
#
#
# Convention : Reuss Voigt Hill
#
# Bulk Modulus (GPa) = 20.52467 25.64401 23.08434
# Shear Modulus (GPa) = -15.77131 20.29575 2.26222
#
# Velocity S-wave (km/s) = -2.91073 3.30195 1.10239
# Velocity P-wave (km/s) = 0.52020 5.32101 3.74450
#
# Compressibility (1/GPa) = 0.04872185
#
# Stress axis : x y z
#
# Youngs Moduli (GPa) = 38.76501 67.39620 87.78348
#
# Poissons Ratio (x) = -0.16286 0.12784
# Poissons Ratio (y) = -0.09367 0.22930
# Poissons Ratio (z) = 0.05645 0.17604
#
# Static dielectric constant tensor:
#      x y z
#    x 1.684000 0.000000 -0.018520 
#    y 0.000000 1.699950 0.000000 
#    z -0.018520 0.000000 1.658610 
# 
# From -- ./inp_files/11191.got.cif
#   From: 2010.05.17/outbox.cif.g08.bks.cpg/sg10_6_cif.got.tgz:11191.got - 2010.06.03 11:33:40.
