data_PCOD9144002
_publ_section_title
;
Structure prediction by ZEFSAII (Michael W. Deem and Ramdas Pophale) SiO2 
 PCOD9144002
Probable space group: P 2/M
;
_chemical_formula_sum "Si O2"
_cell_formula_units_Z 30
_cell_length_a 12.391499
_cell_length_b 12.556670
_cell_length_c 14.142319
_cell_angle_alpha 90.000000
_cell_angle_beta 50.547450
_cell_angle_gamma 90.000000
_cell_volume 1699.109024
_symmetry_space_group_name_H-M "P 2/M"
_symmetry_group_IT_number 10
_symmetry_cell_setting 'monoclinic'
loop_
_space_group_symop_operation_xyz
x,y,z
-x,y,-z
-x,-y,-z
x,-y,z
loop_
_atom_site_type_symbol
_atom_site_label
_atom_site_fract_x
_atom_site_fract_y
_atom_site_fract_z
Si Si1 0.747008 0.623236 0.250055
Si Si2 0.366246 0.222556 0.018337
Si Si3 0.835075 0.378620 0.764271
Si Si4 0.203733 0.376997 0.425787
Si Si5 0.918787 0.122287 0.875614
Si Si6 0.534759 0.623414 0.205448
Si Si7 0.000000 0.719683 0.000000
Si Si8 0.104981 0.272600 0.665609
O O1 0.745580 0.500000 0.280727
O O2 0.610187 0.644591 0.263733
O O3 0.778169 0.697152 0.322715
O O4 0.875127 0.647537 0.108010
O O5 0.288546 0.305220 0.130953
O O6 0.243026 0.140289 0.062156
O O7 0.500000 0.178631 0.000000
O O8 0.413956 0.291638 0.900677
O O9 0.792198 0.500000 0.796157
O O10 0.866810 0.357228 0.636514
O O11 0.974151 0.354957 0.746485
O O12 0.171289 0.500000 0.473638
O O13 0.368913 0.371932 0.312130
O O14 0.164858 0.294146 0.528686
O O15 0.026645 0.162518 0.734107
O O16 0.944238 0.000000 0.885645
O O17 0.948749 0.202958 0.944900
O O18 0.570708 0.500000 0.158236
#
# Coordination Sequence:
#
# PCOD9144002 Si02
#       8
#     4   4   4   4   4   4   2   4
#     4  10  19  31  49  80 116 142 169 202 250 315
#     4  11  20  34  54  78 107 138 171 216 267 316
#     4  10  19  30  50  78 109 141 175 210 249 310
#     4  10  19  32  51  76 109 147 180 204 241 308
#     4  10  22  38  57  78  98 130 179 230 274 307
#     4  10  20  32  50  79 115 146 170 202 248 315
#     4  10  18  34  56  80 104 140 166 210 268 314
#     4  10  21  34  51  75 103 142 181 216 261 299
#
# _framework density 17.656313000000001
#
# number of rings (size 3 to 8) (size 9 to 14) (size 15 to 20)
#    0.000    1.867    2.667    2.400    0.000    2.400 
#    0.000    2.000    0.000    7.200    0.000    1.867 
#    0.000    0.000    0.000    0.000    0.000    0.000 
#
# Total GULP energy -167323.014361 kJ/mol
# GULP energy per Si atom -5577.433812 kJ/mol
# Density = 1.761613 g / cm^3
# Si number density = 17.656313 Si / 1000 Ang^3
#
#
#
# Elastic Constant Matrix: (Units=GPa)
#
#
# Indices 1 2 3 4 5 6 
#
# 1 92.8951 8.6526 -0.4819 0.0000 -2.0482 0.0000
# 2 8.6526 26.1514 4.4835 0.0000 -0.9119 0.0000
# 3 -0.4819 4.4835 39.1137 0.0000 2.3483 0.0000
# 4 0.0000 0.0000 0.0000 13.5889 0.0000 -1.9247
# 5 -2.0482 -0.9119 2.3483 0.0000 17.5888 0.0000
# 6 0.0000 0.0000 0.0000 -1.9247 0.0000 8.8191
#
#
#
# Elastic Compliance Matrix: (Units=1/GPa)
#
#
# Indices 1 2 3 4 5 6 
#
# 1 0.011138 -0.003735 0.000503 0.000000 0.001036 0.000000
# 2 -0.003735 0.040380 -0.004813 0.000000 0.002301 0.000000
# 3 0.000503 -0.004813 0.026347 0.000000 -0.003709 0.000000
# 4 0.000000 0.000000 0.000000 0.075937 0.000000 0.016573
# 5 0.001036 0.002301 -0.003709 0.000000 0.057589 0.000000
# 6 0.000000 0.000000 0.000000 0.016573 0.000000 0.117008
#
#
# Mechanical properties :
#
#
# Convention : Reuss Voigt Hill
#
# Bulk Modulus (GPa) = 16.18767 20.38538 18.28653
# Shear Modulus (GPa) = 13.69557 17.69975 15.69766
#
# Velocity S-wave (km/s) = 2.78812 3.16960 2.98496
# Velocity P-wave (km/s) = 4.42187 4.99659 4.71799
#
# Compressibility (1/GPa) = 0.06177540
#
# Stress axis : x y z
#
# Youngs Moduli (GPa) = 89.78102 24.76461 37.95491
#
# Poissons Ratio (x) = 0.09251 -0.01910
# Poissons Ratio (y) = 0.33537 0.18267
# Poissons Ratio (z) = -0.04518 0.11919
#
# Static dielectric constant tensor:
#      x y z
#    x 1.635980 0.000000 0.003880 
#    y 0.000000 1.560130 0.000000 
#    z 0.003880 0.000000 1.614180 
# 
# From -- ./inp_files/46591.got.cif
#   From: 2010.05.17/outbox.cif.g08.bks.cpg/sg10_24_cif.got.tgz:46591.got - 2010.06.03 11:33:40.
