data_PCOD9144060
_publ_section_title
;
Structure prediction by ZEFSAII (Michael W. Deem and Ramdas Pophale) SiO2 
 PCOD9144060
Probable space group: P 2/M
;
_chemical_formula_sum "Si O2"
_cell_formula_units_Z 24
_cell_length_a 11.145481
_cell_length_b 11.879682
_cell_length_c 16.462148
_cell_angle_alpha 90.000000
_cell_angle_beta 34.480786
_cell_angle_gamma 90.000000
_cell_volume 1233.974477
_symmetry_space_group_name_H-M "P 2/M"
_symmetry_group_IT_number 10
_symmetry_cell_setting 'monoclinic'
loop_
_space_group_symop_operation_xyz
x,y,z
-x,y,-z
-x,-y,-z
x,-y,z
loop_
_atom_site_type_symbol
_atom_site_label
_atom_site_fract_x
_atom_site_fract_y
_atom_site_fract_z
Si Si1 0.249267 0.000000 0.873890
Si Si2 0.191133 0.865717 0.330962
Si Si3 0.313390 0.000000 0.031516
Si Si4 0.910469 0.367875 0.924742
Si Si5 0.245819 0.235934 0.133289
Si Si6 0.574487 0.769431 0.220929
Si Si7 0.412240 0.634249 0.636726
O O1 0.339334 0.884706 0.788279
O O2 0.000000 0.000000 0.000000
O O3 0.321323 0.000000 0.928716
O O4 0.150579 0.791557 0.274000
O O5 0.395396 0.809516 0.258219
O O6 0.000000 0.861499 0.500000
O O7 0.224106 0.000000 0.293073
O O8 0.204883 0.119066 0.108702
O O9 0.500000 0.000000 0.000000
O O10 0.879633 0.500000 0.959870
O O11 0.841636 0.336667 0.871583
O O12 0.160744 0.342935 0.788618
O O13 0.761887 0.295008 0.067672
O O14 0.500000 0.249351 0.000000
O O15 0.484114 0.692846 0.343284
O O16 0.500000 0.672160 0.500000
O O17 0.441979 0.500000 0.623977
#
# Coordination Sequence:
#
# PCOD9144060 Si02
#       7
#     2   4   2   4   4   4   4
#     4  12  22  34  59 100 131 154 199 272 326 363
#     4  11  24  41  61  92 130 168 203 249 312 384
#     4  10  18  34  60  86 117 170 211 243 318 385
#     4  11  23  39  64  93 121 160 211 260 304 360
#     4  11  20  37  63  88 119 160 210 253 305 368
#     4  12  22  41  64  92 124 160 209 255 313 372
#     4  10  24  45  65  86 121 168 210 251 309 377
#
# _framework density 19.449349000000002
#
# number of rings (size 3 to 8) (size 9 to 14) (size 15 to 20)
#    0.000    1.000    5.000    3.000    2.333    1.667 
#    0.000    0.417    0.000    2.500    0.000    0.000 
#    0.000    0.000    0.000    0.000    0.000    0.000 
#
# Total GULP energy -133866.035595 kJ/mol
# GULP energy per Si atom -5577.751483 kJ/mol
# Density = 1.940508 g / cm^3
# Si number density = 19.449349 Si / 1000 Ang^3
#
#
#
# Elastic Constant Matrix: (Units=GPa)
#
#
# Indices 1 2 3 4 5 6 
#
# 1 64.9310 19.6118 22.4275 0.0000 21.1451 0.0000
# 2 19.6118 70.5186 30.9028 0.0000 4.5815 0.0000
# 3 22.4275 30.9028 84.3786 0.0000 23.7555 0.0000
# 4 0.0000 0.0000 0.0000 9.9011 0.0000 -3.5280
# 5 21.1451 4.5815 23.7555 0.0000 33.2417 0.0000
# 6 0.0000 0.0000 0.0000 -3.5280 0.0000 18.0564
#
#
#
# Elastic Compliance Matrix: (Units=1/GPa)
#
#
# Indices 1 2 3 4 5 6 
#
# 1 0.021061 -0.004926 -0.000267 0.000000 -0.012527 0.000000
# 2 -0.004926 0.018228 -0.006937 0.000000 0.005579 0.000000
# 3 -0.000267 -0.006937 0.017709 0.000000 -0.011529 0.000000
# 4 0.000000 0.000000 0.000000 0.108556 0.000000 0.021211
# 5 -0.012527 0.005579 -0.011529 0.000000 0.045521 0.000000
# 6 0.000000 0.000000 0.000000 0.021211 0.000000 0.059526
#
#
# Mechanical properties :
#
#
# Convention : Reuss Voigt Hill
#
# Bulk Modulus (GPa) = 30.54643 40.63471 35.59057
# Shear Modulus (GPa) = 16.35192 22.03227 19.19209
#
# Velocity S-wave (km/s) = 2.90270 3.36936 3.14470
# Velocity P-wave (km/s) = 5.19365 6.00623 5.61466
#
# Compressibility (1/GPa) = 0.03273705
#
# Stress axis : x y z
#
# Youngs Moduli (GPa) = 47.48225 54.85989 56.46900
#
# Poissons Ratio (x) = 0.27026 0.01507
# Poissons Ratio (y) = 0.23391 0.39173
# Poissons Ratio (z) = 0.01267 0.38057
#
# Static dielectric constant tensor:
#      x y z
#    x 1.719370 0.000000 0.003830 
#    y 0.000000 1.686040 0.000000 
#    z 0.003830 0.000000 1.699650 
# 
# From -- ./inp_files/76622.got.cif
#   From: 2010.05.17/outbox.cif.g08.bks.cpg/sg10_39_cif.got.tgz:76622.got - 2010.06.03 11:33:40.
