data_PCOD9144037
_publ_section_title
;
Structure prediction by ZEFSAII (Michael W. Deem and Ramdas Pophale) SiO2 
 PCOD9144037
Probable space group: P 2/M
;
_chemical_formula_sum "Si O2"
_cell_formula_units_Z 32
_cell_length_a 26.566850
_cell_length_b 7.547422
_cell_length_c 20.680800
_cell_angle_alpha 90.000000
_cell_angle_beta 20.829729
_cell_angle_gamma 90.000000
_cell_volume 1474.544803
_symmetry_space_group_name_H-M "P 2/M"
_symmetry_group_IT_number 10
_symmetry_cell_setting 'monoclinic'
loop_
_space_group_symop_operation_xyz
x,y,z
-x,y,-z
-x,-y,-z
x,-y,z
loop_
_atom_site_type_symbol
_atom_site_label
_atom_site_fract_x
_atom_site_fract_y
_atom_site_fract_z
Si Si1 0.581332 0.717429 0.755880
Si Si2 0.236138 0.703854 0.343494
Si Si3 0.260114 0.714799 0.169099
Si Si4 0.655149 0.285518 0.288961
Si Si5 0.650202 0.295927 0.534180
Si Si6 0.338440 0.794021 0.867161
Si Si7 0.919234 0.205962 0.737559
Si Si8 0.162245 0.282985 0.809147
O O1 0.585322 0.500000 0.750293
O O2 0.664923 0.779652 0.719016
O O3 0.650235 0.781246 0.606205
O O4 0.416104 0.765788 0.956906
O O5 0.283670 0.500000 0.279379
O O6 0.245350 0.780787 0.260324
O O7 0.072156 0.707467 0.560404
O O8 0.250448 0.500000 0.180649
O O9 0.140661 0.778521 0.263234
O O10 0.500000 0.230824 0.500000
O O11 0.655510 0.500000 0.285547
O O12 0.684416 0.220255 0.181890
O O13 0.765982 0.227363 0.210067
O O14 0.696049 0.500000 0.485873
O O15 0.487519 0.293642 0.705912
O O16 0.746952 0.218733 0.361312
O O17 0.353366 0.000000 0.867541
O O18 0.205030 0.720816 0.067181
O O19 0.939108 0.000000 0.729901
O O20 0.167916 0.500000 0.802073
O O21 0.000000 0.229547 0.000000
#
# Coordination Sequence:
#
# PCOD9144037 Si02
#       8
#     4   4   4   4   4   4   4   4
#     4   9  18  33  58  87 112 142 184 232 282 337
#     4  10  21  36  56  86 117 144 181 231 288 339
#     4  10  19  35  60  85 111 144 184 234 284 334
#     4  10  19  34  58  86 110 139 179 223 268 320
#     4  10  18  34  59  82 108 144 184 225 273 326
#     4  11  23  37  55  80 110 146 188 232 274 318
#     4  11  24  39  54  78 113 152 193 233 276 329
#     4   9  18  32  53  84 116 139 170 219 270 321
#
# _framework density 21.701613999999999
#
# number of rings (size 3 to 8) (size 9 to 14) (size 15 to 20)
#    0.000    2.000    2.500    1.500    0.000    6.250 
#    0.000    3.750    0.000    3.000    0.000    0.000 
#    0.000    0.000    0.000    0.000    0.000    0.000 
#
# Total GULP energy -178815.346762 kJ/mol
# GULP energy per Si atom -5587.979586 kJ/mol
# Density = 2.165222 g / cm^3
# Si number density = 21.701614 Si / 1000 Ang^3
#
#
#
# Elastic Constant Matrix: (Units=GPa)
#
#
# Indices 1 2 3 4 5 6 
#
# 1 85.9807 -8.4352 12.7144 0.0000 3.4959 0.0000
# 2 -8.4352 52.6463 -9.3271 0.0000 2.0155 0.0000
# 3 12.7144 -9.3271 59.6421 0.0000 6.4124 0.0000
# 4 0.0000 0.0000 0.0000 -13.0822 0.0000 1.2084
# 5 3.4959 2.0155 6.4124 0.0000 43.8628 0.0000
# 6 0.0000 0.0000 0.0000 1.2084 0.0000 59.0892
#
#
#
# Elastic Compliance Matrix: (Units=1/GPa)
#
#
# Indices 1 2 3 4 5 6 
#
# 1 0.012149 0.001572 -0.002268 0.000000 -0.000709 0.000000
# 2 0.001572 0.019820 0.002922 0.000000 -0.001463 0.000000
# 3 -0.002268 0.002922 0.017985 0.000000 -0.002583 0.000000
# 4 0.000000 0.000000 0.000000 -0.076296 0.000000 0.001560
# 5 -0.000709 -0.001463 -0.002583 0.000000 0.023300 0.000000
# 6 0.000000 0.000000 0.000000 0.001560 0.000000 0.016892
#
#
# Mechanical properties :
#
#
# Convention : Reuss Voigt Hill
#
# Bulk Modulus (GPa) = 18.38047 20.90815 19.64431
# Shear Modulus (GPa) = 181.59975 31.52842 106.56409
#
# Velocity S-wave (km/s) = 9.15762 3.81572 7.01504
# Velocity P-wave (km/s) = 10.96832 5.39149 8.64211
#
# Compressibility (1/GPa) = 0.05440556
#
# Stress axis : x y z
#
# Youngs Moduli (GPa) = 82.31190 50.45359 55.60266
#
# Poissons Ratio (x) = -0.07931 0.12610
# Poissons Ratio (y) = -0.12939 -0.16246
# Poissons Ratio (z) = 0.18667 -0.14741
#
# Static dielectric constant tensor:
#      x y z
#    x 1.761380 0.000000 0.027890 
#    y 0.000000 1.856240 0.000000 
#    z 0.027890 0.000000 1.753560 
# 
# From -- ./inp_files/86849.got.cif
#   From: 2010.05.17/outbox.cif.g08.bks.cpg/sg10_44_cif.got.tgz:86849.got - 2010.06.03 11:33:40.
