data_PCOD9144647
_publ_section_title
;
Structure prediction by ZEFSAII (Michael W. Deem and Ramdas Pophale) SiO2 
 PCOD9144647
Probable space group: P 2/M
;
_chemical_formula_sum "Si O2"
_cell_formula_units_Z 32
_cell_length_a 24.893887
_cell_length_b 7.831330
_cell_length_c 18.504190
_cell_angle_alpha 90.000000
_cell_angle_beta 150.002529
_cell_angle_gamma 90.000000
_cell_volume 1803.578784
_symmetry_space_group_name_H-M "P 2/M"
_symmetry_group_IT_number 10
_symmetry_cell_setting 'monoclinic'
loop_
_space_group_symop_operation_xyz
x,y,z
-x,y,-z
-x,-y,-z
x,-y,z
loop_
_atom_site_type_symbol
_atom_site_label
_atom_site_fract_x
_atom_site_fract_y
_atom_site_fract_z
Si Si1 0.175518 0.709788 0.839831
Si Si2 0.934123 0.703075 0.592181
Si Si3 0.534490 0.796251 0.461580
Si Si4 0.099745 0.199300 0.287558
Si Si5 0.135513 0.703360 0.038587
Si Si6 0.872318 0.301775 0.370398
Si Si7 0.771776 0.207107 0.700012
Si Si8 0.683363 0.706231 0.863265
O O1 0.175344 0.500000 0.838520
O O2 0.184046 0.770959 0.766851
O O3 0.058038 0.764424 0.732501
O O4 0.266142 0.763409 0.001855
O O5 0.940609 0.500000 0.587497
O O6 0.888166 0.729637 0.617894
O O7 0.868725 0.774007 0.446848
O O8 0.500000 0.726054 0.500000
O O9 0.650084 0.730449 0.570743
O O10 0.436561 0.763691 0.293495
O O11 0.546970 0.000000 0.484039
O O12 0.174523 0.272306 0.311145
O O13 0.123317 0.000000 0.320462
O O14 0.976583 0.221918 0.119068
O O15 0.127731 0.500000 0.019811
O O16 0.159484 0.743575 0.149640
O O17 0.235486 0.764730 0.105902
O O18 0.837558 0.500000 0.333970
O O19 0.000000 0.300966 0.500000
O O20 0.771234 0.000000 0.696428
O O21 0.684055 0.500000 0.863284
#
# Coordination Sequence:
#
# PCOD9144647 Si02
#       8
#     4   4   4   4   4   4   4   4
#     4   8  13  25  43  68  98 123 149 184 229 278
#     4   9  15  27  46  69  95 123 157 189 222 272
#     4  10  20  35  53  67  85 119 161 200 235 276
#     4  11  22  33  47  67  96 130 159 189 230 279
#     4  11  21  33  50  72  96 122 155 194 232 274
#     4   7  11  20  41  67  91 122 153 181 219 274
#     4  10  22  38  50  65  90 124 163 198 234 277
#     4  10  19  30  48  73  98 121 149 191 236 277
#
# _framework density 17.742502999999999
#
# number of rings (size 3 to 8) (size 9 to 14) (size 15 to 20)
#    0.000    2.500    2.500    2.625    0.000    3.750 
#    0.000    0.000    0.000    4.125    0.000    0.875 
#    0.000    7.000    0.000    0.000    0.000    0.000 
#
# Total GULP energy -178374.326738 kJ/mol
# GULP energy per Si atom -5574.197711 kJ/mol
# Density = 1.770212 g / cm^3
# Si number density = 17.742503 Si / 1000 Ang^3
#
#
#
# Elastic Constant Matrix: (Units=GPa)
#
#
# Indices 1 2 3 4 5 6 
#
# 1 110.4285 -4.3879 53.0892 0.0000 -27.7858 0.0000
# 2 -4.3879 13.8149 -6.0665 0.0000 0.7638 0.0000
# 3 53.0892 -6.0665 66.1573 0.0000 -27.5482 0.0000
# 4 0.0000 0.0000 0.0000 574.2834 0.0000 -406.2395
# 5 -27.7858 0.7638 -27.5482 0.0000 34.8261 0.0000
# 6 0.0000 0.0000 0.0000 -406.2395 0.0000 309.5148
#
#
#
# Elastic Compliance Matrix: (Units=1/GPa)
#
#
# Indices 1 2 3 4 5 6 
#
# 1 0.015050 -0.000059 -0.010561 0.000000 0.003655 0.000000
# 2 -0.000059 0.076187 0.009422 0.000000 0.005734 0.000000
# 3 -0.010561 0.009422 0.031105 0.000000 0.015972 0.000000
# 4 0.000000 0.000000 0.000000 0.024335 0.000000 0.031940
# 5 0.003655 0.005734 0.015972 0.000000 0.044139 0.000000
# 6 0.000000 0.000000 0.000000 0.031940 0.000000 0.045153
#
#
# Mechanical properties :
#
#
# Convention : Reuss Voigt Hill
#
# Bulk Modulus (GPa) = 8.33712 30.63005 19.48359
# Shear Modulus (GPa) = 17.96313 193.57592 105.76952
#
# Velocity S-wave (km/s) = 3.18533 10.45657 7.72936
# Velocity P-wave (km/s) = 4.27055 12.77057 9.52169
#
# Compressibility (1/GPa) = 0.11994549
#
# Stress axis : x y z
#
# Youngs Moduli (GPa) = 66.44484 13.12557 32.14921
#
# Poissons Ratio (x) = 0.00078 0.33952
# Poissons Ratio (y) = 0.00394 -0.30290
# Poissons Ratio (z) = 0.70170 -0.12366
#
# Static dielectric constant tensor:
#      x y z
#    x 1.636430 0.000000 -0.028540 
#    y 0.000000 1.653610 0.000000 
#    z -0.028540 0.000000 1.591040 
# 
# From -- ./inp_files/56437.got.cif
#   From: 2010.05.17/outbox.cif.g08.bks.cpg/sg10_29_cif.got.tgz:56437.got - 2010.06.03 11:33:40.
