data_PCOD9144466
_publ_section_title
;
Structure prediction by ZEFSAII (Michael W. Deem and Ramdas Pophale) SiO2 
 PCOD9144466
Probable space group: P 2/M
;
_chemical_formula_sum "Si O2"
_cell_formula_units_Z 32
_cell_length_a 12.210176
_cell_length_b 7.906900
_cell_length_c 22.386317
_cell_angle_alpha 90.000000
_cell_angle_beta 127.574738
_cell_angle_gamma 90.000000
_cell_volume 1712.940165
_symmetry_space_group_name_H-M "P 2/M"
_symmetry_group_IT_number 10
_symmetry_cell_setting 'monoclinic'
loop_
_space_group_symop_operation_xyz
x,y,z
-x,y,-z
-x,-y,-z
x,-y,z
loop_
_atom_site_type_symbol
_atom_site_label
_atom_site_fract_x
_atom_site_fract_y
_atom_site_fract_z
Si Si1 0.515541 0.699677 0.315010
Si Si2 0.655490 0.296455 0.038582
Si Si3 0.143515 0.300327 0.275513
Si Si4 0.780941 0.193451 0.826590
Si Si5 0.152280 0.703723 0.790138
Si Si6 0.333465 0.795967 0.092140
Si Si7 0.557256 0.706214 0.582045
Si Si8 0.365646 0.201789 0.762080
O O1 0.480253 0.500000 0.301745
O O2 0.380393 0.798362 0.246928
O O3 0.535896 0.746805 0.390824
O O4 0.632528 0.733752 0.305316
O O5 0.651418 0.500000 0.041439
O O6 0.758399 0.232587 0.123807
O O7 0.500000 0.232910 0.000000
O O8 0.699695 0.251840 0.986330
O O9 0.147130 0.500000 0.288767
O O10 0.141869 0.279111 0.203014
O O11 0.288007 0.232719 0.349932
O O12 0.003625 0.229596 0.257246
O O13 0.770799 0.265644 0.890455
O O14 0.828503 0.000000 0.845061
O O15 0.145438 0.500000 0.792914
O O16 0.236731 0.744149 0.758762
O O17 0.490201 0.735527 0.159462
O O18 0.334164 0.000000 0.096883
O O19 0.500000 0.768663 0.500000
O O20 0.561596 0.500000 0.580046
O O21 0.371489 0.000000 0.763074
#
# Coordination Sequence:
#
# PCOD9144466 Si02
#       8
#     4   4   4   4   4   4   4   4
#     4   9  16  27  47  73  98 124 154 192 234 273
#     4  10  19  30  45  66  90 120 157 198 239 277
#     4   9  18  32  50  71  95 125 156 191 234 280
#     4   9  17  30  47  68  94 123 157 197 235 278
#     4  10  20  33  47  67  95 124 160 198 236 283
#     4   9  18  30  45  66  90 118 155 199 239 276
#     4   8  14  27  50  78 100 118 147 188 232 276
#     4  10  19  30  46  69  95 125 161 198 236 275
#
# _framework density 18.681329999999999
#
# number of rings (size 3 to 8) (size 9 to 14) (size 15 to 20)
#    0.000    2.750    1.250    2.625    0.000    3.750 
#    0.000    0.625    0.000   13.875    0.000    5.250 
#    0.000    0.000    0.000    0.000    0.000    0.000 
#
# Total GULP energy -178278.052411 kJ/mol
# GULP energy per Si atom -5571.189138 kJ/mol
# Density = 1.863881 g / cm^3
# Si number density = 18.681330 Si / 1000 Ang^3
#
#
#
# Elastic Constant Matrix: (Units=GPa)
#
#
# Indices 1 2 3 4 5 6 
#
# 1 138.8271 0.7053 70.0230 0.0000 -22.1026 0.0000
# 2 0.7053 16.2967 7.6968 0.0000 4.2953 0.0000
# 3 70.0230 7.6968 93.0897 0.0000 -28.7387 0.0000
# 4 0.0000 0.0000 0.0000 36.8924 0.0000 -37.0040
# 5 -22.1026 4.2953 -28.7387 0.0000 28.2152 0.0000
# 6 0.0000 0.0000 0.0000 -37.0040 0.0000 49.4685
#
#
#
# Elastic Compliance Matrix: (Units=1/GPa)
#
#
# Indices 1 2 3 4 5 6 
#
# 1 0.011858 0.004364 -0.009653 0.000000 -0.001208 0.000000
# 2 0.004364 0.076460 -0.017712 0.000000 -0.026262 0.000000
# 3 -0.009653 -0.017712 0.026207 0.000000 0.021827 0.000000
# 4 0.000000 0.000000 0.000000 0.108551 0.000000 0.081200
# 5 -0.001208 -0.026262 0.021827 0.000000 0.060726 0.000000
# 6 0.000000 0.000000 0.000000 0.081200 0.000000 0.080955
#
#
# Mechanical properties :
#
#
# Convention : Reuss Voigt Hill
#
# Bulk Modulus (GPa) = 14.59383 45.00708 29.80045
# Shear Modulus (GPa) = 11.53137 34.23444 22.88291
#
# Velocity S-wave (km/s) = 2.48718 4.28547 3.50367
# Velocity P-wave (km/s) = 4.00962 6.97362 5.68807
#
# Compressibility (1/GPa) = 0.06852212
#
# Stress axis : x y z
#
# Youngs Moduli (GPa) = 84.33312 13.07867 38.15828
#
# Poissons Ratio (x) = -0.05708 0.36835
# Poissons Ratio (y) = -0.36805 0.67587
# Poissons Ratio (z) = 0.81409 0.23165
#
# Static dielectric constant tensor:
#      x y z
#    x 1.677120 0.000000 -0.013570 
#    y 0.000000 1.671500 0.000000 
#    z -0.013570 0.000000 1.641800 
# 
# From -- ./inp_files/52713.got.cif
#   From: 2010.05.17/outbox.cif.g08.bks.cpg/sg10_27_cif.got.tgz:52713.got - 2010.06.03 11:33:40.
