data_PCOD9145330
_publ_section_title
;
Structure prediction by ZEFSAII (Michael W. Deem and Ramdas Pophale) SiO2 
 PCOD9145330
Probable space group: P 2/M
;
_chemical_formula_sum "Si O2"
_cell_formula_units_Z 24
_cell_length_a 5.401458
_cell_length_b 12.511035
_cell_length_c 17.714921
_cell_angle_alpha 90.000000
_cell_angle_beta 115.239217
_cell_angle_gamma 90.000000
_cell_volume 1082.851830
_symmetry_space_group_name_H-M "P 2/M"
_symmetry_group_IT_number 10
_symmetry_cell_setting 'monoclinic'
loop_
_space_group_symop_operation_xyz
x,y,z
-x,y,-z
-x,-y,-z
x,-y,z
loop_
_atom_site_type_symbol
_atom_site_label
_atom_site_fract_x
_atom_site_fract_y
_atom_site_fract_z
Si Si1 0.327260 0.376872 0.053687
Si Si2 0.975843 0.620493 0.740194
Si Si3 0.238967 0.228228 0.172236
Si Si4 0.251199 0.781037 0.660855
Si Si5 0.124899 0.000000 0.706759
Si Si6 0.590198 0.383698 0.425059
Si Si7 0.779802 0.000000 0.816323
O O1 0.370107 0.500000 0.084443
O O2 0.393341 0.288973 0.125441
O O3 0.500000 0.361517 0.000000
O O4 0.000000 0.364761 0.000000
O O5 0.077324 0.500000 0.762958
O O6 0.960055 0.684486 0.816457
O O7 0.674812 0.612954 0.663589
O O8 0.138894 0.690185 0.701774
O O9 0.442716 0.199399 0.267994
O O10 0.124963 0.112552 0.134859
O O11 0.095014 0.891864 0.653921
O O12 0.255754 0.722527 0.581459
O O13 0.444377 0.000000 0.776694
O O14 0.918234 0.000000 0.750577
O O15 0.500000 0.377147 0.500000
O O16 0.728818 0.500000 0.431127
#
# Coordination Sequence:
#
# PCOD9145330 Si02
#       7
#     4   4   4   4   2   4   2
#     4  10  23  40  58  83 119 159 191 229 288 345
#     4  10  19  31  55  84 108 142 190 236 287 341
#     4  10  21  37  57  83 114 146 192 241 283 338
#     4  10  20  34  56  83 109 148 192 241 286 339
#     4  10  20  36  57  84 117 150 190 240 289 339
#     4   9  19  35  52  78 116 150 185 235 294 350
#     4  10  20  36  60  87 112 151 188 236 297 333
#
# _framework density 22.163694
#
# number of rings (size 3 to 8) (size 9 to 14) (size 15 to 20)
#    0.000    2.167    1.667    1.000    2.333    2.667 
#    0.000    3.750    0.000    1.000    0.000    0.000 
#    0.000    0.000    0.000    0.000    0.000    0.000 
#
# Total GULP energy -133885.845938 kJ/mol
# GULP energy per Si atom -5578.576914 kJ/mol
# Density = 2.211325 g / cm^3
# Si number density = 22.163694 Si / 1000 Ang^3
#
#
#
# Elastic Constant Matrix: (Units=GPa)
#
#
# Indices 1 2 3 4 5 6 
#
# 1 82.7102 22.2490 21.8572 0.0000 -7.4222 0.0000
# 2 22.2490 207.7105 51.2995 0.0000 -39.6050 0.0000
# 3 21.8572 51.2995 68.2994 0.0000 -12.8734 0.0000
# 4 0.0000 0.0000 0.0000 38.6837 0.0000 -1.9992
# 5 -7.4222 -39.6050 -12.8734 0.0000 42.3499 0.0000
# 6 0.0000 0.0000 0.0000 -1.9992 0.0000 21.9305
#
#
#
# Elastic Compliance Matrix: (Units=1/GPa)
#
#
# Indices 1 2 3 4 5 6 
#
# 1 0.013269 -0.000303 -0.003854 0.000000 0.000870 0.000000
# 2 -0.000303 0.006822 -0.004067 0.000000 0.005090 0.000000
# 3 -0.003854 -0.004067 0.019185 0.000000 0.001352 0.000000
# 4 0.000000 0.000000 0.000000 0.025973 0.000000 0.002368
# 5 0.000870 0.005090 0.001352 0.000000 0.028937 0.000000
# 6 0.000000 0.000000 0.000000 0.002368 0.000000 0.045814
#
#
# Mechanical properties :
#
#
# Convention : Reuss Voigt Hill
#
# Bulk Modulus (GPa) = 43.81148 61.05906 52.43527
# Shear Modulus (GPa) = 30.47689 38.14711 34.31200
#
# Velocity S-wave (km/s) = 3.71223 4.15318 3.93888
# Velocity P-wave (km/s) = 6.17935 7.11389 6.66303
#
# Compressibility (1/GPa) = 0.02282507
#
# Stress axis : x y z
#
# Youngs Moduli (GPa) = 75.36549 146.58356 52.12439
#
# Poissons Ratio (x) = 0.04448 0.20091
# Poissons Ratio (y) = 0.02287 0.21201
# Poissons Ratio (z) = 0.29048 0.59622
#
# Static dielectric constant tensor:
#      x y z
#    x 1.883410 0.000000 0.029340 
#    y 0.000000 1.892970 0.000000 
#    z 0.029340 0.000000 1.808640 
# 
# From -- ./inp_files/10940.got.cif
#   From: 2010.05.17/outbox.cif.g08.bks.cpg/sg10_6_cif.got.tgz:10940.got - 2010.06.03 11:33:40.
