data_PCOD9145099
_publ_section_title
;
Structure prediction by ZEFSAII (Michael W. Deem and Ramdas Pophale) SiO2 
 PCOD9145099
Probable space group: P 2/M
;
_chemical_formula_sum "Si O2"
_cell_formula_units_Z 32
_cell_length_a 31.381942
_cell_length_b 7.678378
_cell_length_c 13.436456
_cell_angle_alpha 90.000000
_cell_angle_beta 152.892806
_cell_angle_gamma 90.000000
_cell_volume 1475.270905
_symmetry_space_group_name_H-M "P 2/M"
_symmetry_group_IT_number 10
_symmetry_cell_setting 'monoclinic'
loop_
_space_group_symop_operation_xyz
x,y,z
-x,y,-z
-x,-y,-z
x,-y,z
loop_
_atom_site_type_symbol
_atom_site_label
_atom_site_fract_x
_atom_site_fract_y
_atom_site_fract_z
Si Si1 0.125999 0.709863 0.060599
Si Si2 0.397702 0.212782 0.327113
Si Si3 0.084732 0.709988 0.390959
Si Si4 0.627481 0.700452 0.097178
Si Si5 0.806057 0.287449 0.581159
Si Si6 0.735925 0.793897 0.127110
Si Si7 0.552895 0.802866 0.203737
Si Si8 0.685794 0.208844 0.638397
O O1 0.122820 0.500000 0.059374
O O2 0.158188 0.772657 0.237417
O O3 0.204394 0.757674 0.143133
O O4 0.021435 0.772216 0.820051
O O5 0.500000 0.268939 0.500000
O O6 0.366527 0.273322 0.371865
O O7 0.400116 0.000000 0.334869
O O8 0.315629 0.265185 0.079914
O O9 0.083683 0.500000 0.384982
O O10 0.129001 0.768481 0.376858
O O11 0.154916 0.760098 0.625625
O O12 0.604430 0.500000 0.068092
O O13 0.700285 0.765000 0.332744
O O14 0.683483 0.709930 0.111387
O O15 0.532197 0.805698 0.894238
O O16 0.806483 0.500000 0.581926
O O17 0.721114 0.000000 0.103546
O O18 0.638212 0.717617 0.438764
O O19 0.577924 0.000000 0.226816
O O20 0.500000 0.719742 0.000000
O O21 0.671964 0.000000 0.606708
#
# Coordination Sequence:
#
# PCOD9145099 Si02
#       8
#     4   4   4   4   4   4   4   4
#     4  10  19  33  53  75 103 139 175 211 252 302
#     4   9  18  35  58  78  97 129 171 211 255 307
#     4   9  18  33  53  77 105 137 173 213 255 299
#     4  10  19  31  50  76 105 135 167 208 257 308
#     4   8  15  29  50  75 102 136 175 207 241 294
#     4  10  19  33  55  78  99 127 168 216 260 302
#     4  10  20  33  50  74 105 139 171 206 252 304
#     4  10  21  36  53  75 104 135 170 214 259 307
#
# _framework density 21.690933000000001
#
# number of rings (size 3 to 8) (size 9 to 14) (size 15 to 20)
#    0.000    2.500    0.000    3.375    0.000    4.750 
#    0.000    4.375    0.000   10.125    0.000    0.000 
#    0.000    0.000    0.000    0.000    0.000    0.000 
#
# Total GULP energy -178621.384308 kJ/mol
# GULP energy per Si atom -5581.918260 kJ/mol
# Density = 2.164156 g / cm^3
# Si number density = 21.690933 Si / 1000 Ang^3
#
#
#
# Elastic Constant Matrix: (Units=GPa)
#
#
# Indices 1 2 3 4 5 6 
#
# 1 100.4486 8.9358 63.8700 0.0000 5.8627 0.0000
# 2 8.9358 52.7932 8.1101 0.0000 -0.5001 0.0000
# 3 63.8700 8.1101 137.5258 0.0000 4.6304 0.0000
# 4 0.0000 0.0000 0.0000 1.3725 0.0000 11.7085
# 5 5.8627 -0.5001 4.6304 0.0000 40.1094 0.0000
# 6 0.0000 0.0000 0.0000 11.7085 0.0000 15.7047
#
#
#
# Elastic Compliance Matrix: (Units=1/GPa)
#
#
# Indices 1 2 3 4 5 6 
#
# 1 0.014303 -0.001433 -0.006512 0.000000 -0.001357 0.000000
# 2 -0.001433 0.019264 -0.000487 0.000000 0.000506 0.000000
# 3 -0.006512 -0.000487 0.010333 0.000000 -0.000247 0.000000
# 4 0.000000 0.000000 0.000000 -0.135931 0.000000 0.101342
# 5 -0.001357 0.000506 -0.000247 0.000000 0.025165 0.000000
# 6 0.000000 0.000000 0.000000 0.101342 0.000000 -0.011879
#
#
# Mechanical properties :
#
#
# Convention : Reuss Voigt Hill
#
# Bulk Modulus (GPa) = 36.99087 50.28883 43.63985
# Shear Modulus (GPa) = -94.57452 25.42743 -34.57355
#
# Velocity S-wave (km/s) = -6.61026 3.42754 -3.99672
# Velocity P-wave (km/s) = 6.41640 6.23688 1.06572
#
# Compressibility (1/GPa) = 0.02703370
#
# Stress axis : x y z
#
# Youngs Moduli (GPa) = 69.91574 51.91006 96.77798
#
# Poissons Ratio (x) = 0.07440 0.63026
# Poissons Ratio (y) = 0.10021 0.04717
# Poissons Ratio (z) = 0.45532 0.02530
#
# Static dielectric constant tensor:
#      x y z
#    x 1.809550 0.000000 -0.009130 
#    y 0.000000 1.820360 0.000000 
#    z -0.009130 0.000000 1.809140 
# 
# From -- ./inp_files/58338.got.cif
#   From: 2010.05.17/outbox.cif.g08.bks.cpg/sg10_30_cif.got.tgz:58338.got - 2010.06.03 11:33:40.
