data_PCOD9145512
_publ_section_title
;
Structure prediction by ZEFSAII (Michael W. Deem and Ramdas Pophale) SiO2 
 PCOD9145512
Probable space group: P 2/M
;
_chemical_formula_sum "Si O2"
_cell_formula_units_Z 28
_cell_length_a 17.869859
_cell_length_b 7.560675
_cell_length_c 21.799295
_cell_angle_alpha 90.000000
_cell_angle_beta 32.797848
_cell_angle_gamma 90.000000
_cell_volume 1595.380392
_symmetry_space_group_name_H-M "P 2/M"
_symmetry_group_IT_number 10
_symmetry_cell_setting 'monoclinic'
loop_
_space_group_symop_operation_xyz
x,y,z
-x,y,-z
-x,-y,-z
x,-y,z
loop_
_atom_site_type_symbol
_atom_site_label
_atom_site_fract_x
_atom_site_fract_y
_atom_site_fract_z
Si Si1 0.222116 0.000000 0.870779
Si Si2 0.922771 0.793097 0.491906
Si Si3 0.379379 0.286593 0.258170
Si Si4 0.362052 0.283244 0.129944
Si Si5 0.956502 0.710223 0.847628
Si Si6 0.329600 0.709931 0.883079
Si Si7 0.916229 0.294225 0.739054
Si Si8 0.931675 0.000000 0.144223
O O1 0.298240 0.827590 0.845149
O O2 0.192220 0.000000 0.819135
O O3 0.072789 0.000000 0.007072
O O4 0.759256 0.769715 0.611744
O O5 0.000000 0.720010 0.500000
O O6 0.978334 0.715502 0.390100
O O7 0.956784 0.000000 0.465904
O O8 0.380525 0.500000 0.256277
O O9 0.365305 0.223881 0.197889
O O10 0.525213 0.233383 0.186993
O O11 0.357634 0.500000 0.134114
O O12 0.226970 0.217972 0.187722
O O13 0.500000 0.231392 0.000000
O O14 0.986950 0.500000 0.831197
O O15 0.963629 0.774672 0.772298
O O16 0.799195 0.735561 0.981216
O O17 0.055521 0.827232 0.822010
O O18 0.335284 0.500000 0.865706
O O19 0.887520 0.500000 0.771985
#
# Coordination Sequence:
#
# PCOD9145512 Si02
#       8
#     2   4   4   4   4   4   4   2
#     4   9  18  32  52  78 107 140 170 200 251 317
#     4  11  23  35  47  67  99 136 177 224 262 296
#     4  10  19  32  51  71  96 133 174 213 256 299
#     4   9  16  27  47  72  96 127 168 209 250 300
#     4   9  18  32  51  78 109 137 169 212 257 306
#     4   9  18  32  51  78 109 137 169 212 257 306
#     4  10  19  32  51  71  96 133 174 213 256 299
#     4   9  18  32  52  78 107 140 170 200 251 317
#
# _framework density 17.550673
#
# number of rings (size 3 to 8) (size 9 to 14) (size 15 to 20)
#    0.000    2.429    1.429    1.286    2.000    4.571 
#    0.000    2.857    0.000    0.857    0.000    2.000 
#    0.000    4.571    0.000    0.000    0.000    0.000 
#
# Total GULP energy -156157.013446 kJ/mol
# GULP energy per Si atom -5577.036195 kJ/mol
# Density = 1.751073 g / cm^3
# Si number density = 17.550673 Si / 1000 Ang^3
#
#
#
# Elastic Constant Matrix: (Units=GPa)
#
#
# Indices 1 2 3 4 5 6 
#
# 1 140.1379 41.7933 39.2779 0.0000 34.5247 0.0000
# 2 41.7933 61.3890 8.0151 0.0000 9.2346 0.0000
# 3 39.2779 8.0151 74.1511 0.0000 18.1711 0.0000
# 4 0.0000 0.0000 0.0000 -0.8364 0.0000 -4.2423
# 5 34.5247 9.2346 18.1711 0.0000 13.4128 0.0000
# 6 0.0000 0.0000 0.0000 -4.2423 0.0000 13.3867
#
#
#
# Elastic Compliance Matrix: (Units=1/GPa)
#
#
# Indices 1 2 3 4 5 6 
#
# 1 0.022406 -0.007114 0.002745 0.000000 -0.056495 0.000000
# 2 -0.007114 0.020566 0.000790 0.000000 0.003082 0.000000
# 3 0.002745 0.000790 0.020675 0.000000 -0.035619 0.000000
# 4 0.000000 0.000000 0.000000 -0.458560 0.000000 -0.145318
# 5 -0.056495 0.003082 -0.035619 0.000000 0.266107 0.000000
# 6 0.000000 0.000000 0.000000 -0.145318 0.000000 0.028649
#
#
# Mechanical properties :
#
#
# Convention : Reuss Voigt Hill
#
# Bulk Modulus (GPa) = 17.70261 50.42783 34.06522
# Shear Modulus (GPa) = -67.41461 17.63208 -24.89126
#
# Velocity S-wave (km/s) = -6.20442 3.17304 -3.77005
# Velocity P-wave (km/s) = 6.42012 6.49764 0.70761
#
# Compressibility (1/GPa) = 0.05648883
#
# Stress axis : x y z
#
# Youngs Moduli (GPa) = 44.63008 48.62371 48.36686
#
# Poissons Ratio (x) = 0.34592 -0.13275
# Poissons Ratio (y) = 0.31751 -0.03821
# Poissons Ratio (z) = -0.12249 -0.03842
#
# Static dielectric constant tensor:
#      x y z
#    x 1.593150 0.000000 0.008080 
#    y 0.000000 1.643700 0.000000 
#    z 0.008080 0.000000 1.575590 
# 
# From -- ./inp_files/55041.got.cif
#   From: 2010.05.17/outbox.cif.g08.bks.cpg/sg10_28_cif.got.tgz:55041.got - 2010.06.03 11:33:40.
