data_PCOD9145407
_publ_section_title
;
Structure prediction by ZEFSAII (Michael W. Deem and Ramdas Pophale) SiO2 
 PCOD9145407
Probable space group: P 2/M
;
_chemical_formula_sum "Si O2"
_cell_formula_units_Z 32
_cell_length_a 25.653030
_cell_length_b 7.522366
_cell_length_c 15.431484
_cell_angle_alpha 90.000000
_cell_angle_beta 25.913890
_cell_angle_gamma 90.000000
_cell_volume 1301.373586
_symmetry_space_group_name_H-M "P 2/M"
_symmetry_group_IT_number 10
_symmetry_cell_setting 'monoclinic'
loop_
_space_group_symop_operation_xyz
x,y,z
-x,y,-z
-x,-y,-z
x,-y,z
loop_
_atom_site_type_symbol
_atom_site_label
_atom_site_fract_x
_atom_site_fract_y
_atom_site_fract_z
Si Si1 0.079356 0.204065 0.796042
Si Si2 0.364658 0.783024 0.727588
Si Si3 0.110609 0.205978 0.057136
Si Si4 0.997128 0.295368 0.599537
Si Si5 0.329452 0.801114 0.486677
Si Si6 0.724372 0.296576 0.782148
Si Si7 0.623083 0.704224 0.766132
Si Si8 0.575050 0.789447 0.176214
O O1 0.203301 0.283720 0.647516
O O2 0.995873 0.283060 0.844299
O O3 0.110607 0.000000 0.722781
O O4 0.000000 0.197921 0.000000
O O5 0.500000 0.731127 0.500000
O O6 0.355036 0.727860 0.843066
O O7 0.360693 0.000000 0.728104
O O8 0.246805 0.721195 0.851225
O O9 0.071095 0.214121 0.216807
O O10 0.117930 0.000000 0.018450
O O11 0.952948 0.500000 0.657251
O O12 0.136335 0.297526 0.411875
O O13 0.000000 0.210198 0.500000
O O14 0.388963 0.811259 0.303000
O O15 0.438871 0.716216 0.376151
O O16 0.303684 0.000000 0.560665
O O17 0.682159 0.500000 0.834570
O O18 0.708135 0.213649 0.711532
O O19 0.651738 0.233485 0.974387
O O20 0.655455 0.500000 0.695014
O O21 0.500000 0.701633 0.000000
O O22 0.557433 0.000000 0.213178
#
# Coordination Sequence:
#
# PCOD9145407 Si02
#       8
#     4   4   4   4   4   4   4   4
#     4   9  19  34  54  80 108 138 175 218 266 317
#     4   9  19  34  54  79 105 133 170 214 261 310
#     4  10  20  35  57  82 106 138 179 221 262 308
#     4  10  21  36  55  78 107 144 178 213 262 316
#     4  10  20  32  50  77 106 135 171 215 260 301
#     4  10  20  34  52  74 103 140 176 207 251 310
#     4  10  19  32  49  71 101 138 173 205 248 305
#     4  10  20  32  50  78 106 133 169 216 261 300
#
# _framework density 24.589403000000001
#
# number of rings (size 3 to 8) (size 9 to 14) (size 15 to 20)
#    0.000    2.250    1.250    1.500    1.750    1.500 
#    0.000    0.000    0.000    3.000    0.000    0.000 
#    0.000    0.000    0.000    0.000    0.000    0.000 
#
# Total GULP energy -178404.904640 kJ/mol
# GULP energy per Si atom -5575.153270 kJ/mol
# Density = 2.453344 g / cm^3
# Si number density = 24.589403 Si / 1000 Ang^3
#
#
#
# Elastic Constant Matrix: (Units=GPa)
#
#
# Indices 1 2 3 4 5 6 
#
# 1 80.6516 0.9201 5.7252 0.0000 -20.1522 0.0000
# 2 0.9201 65.8648 0.1370 0.0000 -1.7701 0.0000
# 3 5.7252 0.1370 106.6449 0.0000 -20.9134 0.0000
# 4 0.0000 0.0000 0.0000-1164.0520 0.0000 -294.0036
# 5 -20.1522 -1.7701 -20.9134 0.0000 46.0049 0.0000
# 6 0.0000 0.0000 0.0000 -294.0036 0.0000 -71.1543
#
#
#
# Elastic Compliance Matrix: (Units=1/GPa)
#
#
# Indices 1 2 3 4 5 6 
#
# 1 0.013947 -0.000026 0.000493 0.000000 0.006332 0.000000
# 2 -0.000026 0.015199 0.000104 0.000000 0.000621 0.000000
# 3 0.000493 0.000104 0.010313 0.000000 0.004908 0.000000
# 4 0.000000 0.000000 0.000000 0.019706 0.000000 -0.081423
# 5 0.006332 0.000621 0.004908 0.000000 0.026766 0.000000
# 6 0.000000 0.000000 0.000000 -0.081423 0.000000 0.322380
#
#
# Mechanical properties :
#
#
# Convention : Reuss Voigt Hill
#
# Bulk Modulus (GPa) = 24.63006 29.63623 27.13314
# Shear Modulus (GPa) = 11.88488 -221.41502 -104.76507
#
# Velocity S-wave (km/s) = 2.20087 -9.49949 -6.53439
# Velocity P-wave (km/s) = 4.06162 10.40394 6.77293
#
# Compressibility (1/GPa) = 0.04060079
#
# Stress axis : x y z
#
# Youngs Moduli (GPa) = 71.70226 65.79192 96.96692
#
# Poissons Ratio (x) = 0.00169 -0.04782
# Poissons Ratio (y) = 0.00184 -0.01004
# Poissons Ratio (z) = -0.03536 -0.00681
#
# Static dielectric constant tensor:
#      x y z
#    x 2.243390 0.000000 -0.084420 
#    y 0.000000 1.990180 0.000000 
#    z -0.084420 0.000000 1.967450 
# 
# From -- ./inp_files/71428.got.cif
#   From: 2010.05.17/outbox.cif.g08.bks.cpg/sg10_36_cif.got.tgz:71428.got - 2010.06.03 11:33:40.
