data_PCOD9145780
_publ_section_title
;
Structure prediction by ZEFSAII (Michael W. Deem and Ramdas Pophale) SiO2 
 PCOD9145780
Probable space group: P 2/M
;
_chemical_formula_sum "Si O2"
_cell_formula_units_Z 32
_cell_length_a 18.039917
_cell_length_b 8.885446
_cell_length_c 24.200992
_cell_angle_alpha 90.000000
_cell_angle_beta 30.626115
_cell_angle_gamma 90.000000
_cell_volume 1976.216820
_symmetry_space_group_name_H-M "P 2/M"
_symmetry_group_IT_number 10
_symmetry_cell_setting 'monoclinic'
loop_
_space_group_symop_operation_xyz
x,y,z
-x,y,-z
-x,-y,-z
x,-y,z
loop_
_atom_site_type_symbol
_atom_site_label
_atom_site_fract_x
_atom_site_fract_y
_atom_site_fract_z
Si Si1 0.462309 0.320481 0.633304
Si Si2 0.223088 0.820761 0.592327
Si Si3 0.902293 0.321430 0.434457
Si Si4 0.628681 0.180193 0.192261
Si Si5 0.673504 0.181107 0.667054
Si Si6 0.187492 0.679128 0.733437
Si Si7 0.119341 0.826391 0.373841
Si Si8 0.957331 0.820293 0.963782
O O1 0.485800 0.500000 0.619611
O O2 0.614045 0.239413 0.523920
O O3 0.400904 0.264441 0.731349
O O4 0.341754 0.286759 0.664123
O O5 0.121511 0.753211 0.609581
O O6 0.178081 0.763067 0.681384
O O7 0.221764 0.000000 0.590315
O O8 0.892721 0.500000 0.436688
O O9 0.772243 0.260298 0.557310
O O10 0.051286 0.271445 0.368879
O O11 0.494277 0.212924 0.237841
O O12 0.628216 0.000000 0.203799
O O13 0.787072 0.217879 0.067104
O O14 0.734574 0.223878 0.688275
O O15 0.696407 0.000000 0.647199
O O16 0.180716 0.500000 0.729219
O O17 0.061468 0.732412 0.855662
O O18 0.000000 0.823575 0.500000
O O19 0.133325 0.000000 0.346846
O O20 0.976337 0.000000 0.942956
O O21 0.000000 0.788522 0.000000
#
# Coordination Sequence:
#
# PCOD9145780 Si02
#       8
#     4   4   4   4   4   4   4   4
#     4  11  22  35  52  76 105 135 170 213 260 308
#     4  12  24  37  54  74 101 137 176 213 256 310
#     4  11  20  30  47  73 104 135 168 206 255 308
#     4  10  19  32  53  77 104 139 177 214 253 299
#     4   9  17  30  48  72 102 138 174 209 250 300
#     4  11  24  39  54  74 103 136 174 218 264 306
#     4   8  15  28  45  67  99 136 172 204 244 301
#     4  10  20  35  55  78 102 134 179 220 254 299
#
# _framework density 16.192554999999999
#
# number of rings (size 3 to 8) (size 9 to 14) (size 15 to 20)
#    0.000    1.750    2.500    4.125    0.000    6.000 
#    0.000    0.000    0.000    0.000    0.000    0.875 
#    0.000    7.000    0.000    0.000    0.000    0.000 
#
# Total GULP energy -178631.644084 kJ/mol
# GULP energy per Si atom -5582.238878 kJ/mol
# Density = 1.615570 g / cm^3
# Si number density = 16.192555 Si / 1000 Ang^3
#
#
#
# Elastic Constant Matrix: (Units=GPa)
#
#
# Indices 1 2 3 4 5 6 
#
# 1 147.3762 68.3113 44.3978 0.0000 -9.5138 0.0000
# 2 68.3113 73.4400 30.0432 0.0000 0.9931 0.0000
# 3 44.3978 30.0432 37.7873 0.0000 3.3308 0.0000
# 4 0.0000 0.0000 0.0000 37.7677 0.0000 16.4334
# 5 -9.5138 0.9931 3.3308 0.0000 21.3444 0.0000
# 6 0.0000 0.0000 0.0000 16.4334 0.0000 33.9375
#
#
#
# Elastic Compliance Matrix: (Units=1/GPa)
#
#
# Indices 1 2 3 4 5 6 
#
# 1 0.015155 -0.009799 -0.010800 0.000000 0.008896 0.000000
# 2 -0.009799 0.026569 -0.009244 0.000000 -0.004161 0.000000
# 3 -0.010800 -0.009244 0.047543 0.000000 -0.011803 0.000000
# 4 0.000000 0.000000 0.000000 0.033546 0.000000 -0.016244
# 5 0.008896 -0.004161 -0.011803 0.000000 0.052851 0.000000
# 6 0.000000 0.000000 0.000000 -0.016244 0.000000 0.037332
#
#
# Mechanical properties :
#
#
# Convention : Reuss Voigt Hill
#
# Bulk Modulus (GPa) = 33.80481 60.45645 47.13063
# Shear Modulus (GPa) = 17.69651 26.33333 22.01492
#
# Velocity S-wave (km/s) = 3.30946 4.03707 3.69124
# Velocity P-wave (km/s) = 5.96032 7.69075 6.88015
#
# Compressibility (1/GPa) = 0.02958159
#
# Stress axis : x y z
#
# Youngs Moduli (GPa) = 65.98414 37.63758 21.03376
#
# Poissons Ratio (x) = 0.36882 0.22716
# Poissons Ratio (y) = 0.64659 0.19443
# Poissons Ratio (z) = 0.71261 0.34792
#
# Static dielectric constant tensor:
#      x y z
#    x 1.561500 0.000000 -0.025300 
#    y 0.000000 1.540560 0.000000 
#    z -0.025300 0.000000 1.513750 
# 
# From -- ./inp_files/49790.got.cif
#   From: 2010.05.17/outbox.cif.g08.bks.cpg/sg10_25_cif.got.tgz:49790.got - 2010.06.03 11:33:40.
