data_PCOD9145474
_publ_section_title
;
Structure prediction by ZEFSAII (Michael W. Deem and Ramdas Pophale) SiO2 
 PCOD9145474
Probable space group: P 2/M
;
_chemical_formula_sum "Si O2"
_cell_formula_units_Z 32
_cell_length_a 31.358580
_cell_length_b 7.487196
_cell_length_c 13.258631
_cell_angle_alpha 90.000000
_cell_angle_beta 152.763983
_cell_angle_gamma 90.000000
_cell_volume 1424.670149
_symmetry_space_group_name_H-M "P 2/M"
_symmetry_group_IT_number 10
_symmetry_cell_setting 'monoclinic'
loop_
_space_group_symop_operation_xyz
x,y,z
-x,y,-z
-x,-y,-z
x,-y,z
loop_
_atom_site_type_symbol
_atom_site_label
_atom_site_fract_x
_atom_site_fract_y
_atom_site_fract_z
Si Si1 0.756416 0.702190 0.888508
Si Si2 0.857910 0.783810 0.899939
Si Si3 0.955366 0.215852 0.803787
Si Si4 0.617590 0.216207 0.043329
Si Si5 0.908862 0.796469 0.365605
Si Si6 0.403418 0.708860 0.583824
Si Si7 0.302826 0.206170 0.577184
Si Si8 0.803111 0.218688 0.339389
O O1 0.741603 0.500000 0.894440
O O2 0.817550 0.702161 0.915515
O O3 0.658958 0.779451 0.640705
O O4 0.820889 0.798890 0.104886
O O5 0.794514 0.721995 0.672156
O O6 0.847430 0.000000 0.884267
O O7 0.965566 0.745619 0.112107
O O8 0.856816 0.273937 0.554319
O O9 0.948794 0.000000 0.801078
O O10 0.000000 0.285613 0.000000
O O11 0.649668 0.280871 0.222482
O O12 0.696119 0.272886 0.128077
O O13 0.615983 0.000000 0.041986
O O14 0.512930 0.272661 0.800163
O O15 0.864171 0.716979 0.373315
O O16 0.000000 0.717698 0.500000
O O17 0.937676 0.000000 0.452422
O O18 0.379379 0.500000 0.540323
O O19 0.371118 0.788197 0.623468
O O20 0.282739 0.000000 0.560145
O O21 0.803393 0.000000 0.334851
#
# Coordination Sequence:
#
# PCOD9145474 Si02
#       8
#     4   4   4   4   4   4   4   4
#     4  10  21  36  53  74 100 130 168 214 260 303
#     4   9  16  28  49  76 104 134 168 207 252 302
#     4   9  15  25  46  76 107 136 164 197 241 295
#     4  10  19  32  50  73 104 139 172 210 255 302
#     4  10  20  36  59  83 105 131 165 207 254 304
#     4  10  21  35  51  73 101 135 175 216 256 299
#     4   9  17  29  48  76 106 136 172 210 250 301
#     4   9  18  31  48  75 107 134 166 208 251 299
#
# _framework density 22.461338000000001
#
# number of rings (size 3 to 8) (size 9 to 14) (size 15 to 20)
#    0.000    2.500    0.000    2.625    0.000    8.750 
#    0.000    1.250    0.000    4.875    0.000    0.000 
#    0.000    0.000    0.000    0.000    0.000    0.000 
#
# Total GULP energy -178546.854815 kJ/mol
# GULP energy per Si atom -5579.589213 kJ/mol
# Density = 2.241022 g / cm^3
# Si number density = 22.461338 Si / 1000 Ang^3
#
#
#
# Elastic Constant Matrix: (Units=GPa)
#
#
# Indices 1 2 3 4 5 6 
#
# 1 85.2884 -2.1299 52.1332 0.0000 9.9724 0.0000
# 2 -2.1299 58.1347 -2.8466 0.0000 2.2003 0.0000
# 3 52.1332 -2.8466 127.3602 0.0000 10.9686 0.0000
# 4 0.0000 0.0000 0.0000 -90.9499 0.0000 24.9276
# 5 9.9724 2.2003 10.9686 0.0000 37.6931 0.0000
# 6 0.0000 0.0000 0.0000 24.9276 0.0000 46.3522
#
#
#
# Elastic Compliance Matrix: (Units=1/GPa)
#
#
# Indices 1 2 3 4 5 6 
#
# 1 0.015848 0.000364 -0.006273 0.000000 -0.002389 0.000000
# 2 0.000364 0.017277 0.000341 0.000000 -0.001204 0.000000
# 3 -0.006273 0.000341 0.010550 0.000000 -0.001430 0.000000
# 4 0.000000 0.000000 0.000000 -0.009583 0.000000 0.005153
# 5 -0.002389 -0.001204 -0.001430 0.000000 0.027649 0.000000
# 6 0.000000 0.000000 0.000000 0.005153 0.000000 0.018803
#
#
# Mechanical properties :
#
#
# Convention : Reuss Voigt Hill
#
# Bulk Modulus (GPa) = 30.73300 40.56629 35.64964
# Shear Modulus (GPa) = 48.76768 13.52750 31.14759
#
# Velocity S-wave (km/s) = 4.66465 2.45676 3.72791
# Velocity P-wave (km/s) = 6.53638 5.11344 5.86820
#
# Compressibility (1/GPa) = 0.03253832
#
# Stress axis : x y z
#
# Youngs Moduli (GPa) = 63.09984 57.88038 94.78276
#
# Poissons Ratio (x) = -0.02106 0.59460
# Poissons Ratio (y) = -0.02296 -0.03231
# Poissons Ratio (z) = 0.39584 -0.01973
#
# Static dielectric constant tensor:
#      x y z
#    x 1.830790 0.000000 -0.019880 
#    y 0.000000 1.906180 0.000000 
#    z -0.019880 0.000000 1.835160 
# 
# From -- ./inp_files/58248.got.cif
#   From: 2010.05.17/outbox.cif.g08.bks.cpg/sg10_30_cif.got.tgz:58248.got - 2010.06.03 11:33:40.
