data_PCOD9145785
_publ_section_title
;
Structure prediction by ZEFSAII (Michael W. Deem and Ramdas Pophale) SiO2 
 PCOD9145785
Probable space group: P 2/M
;
_chemical_formula_sum "Si O2"
_cell_formula_units_Z 32
_cell_length_a 12.690682
_cell_length_b 8.910807
_cell_length_c 24.319809
_cell_angle_alpha 90.000000
_cell_angle_beta 133.549312
_cell_angle_gamma 90.000000
_cell_volume 1993.284812
_symmetry_space_group_name_H-M "P 2/M"
_symmetry_group_IT_number 10
_symmetry_cell_setting 'monoclinic'
loop_
_space_group_symop_operation_xyz
x,y,z
-x,y,-z
-x,-y,-z
x,-y,z
loop_
_atom_site_type_symbol
_atom_site_label
_atom_site_fract_x
_atom_site_fract_y
_atom_site_fract_z
Si Si1 0.303244 0.320008 0.575672
Si Si2 0.554367 0.319389 0.579920
Si Si3 0.945179 0.819907 0.586171
Si Si4 0.597555 0.321737 0.161870
Si Si5 0.829083 0.818325 0.160560
Si Si6 0.284572 0.820393 0.687677
Si Si7 0.137391 0.180223 0.318412
Si Si8 0.380507 0.172998 0.006307
O O1 0.299243 0.500000 0.578728
O O2 0.435460 0.276832 0.582620
O O3 0.155684 0.261681 0.494216
O O4 0.320688 0.246407 0.641345
O O5 0.500000 0.269142 0.500000
O O6 0.563392 0.500000 0.582239
O O7 0.713317 0.253300 0.647024
O O8 0.894987 0.777665 0.629681
O O9 0.114944 0.785119 0.639395
O O10 0.928153 0.000000 0.573988
O O11 0.608019 0.500000 0.167770
O O12 0.726408 0.256000 0.169578
O O13 0.619892 0.250714 0.229632
O O14 0.447855 0.271449 0.078766
O O15 0.995326 0.778018 0.232071
O O16 0.814141 0.000000 0.160882
O O17 0.765759 0.778406 0.077771
O O18 0.299681 0.000000 0.693352
O O19 0.150818 0.000000 0.321542
O O20 0.367124 0.000000 0.019618
O O21 0.500000 0.175451 0.000000
#
# Coordination Sequence:
#
# PCOD9145785 Si02
#       8
#     4   4   4   4   4   4   4   4
#     4  11  23  37  52  72 100 131 171 213 252 300
#     4  10  21  37  52  70  99 133 166 207 258 302
#     4  10  20  34  52  73  99 132 168 209 251 295
#     4  11  20  29  46  73 104 134 167 203 246 297
#     4   9  17  32  49  71 102 135 168 205 248 295
#     4  11  22  37  53  71 101 135 172 208 250 301
#     4  10  19  32  53  77  99 128 172 213 245 290
#     4   8  15  28  47  67  97 137 168 196 242 297
#
# _framework density 16.053902999999998
#
# number of rings (size 3 to 8) (size 9 to 14) (size 15 to 20)
#    0.000    2.000    2.500    3.000    0.000    6.500 
#    0.000    0.000    0.000    0.000    0.000    0.875 
#    0.000    7.000    0.000    0.000    0.000    0.000 
#
# Total GULP energy -178559.818912 kJ/mol
# GULP energy per Si atom -5579.994341 kJ/mol
# Density = 1.601736 g / cm^3
# Si number density = 16.053903 Si / 1000 Ang^3
#
#
#
# Elastic Constant Matrix: (Units=GPa)
#
#
# Indices 1 2 3 4 5 6 
#
# 1 52.7462 28.8524 46.1500 0.0000 -10.1695 0.0000
# 2 28.8524 43.0508 53.3317 0.0000 -6.8025 0.0000
# 3 46.1500 53.3317 158.2037 0.0000 -2.2018 0.0000
# 4 0.0000 0.0000 0.0000 -8.4908 0.0000 -12.6520
# 5 -10.1695 -6.8025 -2.2018 0.0000 18.6022 0.0000
# 6 0.0000 0.0000 0.0000 -12.6520 0.0000 18.9197
#
#
#
# Elastic Compliance Matrix: (Units=1/GPa)
#
#
# Indices 1 2 3 4 5 6 
#
# 1 0.033441 -0.014749 -0.004611 0.000000 0.012342 0.000000
# 2 -0.014749 0.049805 -0.012366 0.000000 0.008686 0.000000
# 3 -0.004611 -0.012366 0.011756 0.000000 -0.005652 0.000000
# 4 0.000000 0.000000 0.000000 -0.058992 0.000000 -0.039449
# 5 0.012342 0.008686 -0.005652 0.000000 0.063012 0.000000
# 6 0.000000 0.000000 0.000000 -0.039449 0.000000 0.026474
#
#
# Mechanical properties :
#
#
# Convention : Reuss Voigt Hill
#
# Bulk Modulus (GPa) = 31.69699 56.74100 44.21899
# Shear Modulus (GPa) = 25.06692 14.18399 19.62545
#
# Velocity S-wave (km/s) = 3.95577 2.97564 3.50018
# Velocity P-wave (km/s) = 6.37582 6.87217 6.62864
#
# Compressibility (1/GPa) = 0.03154874
#
# Stress axis : x y z
#
# Youngs Moduli (GPa) = 29.90371 20.07826 85.06110
#
# Poissons Ratio (x) = 0.29614 0.39224
# Poissons Ratio (y) = 0.44105 1.05189
# Poissons Ratio (z) = 0.13789 0.24829
#
# Static dielectric constant tensor:
#      x y z
#    x 1.510130 0.000000 0.004580 
#    y 0.000000 1.534340 0.000000 
#    z 0.004580 0.000000 1.549370 
# 
# From -- ./inp_files/52764.got.cif
#   From: 2010.05.17/outbox.cif.g08.bks.cpg/sg10_27_cif.got.tgz:52764.got - 2010.06.03 11:33:40.
