data_PCOD9145891
_publ_section_title
;
Structure prediction by ZEFSAII (Michael W. Deem and Ramdas Pophale) SiO2 
 PCOD9145891
Probable space group: P 2/M
;
_chemical_formula_sum "Si O2"
_cell_formula_units_Z 32
_cell_length_a 28.455466
_cell_length_b 9.295040
_cell_length_c 10.821963
_cell_angle_alpha 90.000000
_cell_angle_beta 143.456271
_cell_angle_gamma 90.000000
_cell_volume 1704.347676
_symmetry_space_group_name_H-M "P 2/M"
_symmetry_group_IT_number 10
_symmetry_cell_setting 'monoclinic'
loop_
_space_group_symop_operation_xyz
x,y,z
-x,y,-z
-x,-y,-z
x,-y,z
loop_
_atom_site_type_symbol
_atom_site_label
_atom_site_fract_x
_atom_site_fract_y
_atom_site_fract_z
Si Si1 0.267149 0.667678 0.246358
Si Si2 0.404382 0.828177 0.161029
Si Si3 0.128873 0.833634 0.829160
Si Si4 0.829166 0.331166 0.701332
Si Si5 0.260892 0.331941 0.733497
Si Si6 0.097639 0.332727 0.522852
Si Si7 0.585062 0.172434 0.525697
Si Si8 0.967461 0.166295 0.116178
O O1 0.271027 0.500000 0.219375
O O2 0.225122 0.676771 0.290903
O O3 0.352490 0.740514 0.422742
O O4 0.210650 0.755002 0.034167
O O5 0.398576 0.794265 0.295005
O O6 0.493576 0.790607 0.308677
O O7 0.396631 0.000000 0.133824
O O8 0.336437 0.752370 0.940521
O O9 0.088174 0.750680 0.631134
O O10 0.077911 0.829816 0.846951
O O11 0.141363 0.000000 0.821388
O O12 0.850053 0.500000 0.725318
O O13 0.777490 0.280771 0.476278
O O14 0.907497 0.239547 0.893657
O O15 0.281392 0.500000 0.761489
O O16 0.189248 0.322477 0.679369
O O17 0.075513 0.500000 0.487476
O O18 0.045392 0.258325 0.306713
O O19 0.594517 0.000000 0.529683
O O20 0.983715 0.000000 0.120847
#
# Coordination Sequence:
#
# PCOD9145891 Si02
#       8
#     4   4   4   4   4   4   4   4
#     4  10  19  32  54  80 102 133 176 213 252 304
#     4   9  19  35  55  79 107 139 169 202 252 308
#     4  10  20  34  52  76 108 139 167 208 260 309
#     4   9  20  39  56  71 100 139 175 214 257 301
#     4  10  22  38  54  74 102 137 175 214 257 302
#     4  11  22  34  52  78 105 135 172 213 259 310
#     4   9  18  34  55  80 110 138 165 203 254 308
#     4  10  21  36  54  77 103 134 173 214 258 306
#
# _framework density 18.775511000000002
#
# number of rings (size 3 to 8) (size 9 to 14) (size 15 to 20)
#    0.000    2.250    0.000    3.375    0.000    8.500 
#    0.000    4.375    0.000    3.750    0.000    0.000 
#    0.000    0.000    0.000    0.000    0.000    0.000 
#
# Total GULP energy -178733.873007 kJ/mol
# GULP energy per Si atom -5585.433531 kJ/mol
# Density = 1.873278 g / cm^3
# Si number density = 18.775511 Si / 1000 Ang^3
#
#
#
# Elastic Constant Matrix: (Units=GPa)
#
#
# Indices 1 2 3 4 5 6 
#
# 1 26.1725 24.2256 21.9340 0.0000 -5.7768 0.0000
# 2 24.2256 95.1035 64.7376 0.0000 -3.0910 0.0000
# 3 21.9340 64.7376 149.4535 0.0000 -11.3177 0.0000
# 4 0.0000 0.0000 0.0000 38.3518 0.0000 3.5918
# 5 -5.7768 -3.0910 -11.3177 0.0000 27.2115 0.0000
# 6 0.0000 0.0000 0.0000 3.5918 0.0000 19.7386
#
#
#
# Elastic Compliance Matrix: (Units=1/GPa)
#
#
# Indices 1 2 3 4 5 6 
#
# 1 0.052782 -0.011834 -0.001935 0.000000 0.009056 0.000000
# 2 -0.011834 0.017593 -0.006115 0.000000 -0.003057 0.000000
# 3 -0.001935 -0.006115 0.009850 0.000000 0.002992 0.000000
# 4 0.000000 0.000000 0.000000 0.026526 0.000000 -0.004827
# 5 0.009056 -0.003057 0.002992 0.000000 0.039569 0.000000
# 6 0.000000 0.000000 0.000000 -0.004827 0.000000 0.051540
#
#
# Mechanical properties :
#
#
# Convention : Reuss Voigt Hill
#
# Bulk Modulus (GPa) = 24.71726 54.72489 39.72108
# Shear Modulus (GPa) = 19.91131 27.71586 23.81358
#
# Velocity S-wave (km/s) = 3.26005 3.84626 3.56523
# Velocity P-wave (km/s) = 5.23104 6.99537 6.17653
#
# Compressibility (1/GPa) = 0.04045755
#
# Stress axis : x y z
#
# Youngs Moduli (GPa) = 18.94591 56.84214 101.51886
#
# Poissons Ratio (x) = 0.67266 0.19639
# Poissons Ratio (y) = 0.22420 0.62081
# Poissons Ratio (z) = 0.03665 0.34760
#
# Static dielectric constant tensor:
#      x y z
#    x 1.669770 0.000000 0.000530 
#    y 0.000000 1.631140 0.000000 
#    z 0.000530 0.000000 1.631130 
# 
# From -- ./inp_files/58356.got.cif
#   From: 2010.05.17/outbox.cif.g08.bks.cpg/sg10_30_cif.got.tgz:58356.got - 2010.06.03 11:33:40.
