data_PCOD9145449
_publ_section_title
;
Structure prediction by ZEFSAII (Michael W. Deem and Ramdas Pophale) SiO2 
 PCOD9145449
Probable space group: P 2/M
;
_chemical_formula_sum "Si O2"
_cell_formula_units_Z 28
_cell_length_a 14.809819
_cell_length_b 11.847326
_cell_length_c 7.499918
_cell_angle_alpha 90.000000
_cell_angle_beta 104.667551
_cell_angle_gamma 90.000000
_cell_volume 1273.027443
_symmetry_space_group_name_H-M "P 2/M"
_symmetry_group_IT_number 10
_symmetry_cell_setting 'monoclinic'
loop_
_space_group_symop_operation_xyz
x,y,z
-x,y,-z
-x,-y,-z
x,-y,z
loop_
_atom_site_type_symbol
_atom_site_label
_atom_site_fract_x
_atom_site_fract_y
_atom_site_fract_z
Si Si1 0.246977 0.199318 0.571420
Si Si2 0.899050 0.370439 0.410305
Si Si3 0.887388 0.000000 0.908524
Si Si4 0.609260 0.626237 0.772075
Si Si5 0.100950 0.370438 0.011254
Si Si6 0.390740 0.373763 0.662815
Si Si7 0.753023 0.199318 0.824441
Si Si8 0.887387 0.000000 0.478862
O O1 0.179473 0.306252 0.526159
O O2 0.336332 0.261887 0.701359
O O3 0.274224 0.157738 0.387113
O O4 0.176306 0.106158 0.616661
O O5 0.902157 0.500000 0.468396
O O6 0.881124 0.364905 0.190562
O O7 0.000000 0.318595 0.500000
O O8 0.823694 0.106158 0.940354
O O9 0.884476 0.000000 0.692238
O O10 0.000000 0.000000 0.000000
O O11 0.643772 0.500000 0.846043
O O12 0.615947 0.628037 0.557973
O O13 0.500000 0.632032 0.763110
O O14 0.663668 0.738114 0.865025
O O15 0.097843 0.500000 0.066238
O O16 0.179473 0.306252 0.153314
O O17 0.000000 0.318595 0.000000
O O18 0.356228 0.500000 0.702272
O O19 0.000000 0.000000 0.500000
#
# Coordination Sequence:
#
# PCOD9145449 Si02
#       8
#     4   4   2   4   4   4   4   2
#     4  10  19  32  50  71  97 130 168 206 244 289
#     4  10  20  32  47  70  98 125 157 200 250 303
#     4  10  22  36  49  69  97 131 172 214 251 288
#     4   8  14  26  47  75 102 127 158 198 246 299
#     4  10  20  32  47  70  98 125 157 200 250 303
#     4   8  14  26  47  75 102 127 158 198 246 299
#     4  10  19  32  50  71  97 130 168 206 244 289
#     4  10  22  36  49  69  97 131 172 214 251 288
#
# _framework density 21.994814000000002
#
# number of rings (size 3 to 8) (size 9 to 14) (size 15 to 20)
#    0.000    2.571    0.000    3.429    0.000    6.286 
#    0.000    0.714    0.000    5.143    0.000    4.000 
#    0.000    3.429    0.000    0.000    0.000    0.000 
#
# Total GULP energy -155889.344584 kJ/mol
# GULP energy per Si atom -5567.476592 kJ/mol
# Density = 2.194475 g / cm^3
# Si number density = 21.994814 Si / 1000 Ang^3
#
#
#
# Elastic Constant Matrix: (Units=GPa)
#
#
# Indices 1 2 3 4 5 6 
#
# 1 98.8284 63.3510 15.2804 0.0000 27.4260 0.0000
# 2 63.3510 115.4541 13.4665 0.0000 19.2716 0.0000
# 3 15.2804 13.4665 51.7281 0.0000 -9.2303 0.0000
# 4 0.0000 0.0000 0.0000 2.7022 0.0000 9.3251
# 5 27.4260 19.2716 -9.2303 0.0000 20.4395 0.0000
# 6 0.0000 0.0000 0.0000 9.3251 0.0000 26.8400
#
#
#
# Elastic Compliance Matrix: (Units=1/GPa)
#
#
# Indices 1 2 3 4 5 6 
#
# 1 0.025656 -0.007258 -0.011541 0.000000 -0.032795 0.000000
# 2 -0.007258 0.013554 -0.002096 0.000000 -0.003988 0.000000
# 3 -0.011541 -0.002096 0.028717 0.000000 0.030431 0.000000
# 4 0.000000 0.000000 0.000000 -1.859928 0.000000 0.646199
# 5 -0.032795 -0.003988 0.030431 0.000000 0.110432 0.000000
# 6 0.000000 0.000000 0.000000 0.646199 0.000000 -0.187252
#
#
# Mechanical properties :
#
#
# Convention : Reuss Voigt Hill
#
# Bulk Modulus (GPa) = 38.26018 50.02294 44.14156
# Shear Modulus (GPa) = -2.74979 21.59051 9.42036
#
# Velocity S-wave (km/s) = -1.11934 3.13648 2.07178
# Velocity P-wave (km/s) = 3.97018 5.99242 5.08288
#
# Compressibility (1/GPa) = 0.02613684
#
# Stress axis : x y z
#
# Youngs Moduli (GPa) = 38.97685 73.77945 34.82261
#
# Poissons Ratio (x) = 0.53546 0.40190
# Poissons Ratio (y) = 0.28288 0.07300
# Poissons Ratio (z) = 0.44985 0.15466
#
# Static dielectric constant tensor:
#      x y z
#    x 1.850250 0.000000 -0.016880 
#    y 0.000000 1.858800 0.000000 
#    z -0.016880 0.000000 1.893950 
# 
# From -- ./inp_files/28394.got.cif
#   From: 2010.05.17/outbox.cif.g08.bks.cpg/sg10_15_cif.got.tgz:28394.got - 2010.06.03 11:33:40.
