data_PCOD9145470
_publ_section_title
;
Structure prediction by ZEFSAII (Michael W. Deem and Ramdas Pophale) SiO2 
 PCOD9145470
Probable space group: P 2/M
;
_chemical_formula_sum "Si O2"
_cell_formula_units_Z 32
_cell_length_a 20.960682
_cell_length_b 8.680154
_cell_length_c 12.187140
_cell_angle_alpha 90.000000
_cell_angle_beta 131.869999
_cell_angle_gamma 90.000000
_cell_volume 1651.175842
_symmetry_space_group_name_H-M "P 2/M"
_symmetry_group_IT_number 10
_symmetry_cell_setting 'monoclinic'
loop_
_space_group_symop_operation_xyz
x,y,z
-x,y,-z
-x,-y,-z
x,-y,z
loop_
_atom_site_type_symbol
_atom_site_label
_atom_site_fract_x
_atom_site_fract_y
_atom_site_fract_z
Si Si1 0.330211 0.317420 0.710394
Si Si2 0.686781 0.831812 0.750450
Si Si3 0.904767 0.686493 0.929453
Si Si4 0.462345 0.669475 0.336346
Si Si5 0.499856 0.815986 0.826322
Si Si6 0.245664 0.821427 0.397777
Si Si7 0.813705 0.325080 0.034028
Si Si8 0.298862 0.815858 0.900356
O O1 0.342103 0.500000 0.725592
O O2 0.423966 0.235309 0.820272
O O3 0.277779 0.267388 0.541565
O O4 0.281052 0.261536 0.762840
O O5 0.600871 0.813050 0.719014
O O6 0.682033 0.819931 0.615087
O O7 0.740322 0.689259 0.856904
O O8 0.726255 0.000000 0.820096
O O9 0.895606 0.500000 0.917292
O O10 0.836439 0.757274 0.764438
O O11 0.889548 0.735231 0.040447
O O12 0.000000 0.726209 0.000000
O O13 0.500000 0.654272 0.500000
O O14 0.425778 0.500000 0.266061
O O15 0.523204 0.719936 0.309024
O O16 0.494436 0.000000 0.809009
O O17 0.600508 0.775143 0.960060
O O18 0.230964 0.000000 0.410399
O O19 0.831519 0.500000 0.087044
O O20 0.768918 0.238745 0.084580
O O21 0.294976 0.000000 0.888490
#
# Coordination Sequence:
#
# PCOD9145470 Si02
#       8
#     4   4   4   4   4   4   4   4
#     4  12  25  39  57  80 110 151 200 248 294 340
#     4  10  19  32  50  73 102 139 178 223 278 333
#     4   9  19  37  63  95 127 155 183 223 280 346
#     4  11  22  32  46  70 101 138 182 233 285 336
#     4  11  23  38  55  76 107 149 198 249 295 340
#     4  10  21  37  58  84 117 152 191 235 287 347
#     4  10  19  33  57  85 114 147 186 229 275 333
#     4  11  23  39  58  80 111 152 199 246 292 339
#
# _framework density 19.380129
#
# number of rings (size 3 to 8) (size 9 to 14) (size 15 to 20)
#    0.000    1.500    1.250    4.500    0.000    8.250 
#    0.000    0.000    0.000    0.750    0.000    5.250 
#    0.000    0.000    0.000    0.000    0.000    0.000 
#
# Total GULP energy -178144.382710 kJ/mol
# GULP energy per Si atom -5567.011960 kJ/mol
# Density = 1.933602 g / cm^3
# Si number density = 19.380129 Si / 1000 Ang^3
#
#
#
# Elastic Constant Matrix: (Units=GPa)
#
#
# Indices 1 2 3 4 5 6 
#
# 1 136.2610 40.0730 38.9773 0.0000 -20.9013 0.0000
# 2 40.0730 81.4725 23.0999 0.0000 -8.5498 0.0000
# 3 38.9773 23.0999 57.4117 0.0000 -18.7496 0.0000
# 4 0.0000 0.0000 0.0000 19.8606 0.0000 -0.7034
# 5 -20.9013 -8.5498 -18.7496 0.0000 31.4935 0.0000
# 6 0.0000 0.0000 0.0000 -0.7034 0.0000 15.1856
#
#
#
# Elastic Compliance Matrix: (Units=1/GPa)
#
#
# Indices 1 2 3 4 5 6 
#
# 1 0.010087 -0.003365 -0.004477 0.000000 0.003116 0.000000
# 2 -0.003365 0.014985 -0.003905 0.000000 -0.000490 0.000000
# 3 -0.004477 -0.003905 0.025711 0.000000 0.011276 0.000000
# 4 0.000000 0.000000 0.000000 0.050434 0.000000 0.002336
# 5 0.003116 -0.000490 0.011276 0.000000 0.040400 0.000000
# 6 0.000000 0.000000 0.000000 0.002336 0.000000 0.065960
#
#
# Mechanical properties :
#
#
# Convention : Reuss Voigt Hill
#
# Bulk Modulus (GPa) = 36.64355 53.27174 44.95764
# Shear Modulus (GPa) = 20.81890 24.84093 22.82991
#
# Velocity S-wave (km/s) = 3.28111 3.58407 3.43593
# Velocity P-wave (km/s) = 5.77089 6.68393 6.24412
#
# Compressibility (1/GPa) = 0.02728993
#
# Stress axis : x y z
#
# Youngs Moduli (GPa) = 99.13782 66.73366 38.89412
#
# Poissons Ratio (x) = 0.22457 0.17411
# Poissons Ratio (y) = 0.33361 0.15187
# Poissons Ratio (z) = 0.44380 0.26057
#
# Static dielectric constant tensor:
#      x y z
#    x 1.742770 0.000000 0.006350 
#    y 0.000000 1.672750 0.000000 
#    z 0.006350 0.000000 1.714850 
# 
# From -- ./inp_files/52735.got.cif
#   From: 2010.05.17/outbox.cif.g08.bks.cpg/sg10_27_cif.got.tgz:52735.got - 2010.06.03 11:33:40.
