data_PCOD9145454
_publ_section_title
;
Structure prediction by ZEFSAII (Michael W. Deem and Ramdas Pophale) SiO2 
 PCOD9145454
Probable space group: P 2/M
;
_chemical_formula_sum "Si O2"
_cell_formula_units_Z 32
_cell_length_a 21.224029
_cell_length_b 8.621089
_cell_length_c 15.333750
_cell_angle_alpha 90.000000
_cell_angle_beta 137.780465
_cell_angle_gamma 90.000000
_cell_volume 1885.342437
_symmetry_space_group_name_H-M "P 2/M"
_symmetry_group_IT_number 10
_symmetry_cell_setting 'monoclinic'
loop_
_space_group_symop_operation_xyz
x,y,z
-x,y,-z
-x,-y,-z
x,-y,z
loop_
_atom_site_type_symbol
_atom_site_label
_atom_site_fract_x
_atom_site_fract_y
_atom_site_fract_z
Si Si1 0.176268 0.822857 0.473431
Si Si2 0.324016 0.813880 0.493732
Si Si3 0.808171 0.316668 0.791439
Si Si4 0.881761 0.314980 0.126243
Si Si5 0.964695 0.821164 0.837680
Si Si6 0.017586 0.685919 0.420585
Si Si7 0.711953 0.817616 0.862414
Si Si8 0.489180 0.315035 0.386299
O O1 0.276654 0.771914 0.538042
O O2 0.109684 0.821023 0.319154
O O3 0.119513 0.728271 0.487025
O O4 0.183677 0.000000 0.511151
O O5 0.266381 0.720335 0.361454
O O6 0.431283 0.770280 0.588248
O O7 0.309758 0.000000 0.467174
O O8 0.811239 0.500000 0.812357
O O9 0.907552 0.255224 0.857953
O O10 0.769408 0.224265 0.833945
O O11 0.871952 0.500000 0.119135
O O12 0.947467 0.270908 0.111013
O O13 0.939385 0.259672 0.270495
O O14 0.780770 0.238501 0.009668
O O15 0.989486 0.000000 0.881058
O O16 0.010443 0.500000 0.414904
O O17 0.000000 0.745614 0.500000
O O18 0.613558 0.729839 0.752644
O O19 0.695199 0.000000 0.850295
O O20 0.500000 0.269975 0.500000
O O21 0.502817 0.500000 0.395493
#
# Coordination Sequence:
#
# PCOD9145454 Si02
#       8
#     4   4   4   4   4   4   4   4
#     4   8  16  29  47  74 104 132 164 202 245 295
#     4  10  19  32  50  72 100 134 172 215 258 298
#     4  11  20  31  47  69  95 129 173 214 254 295
#     4  10  20  35  52  72 101 132 164 206 250 298
#     4   9  17  31  48  68  96 130 169 207 247 296
#     4   9  18  33  55  82 108 134 163 197 244 303
#     4  12  24  36  50  68  96 133 173 214 256 300
#     4  11  22  35  52  74  98 130 176 223 260 300
#
# _framework density 16.973044000000002
#
# number of rings (size 3 to 8) (size 9 to 14) (size 15 to 20)
#    0.000    2.000    1.250    4.500    0.000    5.250 
#    0.000    2.500    0.000    0.000    0.000    0.875 
#    0.000    7.000    0.000    0.000    0.000    0.000 
#
# Total GULP energy -178582.501748 kJ/mol
# GULP energy per Si atom -5580.703180 kJ/mol
# Density = 1.693441 g / cm^3
# Si number density = 16.973044 Si / 1000 Ang^3
#
#
#
# Elastic Constant Matrix: (Units=GPa)
#
#
# Indices 1 2 3 4 5 6 
#
# 1 99.0394 6.3527 45.4121 0.0000 6.3808 0.0000
# 2 6.3527 38.5617 2.8531 0.0000 0.4364 0.0000
# 3 45.4121 2.8531 62.0474 0.0000 12.3125 0.0000
# 4 0.0000 0.0000 0.0000 28.9289 0.0000 1.4212
# 5 6.3808 0.4364 12.3125 0.0000 24.5846 0.0000
# 6 0.0000 0.0000 0.0000 1.4212 0.0000 30.2127
#
#
#
# Elastic Compliance Matrix: (Units=1/GPa)
#
#
# Indices 1 2 3 4 5 6 
#
# 1 0.015380 -0.001701 -0.011539 0.000000 0.001817 0.000000
# 2 -0.001701 0.026210 0.000049 0.000000 -0.000048 0.000000
# 3 -0.011539 0.000049 0.026610 0.000000 -0.010333 0.000000
# 4 0.000000 0.000000 0.000000 0.034648 0.000000 -0.001630
# 5 0.001817 -0.000048 -0.010333 0.000000 0.045380 0.000000
# 6 0.000000 0.000000 0.000000 -0.001630 0.000000 0.033175
#
#
# Mechanical properties :
#
#
# Convention : Reuss Voigt Hill
#
# Bulk Modulus (GPa) = 23.91268 34.32048 29.11658
# Shear Modulus (GPa) = 22.55068 26.41395 24.48231
#
# Velocity S-wave (km/s) = 3.64897 3.94919 3.80205
# Velocity P-wave (km/s) = 5.64558 6.40775 6.03870
#
# Compressibility (1/GPa) = 0.04181881
#
# Stress axis : x y z
#
# Youngs Moduli (GPa) = 65.02011 38.15403 37.57967
#
# Poissons Ratio (x) = 0.06488 0.43363
# Poissons Ratio (y) = 0.11057 -0.00184
# Poissons Ratio (z) = 0.75026 -0.00187
#
# Static dielectric constant tensor:
#      x y z
#    x 1.578330 0.000000 0.002620 
#    y 0.000000 1.569070 0.000000 
#    z 0.002620 0.000000 1.606790 
# 
# From -- ./inp_files/70021.got.cif
#   From: 2010.05.17/outbox.cif.g08.bks.cpg/sg10_36_cif.got.tgz:70021.got - 2010.06.03 11:33:40.
