data_PCOD9145427
_publ_section_title
;
Structure prediction by ZEFSAII (Michael W. Deem and Ramdas Pophale) SiO2 
 PCOD9145427
Probable space group: P 2/M
;
_chemical_formula_sum "Si O2"
_cell_formula_units_Z 18
_cell_length_a 5.062017
_cell_length_b 11.252830
_cell_length_c 19.611952
_cell_angle_alpha 90.000000
_cell_angle_beta 119.824093
_cell_angle_gamma 90.000000
_cell_volume 969.178778
_symmetry_space_group_name_H-M "P 2/M"
_symmetry_group_IT_number 10
_symmetry_cell_setting 'monoclinic'
loop_
_space_group_symop_operation_xyz
x,y,z
-x,y,-z
-x,-y,-z
x,-y,z
loop_
_atom_site_type_symbol
_atom_site_label
_atom_site_fract_x
_atom_site_fract_y
_atom_site_fract_z
Si Si1 0.557281 0.143625 0.817388
Si Si2 0.754008 0.856156 0.085311
Si Si3 0.215387 0.359789 0.414119
Si Si4 0.428531 0.763037 0.651282
Si Si5 0.359392 0.000000 0.556730
O O1 0.326582 0.178079 0.847687
O O2 0.495321 0.206665 0.738147
O O3 0.898348 0.172753 0.886430
O O4 0.538866 0.000000 0.804876
O O5 0.734828 0.000000 0.081264
O O6 0.500000 0.811286 0.000000
O O7 0.500000 0.330325 0.500000
O O8 0.155199 0.500000 0.412113
O O9 0.333029 0.325141 0.354053
O O10 0.087055 0.289269 0.603902
O O11 0.451278 0.884173 0.611050
O O12 0.500000 0.000000 0.500000
O O13 0.000000 0.000000 0.500000
#
# Coordination Sequence:
#
# PCOD9145427 Si02
#       5
#     4   4   4   4   2
#     4  10  19  32  49  77 113 145 175 215 273 321
#     4   9  17  29  48  72 107 150 184 209 248 322
#     4  11  24  41  60  78 104 144 193 243 282 316
#     4  12  22  38  57  82 113 144 183 228 280 335
#     4  12  24  36  54  80 111 148 181 216 268 340
#
# _framework density 18.572423000000001
#
# number of rings (size 3 to 8) (size 9 to 14) (size 15 to 20)
#    0.000    1.333    1.111    6.667    0.000    4.444 
#    0.000    0.000    0.000    0.000    0.000    0.000 
#    0.000   62.222    0.000    0.000    0.000    0.000 
#
# Total GULP energy -100599.640394 kJ/mol
# GULP energy per Si atom -5588.868911 kJ/mol
# Density = 1.853015 g / cm^3
# Si number density = 18.572423 Si / 1000 Ang^3
#
#
#
# Elastic Constant Matrix: (Units=GPa)
#
#
# Indices 1 2 3 4 5 6 
#
# 1 85.4493 18.8612 -8.1656 0.0000 -9.1327 0.0000
# 2 18.8612 55.4753 17.5584 0.0000 4.6911 0.0000
# 3 -8.1656 17.5584 55.0157 0.0000 -1.2603 0.0000
# 4 0.0000 0.0000 0.0000 11.0181 0.0000 -2.1879
# 5 -9.1327 4.6911 -1.2603 0.0000 25.5837 0.0000
# 6 0.0000 0.0000 0.0000 -2.1879 0.0000 14.1679
#
#
#
# Elastic Compliance Matrix: (Units=1/GPa)
#
#
# Indices 1 2 3 4 5 6 
#
# 1 0.014347 -0.006849 0.004466 0.000000 0.006597 0.000000
# 2 -0.006849 0.023738 -0.008758 0.000000 -0.007229 0.000000
# 3 0.004466 -0.008758 0.021733 0.000000 0.004271 0.000000
# 4 0.000000 0.000000 0.000000 0.093631 0.000000 0.014459
# 5 0.006597 -0.007229 0.004271 0.000000 0.042978 0.000000
# 6 0.000000 0.000000 0.000000 0.014459 0.000000 0.072815
#
#
# Mechanical properties :
#
#
# Convention : Reuss Voigt Hill
#
# Bulk Modulus (GPa) = 26.64169 28.04981 27.34575
# Shear Modulus (GPa) = 16.44540 21.33301 18.88921
#
# Velocity S-wave (km/s) = 2.97892 3.39283 3.19259
# Velocity P-wave (km/s) = 5.11936 5.52125 5.32410
#
# Compressibility (1/GPa) = 0.03753515
#
# Stress axis : x y z
#
# Youngs Moduli (GPa) = 69.70284 42.12632 46.01378
#
# Poissons Ratio (x) = 0.28854 -0.20552
# Poissons Ratio (y) = 0.47742 0.40300
# Poissons Ratio (z) = -0.31133 0.36895
#
# Static dielectric constant tensor:
#      x y z
#    x 1.633060 0.000000 0.001790 
#    y 0.000000 1.632260 0.000000 
#    z 0.001790 0.000000 1.644400 
# 
# From -- ./inp_files/73046.got.cif
#   From: 2010.05.17/outbox.cif.g08.bks.cpg/sg10_37_cif.got.tgz:73046.got - 2010.06.03 11:33:40.
