data_PCOD9145364
_publ_section_title
;
Structure prediction by ZEFSAII (Michael W. Deem and Ramdas Pophale) SiO2 
 PCOD9145364
Probable space group: P 2/M
;
_chemical_formula_sum "Si O2"
_cell_formula_units_Z 32
_cell_length_a 22.892713
_cell_length_b 8.794486
_cell_length_c 17.061710
_cell_angle_alpha 90.000000
_cell_angle_beta 38.126910
_cell_angle_gamma 90.000000
_cell_volume 2120.804855
_symmetry_space_group_name_H-M "P 2/M"
_symmetry_group_IT_number 10
_symmetry_cell_setting 'monoclinic'
loop_
_space_group_symop_operation_xyz
x,y,z
-x,y,-z
-x,-y,-z
x,-y,z
loop_
_atom_site_type_symbol
_atom_site_label
_atom_site_fract_x
_atom_site_fract_y
_atom_site_fract_z
Si Si1 0.839080 0.316860 0.807131
Si Si2 0.692459 0.181006 0.082016
Si Si3 0.509192 0.315207 0.756461
Si Si4 0.222562 0.820266 0.294281
Si Si5 0.417370 0.682883 0.148565
Si Si6 0.359898 0.320532 0.704091
Si Si7 0.040630 0.674654 0.546089
Si Si8 0.418889 0.678653 0.479174
O O1 0.835111 0.500000 0.811043
O O2 0.795928 0.258022 0.770526
O O3 0.950257 0.272667 0.691520
O O4 0.778100 0.250075 0.941857
O O5 0.594436 0.246440 0.149355
O O6 0.694954 0.233145 0.170136
O O7 0.691783 0.000000 0.077277
O O8 0.500658 0.500000 0.760361
O O9 0.548903 0.276573 0.799641
O O10 0.578294 0.262457 0.612619
O O11 0.320465 0.761740 0.226317
O O12 0.134891 0.773068 0.442538
O O13 0.223912 0.000000 0.281747
O O14 0.404120 0.500000 0.159589
O O15 0.500000 0.722202 0.000000
O O16 0.334864 0.500000 0.731804
O O17 0.470699 0.312340 0.612095
O O18 0.358538 0.259313 0.616091
O O19 0.064349 0.500000 0.541284
O O20 0.000000 0.673428 0.500000
O O21 0.394473 0.500000 0.501420
#
# Coordination Sequence:
#
# PCOD9145364 Si02
#       8
#     4   4   4   4   4   4   4   4
#     4  10  19  32  48  63  83 113 146 176 208 250
#     4  11  20  27  39  63  92 115 138 173 216 260
#     4   9  17  30  45  59  80 115 155 187 213 245
#     4  11  21  31  46  66  89 113 138 176 219 255
#     4  10  20  32  46  62  83 116 154 185 211 244
#     4   8  13  24  40  56  78 109 142 173 208 253
#     4   8  16  31  49  65  81 106 141 176 208 249
#     4   7  11  22  41  59  74 102 146 185 210 239
#
# _framework density 15.088609999999999
#
# number of rings (size 3 to 8) (size 9 to 14) (size 15 to 20)
#    0.000    2.750    0.000    5.625    0.000    4.500 
#    0.000    5.000    0.000    0.000    0.000    0.000 
#    0.000    1.000    0.000   11.500    0.000    3.500 
#
# Total GULP energy -178173.729139 kJ/mol
# GULP energy per Si atom -5567.929036 kJ/mol
# Density = 1.505427 g / cm^3
# Si number density = 15.088610 Si / 1000 Ang^3
#
#
#
# Elastic Constant Matrix: (Units=GPa)
#
#
# Indices 1 2 3 4 5 6 
#
# 1 62.3448 28.2875 59.8275 0.0000 16.4822 0.0000
# 2 28.2875 50.2047 48.8623 0.0000 2.7175 0.0000
# 3 59.8275 48.8623 142.3989 0.0000 18.2867 0.0000
# 4 0.0000 0.0000 0.0000 -10.6067 0.0000 7.3247
# 5 16.4822 2.7175 18.2867 0.0000 26.1594 0.0000
# 6 0.0000 0.0000 0.0000 7.3247 0.0000 2.8977
#
#
#
# Elastic Compliance Matrix: (Units=1/GPa)
#
#
# Indices 1 2 3 4 5 6 
#
# 1 0.031791 -0.008765 -0.008672 0.000000 -0.013058 0.000000
# 2 -0.008765 0.032806 -0.008620 0.000000 0.008140 0.000000
# 3 -0.008672 -0.008620 0.014070 0.000000 -0.003476 0.000000
# 4 0.000000 0.000000 0.000000 -0.034339 0.000000 0.086799
# 5 -0.013058 0.008140 -0.003476 0.000000 0.048039 0.000000
# 6 0.000000 0.000000 0.000000 0.086799 0.000000 0.125692
#
#
# Mechanical properties :
#
#
# Convention : Reuss Voigt Hill
#
# Bulk Modulus (GPa) = 37.66092 58.76699 48.21395
# Shear Modulus (GPa) = 17.91965 11.55482 14.73724
#
# Velocity S-wave (km/s) = 3.44994 2.77031 3.12863
# Velocity P-wave (km/s) = 6.39401 7.01892 6.71374
#
# Compressibility (1/GPa) = 0.02655273
#
# Stress axis : x y z
#
# Youngs Moduli (GPa) = 31.45562 30.48259 71.07277
#
# Poissons Ratio (x) = 0.26719 0.61635
# Poissons Ratio (y) = 0.27572 0.61261
# Poissons Ratio (z) = 0.27278 0.26274
#
# Static dielectric constant tensor:
#      x y z
#    x 1.491880 0.000000 0.032600 
#    y 0.000000 1.498630 0.000000 
#    z 0.032600 0.000000 1.525230 
# 
# From -- ./inp_files/79958.got.cif
#   From: 2010.05.17/outbox.cif.g08.bks.cpg/sg10_40_cif.got.tgz:79958.got - 2010.06.03 11:33:40.
