data_PCOD9145477
_publ_section_title
;
Structure prediction by ZEFSAII (Michael W. Deem and Ramdas Pophale) SiO2 
 PCOD9145477
Probable space group: P 2/M
;
_chemical_formula_sum "Si O2"
_cell_formula_units_Z 32
_cell_length_a 12.060767
_cell_length_b 7.352679
_cell_length_c 15.163668
_cell_angle_alpha 90.000000
_cell_angle_beta 92.743194
_cell_angle_gamma 90.000000
_cell_volume 1343.157211
_symmetry_space_group_name_H-M "P 2/M"
_symmetry_group_IT_number 10
_symmetry_cell_setting 'monoclinic'
loop_
_space_group_symop_operation_xyz
x,y,z
-x,y,-z
-x,-y,-z
x,-y,z
loop_
_atom_site_type_symbol
_atom_site_label
_atom_site_fract_x
_atom_site_fract_y
_atom_site_fract_z
Si Si1 0.298843 0.709444 0.138670
Si Si2 0.222438 0.719927 0.803147
Si Si3 0.524375 0.276559 0.215563
Si Si4 0.232003 0.779722 0.518109
Si Si5 0.810424 0.219837 0.678830
Si Si6 0.053753 0.208875 0.640225
Si Si7 0.125614 0.277749 0.988181
Si Si8 0.534163 0.292261 0.409100
O O1 0.313509 0.500000 0.112077
O O2 0.423263 0.785596 0.150647
O O3 0.246570 0.712292 0.234686
O O4 0.210712 0.787230 0.066561
O O5 0.221468 0.500000 0.798304
O O6 0.350814 0.778347 0.803126
O O7 0.145807 0.786508 0.720465
O O8 0.168830 0.774809 0.893719
O O9 0.523727 0.500000 0.216817
O O10 0.499497 0.213504 0.314579
O O11 0.245445 0.728078 0.416463
O O12 0.116510 0.716124 0.556644
O O13 0.332600 0.708216 0.580621
O O14 0.234053 0.000000 0.522679
O O15 0.938141 0.284003 0.672428
O O16 0.808045 0.000000 0.684966
O O17 0.026490 0.000000 0.616618
O O18 0.123683 0.500000 0.990886
O O19 0.000000 0.217271 0.000000
O O20 0.500000 0.203293 0.500000
O O21 0.493111 0.500000 0.409062
#
# Coordination Sequence:
#
# PCOD9145477 Si02
#       8
#     4   4   4   4   4   4   4   4
#     4  10  20  36  56  78 106 139 177 216 262 317
#     4  10  19  34  56  79 107 140 176 220 265 314
#     4   9  18  32  51  77 106 138 176 216 259 308
#     4  10  20  34  52  75 103 138 179 218 262 315
#     4  10  21  36  53  76 107 140 176 220 269 316
#     4  10  20  35  54  77 106 140 177 219 266 316
#     4   9  18  32  53  82 109 134 171 220 268 312
#     4  10  19  32  50  73 106 142 176 219 264 304
#
# _framework density 23.824463000000002
#
# number of rings (size 3 to 8) (size 9 to 14) (size 15 to 20)
#    0.000    2.250    1.250    1.875    0.000    5.250 
#    0.000    4.375    0.000    4.500    0.000    1.750 
#    0.000    0.000    0.000    0.000    0.000    0.000 
#
# Total GULP energy -178895.514779 kJ/mol
# GULP energy per Si atom -5590.484837 kJ/mol
# Density = 2.377024 g / cm^3
# Si number density = 23.824463 Si / 1000 Ang^3
#
#
#
# Elastic Constant Matrix: (Units=GPa)
#
#
# Indices 1 2 3 4 5 6 
#
# 1 110.8887 0.9784 21.5537 0.0000 12.7003 0.0000
# 2 0.9784 94.6483 -3.0573 0.0000 1.2053 0.0000
# 3 21.5537 -3.0573 100.2087 0.0000 6.6928 0.0000
# 4 0.0000 0.0000 0.0000 7.8339 0.0000 2.0764
# 5 12.7003 1.2053 6.6928 0.0000 44.2780 0.0000
# 6 0.0000 0.0000 0.0000 2.0764 0.0000 15.8691
#
#
#
# Elastic Compliance Matrix: (Units=1/GPa)
#
#
# Indices 1 2 3 4 5 6 
#
# 1 0.009677 -0.000130 -0.001920 0.000000 -0.002482 0.000000
# 2 -0.000130 0.010583 0.000371 0.000000 -0.000307 0.000000
# 3 -0.001920 0.000371 0.010473 0.000000 -0.001043 0.000000
# 4 0.000000 0.000000 0.000000 0.132236 0.000000 -0.017302
# 5 -0.002482 -0.000307 -0.001043 0.000000 0.023462 0.000000
# 6 0.000000 0.000000 0.000000 -0.017302 0.000000 0.065279
#
#
# Mechanical properties :
#
#
# Convention : Reuss Voigt Hill
#
# Bulk Modulus (GPa) = 36.52945 38.29945 37.41445
# Shear Modulus (GPa) = 18.92564 32.68094 25.80329
#
# Velocity S-wave (km/s) = 2.82153 3.70772 3.29456
# Velocity P-wave (km/s) = 5.09713 5.86857 5.49640
#
# Compressibility (1/GPa) = 0.02737517
#
# Stress axis : x y z
#
# Youngs Moduli (GPa) = 103.34255 94.49400 95.48355
#
# Poissons Ratio (x) = 0.01232 0.18328
# Poissons Ratio (y) = 0.01348 -0.03546
# Poissons Ratio (z) = 0.19837 -0.03510
#
# Static dielectric constant tensor:
#      x y z
#    x 1.911110 0.000000 -0.004280 
#    y 0.000000 1.891360 0.000000 
#    z -0.004280 0.000000 1.854070 
# 
# From -- ./inp_files/53493.got.cif
#   From: 2010.05.17/outbox.cif.g08.bks.cpg/sg10_27_cif.got.tgz:53493.got - 2010.06.03 11:33:40.
