data_PCOD9145337
_publ_section_title
;
Structure prediction by ZEFSAII (Michael W. Deem and Ramdas Pophale) SiO2 
 PCOD9145337
Probable space group: P 2/M
;
_chemical_formula_sum "Si O2"
_cell_formula_units_Z 28
_cell_length_a 9.556352
_cell_length_b 17.820458
_cell_length_c 8.348570
_cell_angle_alpha 90.000000
_cell_angle_beta 88.530984
_cell_angle_gamma 90.000000
_cell_volume 1421.282248
_symmetry_space_group_name_H-M "P 2/M"
_symmetry_group_IT_number 10
_symmetry_cell_setting 'monoclinic'
loop_
_space_group_symop_operation_xyz
x,y,z
-x,y,-z
-x,-y,-z
x,-y,z
loop_
_atom_site_type_symbol
_atom_site_label
_atom_site_fract_x
_atom_site_fract_y
_atom_site_fract_z
Si Si1 0.024922 0.198628 0.676299
Si Si2 0.541269 0.291823 0.675608
Si Si3 0.743404 0.791647 0.894305
Si Si4 0.263780 0.414780 0.221663
Si Si5 0.039626 0.626321 0.677816
Si Si6 0.715648 0.646555 0.112818
Si Si7 0.847514 0.085293 0.092863
O O1 0.880457 0.204930 0.778714
O O2 0.072776 0.284807 0.659451
O O3 0.000000 0.169286 0.500000
O O4 0.127720 0.141724 0.761283
O O5 0.500000 0.265838 0.500000
O O6 0.611416 0.230174 0.789408
O O7 0.659126 0.356965 0.663012
O O8 0.411282 0.328569 0.771343
O O9 0.765458 0.724506 0.023389
O O10 0.739223 0.871328 0.982079
O O11 0.278333 0.500000 0.273072
O O12 0.101134 0.391363 0.220809
O O13 0.323335 0.402423 0.041425
O O14 0.000000 0.598015 0.500000
O O15 0.171002 0.602995 0.781924
O O16 0.810300 0.000000 0.133266
O O17 0.000000 0.083485 0.000000
#
# Coordination Sequence:
#
# PCOD9145337 Si02
#       7
#     4   4   4   4   4   4   4
#     4  10  19  31  56  88 121 153 186 240 286 333
#     4  11  24  40  60  86 112 151 197 242 287 346
#     4  10  19  35  57  83 115 153 194 237 277 337
#     4  11  24  41  60  84 114 151 190 239 298 348
#     4  11  21  36  59  87 117 147 193 239 289 339
#     4  11  22  37  60  84 113 149 198 238 281 343
#     4   9  18  32  55  88 121 155 190 233 289 338
#
# _framework density 19.700520000000001
#
# number of rings (size 3 to 8) (size 9 to 14) (size 15 to 20)
#    0.000    1.571    4.286    3.000    2.000    3.143 
#    0.000    1.429    0.000    2.143    0.000    0.000 
#    0.000    0.000    0.000    0.000    0.000    0.000 
#
# Total GULP energy -156177.036408 kJ/mol
# GULP energy per Si atom -5577.751300 kJ/mol
# Density = 1.965568 g / cm^3
# Si number density = 19.700520 Si / 1000 Ang^3
#
#
#
# Elastic Constant Matrix: (Units=GPa)
#
#
# Indices 1 2 3 4 5 6 
#
# 1 75.5736 0.2241 21.0608 0.0000 9.6576 0.0000
# 2 0.2241 79.9508 12.2025 0.0000 7.8188 0.0000
# 3 21.0608 12.2025 94.7462 0.0000 27.3341 0.0000
# 4 0.0000 0.0000 0.0000 8.6022 0.0000 -1.9658
# 5 9.6576 7.8188 27.3341 0.0000 25.0510 0.0000
# 6 0.0000 0.0000 0.0000 -1.9658 0.0000 3.0827
#
#
#
# Elastic Compliance Matrix: (Units=1/GPa)
#
#
# Indices 1 2 3 4 5 6 
#
# 1 0.014286 0.000626 -0.002351 0.000000 -0.003138 0.000000
# 2 0.000626 0.012964 -0.000834 0.000000 -0.003377 0.000000
# 3 -0.002351 -0.000834 0.015832 0.000000 -0.016108 0.000000
# 4 0.000000 0.000000 0.000000 0.136081 0.000000 0.086776
# 5 -0.003138 -0.003377 -0.016108 0.000000 0.059758 0.000000
# 6 0.000000 0.000000 0.000000 0.086776 0.000000 0.379722
#
#
# Mechanical properties :
#
#
# Convention : Reuss Voigt Hill
#
# Bulk Modulus (GPa) = 26.34231 35.24950 30.79590
# Shear Modulus (GPa) = 7.85650 21.79941 14.82796
#
# Velocity S-wave (km/s) = 1.99916 3.33008 2.74646
# Velocity P-wave (km/s) = 4.32773 5.71991 5.07182
#
# Compressibility (1/GPa) = 0.03796175
#
# Stress axis : x y z
#
# Youngs Moduli (GPa) = 69.99656 77.13951 63.16483
#
# Poissons Ratio (x) = -0.04826 0.14850
# Poissons Ratio (y) = -0.04379 0.05271
# Poissons Ratio (z) = 0.16457 0.06437
#
# Static dielectric constant tensor:
#      x y z
#    x 1.712330 0.000000 0.009510 
#    y 0.000000 1.700250 0.000000 
#    z 0.009510 0.000000 1.732490 
# 
# From -- ./inp_files/19692.got.cif
#   From: 2010.05.17/outbox.cif.g08.bks.cpg/sg10_10_cif.got.tgz:19692.got - 2010.06.03 11:33:40.
