data_PCOD9145549
_publ_section_title
;
Structure prediction by ZEFSAII (Michael W. Deem and Ramdas Pophale) SiO2 
 PCOD9145549
Probable space group: P 2/M
;
_chemical_formula_sum "Si O2"
_cell_formula_units_Z 28
_cell_length_a 28.354015
_cell_length_b 7.952186
_cell_length_c 7.537162
_cell_angle_alpha 90.000000
_cell_angle_beta 46.540608
_cell_angle_gamma 90.000000
_cell_volume 1233.567840
_symmetry_space_group_name_H-M "P 2/M"
_symmetry_group_IT_number 10
_symmetry_cell_setting 'monoclinic'
loop_
_space_group_symop_operation_xyz
x,y,z
-x,y,-z
-x,-y,-z
x,-y,z
loop_
_atom_site_type_symbol
_atom_site_label
_atom_site_fract_x
_atom_site_fract_y
_atom_site_fract_z
Si Si1 0.071333 0.190723 0.786143
Si Si2 0.585717 0.500000 0.598270
Si Si3 0.437729 0.500000 0.908736
Si Si4 0.204095 0.306436 0.966629
Si Si5 0.645321 0.188945 0.903642
Si Si6 0.070029 0.701536 0.398357
Si Si7 0.208647 0.204569 0.364099
Si Si8 0.340043 0.177662 0.548399
O O1 0.075377 0.193191 0.562646
O O2 0.143788 0.261013 0.640467
O O3 0.067395 0.000000 0.867997
O O4 0.000000 0.273716 0.000000
O O5 0.576432 0.500000 0.839111
O O6 0.627331 0.335947 0.444282
O O7 0.515073 0.500000 0.695325
O O8 0.403955 0.334950 0.914892
O O9 0.214712 0.500000 0.888855
O O10 0.130245 0.255783 0.115341
O O11 0.207515 0.286069 0.171772
O O12 0.262582 0.198688 0.741856
O O13 0.720368 0.240769 0.741556
O O14 0.636834 0.175341 0.713579
O O15 0.635564 0.000000 0.001716
O O16 0.076047 0.500000 0.422034
O O17 0.000000 0.730403 0.500000
O O18 0.203947 0.000000 0.361138
O O19 0.356113 0.000000 0.593115
#
# Coordination Sequence:
#
# PCOD9145549 Si02
#       8
#     4   2   2   4   4   4   4   4
#     4   9  18  32  50  71  98 132 170 214 258 303
#     4   9  18  34  51  81 110 137 168 207 252 307
#     4   9  18  32  55  77 110 139 166 207 256 303
#     4  10  19  32  51  74 101 136 177 215 257 310
#     4   9  19  33  52  79 106 135 173 213 255 305
#     4   9  19  34  49  69 100 134 170 214 258 302
#     4   9  18  33  50  72 102 134 172 215 259 309
#     4  10  19  33  54  79 107 137 171 212 257 303
#
# _framework density 22.698387
#
# number of rings (size 3 to 8) (size 9 to 14) (size 15 to 20)
#    0.000    2.714    0.714    0.429    1.000    2.857 
#    0.000    4.286    0.000    1.714    0.000    3.000 
#    0.000    0.000    0.000    0.000    0.000    0.000 
#
# Total GULP energy -156147.339392 kJ/mol
# GULP energy per Si atom -5576.690693 kJ/mol
# Density = 2.264672 g / cm^3
# Si number density = 22.698387 Si / 1000 Ang^3
#
#
#
# Elastic Constant Matrix: (Units=GPa)
#
#
# Indices 1 2 3 4 5 6 
#
# 1 64.6531 32.5133 9.1223 0.0000 -32.3698 0.0000
# 2 32.5133 105.7945 42.7925 0.0000 -37.9799 0.0000
# 3 9.1223 42.7925 49.5043 0.0000 -32.7457 0.0000
# 4 0.0000 0.0000 0.0000 6.6193 0.0000 12.9396
# 5 -32.3698 -37.9799 -32.7457 0.0000 55.0035 0.0000
# 6 0.0000 0.0000 0.0000 12.9396 0.0000 -16.8885
#
#
#
# Elastic Compliance Matrix: (Units=1/GPa)
#
#
# Indices 1 2 3 4 5 6 
#
# 1 0.026456 -0.006809 0.013526 0.000000 0.018920 0.000000
# 2 -0.006809 0.016905 -0.013671 0.000000 -0.000474 0.000000
# 3 0.013526 -0.013671 0.047091 0.000000 0.026555 0.000000
# 4 0.000000 0.000000 0.000000 0.060484 0.000000 0.046341
# 5 0.018920 -0.000474 0.026555 0.000000 0.044798 0.000000
# 6 0.000000 0.000000 0.000000 0.046341 0.000000 -0.023706
#
#
# Mechanical properties :
#
#
# Convention : Reuss Voigt Hill
#
# Bulk Modulus (GPa) = 13.06465 43.20091 28.13278
# Shear Modulus (GPa) = 23.64622 17.98178 20.81400
#
# Velocity S-wave (km/s) = 3.23113 2.81767 3.03146
# Velocity P-wave (km/s) = 4.43717 5.44606 4.96730
#
# Compressibility (1/GPa) = 0.07654245
#
# Stress axis : x y z
#
# Youngs Moduli (GPa) = 37.79898 59.15465 21.23543
#
# Poissons Ratio (x) = 0.40281 -0.28723
# Poissons Ratio (y) = 0.25739 0.29032
# Poissons Ratio (z) = -0.51128 0.80873
#
# Static dielectric constant tensor:
#      x y z
#    x 1.850800 0.000000 -0.018040 
#    y 0.000000 1.842380 0.000000 
#    z -0.018040 0.000000 1.886880 
# 
# From -- ./inp_files/37131.got.cif
#   From: 2010.05.17/outbox.cif.g08.bks.cpg/sg10_19_cif.got.tgz:37131.got - 2010.06.03 11:33:40.
