data_PCOD9145019
_publ_section_title
;
Structure prediction by ZEFSAII (Michael W. Deem and Ramdas Pophale) SiO2 
 PCOD9145019
Probable space group: P 2/M
;
_chemical_formula_sum "Si O2"
_cell_formula_units_Z 24
_cell_length_a 12.115334
_cell_length_b 8.239705
_cell_length_c 27.729798
_cell_angle_alpha 90.000000
_cell_angle_beta 151.653080
_cell_angle_gamma 90.000000
_cell_volume 1314.355287
_symmetry_space_group_name_H-M "P 2/M"
_symmetry_group_IT_number 10
_symmetry_cell_setting 'monoclinic'
loop_
_space_group_symop_operation_xyz
x,y,z
-x,y,-z
-x,-y,-z
x,-y,z
loop_
_atom_site_type_symbol
_atom_site_label
_atom_site_fract_x
_atom_site_fract_y
_atom_site_fract_z
Si Si1 0.341192 0.690289 0.806483
Si Si2 0.129306 0.301509 0.000426
Si Si3 0.840916 0.810323 0.606705
Si Si4 0.117058 0.310214 0.191263
Si Si5 0.742581 0.814386 0.120108
Si Si6 0.386611 0.692204 0.382523
O O1 0.336206 0.500000 0.793095
O O2 0.601025 0.753921 0.895083
O O3 0.305581 0.720804 0.849410
O O4 0.105992 0.768740 0.695210
O O5 0.138653 0.500000 0.000554
O O6 0.000000 0.258981 0.000000
O O7 0.980548 0.241996 0.896837
O O8 0.649425 0.722561 0.500240
O O9 0.775726 0.764061 0.637168
O O10 0.801595 0.000000 0.586642
O O11 0.164919 0.500000 0.200412
O O12 0.327159 0.244640 0.305756
O O13 0.908901 0.284783 0.149002
O O14 0.828369 0.000000 0.162218
O O15 0.500000 0.829028 0.000000
O O16 0.341984 0.500000 0.365466
#
# Coordination Sequence:
#
# PCOD9145019 Si02
#       6
#     4   4   4   4   4   4
#     4  11  20  32  53  76 104 139 174 213 257 312
#     4   9  19  35  55  79 103 132 173 220 266 308
#     4  11  21  32  48  73 108 143 173 209 256 311
#     4  10  19  32  53  77 104 137 171 211 257 310
#     4  11  21  30  45  74 109 139 168 206 254 315
#     4  10  19  31  49  75 107 140 175 210 250 310
#
# _framework density 18.259903000000001
#
# number of rings (size 3 to 8) (size 9 to 14) (size 15 to 20)
#    0.000    1.667    3.333    4.000    0.000    1.333 
#    0.000    0.000    0.000    5.500    0.000    7.000 
#    0.000    0.000    0.000    0.000    0.000    0.000 
#
# Total GULP energy -133730.276439 kJ/mol
# GULP energy per Si atom -5572.094852 kJ/mol
# Density = 1.821834 g / cm^3
# Si number density = 18.259903 Si / 1000 Ang^3
#
#
#
# Elastic Constant Matrix: (Units=GPa)
#
#
# Indices 1 2 3 4 5 6 
#
# 1 87.4582 -15.7317 48.1378 0.0000 -2.3656 0.0000
# 2 -15.7317 20.7938 -6.6098 0.0000 -0.7947 0.0000
# 3 48.1378 -6.6098 131.6619 0.0000 -2.0782 0.0000
# 4 0.0000 0.0000 0.0000 5.7798 0.0000 -20.5128
# 5 -2.3656 -0.7947 -2.0782 0.0000 11.4379 0.0000
# 6 0.0000 0.0000 0.0000 -20.5128 0.0000 -74.9595
#
#
#
# Elastic Compliance Matrix: (Units=1/GPa)
#
#
# Indices 1 2 3 4 5 6 
#
# 1 0.016455 0.010847 -0.005422 0.000000 0.003172 0.000000
# 2 0.010847 0.056191 -0.001051 0.000000 0.005957 0.000000
# 3 -0.005422 -0.001051 0.009533 0.000000 0.000538 0.000000
# 4 0.000000 0.000000 0.000000 0.087772 0.000000 -0.024019
# 5 0.003172 0.005957 0.000538 0.000000 0.088597 0.000000
# 6 0.000000 0.000000 0.000000 -0.024019 0.000000 -0.006768
#
#
# Mechanical properties :
#
#
# Convention : Reuss Voigt Hill
#
# Bulk Modulus (GPa) = 10.99766 32.38962 21.69364
# Shear Modulus (GPa) = 18.29221 2.72615 10.50918
#
# Velocity S-wave (km/s) = 3.16851 1.22320 2.40163
# Velocity P-wave (km/s) = 4.40702 4.44652 4.42682
#
# Compressibility (1/GPa) = 0.09092840
#
# Stress axis : x y z
#
# Youngs Moduli (GPa) = 60.77150 17.79640 104.89676
#
# Poissons Ratio (x) = -0.19304 0.56871
# Poissons Ratio (y) = -0.65919 0.11023
# Poissons Ratio (z) = 0.32948 0.01870
#
# Static dielectric constant tensor:
#      x y z
#    x 1.584900 0.000000 -0.009440 
#    y 0.000000 1.647260 0.000000 
#    z -0.009440 0.000000 1.716140 
# 
# From -- ./inp_files/52621.got.cif
#   From: 2010.05.17/outbox.cif.g08.bks.cpg/sg10_27_cif.got.tgz:52621.got - 2010.06.03 11:33:40.
