data_PCOD9145606
_publ_section_title
;
Structure prediction by ZEFSAII (Michael W. Deem and Ramdas Pophale) SiO2 
 PCOD9145606
Probable space group: P 2/M
;
_chemical_formula_sum "Si O2"
_cell_formula_units_Z 32
_cell_length_a 20.916773
_cell_length_b 9.027307
_cell_length_c 27.123464
_cell_angle_alpha 90.000000
_cell_angle_beta 160.130150
_cell_angle_gamma 90.000000
_cell_volume 1740.723025
_symmetry_space_group_name_H-M "P 2/M"
_symmetry_group_IT_number 10
_symmetry_cell_setting 'monoclinic'
loop_
_space_group_symop_operation_xyz
x,y,z
-x,y,-z
-x,-y,-z
x,-y,z
loop_
_atom_site_type_symbol
_atom_site_label
_atom_site_fract_x
_atom_site_fract_y
_atom_site_fract_z
Si Si1 0.400048 0.821831 0.478789
Si Si2 0.035885 0.821541 0.845982
Si Si3 0.785266 0.177505 0.127731
Si Si4 0.703334 0.678100 0.764571
Si Si5 0.087496 0.321868 0.986187
Si Si6 0.049184 0.177895 0.651567
Si Si7 0.801654 0.829538 0.386314
Si Si8 0.609802 0.324252 0.160658
O O1 0.500000 0.778361 0.500000
O O2 0.182496 0.777510 0.318736
O O3 0.517789 0.751569 0.608461
O O4 0.408446 0.000000 0.488864
O O5 0.113701 0.751669 0.952432
O O6 0.145353 0.778037 0.875961
O O7 0.042196 0.000000 0.854557
O O8 0.937941 0.208965 0.281155
O O9 0.753806 0.000000 0.105083
O O10 0.591046 0.257767 0.999078
O O11 0.687213 0.500000 0.751518
O O12 0.881724 0.718464 0.859100
O O13 0.762732 0.721259 0.863069
O O14 0.091604 0.500000 0.984762
O O15 0.227404 0.255807 0.755500
O O16 0.863260 0.219407 0.485725
O O17 0.069026 0.000000 0.658914
O O18 0.661353 0.728881 0.253555
O O19 0.000000 0.828172 0.500000
O O20 0.733989 0.000000 0.337637
O O21 0.610718 0.500000 0.157733
#
# Coordination Sequence:
#
# PCOD9145606 Si02
#       8
#     4   4   4   4   4   4   4   4
#     4  10  19  32  51  78 108 133 163 214 265 305
#     4  10  21  36  53  75 103 136 174 213 262 314
#     4  10  21  37  54  72 100 139 178 215 256 310
#     4   9  18  32  52  78 103 133 172 208 248 304
#     4   9  18  33  52  75 104 134 168 210 251 300
#     4   9  18  34  56  78 101 135 177 218 256 300
#     4   8  15  30  52  76 101 131 169 210 252 301
#     4  11  21  32  51  80 109 136 170 214 262 309
#
# _framework density 18.383164000000001
#
# number of rings (size 3 to 8) (size 9 to 14) (size 15 to 20)
#    0.000    2.500    1.250    3.000    0.000    6.000 
#    0.000    2.500    0.000    3.000    0.000    0.000 
#    0.000    0.000    0.000    0.000    0.000    0.000 
#
# Total GULP energy -178487.979315 kJ/mol
# GULP energy per Si atom -5577.749354 kJ/mol
# Density = 1.834132 g / cm^3
# Si number density = 18.383164 Si / 1000 Ang^3
#
#
#
# Elastic Constant Matrix: (Units=GPa)
#
#
# Indices 1 2 3 4 5 6 
#
# 1 86.4954 20.4282 20.5611 0.0000 -33.5956 0.0000
# 2 20.4282 14.4180 11.6965 0.0000 -10.3641 0.0000
# 3 20.5611 11.6965 51.8220 0.0000 -30.5495 0.0000
# 4 0.0000 0.0000 0.0000 13.8410 0.0000 24.2066
# 5 -33.5956 -10.3641 -30.5495 0.0000 34.3389 0.0000
# 6 0.0000 0.0000 0.0000 24.2066 0.0000 82.3955
#
#
#
# Elastic Compliance Matrix: (Units=1/GPa)
#
#
# Indices 1 2 3 4 5 6 
#
# 1 0.025851 -0.026283 0.012425 0.000000 0.028412 0.000000
# 2 -0.026283 0.117292 -0.021733 0.000000 -0.009647 0.000000
# 3 0.012425 -0.021733 0.047464 0.000000 0.047823 0.000000
# 4 0.000000 0.000000 0.000000 0.148602 0.000000 -0.043657
# 5 0.028412 -0.009647 0.047823 0.000000 0.096553 0.000000
# 6 0.000000 0.000000 0.000000 -0.043657 0.000000 0.024962
#
#
# Mechanical properties :
#
#
# Convention : Reuss Voigt Hill
#
# Bulk Modulus (GPa) = 8.37337 28.67856 18.52597
# Shear Modulus (GPa) = 8.74563 32.78504 20.76534
#
# Velocity S-wave (km/s) = 2.18352 4.22765 3.36458
# Velocity P-wave (km/s) = 3.30481 6.28212 5.01930
#
# Compressibility (1/GPa) = 0.11942626
#
# Stress axis : x y z
#
# Youngs Moduli (GPa) = 38.68366 8.52572 21.06839
#
# Poissons Ratio (x) = 0.22408 -0.26177
# Poissons Ratio (y) = 1.01671 0.45787
# Poissons Ratio (z) = -0.48064 0.18529
#
# Static dielectric constant tensor:
#      x y z
#    x 1.658080 0.000000 -0.026870 
#    y 0.000000 1.611700 0.000000 
#    z -0.026870 0.000000 1.631350 
# 
# From -- ./inp_files/93778.got.cif
#   From: 2010.05.17/outbox.cif.g08.bks.cpg/sg10_47_cif.got.tgz:93778.got - 2010.06.03 11:33:40.
