data_PCOD9145777
_publ_section_title
;
Structure prediction by ZEFSAII (Michael W. Deem and Ramdas Pophale) SiO2 
 PCOD9145777
Probable space group: P 2/M
;
_chemical_formula_sum "Si O2"
_cell_formula_units_Z 32
_cell_length_a 33.395868
_cell_length_b 8.764948
_cell_length_c 23.451140
_cell_angle_alpha 90.000000
_cell_angle_beta 164.163310
_cell_angle_gamma 90.000000
_cell_volume 1873.284671
_symmetry_space_group_name_H-M "P 2/M"
_symmetry_group_IT_number 10
_symmetry_cell_setting 'monoclinic'
loop_
_space_group_symop_operation_xyz
x,y,z
-x,y,-z
-x,-y,-z
x,-y,z
loop_
_atom_site_type_symbol
_atom_site_label
_atom_site_fract_x
_atom_site_fract_y
_atom_site_fract_z
Si Si1 0.146826 0.675172 0.662099
Si Si2 0.687693 0.815821 0.009237
Si Si3 0.643299 0.813907 0.462815
Si Si4 0.947595 0.681035 0.165851
Si Si5 0.101602 0.184770 0.267142
Si Si6 0.030394 0.817417 0.679496
Si Si7 0.822741 0.179890 0.817041
Si Si8 0.666983 0.819951 0.724688
O O1 0.184735 0.500000 0.701984
O O2 0.267383 0.753937 0.867127
O O3 0.000000 0.676874 0.500000
O O4 0.099199 0.761598 0.539720
O O5 0.815086 0.769953 0.138940
O O6 0.688964 0.000000 0.012917
O O7 0.525039 0.763049 0.769309
O O8 0.738136 0.775927 0.536748
O O9 0.735968 0.756456 0.644171
O O10 0.639126 0.000000 0.460629
O O11 0.957697 0.500000 0.180276
O O12 0.981665 0.747769 0.274499
O O13 0.052948 0.747465 0.260732
O O14 0.783578 0.732740 0.923145
O O15 0.089325 0.000000 0.254140
O O16 0.981417 0.237613 0.055051
O O17 0.029661 0.000000 0.681803
O O18 0.722075 0.192326 0.735207
O O19 0.845423 0.000000 0.835697
O O20 0.500000 0.766830 0.500000
O O21 0.328357 0.000000 0.253191
#
# Coordination Sequence:
#
# PCOD9145777 Si02
#       8
#     4   4   4   4   4   4   4   4
#     4   9  17  31  50  72 103 136 163 194 242 302
#     4   9  18  30  49  78 106 130 160 202 252 299
#     4   9  16  27  49  77 101 126 163 214 255 290
#     4  11  22  34  49  70 100 135 171 206 249 299
#     4   9  17  32  51  71  96 130 174 214 250 288
#     4  10  19  32  53  77 102 130 167 207 244 295
#     4   8  14  25  45  73  98 124 164 210 250 285
#     4   9  18  31  50  72  98 132 169 209 251 294
#
# _framework density 17.082293
#
# number of rings (size 3 to 8) (size 9 to 14) (size 15 to 20)
#    0.000    2.750    0.000    3.000    1.750    3.750 
#    0.000    0.625    0.000    7.500    0.000    5.250 
#    0.000    0.000    0.000    0.000    0.000    0.000 
#
# Total GULP energy -178335.014155 kJ/mol
# GULP energy per Si atom -5572.969192 kJ/mol
# Density = 1.704341 g / cm^3
# Si number density = 17.082293 Si / 1000 Ang^3
#
#
#
# Elastic Constant Matrix: (Units=GPa)
#
#
# Indices 1 2 3 4 5 6 
#
# 1 82.0680 30.0203 54.4599 0.0000 -30.5221 0.0000
# 2 30.0203 37.6486 17.7466 0.0000 -11.2170 0.0000
# 3 54.4599 17.7466 69.6151 0.0000 -12.2779 0.0000
# 4 0.0000 0.0000 0.0000 4.1996 0.0000 3.5375
# 5 -30.5221 -11.2170 -12.2779 0.0000 24.9230 0.0000
# 6 0.0000 0.0000 0.0000 3.5375 0.0000 5.0263
#
#
#
# Elastic Compliance Matrix: (Units=1/GPa)
#
#
# Indices 1 2 3 4 5 6 
#
# 1 0.056389 -0.016225 -0.031853 0.000000 0.046063 0.000000
# 2 -0.016225 0.037725 0.002810 0.000000 -0.001507 0.000000
# 3 -0.031853 0.002810 0.034946 0.000000 -0.020528 0.000000
# 4 0.000000 0.000000 0.000000 0.584827 0.000000 -0.411602
# 5 0.046063 -0.001507 -0.020528 0.000000 0.085744 0.000000
# 6 0.000000 0.000000 0.000000 -0.411602 0.000000 0.488638
#
#
# Mechanical properties :
#
#
# Convention : Reuss Voigt Hill
#
# Bulk Modulus (GPa) = 25.95729 43.75394 34.85562
# Shear Modulus (GPa) = 3.59287 12.63677 8.11482
#
# Velocity S-wave (km/s) = 1.45184 2.72280 2.18191
# Velocity P-wave (km/s) = 4.24722 5.96272 5.17653
#
# Compressibility (1/GPa) = 0.03852482
#
# Stress axis : x y z
#
# Youngs Moduli (GPa) = 17.73406 26.50730 28.61539
#
# Poissons Ratio (x) = 0.43008 0.91148
# Poissons Ratio (y) = 0.28773 -0.08040
# Poissons Ratio (z) = 0.56488 -0.07448
#
# Static dielectric constant tensor:
#      x y z
#    x 1.569390 0.000000 0.004030 
#    y 0.000000 1.575450 0.000000 
#    z 0.004030 0.000000 1.579150 
# 
# From -- ./inp_files/87215.got.cif
#   From: 2010.05.17/outbox.cif.g08.bks.cpg/sg10_44_cif.got.tgz:87215.got - 2010.06.03 11:33:40.
