data_PCOD9145415
_publ_section_title
;
Structure prediction by ZEFSAII (Michael W. Deem and Ramdas Pophale) SiO2 
 PCOD9145415
Probable space group: P 2/M
;
_chemical_formula_sum "Si O2"
_cell_formula_units_Z 24
_cell_length_a 23.444931
_cell_length_b 8.804086
_cell_length_c 12.008152
_cell_angle_alpha 90.000000
_cell_angle_beta 34.417397
_cell_angle_gamma 90.000000
_cell_volume 1400.957691
_symmetry_space_group_name_H-M "P 2/M"
_symmetry_group_IT_number 10
_symmetry_cell_setting 'monoclinic'
loop_
_space_group_symop_operation_xyz
x,y,z
-x,y,-z
-x,-y,-z
x,-y,z
loop_
_atom_site_type_symbol
_atom_site_label
_atom_site_fract_x
_atom_site_fract_y
_atom_site_fract_z
Si Si1 0.792771 0.818605 0.672495
Si Si2 0.751604 0.678095 0.384181
Si Si3 0.613931 0.817759 0.793086
Si Si4 0.887672 0.318034 0.726139
Si Si5 0.065249 0.322707 0.738548
Si Si6 0.862219 0.178734 0.011128
O O1 0.687268 0.785734 0.780148
O O2 0.806863 0.759930 0.774435
O O3 0.876496 0.729355 0.466059
O O4 0.810266 0.000000 0.638178
O O5 0.736043 0.500000 0.389697
O O6 0.663596 0.744162 0.603828
O O7 0.853163 0.694828 0.295386
O O8 0.772840 0.762411 0.234429
O O9 0.613880 0.000000 0.777817
O O10 0.500000 0.767230 0.000000
O O11 0.879960 0.500000 0.732933
O O12 0.000000 0.275530 0.500000
O O13 0.870595 0.262279 0.879122
O O14 0.035558 0.500000 0.780358
O O15 0.966504 0.221201 0.905649
O O16 0.855065 0.000000 0.005371
#
# Coordination Sequence:
#
# PCOD9145415 Si02
#       6
#     4   4   4   4   4   4
#     4  10  19  32  53  80 107 138 179 220 258 307
#     4  10  21  35  52  76 107 139 176 218 264 317
#     4   9  19  37  60  84 109 136 170 218 272 319
#     4  11  22  35  52  73 106 148 183 217 259 309
#     4  10  19  32  49  72 105 143 177 214 259 308
#     4  12  23  33  50  74 105 143 181 218 259 312
#
# _framework density 17.131139999999998
#
# number of rings (size 3 to 8) (size 9 to 14) (size 15 to 20)
#    0.000    1.667    1.667    4.000    0.000    5.667 
#    0.000    0.000    0.000    1.000    0.000    7.000 
#    0.000    0.000    0.000    0.000    0.000    0.000 
#
# Total GULP energy -133998.179202 kJ/mol
# GULP energy per Si atom -5583.257467 kJ/mol
# Density = 1.709215 g / cm^3
# Si number density = 17.131140 Si / 1000 Ang^3
#
#
#
# Elastic Constant Matrix: (Units=GPa)
#
#
# Indices 1 2 3 4 5 6 
#
# 1 54.2001 26.5917 46.5457 0.0000 12.2161 0.0000
# 2 26.5917 41.4684 25.6741 0.0000 9.6111 0.0000
# 3 46.5457 25.6741 98.2733 0.0000 7.2156 0.0000
# 4 0.0000 0.0000 0.0000 1483.2164 0.0000 442.7016
# 5 12.2161 9.6111 7.2156 0.0000 24.1569 0.0000
# 6 0.0000 0.0000 0.0000 442.7016 0.0000 156.9489
#
#
#
# Elastic Compliance Matrix: (Units=1/GPa)
#
#
# Indices 1 2 3 4 5 6 
#
# 1 0.040427 -0.014491 -0.014604 0.000000 -0.010316 0.000000
# 2 -0.014491 0.036217 -0.002125 0.000000 -0.006447 0.000000
# 3 -0.014604 -0.002125 0.017426 0.000000 0.003026 0.000000
# 4 0.000000 0.000000 0.000000 0.004264 0.000000 -0.012028
# 5 -0.010316 -0.006447 0.003026 0.000000 0.048274 0.000000
# 6 0.000000 0.000000 0.000000 -0.012028 0.000000 0.040300
#
#
# Mechanical properties :
#
#
# Convention : Reuss Voigt Hill
#
# Bulk Modulus (GPa) = 31.61657 43.50718 37.56188
# Shear Modulus (GPa) = 19.23890 339.20647 179.22268
#
# Velocity S-wave (km/s) = 3.35481 14.08672 10.23939
# Velocity P-wave (km/s) = 5.78809 17.03034 12.71878
#
# Compressibility (1/GPa) = 0.03162899
#
# Stress axis : x y z
#
# Youngs Moduli (GPa) = 24.73624 27.61153 57.38626
#
# Poissons Ratio (x) = 0.40011 0.83808
# Poissons Ratio (y) = 0.35845 0.12195
# Poissons Ratio (z) = 0.36125 0.05868
#
# Static dielectric constant tensor:
#      x y z
#    x 1.595340 0.000000 0.009690 
#    y 0.000000 1.567310 0.000000 
#    z 0.009690 0.000000 1.578100 
# 
# From -- ./inp_files/54591.got.cif
#   From: 2010.05.17/outbox.cif.g08.bks.cpg/sg10_28_cif.got.tgz:54591.got - 2010.06.03 11:33:40.
