data_PCOD9145101
_publ_section_title
;
Structure prediction by ZEFSAII (Michael W. Deem and Ramdas Pophale) SiO2 
 PCOD9145101
Probable space group: P 2/M
;
_chemical_formula_sum "Si O2"
_cell_formula_units_Z 32
_cell_length_a 26.562784
_cell_length_b 9.037795
_cell_length_c 15.551084
_cell_angle_alpha 90.000000
_cell_angle_beta 29.271851
_cell_angle_gamma 90.000000
_cell_volume 1825.427985
_symmetry_space_group_name_H-M "P 2/M"
_symmetry_group_IT_number 10
_symmetry_cell_setting 'monoclinic'
loop_
_space_group_symop_operation_xyz
x,y,z
-x,y,-z
-x,-y,-z
x,-y,z
loop_
_atom_site_type_symbol
_atom_site_label
_atom_site_fract_x
_atom_site_fract_y
_atom_site_fract_z
Si Si1 0.227317 0.325879 0.408257
Si Si2 0.003304 0.325699 0.724016
Si Si3 0.436355 0.675276 0.182743
Si Si4 0.868285 0.175323 0.603332
Si Si5 0.220198 0.676010 0.915070
Si Si6 0.419825 0.177462 0.545685
Si Si7 0.461982 0.823130 0.805160
Si Si8 0.754012 0.675929 0.920153
O O1 0.242401 0.500000 0.363111
O O2 0.318576 0.283824 0.335449
O O3 0.221377 0.230436 0.329779
O O4 0.110181 0.311209 0.617619
O O5 0.991755 0.500000 0.719389
O O6 0.031054 0.237471 0.595722
O O7 0.898177 0.278224 0.925194
O O8 0.440237 0.500000 0.198150
O O9 0.484955 0.766982 0.187243
O O10 0.500000 0.696334 0.000000
O O11 0.843512 0.250276 0.730362
O O12 0.870771 0.000000 0.606327
O O13 0.229494 0.500000 0.887272
O O14 0.308420 0.755837 0.730443
O O15 0.236393 0.705223 0.992605
O O16 0.500000 0.228950 0.500000
O O17 0.466328 0.214553 0.383593
O O18 0.413278 0.000000 0.561769
O O19 0.446977 0.000000 0.829130
O O20 0.353032 0.744377 0.952728
O O21 0.755634 0.500000 0.904450
#
# Coordination Sequence:
#
# PCOD9145101 Si02
#       8
#     4   4   4   4   4   4   4   4
#     4   8  16  33  53  72 106 144 173 219 273 318
#     4   8  17  35  53  75 106 142 182 227 276 324
#     4  10  20  34  56  84 111 145 184 223 275 330
#     4  10  19  31  50  76 107 144 183 221 267 326
#     4  10  21  35  57  81 102 139 190 234 271 320
#     4  10  21  39  58  78 112 148 179 226 284 332
#     4  11  23  37  55  82 113 148 182 223 276 332
#     4  11  21  33  50  75 108 144 182 228 273 322
#
# _framework density 17.530135999999999
#
# number of rings (size 3 to 8) (size 9 to 14) (size 15 to 20)
#    0.750    1.500    1.250    2.250    0.000    4.500 
#    0.000    2.500    0.000    0.750    0.000    5.250 
#    0.000    0.000    0.000    0.000    0.000    0.000 
#
# Total GULP energy -178350.902658 kJ/mol
# GULP energy per Si atom -5573.465708 kJ/mol
# Density = 1.749024 g / cm^3
# Si number density = 17.530136 Si / 1000 Ang^3
#
#
#
# Elastic Constant Matrix: (Units=GPa)
#
#
# Indices 1 2 3 4 5 6 
#
# 1 55.7819 14.5527 9.3422 0.0000 -14.5300 0.0000
# 2 14.5527 34.8351 16.8231 0.0000 -1.0954 0.0000
# 3 9.3422 16.8231 85.3353 0.0000 -16.5554 0.0000
# 4 0.0000 0.0000 0.0000 22.7987 0.0000 6.1261
# 5 -14.5300 -1.0954 -16.5554 0.0000 27.6890 0.0000
# 6 0.0000 0.0000 0.0000 6.1261 0.0000 12.0097
#
#
#
# Elastic Compliance Matrix: (Units=1/GPa)
#
#
# Indices 1 2 3 4 5 6 
#
# 1 0.023787 -0.010507 0.002046 0.000000 0.013290 0.000000
# 2 -0.010507 0.036563 -0.007745 0.000000 -0.008698 0.000000
# 3 0.002046 -0.007745 0.014898 0.000000 0.009675 0.000000
# 4 0.000000 0.000000 0.000000 0.050829 0.000000 -0.025928
# 5 0.013290 -0.008698 0.009675 0.000000 0.048530 0.000000
# 6 0.000000 0.000000 0.000000 -0.025928 0.000000 0.096492
#
#
# Mechanical properties :
#
#
# Convention : Reuss Voigt Hill
#
# Bulk Modulus (GPa) = 23.34552 28.59870 25.97211
# Shear Modulus (GPa) = 15.73355 21.51508 18.62431
#
# Velocity S-wave (km/s) = 2.99910 3.50711 3.26301
# Velocity P-wave (km/s) = 5.03380 5.72269 5.38926
#
# Compressibility (1/GPa) = 0.04283477
#
# Stress axis : x y z
#
# Youngs Moduli (GPa) = 42.03915 27.34986 67.12128
#
# Poissons Ratio (x) = 0.28738 -0.13730
# Poissons Ratio (y) = 0.44172 0.51987
# Poissons Ratio (z) = -0.08599 0.21183
#
# Static dielectric constant tensor:
#      x y z
#    x 1.597430 0.000000 -0.028400 
#    y 0.000000 1.585610 0.000000 
#    z -0.028400 0.000000 1.607430 
# 
# From -- ./inp_files/72182.got.cif
#   From: 2010.05.17/outbox.cif.g08.bks.cpg/sg10_37_cif.got.tgz:72182.got - 2010.06.03 11:33:40.
