data_PCOD9145768
_publ_section_title
;
Structure prediction by ZEFSAII (Michael W. Deem and Ramdas Pophale) SiO2 
 PCOD9145768
Probable space group: P 2/M
;
_chemical_formula_sum "Si O2"
_cell_formula_units_Z 32
_cell_length_a 27.168716
_cell_length_b 8.618733
_cell_length_c 21.579381
_cell_angle_alpha 90.000000
_cell_angle_beta 21.069787
_cell_angle_gamma 90.000000
_cell_volume 1816.587046
_symmetry_space_group_name_H-M "P 2/M"
_symmetry_group_IT_number 10
_symmetry_cell_setting 'monoclinic'
loop_
_space_group_symop_operation_xyz
x,y,z
-x,y,-z
-x,-y,-z
x,-y,z
loop_
_atom_site_type_symbol
_atom_site_label
_atom_site_fract_x
_atom_site_fract_y
_atom_site_fract_z
Si Si1 0.904719 0.685716 0.922099
Si Si2 0.406193 0.311349 0.020093
Si Si3 0.390734 0.686199 0.782278
Si Si4 0.298672 0.312201 0.281084
Si Si5 0.901740 0.187533 0.059419
Si Si6 0.014889 0.815445 0.666274
Si Si7 0.264534 0.311969 0.059882
Si Si8 0.592272 0.186859 0.449349
O O1 0.911772 0.500000 0.910874
O O2 0.991797 0.754208 0.763291
O O3 0.746537 0.732461 0.094229
O O4 0.944139 0.745162 0.943328
O O5 0.406492 0.500000 0.018529
O O6 0.565219 0.264826 0.840492
O O7 0.328877 0.266762 0.174246
O O8 0.330080 0.258643 0.047472
O O9 0.400974 0.500000 0.768148
O O10 0.521562 0.757024 0.595290
O O11 0.360230 0.732078 0.888978
O O12 0.289943 0.500000 0.293478
O O13 0.158854 0.242887 0.470645
O O14 0.747394 0.238697 0.256726
O O15 0.902879 0.000000 0.053581
O O16 0.000000 0.233817 0.000000
O O17 0.886678 0.750880 0.777066
O O18 0.009787 0.000000 0.672017
O O19 0.255994 0.500000 0.070355
O O20 0.500000 0.241945 0.500000
O O21 0.591289 0.000000 0.450248
#
# Coordination Sequence:
#
# PCOD9145768 Si02
#       8
#     4   4   4   4   4   4   4   4
#     4  10  20  36  57  78 102 136 179 224 264 311
#     4   8  16  33  59  82 106 140 179 223 267 313
#     4   9  18  31  51  77 103 130 168 221 267 302
#     4   9  17  34  58  82 106 141 184 220 261 318
#     4  10  21  37  54  75 108 142 171 212 265 318
#     4  11  22  35  53  79 110 144 178 218 268 322
#     4   9  18  35  55  79 108 139 177 222 270 314
#     4  10  19  32  53  76  98 134 176 208 248 311
#
# _framework density 17.615451
#
# number of rings (size 3 to 8) (size 9 to 14) (size 15 to 20)
#    0.000    2.500    1.250    3.000    0.000    3.500 
#    2.250    5.000    0.000    0.000    0.000    0.000 
#    0.000    0.000    0.000    0.000    0.000    0.000 
#
# Total GULP energy -178490.056099 kJ/mol
# GULP energy per Si atom -5577.814253 kJ/mol
# Density = 1.757536 g / cm^3
# Si number density = 17.615451 Si / 1000 Ang^3
#
#
#
# Elastic Constant Matrix: (Units=GPa)
#
#
# Indices 1 2 3 4 5 6 
#
# 1 175.3344 37.5862 95.1368 0.0000 1.4060 0.0000
# 2 37.5862 25.3258 30.7710 0.0000 0.1543 0.0000
# 3 95.1368 30.7710 153.2286 0.0000 4.2298 0.0000
# 4 0.0000 0.0000 0.0000 319.3238 0.0000 142.6265
# 5 1.4060 0.1543 4.2298 0.0000 16.6057 0.0000
# 6 0.0000 0.0000 0.0000 142.6265 0.0000 74.0701
#
#
#
# Elastic Compliance Matrix: (Units=1/GPa)
#
#
# Indices 1 2 3 4 5 6 
#
# 1 0.010162 -0.009796 -0.004351 0.000000 0.000339 0.000000
# 2 -0.009796 0.061753 -0.006371 0.000000 0.001878 0.000000
# 3 -0.004351 -0.006371 0.010570 0.000000 -0.002265 0.000000
# 4 0.000000 0.000000 0.000000 0.022378 0.000000 -0.043089
# 5 0.000339 0.001878 -0.002265 0.000000 0.060751 0.000000
# 6 0.000000 0.000000 0.000000 -0.043089 0.000000 0.096472
#
#
# Mechanical properties :
#
#
# Convention : Reuss Voigt Hill
#
# Bulk Modulus (GPa) = 24.12664 75.65299 49.88981
# Shear Modulus (GPa) = 15.77601 94.69291 55.23446
#
# Velocity S-wave (km/s) = 2.99587 7.33977 5.60569
# Velocity P-wave (km/s) = 5.06882 10.71774 8.38340
#
# Compressibility (1/GPa) = 0.04144797
#
# Stress axis : x y z
#
# Youngs Moduli (GPa) = 98.40866 16.19355 94.61009
#
# Poissons Ratio (x) = 0.15864 0.41168
# Poissons Ratio (y) = 0.96404 0.60273
# Poissons Ratio (z) = 0.42821 0.10316
#
# Static dielectric constant tensor:
#      x y z
#    x 1.597890 0.000000 -0.001480 
#    y 0.000000 1.596020 0.000000 
#    z -0.001480 0.000000 1.578550 
# 
# From -- ./inp_files/86894.got.cif
#   From: 2010.05.17/outbox.cif.g08.bks.cpg/sg10_44_cif.got.tgz:86894.got - 2010.06.03 11:33:40.
