data_PCOD9145993
_publ_section_title
;
Structure prediction by ZEFSAII (Michael W. Deem and Ramdas Pophale) SiO2 
 PCOD9145993
Probable space group: P 2/M
;
_chemical_formula_sum "Si O2"
_cell_formula_units_Z 20
_cell_length_a 25.794579
_cell_length_b 7.611954
_cell_length_c 10.865466
_cell_angle_alpha 90.000000
_cell_angle_beta 156.776287
_cell_angle_gamma 90.000000
_cell_volume 841.248438
_symmetry_space_group_name_H-M "P 2/M"
_symmetry_group_IT_number 10
_symmetry_cell_setting 'monoclinic'
loop_
_space_group_symop_operation_xyz
x,y,z
-x,y,-z
-x,-y,-z
x,-y,z
loop_
_atom_site_type_symbol
_atom_site_label
_atom_site_fract_x
_atom_site_fract_y
_atom_site_fract_z
Si Si1 0.423481 0.714954 0.213837
Si Si2 0.151108 0.702813 0.718498
Si Si3 0.133396 0.210763 0.224535
Si Si4 0.581099 0.711160 0.061514
Si Si5 0.139905 0.198235 0.963786
O O1 0.500000 0.778219 0.500000
O O2 0.426978 0.500000 0.223854
O O3 0.272166 0.766008 0.902579
O O4 0.470691 0.774042 0.183494
O O5 0.122655 0.500000 0.627613
O O6 0.189412 0.711353 0.946802
O O7 0.017857 0.804009 0.400793
O O8 0.264909 0.248498 0.587225
O O9 0.118012 0.000000 0.178150
O O10 0.158024 0.278828 0.138703
O O11 0.000000 0.276022 0.000000
O O12 0.568046 0.500000 0.033378
O O13 0.500000 0.782197 0.000000
O O14 0.191554 0.000000 0.075893
#
# Coordination Sequence:
#
# PCOD9145993 Si02
#       5
#     4   4   4   4   4
#     4   9  19  35  55  80 113 147 180 225 279 332
#     4  10  19  32  55  82 109 144 186 228 277 330
#     4  10  22  39  59  82 113 155 194 233 288 343
#     4  10  22  38  60  89 117 149 191 238 288 340
#     4  10  20  34  54  79 112 146 180 230 283 331
#
# _framework density 23.774190000000001
#
# number of rings (size 3 to 8) (size 9 to 14) (size 15 to 20)
#    0.000    2.200    0.000    3.600    2.800    2.400 
#    0.000    1.000    0.000    3.000    0.000    0.000 
#    0.000    0.000    0.000    0.000    0.000    0.000 
#
# Total GULP energy -111780.787272 kJ/mol
# GULP energy per Si atom -5589.039364 kJ/mol
# Density = 2.372008 g / cm^3
# Si number density = 23.774190 Si / 1000 Ang^3
#
#
#
# Elastic Constant Matrix: (Units=GPa)
#
#
# Indices 1 2 3 4 5 6 
#
# 1 160.6761 -0.3176 50.3861 0.0000 -22.9676 0.0000
# 2 -0.3176 55.4316 -9.5205 0.0000 2.6703 0.0000
# 3 50.3861 -9.5205 75.3202 0.0000 -21.2641 0.0000
# 4 0.0000 0.0000 0.0000 -2.5040 0.0000 11.5025
# 5 -22.9676 2.6703 -21.2641 0.0000 44.2404 0.0000
# 6 0.0000 0.0000 0.0000 11.5025 0.0000 -1.6166
#
#
#
# Elastic Compliance Matrix: (Units=1/GPa)
#
#
# Indices 1 2 3 4 5 6 
#
# 1 0.008045 -0.000897 -0.004976 0.000000 0.001839 0.000000
# 2 -0.000897 0.018541 0.002888 0.000000 -0.000197 0.000000
# 3 -0.004976 0.002888 0.018734 0.000000 0.006247 0.000000
# 4 0.000000 0.000000 0.000000 0.012604 0.000000 0.089681
# 5 0.001839 -0.000197 0.006247 0.000000 0.026573 0.000000
# 6 0.000000 0.000000 0.000000 0.089681 0.000000 0.019523
#
#
# Mechanical properties :
#
#
# Convention : Reuss Voigt Hill
#
# Bulk Modulus (GPa) = 25.41307 41.39154 33.40230
# Shear Modulus (GPa) = 40.61528 24.74929 32.68228
#
# Velocity S-wave (km/s) = 4.13774 3.22998 3.71171
# Velocity P-wave (km/s) = 5.79140 5.59986 5.69644
#
# Compressibility (1/GPa) = 0.03934984
#
# Stress axis : x y z
#
# Youngs Moduli (GPa) = 124.29648 53.93553 53.37846
#
# Poissons Ratio (x) = 0.04839 0.26562
# Poissons Ratio (y) = 0.11152 -0.15417
# Poissons Ratio (z) = 0.61852 -0.15578
#
# Static dielectric constant tensor:
#      x y z
#    x 1.932450 0.000000 -0.035050 
#    y 0.000000 1.849610 0.000000 
#    z -0.035050 0.000000 1.898060 
# 
# From -- ./inp_files/58061.got.cif
#   From: 2010.05.17/outbox.cif.g08.bks.cpg/sg10_30_cif.got.tgz:58061.got - 2010.06.03 11:33:40.
