data_PCOD9145533
_publ_section_title
;
Structure prediction by ZEFSAII (Michael W. Deem and Ramdas Pophale) SiO2 
 PCOD9145533
Probable space group: P 2/M
;
_chemical_formula_sum "Si O2"
_cell_formula_units_Z 32
_cell_length_a 12.519864
_cell_length_b 8.783796
_cell_length_c 24.255593
_cell_angle_alpha 90.000000
_cell_angle_beta 140.110378
_cell_angle_gamma 90.000000
_cell_volume 1710.654132
_symmetry_space_group_name_H-M "P 2/M"
_symmetry_group_IT_number 10
_symmetry_cell_setting 'monoclinic'
loop_
_space_group_symop_operation_xyz
x,y,z
-x,y,-z
-x,-y,-z
x,-y,z
loop_
_atom_site_type_symbol
_atom_site_label
_atom_site_fract_x
_atom_site_fract_y
_atom_site_fract_z
Si Si1 0.429288 0.818450 0.797445
Si Si2 0.553497 0.828480 0.460312
Si Si3 0.780689 0.171627 0.743250
Si Si4 0.545280 0.318711 0.735826
Si Si5 0.959525 0.818397 0.362675
Si Si6 0.980757 0.680447 0.252265
Si Si7 0.382449 0.818029 0.902096
Si Si8 0.230724 0.323497 0.539684
O O1 0.538186 0.731103 0.796131
O O2 0.467140 0.787199 0.876444
O O3 0.235069 0.774262 0.712013
O O4 0.443247 0.000000 0.793606
O O5 0.500000 0.788554 0.500000
O O6 0.384905 0.838450 0.359295
O O7 0.667660 0.704682 0.476734
O O8 0.630789 0.000000 0.490391
O O9 0.705401 0.251413 0.767701
O O10 0.910833 0.258938 0.756085
O O11 0.840551 0.000000 0.778687
O O12 0.546283 0.500000 0.729465
O O13 0.367415 0.263791 0.638094
O O14 0.059203 0.759063 0.455664
O O15 0.024424 0.755519 0.329143
O O16 0.967818 0.000000 0.364213
O O17 0.998504 0.500000 0.264384
O O18 0.790362 0.728364 0.165262
O O19 0.344319 0.000000 0.887768
O O20 0.500000 0.782752 0.000000
O O21 0.198265 0.500000 0.537962
#
# Coordination Sequence:
#
# PCOD9145533 Si02
#       8
#     4   4   4   4   4   4   4   4
#     4   9  19  35  55  78 102 134 175 214 256 310
#     4   9  17  28  43  63  89 126 172 219 263 307
#     4  10  19  32  51  73 101 139 181 219 256 306
#     4  10  21  35  50  72 105 143 181 221 265 310
#     4  10  20  34  51  72 101 138 182 227 269 313
#     4  11  21  33  53  82 113 139 169 213 266 317
#     4   9  19  38  63  88 112 137 167 205 252 311
#     4  10  20  31  44  66  97 134 177 223 268 310
#
# _framework density 18.706295000000001
#
# number of rings (size 3 to 8) (size 9 to 14) (size 15 to 20)
#    0.000    2.250    0.000    4.125    0.000    6.500 
#    0.000    2.500    0.000    0.750    0.000    5.250 
#    0.000    0.000    0.000    0.000    0.000    0.000 
#
# Total GULP energy -178448.990929 kJ/mol
# GULP energy per Si atom -5576.530967 kJ/mol
# Density = 1.866372 g / cm^3
# Si number density = 18.706295 Si / 1000 Ang^3
#
#
#
# Elastic Constant Matrix: (Units=GPa)
#
#
# Indices 1 2 3 4 5 6 
#
# 1 94.7825 30.3013 20.4687 0.0000 -25.8744 0.0000
# 2 30.3013 59.1834 20.7426 0.0000 -8.2268 0.0000
# 3 20.4687 20.7426 52.2906 0.0000 -12.8948 0.0000
# 4 0.0000 0.0000 0.0000 28.1599 0.0000 -5.3066
# 5 -25.8744 -8.2268 -12.8948 0.0000 19.9900 0.0000
# 6 0.0000 0.0000 0.0000 -5.3066 0.0000 28.1703
#
#
#
# Elastic Compliance Matrix: (Units=1/GPa)
#
#
# Indices 1 2 3 4 5 6 
#
# 1 0.018416 -0.006699 0.000769 0.000000 0.021577 0.000000
# 2 -0.006699 0.022286 -0.007248 0.000000 -0.004175 0.000000
# 3 0.000769 -0.007248 0.025219 0.000000 0.014281 0.000000
# 4 0.000000 0.000000 0.000000 0.036818 0.000000 0.006936
# 5 0.021577 -0.004175 0.014281 0.000000 0.085448 0.000000
# 6 0.000000 0.000000 0.000000 0.006936 0.000000 0.036805
#
#
# Mechanical properties :
#
#
# Convention : Reuss Voigt Hill
#
# Bulk Modulus (GPa) = 25.27359 38.80909 32.04134
# Shear Modulus (GPa) = 18.90093 24.24695 21.57394
#
# Velocity S-wave (km/s) = 3.18213 3.60417 3.39971
# Velocity P-wave (km/s) = 5.20013 6.17346 5.70758
#
# Compressibility (1/GPa) = 0.03956699
#
# Stress axis : x y z
#
# Youngs Moduli (GPa) = 54.30002 44.87023 39.65189
#
# Poissons Ratio (x) = 0.30060 -0.03051
# Poissons Ratio (y) = 0.36377 0.28738
# Poissons Ratio (z) = -0.04178 0.32521
#
# Static dielectric constant tensor:
#      x y z
#    x 1.673460 0.000000 -0.005810 
#    y 0.000000 1.664650 0.000000 
#    z -0.005810 0.000000 1.655090 
# 
# From -- ./inp_files/83640.got.cif
#   From: 2010.05.17/outbox.cif.g08.bks.cpg/sg10_42_cif.got.tgz:83640.got - 2010.06.03 11:33:40.
