data_PCOD9145775
_publ_section_title
;
Structure prediction by ZEFSAII (Michael W. Deem and Ramdas Pophale) SiO2 
 PCOD9145775
Probable space group: P 2/M
;
_chemical_formula_sum "Si O2"
_cell_formula_units_Z 24
_cell_length_a 19.393556
_cell_length_b 7.789353
_cell_length_c 9.646901
_cell_angle_alpha 90.000000
_cell_angle_beta 118.683698
_cell_angle_gamma 90.000000
_cell_volume 1278.457374
_symmetry_space_group_name_H-M "P 2/M"
_symmetry_group_IT_number 10
_symmetry_cell_setting 'monoclinic'
loop_
_space_group_symop_operation_xyz
x,y,z
-x,y,-z
-x,-y,-z
x,-y,z
loop_
_atom_site_type_symbol
_atom_site_label
_atom_site_fract_x
_atom_site_fract_y
_atom_site_fract_z
Si Si1 0.135929 0.300774 0.310739
Si Si2 0.309809 0.696613 0.446099
Si Si3 0.406433 0.500000 0.748900
Si Si4 0.594239 0.500000 0.926374
Si Si5 0.988150 0.199190 0.337552
Si Si6 0.862089 0.206844 0.999610
Si Si7 0.322750 0.196025 0.157469
O O1 0.134673 0.500000 0.352055
O O2 0.225327 0.232813 0.411951
O O3 0.117940 0.284446 0.130347
O O4 0.069832 0.207049 0.334330
O O5 0.292828 0.500000 0.379143
O O6 0.368720 0.662278 0.629757
O O7 0.340983 0.790176 0.340074
O O8 0.499866 0.500000 0.824427
O O9 0.385351 0.500000 0.890363
O O10 0.628896 0.333367 0.883077
O O11 0.000000 0.278944 0.500000
O O12 0.965149 0.000000 0.336899
O O13 0.920037 0.273331 0.174215
O O14 0.770433 0.237347 0.943011
O O15 0.871643 0.000000 0.994965
O O16 0.335451 0.000000 0.124287
#
# Coordination Sequence:
#
# PCOD9145775 Si02
#       7
#     4   4   2   2   4   4   4
#     4  10  19  32  53  77 101 133 181 224 265 318
#     4   8  17  37  58  79 111 146 184 229 282 335
#     4   9  21  39  61  80 117 160 181 221 290 345
#     4  11  21  39  61  86 117 154 185 225 284 347
#     4  10  21  35  49  70 107 147 181 222 271 320
#     4   9  19  35  53  76 104 140 181 222 275 325
#     4  10  20  36  61  89 114 146 192 240 283 333
#
# _framework density 18.772624
#
# number of rings (size 3 to 8) (size 9 to 14) (size 15 to 20)
#    0.500    2.000    0.833    1.000    1.167    6.333 
#    0.000    4.167    0.000    0.000    0.000    0.000 
#    0.000    0.000    0.000    0.000    0.000    0.000 
#
# Total GULP energy -133750.990042 kJ/mol
# GULP energy per Si atom -5572.957918 kJ/mol
# Density = 1.872990 g / cm^3
# Si number density = 18.772624 Si / 1000 Ang^3
#
#
#
# Elastic Constant Matrix: (Units=GPa)
#
#
# Indices 1 2 3 4 5 6 
#
# 1 125.6535 48.7400 48.7125 0.0000 -37.9725 0.0000
# 2 48.7400 64.7726 6.1258 0.0000 -19.9056 0.0000
# 3 48.7125 6.1258 170.7333 0.0000 17.1301 0.0000
# 4 0.0000 0.0000 0.0000 8.5982 0.0000 4.5576
# 5 -37.9725 -19.9056 17.1301 0.0000 33.9883 0.0000
# 6 0.0000 0.0000 0.0000 4.5576 0.0000 20.1188
#
#
#
# Elastic Compliance Matrix: (Units=1/GPa)
#
#
# Indices 1 2 3 4 5 6 
#
# 1 0.021157 -0.008108 -0.008048 0.000000 0.022945 0.000000
# 2 -0.008108 0.022523 0.001149 0.000000 0.003554 0.000000
# 3 -0.008048 0.001149 0.009423 0.000000 -0.013067 0.000000
# 4 0.000000 0.000000 0.000000 0.132174 0.000000 -0.029942
# 5 0.022945 0.003554 -0.013067 0.000000 0.063723 0.000000
# 6 0.000000 0.000000 0.000000 -0.029942 0.000000 0.056488
#
#
# Mechanical properties :
#
#
# Convention : Reuss Voigt Hill
#
# Bulk Modulus (GPa) = 43.30970 63.14620 53.22795
# Shear Modulus (GPa) = 14.56883 29.71313 22.14098
#
# Velocity S-wave (km/s) = 2.78882 3.98275 3.43801
# Velocity P-wave (km/s) = 5.78712 7.40676 6.64646
#
# Compressibility (1/GPa) = 0.02308952
#
# Stress axis : x y z
#
# Youngs Moduli (GPa) = 47.26540 44.39883 106.12279
#
# Poissons Ratio (x) = 0.35998 0.85403
# Poissons Ratio (y) = 0.38322 -0.12190
# Poissons Ratio (z) = 0.38037 -0.05100
#
# Static dielectric constant tensor:
#      x y z
#    x 1.623940 0.000000 0.016060 
#    y 0.000000 1.671460 0.000000 
#    z 0.016060 0.000000 1.662270 
# 
# From -- ./inp_files/33528.got.cif
#   From: 2010.05.17/outbox.cif.g08.bks.cpg/sg10_17_cif.got.tgz:33528.got - 2010.06.03 11:33:40.
