data_PCOD9145731
_publ_section_title
;
Structure prediction by ZEFSAII (Michael W. Deem and Ramdas Pophale) SiO2 
 PCOD9145731
Probable space group: P 2/M
;
_chemical_formula_sum "Si O2"
_cell_formula_units_Z 24
_cell_length_a 15.305787
_cell_length_b 20.542356
_cell_length_c 13.421345
_cell_angle_alpha 90.000000
_cell_angle_beta 160.431874
_cell_angle_gamma 90.000000
_cell_volume 1413.359667
_symmetry_space_group_name_H-M "P 2/M"
_symmetry_group_IT_number 10
_symmetry_cell_setting 'monoclinic'
loop_
_space_group_symop_operation_xyz
x,y,z
-x,y,-z
-x,-y,-z
x,-y,z
loop_
_atom_site_type_symbol
_atom_site_label
_atom_site_fract_x
_atom_site_fract_y
_atom_site_fract_z
Si Si1 0.514910 0.641299 0.131457
Si Si2 0.646310 0.500000 0.343484
Si Si3 0.785235 0.500000 0.950592
Si Si4 0.062317 0.299505 0.775994
Si Si5 0.218735 0.358460 0.152010
Si Si6 0.563196 0.925770 0.186007
Si Si7 0.063570 0.156823 0.686564
O O1 0.572889 0.564987 0.205802
O O2 0.762860 0.677837 0.445204
O O3 0.500000 0.659940 0.000000
O O4 0.249403 0.659559 0.902808
O O5 0.950950 0.500000 0.699865
O O6 0.470528 0.500000 0.254673
O O7 0.786521 0.434130 0.888058
O O8 0.081820 0.225260 0.761804
O O9 0.160255 0.315551 0.991812
O O10 0.500000 0.344166 0.500000
O O11 0.000000 0.348481 0.000000
O O12 0.832594 0.887193 0.482486
O O13 0.575424 0.000000 0.236383
O O14 0.500000 0.929587 0.000000
O O15 0.330018 0.883549 0.980418
O O16 0.000000 0.167977 0.500000
#
# Coordination Sequence:
#
# PCOD9145731 Si02
#       7
#     4   2   2   4   4   4   4
#     4  12  23  38  57  78 110 149 183 225 275 327
#     4  12  21  39  56  79 106 141 182 231 273 336
#     4  12  22  41  61  79 104 133 183 243 300 342
#     4  12  24  40  56  81 114 143 189 231 273 342
#     4  12  24  41  61  81 104 139 183 241 300 343
#     4   9  17  30  50  78 113 149 183 214 246 298
#     4  10  19  32  52  79 112 150 180 210 261 316
#
# _framework density 16.980815
#
# number of rings (size 3 to 8) (size 9 to 14) (size 15 to 20)
#    0.000    0.833    3.333    5.750    0.000    3.333 
#    0.000    2.500    0.000    0.000    0.000    0.000 
#    0.000   13.333    0.000    0.000    0.000    0.000 
#
# Total GULP energy -134176.614659 kJ/mol
# GULP energy per Si atom -5590.692277 kJ/mol
# Density = 1.694217 g / cm^3
# Si number density = 16.980815 Si / 1000 Ang^3
#
#
#
# Elastic Constant Matrix: (Units=GPa)
#
#
# Indices 1 2 3 4 5 6 
#
# 1 68.4028 18.9929 24.0209 0.0000 -1.2404 0.0000
# 2 18.9929 131.0296 24.1172 0.0000 0.2586 0.0000
# 3 24.0209 24.1172 58.0697 0.0000 7.0097 0.0000
# 4 0.0000 0.0000 0.0000 18.1636 0.0000 14.2558
# 5 -1.2404 0.2586 7.0097 0.0000 33.8762 0.0000
# 6 0.0000 0.0000 0.0000 14.2558 0.0000 10.7836
#
#
#
# Elastic Compliance Matrix: (Units=1/GPa)
#
#
# Indices 1 2 3 4 5 6 
#
# 1 0.017445 -0.001254 -0.006947 0.000000 0.002086 0.000000
# 2 -0.001254 0.008368 -0.003019 0.000000 0.000515 0.000000
# 3 -0.006947 -0.003019 0.021924 0.000000 -0.004768 0.000000
# 4 0.000000 0.000000 0.000000 -1.465668 0.000000 1.937589
# 5 0.002086 0.000515 -0.004768 0.000000 0.030578 0.000000
# 6 0.000000 0.000000 0.000000 1.937589 0.000000 -2.468727
#
#
# Mechanical properties :
#
#
# Convention : Reuss Voigt Hill
#
# Bulk Modulus (GPa) = 39.53079 43.52936 41.53008
# Shear Modulus (GPa) = -1.30712 25.25607 11.97448
#
# Velocity S-wave (km/s) = -0.87831 3.86078 2.65840
# Velocity P-wave (km/s) = 4.72246 6.75013 5.82520
#
# Compressibility (1/GPa) = 0.02529673
#
# Stress axis : x y z
#
# Youngs Moduli (GPa) = 57.32314 119.49890 45.61262
#
# Poissons Ratio (x) = 0.14986 0.31688
# Poissons Ratio (y) = 0.07189 0.13770
# Poissons Ratio (z) = 0.39823 0.36075
#
# Static dielectric constant tensor:
#      x y z
#    x 1.561260 0.000000 0.007710 
#    y 0.000000 1.562060 0.000000 
#    z 0.007710 0.000000 1.561860 
# 
# From -- ./inp_files/52067.got.cif
#   From: 2010.05.17/outbox.cif.g08.bks.cpg/sg10_27_cif.got.tgz:52067.got - 2010.06.03 11:33:40.
