data_PCOD9145131
_publ_section_title
;
Structure prediction by ZEFSAII (Michael W. Deem and Ramdas Pophale) SiO2 
 PCOD9145131
Probable space group: P 2/M
;
_chemical_formula_sum "Si O2"
_cell_formula_units_Z 28
_cell_length_a 18.241537
_cell_length_b 11.516844
_cell_length_c 24.160348
_cell_angle_alpha 90.000000
_cell_angle_beta 161.397392
_cell_angle_gamma 90.000000
_cell_volume 1619.168761
_symmetry_space_group_name_H-M "P 2/M"
_symmetry_group_IT_number 10
_symmetry_cell_setting 'monoclinic'
loop_
_space_group_symop_operation_xyz
x,y,z
-x,y,-z
-x,-y,-z
x,-y,z
loop_
_atom_site_type_symbol
_atom_site_label
_atom_site_fract_x
_atom_site_fract_y
_atom_site_fract_z
Si Si1 0.260266 0.864633 0.170521
Si Si2 0.480977 0.230395 0.045177
Si Si3 0.757869 0.000000 0.255094
Si Si4 0.611292 0.774140 0.342294
Si Si5 0.709802 0.000000 0.351514
Si Si6 0.608211 0.134929 0.522121
Si Si7 0.261482 0.638175 0.672857
Si Si8 0.964656 0.858055 0.688949
O O1 0.378973 0.777353 0.212141
O O2 0.415090 0.862289 0.336400
O O3 0.270196 0.000000 0.157539
O O4 0.000000 0.837767 0.000000
O O5 0.642254 0.117247 0.151659
O O6 0.577260 0.300822 0.166264
O O7 0.500000 0.296489 0.000000
O O8 0.223827 0.186143 0.872455
O O9 0.718406 0.000000 0.292332
O O10 0.028545 0.000000 0.439568
O O11 0.672568 0.673779 0.342765
O O12 0.814881 0.802528 0.531866
O O13 0.591622 0.885983 0.288990
O O14 0.500000 0.189298 0.500000
O O15 0.836872 0.178200 0.654685
O O16 0.660199 0.000000 0.572934
O O17 0.272210 0.500000 0.686510
O O18 0.000000 0.677654 0.500000
O O19 0.954824 0.000000 0.678056
#
# Coordination Sequence:
#
# PCOD9145131 Si02
#       8
#     4   4   2   4   2   4   4   4
#     4   9  17  29  48  79 113 144 174 207 259 327
#     4  12  23  34  51  80 109 138 172 219 269 329
#     4  11  21  30  48  78 112 137 171 214 271 335
#     4  11  19  35  56  79 109 145 180 221 270 322
#     4  11  18  30  51  76 106 142 172 215 269 327
#     4   8  15  28  42  64 103 148 172 194 238 307
#     4  11  25  43  58  73 100 144 195 236 271 310
#     4  10  19  31  50  80 114 140 168 209 270 333
#
# _framework density 17.292824
#
# number of rings (size 3 to 8) (size 9 to 14) (size 15 to 20)
#    0.000    1.714    3.571    3.643    0.000    1.429 
#    0.000    2.143    0.000    0.429    0.000    0.000 
#    0.000    5.143    0.000    0.000    0.000    0.000 
#
# Total GULP energy -156115.223077 kJ/mol
# GULP energy per Si atom -5575.543681 kJ/mol
# Density = 1.725346 g / cm^3
# Si number density = 17.292824 Si / 1000 Ang^3
#
#
#
# Elastic Constant Matrix: (Units=GPa)
#
#
# Indices 1 2 3 4 5 6 
#
# 1 142.1433 23.2607 49.6280 0.0000 10.2223 0.0000
# 2 23.2607 37.8631 21.7986 0.0000 -2.0784 0.0000
# 3 49.6280 21.7986 93.8992 0.0000 17.3198 0.0000
# 4 0.0000 0.0000 0.0000 87.8221 0.0000 1.1754
# 5 10.2223 -2.0784 17.3198 0.0000 21.4105 0.0000
# 6 0.0000 0.0000 0.0000 1.1754 0.0000 11.6620
#
#
#
# Elastic Compliance Matrix: (Units=1/GPa)
#
#
# Indices 1 2 3 4 5 6 
#
# 1 0.009001 -0.003540 -0.003620 0.000000 -0.001713 0.000000
# 2 -0.003540 0.033902 -0.008131 0.000000 0.011559 0.000000
# 3 -0.003620 -0.008131 0.016781 0.000000 -0.012636 0.000000
# 4 0.000000 0.000000 0.000000 0.011402 0.000000 -0.001149
# 5 -0.001713 0.011559 -0.012636 0.000000 0.058868 0.000000
# 6 0.000000 0.000000 0.000000 -0.001149 0.000000 0.085864
#
#
# Mechanical properties :
#
#
# Convention : Reuss Voigt Hill
#
# Bulk Modulus (GPa) = 34.36152 51.47557 42.91854
# Shear Modulus (GPa) = 19.52353 36.12680 27.82517
#
# Velocity S-wave (km/s) = 3.36370 4.57565 4.01566
# Velocity P-wave (km/s) = 5.91604 7.59915 6.80979
#
# Compressibility (1/GPa) = 0.02910232
#
# Stress axis : x y z
#
# Youngs Moduli (GPa) = 111.09337 29.49713 59.59048
#
# Poissons Ratio (x) = 0.10442 0.21570
# Poissons Ratio (y) = 0.39328 0.48455
# Poissons Ratio (z) = 0.40212 0.23985
#
# Static dielectric constant tensor:
#      x y z
#    x 1.639710 0.000000 0.001080 
#    y 0.000000 1.565110 0.000000 
#    z 0.001080 0.000000 1.602650 
# 
# From -- ./inp_files/90175.got.cif
#   From: 2010.05.17/outbox.cif.g08.bks.cpg/sg10_46_cif.got.tgz:90175.got - 2010.06.03 11:33:40.
