data_PCOD9145491
_publ_section_title
;
Structure prediction by ZEFSAII (Michael W. Deem and Ramdas Pophale) SiO2 
 PCOD9145491
Probable space group: P 2/M
;
_chemical_formula_sum "Si O2"
_cell_formula_units_Z 32
_cell_length_a 11.714222
_cell_length_b 8.800863
_cell_length_c 21.038676
_cell_angle_alpha 90.000000
_cell_angle_beta 118.858384
_cell_angle_gamma 90.000000
_cell_volume 1899.632778
_symmetry_space_group_name_H-M "P 2/M"
_symmetry_group_IT_number 10
_symmetry_cell_setting 'monoclinic'
loop_
_space_group_symop_operation_xyz
x,y,z
-x,y,-z
-x,-y,-z
x,-y,z
loop_
_atom_site_type_symbol
_atom_site_label
_atom_site_fract_x
_atom_site_fract_y
_atom_site_fract_z
Si Si1 0.975763 0.679172 0.597093
Si Si2 0.135657 0.679587 0.876482
Si Si3 0.838383 0.180509 0.255696
Si Si4 0.373258 0.181911 0.157299
Si Si5 0.383287 0.682795 0.712676
Si Si6 0.789875 0.678411 0.443321
Si Si7 0.623285 0.179612 0.987531
Si Si8 0.931384 0.182900 0.914714
O O1 0.959209 0.500000 0.608168
O O2 0.848847 0.740059 0.525151
O O3 0.030667 0.768730 0.671851
O O4 0.092640 0.686395 0.576539
O O5 0.130364 0.500000 0.866194
O O6 0.156633 0.759291 0.814447
O O7 0.256247 0.725873 0.953807
O O8 0.007495 0.739521 0.877737
O O9 0.717036 0.252481 0.261649
O O10 0.824689 0.000000 0.252832
O O11 0.473057 0.264151 0.230621
O O12 0.221470 0.221080 0.125329
O O13 0.387006 0.000000 0.168700
O O14 0.408733 0.219139 0.093697
O O15 0.373578 0.500000 0.710905
O O16 0.332502 0.738517 0.629650
O O17 0.766509 0.500000 0.449541
O O18 0.659800 0.000000 0.998116
O O19 0.500000 0.200300 0.000000
O O20 0.943405 0.000000 0.912332
O O21 0.000000 0.225849 0.000000
#
# Coordination Sequence:
#
# PCOD9145491 Si02
#       8
#     4   4   4   4   4   4   4   4
#     4   8  13  26  46  68  97 133 172 204 240 291
#     4  12  24  36  53  76 100 127 168 216 258 296
#     4  11  21  33  49  72 105 139 171 206 254 306
#     4  10  20  34  53  76 101 133 170 206 250 299
#     4  10  19  32  50  75 108 139 170 207 250 296
#     4   7  12  24  44  68  98 137 168 197 242 297
#     4  10  20  35  54  74 100 135 168 199 245 307
#     4  10  20  39  60  74  95 131 170 208 255 308
#
# _framework density 16.845361
#
# number of rings (size 3 to 8) (size 9 to 14) (size 15 to 20)
#    0.000    2.250    1.250    4.875    0.000    2.500 
#    0.000    5.625    0.000    0.000    0.000    0.875 
#    0.000    7.000    0.000    0.000    0.000    0.000 
#
# Total GULP energy -178409.144019 kJ/mol
# GULP energy per Si atom -5575.285751 kJ/mol
# Density = 1.680702 g / cm^3
# Si number density = 16.845361 Si / 1000 Ang^3
#
#
#
# Elastic Constant Matrix: (Units=GPa)
#
#
# Indices 1 2 3 4 5 6 
#
# 1 43.1377 24.2692 20.3912 0.0000 18.5985 0.0000
# 2 24.2692 49.3261 27.0720 0.0000 13.7584 0.0000
# 3 20.3912 27.0720 94.6731 0.0000 36.8381 0.0000
# 4 0.0000 0.0000 0.0000 115.4576 0.0000 44.0334
# 5 18.5985 13.7584 36.8381 0.0000 19.8790 0.0000
# 6 0.0000 0.0000 0.0000 44.0334 0.0000 37.6172
#
#
#
# Elastic Compliance Matrix: (Units=1/GPa)
#
#
# Indices 1 2 3 4 5 6 
#
# 1 0.069130 -0.021303 0.038115 0.000000 -0.120564 0.000000
# 2 -0.021303 0.031748 -0.013248 0.000000 0.022509 0.000000
# 3 0.038115 -0.013248 0.058972 0.000000 -0.135772 0.000000
# 4 0.000000 0.000000 0.000000 0.015646 0.000000 -0.018315
# 5 -0.120564 0.022509 -0.135772 0.000000 0.399125 0.000000
# 6 0.000000 0.000000 0.000000 -0.018315 0.000000 0.048022
#
#
# Mechanical properties :
#
#
# Convention : Reuss Voigt Hill
#
# Bulk Modulus (GPa) = 5.98889 36.73353 21.36121
# Shear Modulus (GPa) = 7.44962 42.28440 24.86701
#
# Velocity S-wave (km/s) = 2.10522 5.01558 3.84629
# Velocity P-wave (km/s) = 3.07770 7.44278 5.69505
#
# Compressibility (1/GPa) = 0.16697579
#
# Stress axis : x y z
#
# Youngs Moduli (GPa) = 14.46540 31.49852 16.95733
#
# Poissons Ratio (x) = 0.67102 -0.64632
# Poissons Ratio (y) = 0.30816 0.22465
# Poissons Ratio (z) = -0.55134 0.41730
#
# Static dielectric constant tensor:
#      x y z
#    x 1.548280 0.000000 0.023570 
#    y 0.000000 1.567110 0.000000 
#    z 0.023570 0.000000 1.599860 
# 
# From -- ./inp_files/83382.got.cif
#   From: 2010.05.17/outbox.cif.g08.bks.cpg/sg10_42_cif.got.tgz:83382.got - 2010.06.03 11:33:40.
