data_PCOD9146590
_publ_section_title
;
Structure prediction by ZEFSAII (Michael W. Deem and Ramdas Pophale) SiO2 
 PCOD9146590
Probable space group: P 2/M
;
_chemical_formula_sum "Si O2"
_cell_formula_units_Z 24
_cell_length_a 15.517812
_cell_length_b 16.797351
_cell_length_c 8.268527
_cell_angle_alpha 90.000000
_cell_angle_beta 149.198641
_cell_angle_gamma 90.000000
_cell_volume 1103.628814
_symmetry_space_group_name_H-M "P 2/M"
_symmetry_group_IT_number 10
_symmetry_cell_setting 'monoclinic'
loop_
_space_group_symop_operation_xyz
x,y,z
-x,y,-z
-x,-y,-z
x,-y,z
loop_
_atom_site_type_symbol
_atom_site_label
_atom_site_fract_x
_atom_site_fract_y
_atom_site_fract_z
Si Si1 0.358149 0.258078 0.912313
Si Si2 0.479801 0.587285 0.273768
Si Si3 0.639617 0.085616 0.086453
Si Si4 0.145636 0.586716 0.100579
Si Si5 0.980350 0.914070 0.274272
Si Si6 0.016982 0.251824 0.834440
O O1 0.378188 0.170974 0.028608
O O2 0.169688 0.259306 0.538812
O O3 0.500000 0.261006 0.000000
O O4 0.383057 0.336054 0.058492
O O5 0.500000 0.588399 0.500000
O O6 0.411766 0.500000 0.116290
O O7 0.672525 0.592849 0.522576
O O8 0.824414 0.087034 0.467146
O O9 0.630253 0.000000 0.982088
O O10 0.500000 0.084578 0.000000
O O11 0.142048 0.500000 0.009997
O O12 0.000000 0.585494 0.000000
O O13 0.116169 0.667203 0.953345
O O14 0.902050 0.831186 0.092885
O O15 0.000000 0.912503 0.500000
O O16 0.905961 0.000000 0.106705
O O17 0.000000 0.246574 0.000000
#
# Coordination Sequence:
#
# PCOD9146590 Si02
#       6
#     4   4   4   4   4   4
#     4  10  19  33  56  82 106 141 182 220 265 316
#     4  10  22  39  57  79 108 141 179 224 271 319
#     4   8  15  29  49  73 102 136 173 212 256 308
#     4   9  18  34  54  75 104 140 175 217 265 313
#     4   9  18  32  50  75 107 141 177 218 264 312
#     4  10  20  33  53  82 112 141 178 221 265 317
#
# _framework density 21.746441999999998
#
# number of rings (size 3 to 8) (size 9 to 14) (size 15 to 20)
#    0.000    2.667    0.000    2.000    0.000    4.000 
#    0.000    0.000    0.000    7.000    0.000    0.000 
#    0.000    0.000    0.000    0.000    0.000    0.000 
#
# Total GULP energy -133703.027018 kJ/mol
# GULP energy per Si atom -5570.959459 kJ/mol
# Density = 2.169695 g / cm^3
# Si number density = 21.746442 Si / 1000 Ang^3
#
#
#
# Elastic Constant Matrix: (Units=GPa)
#
#
# Indices 1 2 3 4 5 6 
#
# 1 38.5610 15.1265 8.3302 0.0000 7.2772 0.0000
# 2 15.1265 322.2151 54.0112 0.0000 -19.5901 0.0000
# 3 8.3302 54.0112 38.6140 0.0000 2.6685 0.0000
# 4 0.0000 0.0000 0.0000 17.1576 0.0000 6.0188
# 5 7.2772 -19.5901 2.6685 0.0000 17.1640 0.0000
# 6 0.0000 0.0000 0.0000 6.0188 0.0000 -27.9353
#
#
#
# Elastic Compliance Matrix: (Units=1/GPa)
#
#
# Indices 1 2 3 4 5 6 
#
# 1 0.029967 -0.001770 -0.003003 0.000000 -0.014259 0.000000
# 2 -0.001770 0.004764 -0.006782 0.000000 0.007242 0.000000
# 3 -0.003003 -0.006782 0.036874 0.000000 -0.012200 0.000000
# 4 0.000000 0.000000 0.000000 0.054188 0.000000 0.011675
# 5 -0.014259 0.007242 -0.012200 0.000000 0.074469 0.000000
# 6 0.000000 0.000000 0.000000 0.011675 0.000000 -0.033282
#
#
# Mechanical properties :
#
#
# Convention : Reuss Voigt Hill
#
# Bulk Modulus (GPa) = 20.62088 61.59178 41.10633
# Shear Modulus (GPa) = 24.24172 22.73874 23.49023
#
# Velocity S-wave (km/s) = 3.34240 3.23713 3.29019
# Velocity P-wave (km/s) = 4.93949 6.50816 5.77731
#
# Compressibility (1/GPa) = 0.04849455
#
# Stress axis : x y z
#
# Youngs Moduli (GPa) = 33.36994 209.91982 27.11915
#
# Poissons Ratio (x) = 0.37163 0.08144
# Poissons Ratio (y) = 0.05908 0.18392
# Poissons Ratio (z) = 0.10022 1.42363
#
# Static dielectric constant tensor:
#      x y z
#    x 1.826500 0.000000 0.023580 
#    y 0.000000 1.907330 0.000000 
#    z 0.023580 0.000000 1.754730 
# 
# From -- ./inp_files/33009.got.cif
#   From: 2010.05.17/outbox.cif.g08.bks.cpg/sg10_17_cif.got.tgz:33009.got - 2010.06.03 11:33:40.
