data_PCOD9146208
_publ_section_title
;
Structure prediction by ZEFSAII (Michael W. Deem and Ramdas Pophale) SiO2 
 PCOD9146208
Probable space group: P 2/M
;
_chemical_formula_sum "Si O2"
_cell_formula_units_Z 28
_cell_length_a 7.593211
_cell_length_b 19.094367
_cell_length_c 13.375697
_cell_angle_alpha 90.000000
_cell_angle_beta 47.902152
_cell_angle_gamma 90.000000
_cell_volume 1438.969732
_symmetry_space_group_name_H-M "P 2/M"
_symmetry_group_IT_number 10
_symmetry_cell_setting 'monoclinic'
loop_
_space_group_symop_operation_xyz
x,y,z
-x,y,-z
-x,-y,-z
x,-y,z
loop_
_atom_site_type_symbol
_atom_site_label
_atom_site_fract_x
_atom_site_fract_y
_atom_site_fract_z
Si Si1 0.379197 0.921527 0.438210
Si Si2 0.039087 0.152039 0.300145
Si Si3 0.559484 0.829799 0.199699
Si Si4 0.685234 0.420813 0.336487
Si Si5 0.756687 0.078899 0.958365
Si Si6 0.949860 0.693094 0.354643
Si Si7 0.400273 0.683578 0.323505
O O1 0.500000 0.925649 0.500000
O O2 0.546147 0.878538 0.301292
O O3 0.137631 0.879917 0.551385
O O4 0.335772 0.000000 0.415993
O O5 0.298261 0.160670 0.249751
O O6 0.061988 0.101685 0.196592
O O7 0.962064 0.230423 0.300924
O O8 0.565992 0.748825 0.229258
O O9 0.738260 0.862877 0.051549
O O10 0.500000 0.424507 0.500000
O O11 0.765231 0.500000 0.285662
O O12 0.881136 0.367060 0.303227
O O13 0.550899 0.384749 0.294664
O O14 0.800804 0.000000 0.978633
O O15 0.500000 0.077840 0.000000
O O16 0.748745 0.699695 0.518011
O O17 0.197059 0.675804 0.316638
#
# Coordination Sequence:
#
# PCOD9146208 Si02
#       7
#     4   4   4   4   4   4   4
#     4  11  23  33  47  73 101 134 175 218 266 316
#     4  10  19  33  53  75  99 135 177 218 266 312
#     4  10  19  33  53  75  99 135 177 218 266 312
#     4   9  18  30  48  75 106 139 163 199 265 319
#     4   9  18  32  51  75 103 134 174 225 270 312
#     4   9  17  29  48  75 102 133 174 215 255 310
#     4   9  17  29  48  75 102 133 174 215 255 310
#
# _framework density 19.458366999999999
#
# number of rings (size 3 to 8) (size 9 to 14) (size 15 to 20)
#    0.000    2.429    1.429    1.286    2.000    2.857 
#    0.000    3.571    0.000    2.571    0.000    2.000 
#    0.000    5.714    0.000    0.000    0.000    0.000 
#
# Total GULP energy -156257.299800 kJ/mol
# GULP energy per Si atom -5580.617850 kJ/mol
# Density = 1.941408 g / cm^3
# Si number density = 19.458367 Si / 1000 Ang^3
#
#
#
# Elastic Constant Matrix: (Units=GPa)
#
#
# Indices 1 2 3 4 5 6 
#
# 1 46.1631 40.0480 12.9312 0.0000 -3.8962 0.0000
# 2 40.0480 121.7046 -5.0019 0.0000 5.6435 0.0000
# 3 12.9312 -5.0019 22.8747 0.0000 14.8860 0.0000
# 4 0.0000 0.0000 0.0000 19.0647 0.0000 6.2678
# 5 -3.8962 5.6435 14.8860 0.0000 11.3537 0.0000
# 6 0.0000 0.0000 0.0000 6.2678 0.0000 21.6998
#
#
#
# Elastic Compliance Matrix: (Units=1/GPa)
#
#
# Indices 1 2 3 4 5 6 
#
# 1 -0.004683 0.006960 0.050873 0.000000 -0.071767 0.000000
# 2 0.006960 0.003339 -0.025064 0.000000 0.033591 0.000000
# 3 0.050873 -0.025064 -0.068079 0.000000 0.119176 0.000000
# 4 0.000000 0.000000 0.000000 0.057956 0.000000 -0.016740
# 5 -0.071767 0.033591 0.119176 0.000000 -0.109502 0.000000
# 6 0.000000 0.000000 0.000000 -0.016740 0.000000 0.050919
#
#
# Mechanical properties :
#
#
# Convention : Reuss Voigt Hill
#
# Bulk Modulus (GPa) = -257.29515 31.85524 -112.71996
# Shear Modulus (GPa) = -36.52740 19.94131 -8.29305
#
# Velocity S-wave (km/s) = -4.33738 3.20475 -2.06669
# Velocity P-wave (km/s) = 12.55386 5.48639 7.98433
#
# Compressibility (1/GPa) = -0.00388659
#
# Stress axis : x y z
#
# Youngs Moduli (GPa) = -213.51747 299.52071 -14.68885
#
# Poissons Ratio (x) = -2.08461 0.74727
# Poissons Ratio (y) = 1.48604 -0.36817
# Poissons Ratio (z) = 10.86230 7.50732
#
# Static dielectric constant tensor:
#      x y z
#    x 1.732890 0.000000 -0.004750 
#    y 0.000000 1.669840 0.000000 
#    z -0.004750 0.000000 1.654900 
# 
# From -- ./inp_files/61755.got.cif
#   From: 2010.05.17/outbox.cif.g08.bks.cpg/sg10_31_cif.got.tgz:61755.got - 2010.06.03 11:33:40.
