data_PCOD9146666
_publ_section_title
;
Structure prediction by ZEFSAII (Michael W. Deem and Ramdas Pophale) SiO2 
 PCOD9146666
Probable space group: P 2/M
;
_chemical_formula_sum "Si O2"
_cell_formula_units_Z 32
_cell_length_a 11.489328
_cell_length_b 11.561495
_cell_length_c 18.886101
_cell_angle_alpha 90.000000
_cell_angle_beta 40.426668
_cell_angle_gamma 90.000000
_cell_volume 1626.835685
_symmetry_space_group_name_H-M "P 2/M"
_symmetry_group_IT_number 10
_symmetry_cell_setting 'monoclinic'
loop_
_space_group_symop_operation_xyz
x,y,z
-x,y,-z
-x,-y,-z
x,-y,z
loop_
_atom_site_type_symbol
_atom_site_label
_atom_site_fract_x
_atom_site_fract_y
_atom_site_fract_z
Si Si1 0.452500 0.728776 0.858530
Si Si2 0.904209 0.632648 0.264263
Si Si3 0.472240 0.135411 0.320501
Si Si4 0.926892 0.131253 0.454091
Si Si5 0.172634 0.281498 0.239462
Si Si6 0.920827 0.631912 0.966753
Si Si7 0.692622 0.123911 0.947937
Si Si8 0.321337 0.866999 0.631083
O O1 0.494301 0.785580 0.763383
O O2 0.636092 0.690143 0.812686
O O3 0.294193 0.635814 0.927852
O O4 0.354438 0.821643 0.954983
O O5 0.825261 0.500000 0.293571
O O6 0.784758 0.747389 0.336880
O O7 0.051087 0.623043 0.258711
O O8 0.001223 0.667987 0.145196
O O9 0.280980 0.165698 0.444754
O O10 0.619539 0.143637 0.313898
O O11 0.458039 0.000000 0.304715
O O12 0.000000 0.129647 0.500000
O O13 0.052806 0.214016 0.351381
O O14 0.937414 0.000000 0.420970
O O15 0.206549 0.199112 0.156404
O O16 0.982084 0.500000 0.940492
O O17 0.000000 0.693494 0.000000
O O18 0.781064 0.000000 0.916202
O O19 0.500000 0.111874 0.000000
O O20 0.500000 0.866756 0.500000
O O21 0.244521 0.000000 0.657562
#
# Coordination Sequence:
#
# PCOD9146666 Si02
#       8
#     4   4   4   4   4   4   4   4
#     4  11  20  35  57  85 121 157 201 251 314 377
#     4  11  24  42  63  91 127 166 213 262 314 376
#     4  10  20  35  58  89 125 163 205 259 317 377
#     4  10  19  33  56  88 124 165 204 248 307 374
#     4  11  21  35  57  86 122 161 204 254 305 370
#     4  10  22  41  62  83 113 157 210 260 304 366
#     4   9  18  30  48  78 115 154 190 234 293 360
#     4  10  22  42  66  94 126 162 213 267 316 370
#
# _framework density 19.670086999999999
#
# number of rings (size 3 to 8) (size 9 to 14) (size 15 to 20)
#    0.000    1.750    2.500    2.250    0.000    3.750 
#    0.000    1.250    0.000    3.750    0.000    0.000 
#    0.000    0.000    0.000    0.000    0.000    0.000 
#
# Total GULP energy -178150.137225 kJ/mol
# GULP energy per Si atom -5567.191788 kJ/mol
# Density = 1.962532 g / cm^3
# Si number density = 19.670087 Si / 1000 Ang^3
#
#
#
# Elastic Constant Matrix: (Units=GPa)
#
#
# Indices 1 2 3 4 5 6 
#
# 1 92.2840 27.7870 20.9817 0.0000 11.8641 0.0000
# 2 27.7870 87.8571 34.7232 0.0000 -4.2411 0.0000
# 3 20.9817 34.7232 84.6075 0.0000 5.5678 0.0000
# 4 0.0000 0.0000 0.0000 47.6433 0.0000 4.0512
# 5 11.8641 -4.2411 5.5678 0.0000 27.7763 0.0000
# 6 0.0000 0.0000 0.0000 4.0512 0.0000 20.7597
#
#
#
# Elastic Compliance Matrix: (Units=1/GPa)
#
#
# Indices 1 2 3 4 5 6 
#
# 1 0.013063 -0.003929 -0.001237 0.000000 -0.005932 0.000000
# 2 -0.003929 0.015061 -0.005541 0.000000 0.005089 0.000000
# 3 -0.001237 -0.005541 0.014614 0.000000 -0.003247 0.000000
# 4 0.000000 0.000000 0.000000 0.021343 0.000000 -0.004165
# 5 -0.005932 0.005089 -0.003247 0.000000 0.039963 0.000000
# 6 0.000000 0.000000 0.000000 -0.004165 0.000000 0.048983
#
#
# Mechanical properties :
#
#
# Convention : Reuss Voigt Hill
#
# Bulk Modulus (GPa) = 46.89741 47.97026 47.43384
# Shear Modulus (GPa) = 27.54078 31.31964 29.43021
#
# Velocity S-wave (km/s) = 3.74590 3.99463 3.87226
# Velocity P-wave (km/s) = 6.52708 6.76139 6.64527
#
# Compressibility (1/GPa) = 0.02132314
#
# Stress axis : x y z
#
# Youngs Moduli (GPa) = 76.55270 66.39880 68.42823
#
# Poissons Ratio (x) = 0.26089 0.08462
# Poissons Ratio (y) = 0.30078 0.37919
# Poissons Ratio (z) = 0.09467 0.36794
#
# Static dielectric constant tensor:
#      x y z
#    x 1.766200 0.000000 -0.011170 
#    y 0.000000 1.778800 0.000000 
#    z -0.011170 0.000000 1.680030 
# 
# From -- ./inp_files/83860.got.cif
#   From: 2010.05.17/outbox.cif.g08.bks.cpg/sg10_42_cif.got.tgz:83860.got - 2010.06.03 11:33:40.
