data_PCOD9146183
_publ_section_title
;
Structure prediction by ZEFSAII (Michael W. Deem and Ramdas Pophale) SiO2 
 PCOD9146183
Probable space group: P 2/M
;
_chemical_formula_sum "Si O2"
_cell_formula_units_Z 28
_cell_length_a 9.864644
_cell_length_b 7.757454
_cell_length_c 32.558556
_cell_angle_alpha 90.000000
_cell_angle_beta 35.704650
_cell_angle_gamma 90.000000
_cell_volume 1454.073434
_symmetry_space_group_name_H-M "P 2/M"
_symmetry_group_IT_number 10
_symmetry_cell_setting 'monoclinic'
loop_
_space_group_symop_operation_xyz
x,y,z
-x,y,-z
-x,-y,-z
x,-y,z
loop_
_atom_site_type_symbol
_atom_site_label
_atom_site_fract_x
_atom_site_fract_y
_atom_site_fract_z
Si Si1 0.679714 0.206951 0.990850
Si Si2 0.769267 0.698989 0.578646
Si Si3 0.465143 0.791288 0.442784
Si Si4 0.788782 0.204520 0.144231
Si Si5 0.632119 0.797779 0.702180
Si Si6 0.872840 0.210478 0.400891
Si Si7 0.733275 0.705876 0.068247
O O1 0.946299 0.275323 0.920389
O O2 0.686502 0.000000 0.985136
O O3 0.500000 0.270677 0.000000
O O4 0.613148 0.242895 0.054946
O O5 0.819724 0.500000 0.576017
O O6 0.575756 0.713623 0.591354
O O7 0.682603 0.784417 0.641480
O O8 0.000000 0.775434 0.500000
O O9 0.256289 0.739365 0.525031
O O10 0.703151 0.738106 0.406032
O O11 0.461626 0.000000 0.440865
O O12 0.611072 0.275547 0.222000
O O13 0.665254 0.231201 0.130283
O O14 0.817550 0.000000 0.143270
O O15 0.865658 0.724261 0.665301
O O16 0.625013 0.000000 0.714621
O O17 0.876345 0.000000 0.400478
O O18 0.735410 0.500000 0.069077
O O19 0.000000 0.771524 0.000000
#
# Coordination Sequence:
#
# PCOD9146183 Si02
#       7
#     4   4   4   4   4   4   4
#     4   9  17  31  52  77 104 132 163 202 242 280
#     4  11  22  33  46  70 100 130 165 203 245 295
#     4   9  16  30  51  70  89 116 156 202 244 287
#     4   9  18  32  51  75  99 127 165 205 245 289
#     4  10  19  33  53  73  95 126 165 207 250 293
#     4   8  15  28  49  73  90 112 153 203 245 284
#     4   9  17  30  50  74  99 129 163 196 234 286
#
# _framework density 19.256250000000001
#
# number of rings (size 3 to 8) (size 9 to 14) (size 15 to 20)
#    0.000    2.714    1.429    1.714    0.000    3.143 
#    0.000    3.571    0.000    8.571    0.000    0.000 
#    0.000    0.000    0.000    0.000    0.000    0.000 
#
# Total GULP energy -155961.760451 kJ/mol
# GULP energy per Si atom -5570.062873 kJ/mol
# Density = 1.921242 g / cm^3
# Si number density = 19.256250 Si / 1000 Ang^3
#
#
#
# Elastic Constant Matrix: (Units=GPa)
#
#
# Indices 1 2 3 4 5 6 
#
# 1 117.6321 -5.3155 47.7965 0.0000 -3.4896 0.0000
# 2 -5.3155 29.5161 2.8371 0.0000 -6.5863 0.0000
# 3 47.7965 2.8371 103.6635 0.0000 0.2940 0.0000
# 4 0.0000 0.0000 0.0000 40.5682 0.0000 75.5895
# 5 -3.4896 -6.5863 0.2940 0.0000 19.3775 0.0000
# 6 0.0000 0.0000 0.0000 75.5895 0.0000 168.6198
#
#
#
# Elastic Compliance Matrix: (Units=1/GPa)
#
#
# Indices 1 2 3 4 5 6 
#
# 1 0.010794 0.003119 -0.005071 0.000000 0.003081 0.000000
# 2 0.003119 0.037674 -0.002507 0.000000 0.013405 0.000000
# 3 -0.005071 -0.002507 0.012059 0.000000 -0.001948 0.000000
# 4 0.000000 0.000000 0.000000 0.149640 0.000000 -0.067081
# 5 0.003081 0.013405 -0.001948 0.000000 0.056747 0.000000
# 6 0.000000 0.000000 0.000000 -0.067081 0.000000 0.036002
#
#
# Mechanical properties :
#
#
# Convention : Reuss Voigt Hill
#
# Bulk Modulus (GPa) = 19.37692 37.93866 28.65779
# Shear Modulus (GPa) = 15.19594 59.41268 37.30431
#
# Velocity S-wave (km/s) = 2.81222 5.56064 4.40620
# Velocity P-wave (km/s) = 4.54194 7.80848 6.38755
#
# Compressibility (1/GPa) = 0.05160780
#
# Stress axis : x y z
#
# Youngs Moduli (GPa) = 92.64584 26.54382 82.92728
#
# Poissons Ratio (x) = -0.08278 0.42051
# Poissons Ratio (y) = -0.28893 0.20790
# Poissons Ratio (z) = 0.46979 0.06655
#
# Static dielectric constant tensor:
#      x y z
#    x 1.696690 0.000000 -0.015620 
#    y 0.000000 1.693210 0.000000 
#    z -0.015620 0.000000 1.702840 
# 
# From -- ./inp_files/94494.got.cif
#   From: 2010.05.17/outbox.cif.g08.bks.cpg/sg10_48_cif.got.tgz:94494.got - 2010.06.03 11:33:40.
