data_PCOD9146106
_publ_section_title
;
Structure prediction by ZEFSAII (Michael W. Deem and Ramdas Pophale) SiO2 
 PCOD9146106
Probable space group: P 2/M
;
_chemical_formula_sum "Si O2"
_cell_formula_units_Z 28
_cell_length_a 21.081228
_cell_length_b 7.985446
_cell_length_c 17.477196
_cell_angle_alpha 90.000000
_cell_angle_beta 158.581613
_cell_angle_gamma 90.000000
_cell_volume 1074.406275
_symmetry_space_group_name_H-M "P 2/M"
_symmetry_group_IT_number 10
_symmetry_cell_setting 'monoclinic'
loop_
_space_group_symop_operation_xyz
x,y,z
-x,y,-z
-x,-y,-z
x,-y,z
loop_
_atom_site_type_symbol
_atom_site_label
_atom_site_fract_x
_atom_site_fract_y
_atom_site_fract_z
Si Si1 0.228845 0.691231 0.213850
Si Si2 0.059571 0.700117 0.744627
Si Si3 0.972021 0.703082 0.808397
Si Si4 0.579662 0.697569 0.322226
Si Si5 0.195156 0.797808 0.745084
Si Si6 0.461026 0.187172 0.344234
Si Si7 0.325949 0.804500 0.735690
O O1 0.206964 0.500000 0.216752
O O2 0.342377 0.788300 0.403029
O O3 0.349323 0.690626 0.272157
O O4 0.051798 0.761217 0.977891
O O5 0.031730 0.500000 0.713954
O O6 0.083345 0.755475 0.858796
O O7 0.202035 0.737384 0.840042
O O8 0.878441 0.784407 0.515481
O O9 0.977743 0.500000 0.818774
O O10 0.776181 0.748435 0.567391
O O11 0.559282 0.500000 0.310606
O O12 0.463997 0.782908 0.257192
O O13 0.573752 0.732080 0.224849
O O14 0.322709 0.739506 0.820131
O O15 0.000000 0.745718 0.500000
O O16 0.201494 0.000000 0.752814
O O17 0.403071 0.000000 0.297313
O O18 0.369691 0.000000 0.786928
#
# Coordination Sequence:
#
# PCOD9146106 Si02
#       7
#     4   4   4   4   4   4   4
#     4  10  19  36  57  73  92 125 163 197 236 282
#     4   9  15  24  39  62  91 123 158 195 233 276
#     4   8  17  31  49  73  99 124 158 202 240 278
#     4  10  19  33  51  73  98 127 161 196 238 286
#     4   8  14  23  35  55  87 125 159 190 230 277
#     4  11  22  36  51  73 100 124 156 198 239 283
#     4   9  16  26  39  60  92 126 157 194 237 277
#
# _framework density 26.060905999999999
#
# number of rings (size 3 to 8) (size 9 to 14) (size 15 to 20)
#    0.000    2.714    0.000    5.571    0.000    3.714 
#    0.000   11.429    0.000    0.000    0.000    1.000 
#    0.000    8.000    0.000    0.000    0.000    0.000 
#
# Total GULP energy -156555.534785 kJ/mol
# GULP energy per Si atom -5591.269099 kJ/mol
# Density = 2.600159 g / cm^3
# Si number density = 26.060906 Si / 1000 Ang^3
#
#
#
# Elastic Constant Matrix: (Units=GPa)
#
#
# Indices 1 2 3 4 5 6 
#
# 1 208.1450 10.8421 39.0450 0.0000 -17.1462 0.0000
# 2 10.8421 55.9999 0.6554 0.0000 3.1795 0.0000
# 3 39.0450 0.6554 95.9098 0.0000 -20.6847 0.0000
# 4 0.0000 0.0000 0.0000 9.1530 0.0000 -5.6754
# 5 -17.1462 3.1795 -20.6847 0.0000 60.9271 0.0000
# 6 0.0000 0.0000 0.0000 -5.6754 0.0000 24.8625
#
#
#
# Elastic Compliance Matrix: (Units=1/GPa)
#
#
# Indices 1 2 3 4 5 6 
#
# 1 0.005299 -0.001053 -0.001960 0.000000 0.000881 0.000000
# 2 -0.001053 0.018130 0.000040 0.000000 -0.001229 0.000000
# 3 -0.001960 0.000040 0.011982 0.000000 0.003514 0.000000
# 4 0.000000 0.000000 0.000000 0.127268 0.000000 0.029051
# 5 0.000881 -0.001229 0.003514 0.000000 0.017918 0.000000
# 6 0.000000 0.000000 0.000000 0.029051 0.000000 0.046853
#
#
# Mechanical properties :
#
#
# Convention : Reuss Voigt Hill
#
# Bulk Modulus (GPa) = 33.93880 51.23773 42.58826
# Shear Modulus (GPa) = 20.55757 39.62264 30.09011
#
# Velocity S-wave (km/s) = 2.81165 3.90344 3.40164
# Velocity P-wave (km/s) = 4.85713 6.32608 5.63963
#
# Compressibility (1/GPa) = 0.02946480
#
# Stress axis : x y z
#
# Youngs Moduli (GPa) = 188.69795 55.15600 83.45770
#
# Poissons Ratio (x) = 0.05808 0.16360
# Poissons Ratio (y) = 0.19872 -0.00332
# Poissons Ratio (z) = 0.36990 -0.00219
#
# Static dielectric constant tensor:
#      x y z
#    x 2.077430 0.000000 0.019780 
#    y 0.000000 1.914670 0.000000 
#    z 0.019780 0.000000 2.162720 
# 
# From -- ./inp_files/79282.got.cif
#   From: 2010.05.17/outbox.cif.g08.bks.cpg/sg10_40_cif.got.tgz:79282.got - 2010.06.03 11:33:40.
