data_PCOD9146428
_publ_section_title
;
Structure prediction by ZEFSAII (Michael W. Deem and Ramdas Pophale) SiO2 
 PCOD9146428
Probable space group: P 2/M
;
_chemical_formula_sum "Si O2"
_cell_formula_units_Z 32
_cell_length_a 13.462939
_cell_length_b 9.025373
_cell_length_c 26.922248
_cell_angle_alpha 90.000000
_cell_angle_beta 32.549119
_cell_angle_gamma 90.000000
_cell_volume 1760.016535
_symmetry_space_group_name_H-M "P 2/M"
_symmetry_group_IT_number 10
_symmetry_cell_setting 'monoclinic'
loop_
_space_group_symop_operation_xyz
x,y,z
-x,y,-z
-x,-y,-z
x,-y,z
loop_
_atom_site_type_symbol
_atom_site_label
_atom_site_fract_x
_atom_site_fract_y
_atom_site_fract_z
Si Si1 0.533233 0.172994 0.913322
Si Si2 0.062269 0.319178 0.918404
Si Si3 0.832928 0.822921 0.533157
Si Si4 0.479784 0.671998 0.729017
Si Si5 0.041489 0.329058 0.618929
Si Si6 0.075098 0.321701 0.227922
Si Si7 0.154936 0.322127 0.088366
Si Si8 0.399800 0.336159 0.207969
O O1 0.723647 0.252200 0.847656
O O2 0.519402 0.209033 0.860479
O O3 0.542132 0.000000 0.919922
O O4 0.352505 0.246139 0.012608
O O5 0.064308 0.500000 0.919221
O O6 0.269564 0.272531 0.816379
O O7 0.929782 0.275839 0.928751
O O8 0.000000 0.270541 0.000000
O O9 0.637645 0.761484 0.634373
O O10 0.000000 0.772261 0.500000
O O11 0.868693 0.765319 0.462449
O O12 0.833091 0.000000 0.533973
O O13 0.483879 0.500000 0.710436
O O14 0.533267 0.673607 0.764439
O O15 0.105155 0.500000 0.588961
O O16 0.052905 0.275434 0.671540
O O17 0.821533 0.328539 0.700413
O O18 0.089973 0.500000 0.226256
O O19 0.029724 0.287490 0.189700
O O20 0.178292 0.500000 0.077526
O O21 0.455314 0.500000 0.164722
#
# Coordination Sequence:
#
# PCOD9146428 Si02
#       8
#     4   4   4   4   4   4   4   4
#     4  11  21  30  46  74 106 137 173 215 260 311
#     4   9  18  33  56  83 106 133 175 221 260 303
#     4  11  22  33  49  77 112 142 169 208 263 320
#     4  10  19  33  55  79 104 138 179 218 258 308
#     4   9  17  31  50  73  99 131 171 209 254 312
#     4   9  19  34  52  74 100 135 174 215 264 313
#     4  10  19  34  54  73 100 135 174 219 264 310
#     4   9  17  30  49  72 101 137 172 209 256 309
#
# _framework density 18.181647999999999
#
# number of rings (size 3 to 8) (size 9 to 14) (size 15 to 20)
#    0.000    2.250    1.250    3.375    0.000    7.000 
#    0.000    0.625    0.000    2.250    0.000    5.250 
#    0.000    0.000    0.000    0.000    0.000    0.000 
#
# Total GULP energy -178367.688373 kJ/mol
# GULP energy per Si atom -5573.990262 kJ/mol
# Density = 1.814027 g / cm^3
# Si number density = 18.181648 Si / 1000 Ang^3
#
#
#
# Elastic Constant Matrix: (Units=GPa)
#
#
# Indices 1 2 3 4 5 6 
#
# 1 65.8548 14.9998 43.2661 0.0000 21.4124 0.0000
# 2 14.9998 31.2958 35.2699 0.0000 8.8257 0.0000
# 3 43.2661 35.2699 119.3911 0.0000 20.1726 0.0000
# 4 0.0000 0.0000 0.0000 -18.6626 0.0000 -13.2386
# 5 21.4124 8.8257 20.1726 0.0000 29.9148 0.0000
# 6 0.0000 0.0000 0.0000 -13.2386 0.0000 -0.6530
#
#
#
# Elastic Compliance Matrix: (Units=1/GPa)
#
#
# Indices 1 2 3 4 5 6 
#
# 1 0.023447 -0.000790 -0.006170 0.000000 -0.012389 0.000000
# 2 -0.000790 0.048649 -0.013267 0.000000 -0.004841 0.000000
# 3 -0.006170 -0.013267 0.014811 0.000000 -0.001657 0.000000
# 4 0.000000 0.000000 0.000000 0.004004 0.000000 -0.081182
# 5 -0.012389 -0.004841 -0.001657 0.000000 0.044841 0.000000
# 6 0.000000 0.000000 0.000000 -0.081182 0.000000 0.114442
#
#
# Mechanical properties :
#
#
# Convention : Reuss Voigt Hill
#
# Bulk Modulus (GPa) = 21.52788 44.84592 33.18690
# Shear Modulus (GPa) = 16.33264 10.32021 13.32643
#
# Velocity S-wave (km/s) = 3.00042 2.38506 2.71026
# Velocity P-wave (km/s) = 4.88565 5.68363 5.29968
#
# Compressibility (1/GPa) = 0.04645139
#
# Stress axis : x y z
#
# Youngs Moduli (GPa) = 42.64956 20.55528 67.51647
#
# Poissons Ratio (x) = 0.01625 0.41659
# Poissons Ratio (y) = 0.03371 0.89577
# Poissons Ratio (z) = 0.26315 0.27272
#
# Static dielectric constant tensor:
#      x y z
#    x 1.657630 0.000000 0.033740 
#    y 0.000000 1.612520 0.000000 
#    z 0.033740 0.000000 1.643260 
# 
# From -- ./inp_files/93117.got.cif
#   From: 2010.05.17/outbox.cif.g08.bks.cpg/sg10_47_cif.got.tgz:93117.got - 2010.06.03 11:33:40.
