data_PCOD9146828
_publ_section_title
;
Structure prediction by ZEFSAII (Michael W. Deem and Ramdas Pophale) SiO2 
 PCOD9146828
Probable space group: P 2/M
;
_chemical_formula_sum "Si O2"
_cell_formula_units_Z 32
_cell_length_a 28.170970
_cell_length_b 7.462093
_cell_length_c 12.002965
_cell_angle_alpha 90.000000
_cell_angle_beta 145.968872
_cell_angle_gamma 90.000000
_cell_volume 1412.089583
_symmetry_space_group_name_H-M "P 2/M"
_symmetry_group_IT_number 10
_symmetry_cell_setting 'monoclinic'
loop_
_space_group_symop_operation_xyz
x,y,z
-x,y,-z
-x,-y,-z
x,-y,z
loop_
_atom_site_type_symbol
_atom_site_label
_atom_site_fract_x
_atom_site_fract_y
_atom_site_fract_z
Si Si1 0.586595 0.216547 0.609994
Si Si2 0.399223 0.796326 0.952039
Si Si3 0.305056 0.293487 0.977980
Si Si4 0.918209 0.212509 0.908285
Si Si5 0.052957 0.715573 0.775230
Si Si6 0.266570 0.218444 0.519476
Si Si7 0.123283 0.719061 0.677975
Si Si8 0.583004 0.218867 0.349807
O O1 0.500000 0.276284 0.500000
O O2 0.663533 0.281387 0.834704
O O3 0.589014 0.277988 0.488459
O O4 0.587933 0.000000 0.613297
O O5 0.317642 0.721224 0.728839
O O6 0.407642 0.000000 0.926010
O O7 0.372783 0.799513 0.029755
O O8 0.493127 0.716748 0.124823
O O9 0.304251 0.500000 0.941558
O O10 0.210278 0.218637 0.791848
O O11 0.828219 0.284846 0.687940
O O12 0.916968 0.000000 0.884429
O O13 0.925399 0.232780 0.056354
O O14 0.000000 0.284913 0.000000
O O15 0.054021 0.500000 0.775503
O O16 0.111631 0.774991 0.784816
O O17 0.958683 0.772915 0.553019
O O18 0.333015 0.269491 0.552596
O O19 0.260512 0.000000 0.509754
O O20 0.125485 0.500000 0.682978
O O21 0.579076 0.000000 0.341855
#
# Coordination Sequence:
#
# PCOD9146828 Si02
#       8
#     4   4   4   4   4   4   4   4
#     4  10  19  34  53  78 109 139 176 219 258 307
#     4  10  19  35  57  79 103 139 187 227 258 305
#     4  11  22  34  52  80 112 142 172 214 273 327
#     4  10  22  37  52  80 118 144 166 215 278 326
#     4   9  18  38  62  78  99 139 185 222 258 310
#     4   9  19  34  55  79 105 142 181 219 268 316
#     4   8  18  36  57  80 106 136 176 224 266 310
#     4   9  17  32  55  80 104 135 182 229 259 299
#
# _framework density 22.661453000000002
#
# number of rings (size 3 to 8) (size 9 to 14) (size 15 to 20)
#    0.000    2.500    1.250    1.500    3.500    2.000 
#    0.000    3.125    0.000    3.000    0.000    0.000 
#    0.000    0.000    0.000    0.000    0.000    0.000 
#
# Total GULP energy -178656.537451 kJ/mol
# GULP energy per Si atom -5583.016795 kJ/mol
# Density = 2.260987 g / cm^3
# Si number density = 22.661453 Si / 1000 Ang^3
#
#
#
# Elastic Constant Matrix: (Units=GPa)
#
#
# Indices 1 2 3 4 5 6 
#
# 1 93.4270 4.6807 69.3853 0.0000 8.0479 0.0000
# 2 4.6807 68.4700 2.4827 0.0000 6.1038 0.0000
# 3 69.3853 2.4827 146.0033 0.0000 7.1102 0.0000
# 4 0.0000 0.0000 0.0000 16.6399 0.0000 -9.5136
# 5 8.0479 6.1038 7.1102 0.0000 46.3337 0.0000
# 6 0.0000 0.0000 0.0000 -9.5136 0.0000 -3.9371
#
#
#
# Elastic Compliance Matrix: (Units=1/GPa)
#
#
# Indices 1 2 3 4 5 6 
#
# 1 0.016707 -0.000715 -0.007849 0.000000 -0.001603 0.000000
# 2 -0.000715 0.014813 0.000178 0.000000 -0.001855 0.000000
# 3 -0.007849 0.000178 0.010590 0.000000 -0.000285 0.000000
# 4 0.000000 0.000000 0.000000 0.025234 0.000000 -0.060976
# 5 -0.001603 -0.001855 -0.000285 0.000000 0.022149 0.000000
# 6 0.000000 0.000000 0.000000 -0.060976 0.000000 -0.106651
#
#
# Mechanical properties :
#
#
# Convention : Reuss Voigt Hill
#
# Bulk Modulus (GPa) = 39.46646 51.22197 45.34422
# Shear Modulus (GPa) = 620.30207 27.23073 323.76640
#
# Velocity S-wave (km/s) = 16.56260 3.47022 11.96583
# Velocity P-wave (km/s) = 19.57583 6.22163 14.52450
#
# Compressibility (1/GPa) = 0.02533797
#
# Stress axis : x y z
#
# Youngs Moduli (GPa) = 59.85515 67.50982 94.42577
#
# Poissons Ratio (x) = 0.04824 0.74119
# Poissons Ratio (y) = 0.04277 -0.01681
# Poissons Ratio (z) = 0.46983 -0.01202
#
# Static dielectric constant tensor:
#      x y z
#    x 1.818960 0.000000 0.001310 
#    y 0.000000 1.864720 0.000000 
#    z 0.001310 0.000000 1.835430 
# 
# From -- ./inp_files/58303.got.cif
#   From: 2010.05.17/outbox.cif.g08.bks.cpg/sg10_30_cif.got.tgz:58303.got - 2010.06.03 11:33:40.
