data_PCOD9146526
_publ_section_title
;
Structure prediction by ZEFSAII (Michael W. Deem and Ramdas Pophale) SiO2 
 PCOD9146526
Probable space group: P 2/M
;
_chemical_formula_sum "Si O2"
_cell_formula_units_Z 24
_cell_length_a 10.292086
_cell_length_b 7.906436
_cell_length_c 23.022085
_cell_angle_alpha 90.000000
_cell_angle_beta 39.216977
_cell_angle_gamma 90.000000
_cell_volume 1184.469186
_symmetry_space_group_name_H-M "P 2/M"
_symmetry_group_IT_number 10
_symmetry_cell_setting 'monoclinic'
loop_
_space_group_symop_operation_xyz
x,y,z
-x,y,-z
-x,-y,-z
x,-y,z
loop_
_atom_site_type_symbol
_atom_site_label
_atom_site_fract_x
_atom_site_fract_y
_atom_site_fract_z
Si Si1 0.675782 0.696329 0.111425
Si Si2 0.472361 0.293472 0.576635
Si Si3 0.014908 0.193364 0.904504
Si Si4 0.976601 0.703778 0.228793
Si Si5 0.908132 0.293033 0.470601
Si Si6 0.210179 0.293048 0.262320
O O1 0.668081 0.500000 0.096862
O O2 0.797528 0.707791 0.130083
O O3 0.443374 0.761369 0.193802
O O4 0.818710 0.785310 0.014297
O O5 0.500000 0.243426 0.500000
O O6 0.468939 0.500000 0.578597
O O7 0.254676 0.235670 0.676982
O O8 0.673732 0.238728 0.541813
O O9 0.966260 0.247073 0.856103
O O10 0.079312 0.000000 0.882309
O O11 0.974127 0.500000 0.232422
O O12 0.127570 0.761767 0.227914
O O13 0.907926 0.500000 0.470492
O O14 0.051610 0.239329 0.367262
O O15 0.000000 0.237431 0.500000
O O16 0.209006 0.500000 0.263660
#
# Coordination Sequence:
#
# PCOD9146526 Si02
#       6
#     4   4   4   4   4   4
#     4  10  20  37  60  83 107 137 176 224 276 323
#     4   9  15  26  46  75 111 144 171 212 265 312
#     4  11  23  39  56  78 107 142 182 223 270 324
#     4  10  19  33  55  83 112 143 181 221 265 317
#     4   9  16  25  41  74 116 144 168 210 266 319
#     4   9  18  31  50  82 116 140 171 222 274 318
#
# _framework density 20.262241
#
# number of rings (size 3 to 8) (size 9 to 14) (size 15 to 20)
#    0.000    2.333    1.667    3.000    2.333    0.667 
#    0.000    5.000    0.000    0.500    0.000    1.167 
#    0.000    0.000    0.000    0.000    0.000    0.000 
#
# Total GULP energy -133980.265176 kJ/mol
# GULP energy per Si atom -5582.511049 kJ/mol
# Density = 2.021612 g / cm^3
# Si number density = 20.262241 Si / 1000 Ang^3
#
#
#
# Elastic Constant Matrix: (Units=GPa)
#
#
# Indices 1 2 3 4 5 6 
#
# 1 124.2854 3.6231 35.4993 0.0000 2.4276 0.0000
# 2 3.6231 20.6272 4.3413 0.0000 -2.0255 0.0000
# 3 35.4993 4.3413 48.9374 0.0000 2.5828 0.0000
# 4 0.0000 0.0000 0.0000 -33.9672 0.0000 -8.7641
# 5 2.4276 -2.0255 2.5828 0.0000 44.0253 0.0000
# 6 0.0000 0.0000 0.0000 -8.7641 0.0000 -19.2580
#
#
#
# Elastic Compliance Matrix: (Units=1/GPa)
#
#
# Indices 1 2 3 4 5 6 
#
# 1 0.010151 -0.000253 -0.007333 0.000000 -0.000141 0.000000
# 2 -0.000253 0.049693 -0.004359 0.000000 0.002556 0.000000
# 3 -0.007333 -0.004359 0.026211 0.000000 -0.001334 0.000000
# 4 0.000000 0.000000 0.000000 -0.033357 0.000000 0.015180
# 5 -0.000141 0.002556 -0.001334 0.000000 0.022918 0.000000
# 6 0.000000 0.000000 0.000000 0.015180 0.000000 -0.058835
#
#
# Mechanical properties :
#
#
# Convention : Reuss Voigt Hill
#
# Bulk Modulus (GPa) = 16.08699 31.19749 23.64224
# Shear Modulus (GPa) = 81.44182 8.18578 44.81380
#
# Velocity S-wave (km/s) = 6.34674 2.01213 4.70796
# Velocity P-wave (km/s) = 7.85269 4.56383 6.42236
#
# Compressibility (1/GPa) = 0.06216205
#
# Stress axis : x y z
#
# Youngs Moduli (GPa) = 98.51452 20.12372 38.15169
#
# Poissons Ratio (x) = 0.00510 0.27979
# Poissons Ratio (y) = 0.02496 0.16632
# Poissons Ratio (z) = 0.72246 0.08773
#
# Static dielectric constant tensor:
#      x y z
#    x 1.709970 0.000000 -0.004900 
#    y 0.000000 1.731960 0.000000 
#    z -0.004900 0.000000 1.685380 
# 
# From -- ./inp_files/81927.got.cif
#   From: 2010.05.17/outbox.cif.g08.bks.cpg/sg10_41_cif.got.tgz:81927.got - 2010.06.03 11:33:40.
