data_PCOD9146833
_publ_section_title
;
Structure prediction by ZEFSAII (Michael W. Deem and Ramdas Pophale) SiO2 
 PCOD9146833
Probable space group: P 2/M
;
_chemical_formula_sum "Si O2"
_cell_formula_units_Z 30
_cell_length_a 12.543180
_cell_length_b 15.496629
_cell_length_c 20.566630
_cell_angle_alpha 90.000000
_cell_angle_beta 20.823750
_cell_angle_gamma 90.000000
_cell_volume 1421.152974
_symmetry_space_group_name_H-M "P 2/M"
_symmetry_group_IT_number 10
_symmetry_cell_setting 'monoclinic'
loop_
_space_group_symop_operation_xyz
x,y,z
-x,y,-z
-x,-y,-z
x,-y,z
loop_
_atom_site_type_symbol
_atom_site_label
_atom_site_fract_x
_atom_site_fract_y
_atom_site_fract_z
Si Si1 0.978706 0.097869 0.281717
Si Si2 0.308728 0.906004 0.364639
Si Si3 0.500000 0.201146 0.500000
Si Si4 0.753576 0.150697 0.006833
Si Si5 0.312392 0.716176 0.421797
Si Si6 0.690134 0.250200 0.832082
Si Si7 0.857061 0.703652 0.204611
Si Si8 0.721987 0.599466 0.106876
O O1 0.644253 0.137670 0.470637
O O2 0.175458 0.162284 0.212427
O O3 0.998879 0.000000 0.291983
O O4 0.091547 0.102678 0.142106
O O5 0.570260 0.904141 0.162039
O O6 0.330827 0.817650 0.392778
O O7 0.000000 0.900341 0.500000
O O8 0.314330 0.000000 0.395274
O O9 0.231932 0.264071 0.673485
O O10 0.527591 0.217972 0.100672
O O11 0.988256 0.210153 0.912012
O O12 0.543433 0.690781 0.347362
O O13 0.447224 0.660132 0.285202
O O14 0.973833 0.700583 0.639419
O O15 0.500000 0.291378 0.000000
O O16 0.100653 0.629452 0.058565
O O17 0.633346 0.500000 0.156294
O O18 0.000000 0.610075 0.000000
#
# Coordination Sequence:
#
# PCOD9146833 Si02
#       8
#     4   4   2   4   4   4   4   4
#     4  10  20  33  51  75 108 150 201 243 274 323
#     4  11  22  34  52  79 112 155 197 234 281 336
#     4  10  19  34  53  82 112 152 180 234 290 332
#     4  10  20  35  52  76 110 150 188 239 283 325
#     4  11  20  38  58  82 114 148 188 238 285 338
#     4  10  21  35  54  79 106 153 197 230 284 331
#     4  10  20  36  59  82 117 142 185 230 289 341
#     4   9  19  36  64  91 113 144 184 232 291 354
#
# _framework density 21.109621000000001
#
# number of rings (size 3 to 8) (size 9 to 14) (size 15 to 20)
#    0.000    1.867    4.000    0.600    0.000    3.467 
#    0.000    2.333    0.000    4.000    0.000    0.000 
#    0.000    0.000    0.000    0.000    0.000    0.000 
#
# Total GULP energy -167243.737721 kJ/mol
# GULP energy per Si atom -5574.791257 kJ/mol
# Density = 2.106157 g / cm^3
# Si number density = 21.109621 Si / 1000 Ang^3
#
#
#
# Elastic Constant Matrix: (Units=GPa)
#
#
# Indices 1 2 3 4 5 6 
#
# 1 24.1508 -0.2763 6.5289 0.0000 -3.3212 0.0000
# 2 -0.2763 82.6575 45.1586 0.0000 9.1076 0.0000
# 3 6.5289 45.1586 145.3438 0.0000 11.7666 0.0000
# 4 0.0000 0.0000 0.0000 17.9935 0.0000 -0.8792
# 5 -3.3212 9.1076 11.7666 0.0000 31.8113 0.0000
# 6 0.0000 0.0000 0.0000 -0.8792 0.0000 13.8338
#
#
#
# Elastic Compliance Matrix: (Units=1/GPa)
#
#
# Indices 1 2 3 4 5 6 
#
# 1 0.042848 0.001029 -0.002662 0.000000 0.005164 0.000000
# 2 0.001029 0.014804 -0.004444 0.000000 -0.002487 0.000000
# 3 -0.002662 -0.004444 0.008556 0.000000 -0.002170 0.000000
# 4 0.000000 0.000000 0.000000 0.055749 0.000000 0.003543
# 5 0.005164 -0.002487 -0.002170 0.000000 0.033489 0.000000
# 6 0.000000 0.000000 0.000000 0.003543 0.000000 0.072512
#
#
# Mechanical properties :
#
#
# Convention : Reuss Voigt Hill
#
# Bulk Modulus (GPa) = 18.50058 39.44161 28.97110
# Shear Modulus (GPa) = 19.36993 26.11044 22.74019
#
# Velocity S-wave (km/s) = 3.03246 3.52077 3.28570
# Velocity P-wave (km/s) = 4.58739 5.93738 5.30550
#
# Compressibility (1/GPa) = 0.05405235
#
# Stress axis : x y z
#
# Youngs Moduli (GPa) = 23.33819 67.55058 116.87098
#
# Poissons Ratio (x) = -0.06950 0.31117
# Poissons Ratio (y) = -0.02401 0.51942
# Poissons Ratio (z) = 0.06214 0.30022
#
# Static dielectric constant tensor:
#      x y z
#    x 1.836810 0.000000 0.023770 
#    y 0.000000 1.740810 0.000000 
#    z 0.023770 0.000000 1.855740 
# 
# From -- ./inp_files/89803.got.cif
#   From: 2010.05.17/outbox.cif.g08.bks.cpg/sg10_45_cif.got.tgz:89803.got - 2010.06.03 11:33:40.
