data_PCOD9146054
_publ_section_title
;
Structure prediction by ZEFSAII (Michael W. Deem and Ramdas Pophale) SiO2 
 PCOD9146054
Probable space group: P 2/M
;
_chemical_formula_sum "Si O2"
_cell_formula_units_Z 32
_cell_length_a 14.968038
_cell_length_b 7.443047
_cell_length_c 23.617059
_cell_angle_alpha 90.000000
_cell_angle_beta 148.457152
_cell_angle_gamma 90.000000
_cell_volume 1376.436266
_symmetry_space_group_name_H-M "P 2/M"
_symmetry_group_IT_number 10
_symmetry_cell_setting 'monoclinic'
loop_
_space_group_symop_operation_xyz
x,y,z
-x,y,-z
-x,-y,-z
x,-y,z
loop_
_atom_site_type_symbol
_atom_site_label
_atom_site_fract_x
_atom_site_fract_y
_atom_site_fract_z
Si Si1 0.945167 0.718771 0.260616
Si Si2 0.823568 0.708242 0.425831
Si Si3 0.417024 0.716575 0.896227
Si Si4 0.594108 0.281356 0.608254
Si Si5 0.014084 0.281834 0.172400
Si Si6 0.281557 0.719868 0.509528
Si Si7 0.505671 0.789010 0.818830
Si Si8 0.140508 0.792427 0.032375
O O1 0.946569 0.500000 0.261693
O O2 0.781335 0.775608 0.208642
O O3 0.929794 0.772613 0.186552
O O4 0.126328 0.775071 0.384566
O O5 0.861966 0.500000 0.460020
O O6 0.757457 0.785179 0.448902
O O7 0.673513 0.712525 0.299193
O O8 0.000000 0.790124 0.500000
O O9 0.418667 0.500000 0.898229
O O10 0.513603 0.766877 0.890923
O O11 0.500000 0.778538 0.000000
O O12 0.500000 0.225608 0.500000
O O13 0.600748 0.500000 0.610789
O O14 0.788407 0.223537 0.718073
O O15 0.467429 0.223093 0.589255
O O16 0.006704 0.500000 0.165842
O O17 0.932764 0.212697 0.070856
O O18 0.284452 0.500000 0.509362
O O19 0.669090 0.713241 0.872977
O O20 0.500404 0.000000 0.804588
O O21 0.162876 0.000000 0.062344
O O22 0.000000 0.713374 0.000000
#
# Coordination Sequence:
#
# PCOD9146054 Si02
#       8
#     4   4   4   4   4   4   4   4
#     4   9  16  29  51  82 116 145 172 214 277 343
#     4  10  21  37  59  86 116 151 189 232 284 339
#     4  10  20  35  58  85 113 144 182 231 287 341
#     4   9  15  26  46  81 119 143 167 218 283 333
#     4  10  19  32  57  88 113 140 184 235 280 328
#     4   9  16  27  47  76 111 145 177 213 268 335
#     4  11  24  41  60  82 112 152 196 240 284 337
#     4  10  24  44  59  74 107 156 197 232 286 344
#
# _framework density 23.248443999999999
#
# number of rings (size 3 to 8) (size 9 to 14) (size 15 to 20)
#    0.000    2.250    1.250    1.875    1.750    4.750 
#    0.000    0.625    0.000    1.125    0.000    0.000 
#    0.000    0.000    0.000    0.000    0.000    0.000 
#
# Total GULP energy -178802.058153 kJ/mol
# GULP energy per Si atom -5587.564317 kJ/mol
# Density = 2.319553 g / cm^3
# Si number density = 23.248444 Si / 1000 Ang^3
#
#
#
# Elastic Constant Matrix: (Units=GPa)
#
#
# Indices 1 2 3 4 5 6 
#
# 1 165.0159 0.3479 27.2688 0.0000 20.1612 0.0000
# 2 0.3479 70.6015 -12.0463 0.0000 7.2176 0.0000
# 3 27.2688 -12.0463 71.0967 0.0000 16.5375 0.0000
# 4 0.0000 0.0000 0.0000 9.4244 0.0000 -14.2205
# 5 20.1612 7.2176 16.5375 0.0000 46.2220 0.0000
# 6 0.0000 0.0000 0.0000 -14.2205 0.0000 8.2973
#
#
#
# Elastic Compliance Matrix: (Units=1/GPa)
#
#
# Indices 1 2 3 4 5 6 
#
# 1 0.006666 -0.000171 -0.002090 0.000000 -0.002133 0.000000
# 2 -0.000171 0.015112 0.003444 0.000000 -0.003517 0.000000
# 3 -0.002090 0.003444 0.016758 0.000000 -0.005622 0.000000
# 4 0.000000 0.000000 0.000000 -0.066900 0.000000 -0.114658
# 5 -0.002133 -0.003517 -0.005622 0.000000 0.025126 0.000000
# 6 0.000000 0.000000 0.000000 -0.114658 0.000000 -0.075988
#
#
# Mechanical properties :
#
#
# Convention : Reuss Voigt Hill
#
# Bulk Modulus (GPa) = 24.44775 37.53943 30.99359
# Shear Modulus (GPa) = -73.57526 32.19832 -20.68847
#
# Velocity S-wave (km/s) = -5.63170 3.72555 -2.98633
# Velocity P-wave (km/s) = 5.63466 5.88969 1.21223
#
# Compressibility (1/GPa) = 0.04090356
#
# Stress axis : x y z
#
# Youngs Moduli (GPa) = 150.00729 66.17198 59.67236
#
# Poissons Ratio (x) = 0.01134 0.12469
# Poissons Ratio (y) = 0.02570 -0.20554
# Poissons Ratio (z) = 0.31346 -0.22792
#
# Static dielectric constant tensor:
#      x y z
#    x 1.883180 0.000000 0.033720 
#    y 0.000000 1.917640 0.000000 
#    z 0.033720 0.000000 1.841270 
# 
# From -- ./inp_files/89595.got.cif
#   From: 2010.05.17/outbox.cif.g08.bks.cpg/sg10_45_cif.got.tgz:89595.got - 2010.06.03 11:33:40.
