data_PCOD9146924
_publ_section_title
;
Structure prediction by ZEFSAII (Michael W. Deem and Ramdas Pophale) SiO2 
 PCOD9146924
Probable space group: P 2/M
;
_chemical_formula_sum "Si O2"
_cell_formula_units_Z 24
_cell_length_a 9.649667
_cell_length_b 7.478653
_cell_length_c 30.686586
_cell_angle_alpha 90.000000
_cell_angle_beta 150.409178
_cell_angle_gamma 90.000000
_cell_volume 1093.547464
_symmetry_space_group_name_H-M "P 2/M"
_symmetry_group_IT_number 10
_symmetry_cell_setting 'monoclinic'
loop_
_space_group_symop_operation_xyz
x,y,z
-x,y,-z
-x,-y,-z
x,-y,z
loop_
_atom_site_type_symbol
_atom_site_label
_atom_site_fract_x
_atom_site_fract_y
_atom_site_fract_z
Si Si1 0.420422 0.792338 0.754264
Si Si2 0.787845 0.700877 0.562808
Si Si3 0.288911 0.780738 0.254907
Si Si4 0.359058 0.781805 0.916155
Si Si5 0.296610 0.793074 0.557004
Si Si6 0.673796 0.218565 0.914206
O O1 0.573942 0.717806 0.753144
O O2 0.515916 0.719266 0.827146
O O3 0.086217 0.783965 0.656269
O O4 0.505071 0.000000 0.778501
O O5 0.500000 0.789427 0.500000
O O6 0.797322 0.500000 0.583890
O O7 0.750898 0.695806 0.501035
O O8 0.472728 0.722166 0.346449
O O9 0.966543 0.728847 0.172229
O O10 0.303860 0.000000 0.258823
O O11 0.524760 0.722437 0.918209
O O12 0.364704 0.000000 0.917401
O O13 0.500000 0.724435 0.000000
O O14 0.000000 0.792944 0.500000
O O15 0.367959 0.000000 0.566109
O O16 0.665115 0.000000 0.912880
O O17 0.000000 0.269998 0.000000
#
# Coordination Sequence:
#
# PCOD9146924 Si02
#       6
#     4   4   4   4   4   4
#     4  10  19  34  55  78 107 141 179 223 269 317
#     4  11  25  40  53  75 110 147 185 225 272 325
#     4   9  17  29  47  74 105 135 170 217 264 311
#     4   9  16  26  42  69 106 141 169 207 262 317
#     4  10  19  35  57  81 107 137 179 224 271 322
#     4   9  17  28  46  76 110 142 173 211 264 320
#
# _framework density 21.946922000000001
#
# number of rings (size 3 to 8) (size 9 to 14) (size 15 to 20)
#    0.000    2.333    1.667    1.500    2.333    5.667 
#    0.000    0.000    0.000    0.500    0.000    0.000 
#    0.000    3.333    0.000    0.000    0.000    0.000 
#
# Total GULP energy -134022.659283 kJ/mol
# GULP energy per Si atom -5584.277470 kJ/mol
# Density = 2.189697 g / cm^3
# Si number density = 21.946922 Si / 1000 Ang^3
#
#
#
# Elastic Constant Matrix: (Units=GPa)
#
#
# Indices 1 2 3 4 5 6 
#
# 1 159.0685 1.6983 107.3152 0.0000 -4.2802 0.0000
# 2 1.6983 56.6760 -1.2911 0.0000 -1.6864 0.0000
# 3 107.3152 -1.2911 213.8537 -0.0001 -14.8416 0.0000
# 4 0.0000 0.0000 -0.0001 -161.8599 0.0000 30.6357
# 5 -4.2802 -1.6864 -14.8416 0.0000 41.3678 0.0000
# 6 0.0000 0.0000 0.0000 30.6357 0.0000 -21.0853
#
#
#
# Elastic Compliance Matrix: (Units=1/GPa)
#
#
# Indices 1 2 3 4 5 6 
#
# 1 0.009537 -0.000419 -0.004841 0.000000 -0.000767 0.000000
# 2 -0.000419 0.017689 0.000373 0.000000 0.000812 0.000000
# 3 -0.004841 0.000373 0.007255 0.000000 0.002117 0.000000
# 4 0.000000 0.000000 0.000000 -0.008522 0.000000 -0.012382
# 5 -0.000767 0.000812 0.002117 0.000000 0.024887 0.000000
# 6 0.000000 0.000000 0.000000 -0.012382 0.000000 -0.065416
#
#
# Mechanical properties :
#
#
# Convention : Reuss Voigt Hill
#
# Bulk Modulus (GPa) = 40.47459 71.67145 56.07302
# Shear Modulus (GPa) = 1453.76645 -6.85710 723.45467
#
# Velocity S-wave (km/s) = 25.76507 -1.76952 18.17564
# Velocity P-wave (km/s) = 30.05995 5.34347 21.58881
#
# Compressibility (1/GPa) = 0.02470686
#
# Stress axis : x y z
#
# Youngs Moduli (GPa) = 104.85814 56.53110 137.83996
#
# Poissons Ratio (x) = 0.02368 0.66734
# Poissons Ratio (y) = 0.04392 -0.05146
# Poissons Ratio (z) = 0.50766 -0.02111
#
# Static dielectric constant tensor:
#      x y z
#    x 1.741340 0.000000 0.007030 
#    y 0.000000 1.874410 0.000000 
#    z 0.007030 0.000000 1.745750 
# 
# From -- ./inp_files/33958.got.cif
#   From: 2010.05.17/outbox.cif.g08.bks.cpg/sg10_17_cif.got.tgz:33958.got - 2010.06.03 11:33:40.
