data_PCOD9146707
_publ_section_title
;
Structure prediction by ZEFSAII (Michael W. Deem and Ramdas Pophale) SiO2 
 PCOD9146707
Probable space group: P 2/M
;
_chemical_formula_sum "Si O2"
_cell_formula_units_Z 28
_cell_length_a 12.458018
_cell_length_b 14.289305
_cell_length_c 9.809366
_cell_angle_alpha 90.000000
_cell_angle_beta 55.076421
_cell_angle_gamma 90.000000
_cell_volume 1431.761059
_symmetry_space_group_name_H-M "P 2/M"
_symmetry_group_IT_number 10
_symmetry_cell_setting 'monoclinic'
loop_
_space_group_symop_operation_xyz
x,y,z
-x,y,-z
-x,-y,-z
x,-y,z
loop_
_atom_site_type_symbol
_atom_site_label
_atom_site_fract_x
_atom_site_fract_y
_atom_site_fract_z
Si Si1 0.589247 0.104730 0.555454
Si Si2 0.420045 0.732970 0.251594
Si Si3 0.712435 0.263706 0.929272
Si Si4 0.077580 0.890285 0.303256
Si Si5 0.867775 0.104194 0.211349
Si Si6 0.648884 0.606531 0.444677
Si Si7 0.146645 0.304044 0.915592
O O1 0.500000 0.149422 0.500000
O O2 0.601534 0.160881 0.685082
O O3 0.732177 0.102074 0.389594
O O4 0.537351 0.000000 0.616591
O O5 0.342199 0.701252 0.174969
O O6 0.364333 0.670661 0.413507
O O7 0.576616 0.735794 0.113951
O O8 0.794641 0.170814 0.827023
O O9 0.809759 0.317313 0.960010
O O10 0.000000 0.861497 0.500000
O O11 0.978686 0.882492 0.246150
O O12 0.110988 0.000000 0.295964
O O13 0.858388 0.192353 0.117001
O O14 0.877939 0.000000 0.140049
O O15 0.500000 0.603818 0.500000
O O16 0.688941 0.500000 0.446341
O O17 0.748719 0.650132 0.262672
O O18 0.000000 0.340073 0.000000
#
# Coordination Sequence:
#
# PCOD9146707 Si02
#       7
#     4   4   4   4   4   4   4
#     4  10  19  33  57  86 119 162 211 259 302 359
#     4  11  22  41  64  92 129 162 215 263 316 396
#     4  11  24  37  60  96 127 167 207 266 324 367
#     4  10  21  37  56  86 131 180 225 256 304 376
#     4  10  20  34  56  87 121 170 217 252 297 364
#     4  11  24  46  74  95 121 166 216 262 326 404
#     4  12  23  40  66  98 132 167 211 272 317 379
#
# _framework density 19.556334
#
# number of rings (size 3 to 8) (size 9 to 14) (size 15 to 20)
#    0.000    1.286    4.286    2.143    0.000    3.429 
#    0.000    3.571    0.000    0.857    0.000    0.000 
#    0.000    0.000    0.000    0.000    0.000    0.000 
#
# Total GULP energy -156068.555718 kJ/mol
# GULP energy per Si atom -5573.876990 kJ/mol
# Density = 1.951182 g / cm^3
# Si number density = 19.556334 Si / 1000 Ang^3
#
#
#
# Elastic Constant Matrix: (Units=GPa)
#
#
# Indices 1 2 3 4 5 6 
#
# 1 107.9704 12.9744 38.8405 0.0000 -10.4692 0.0000
# 2 12.9744 61.4084 27.6246 0.0000 -1.8825 0.0000
# 3 38.8405 27.6246 105.8141 0.0000 -8.6498 0.0000
# 4 0.0000 0.0000 0.0000 -8.4691 0.0000 -3.1221
# 5 -10.4692 -1.8825 -8.6498 0.0000 30.3649 0.0000
# 6 0.0000 0.0000 0.0000 -3.1221 0.0000 -0.9965
#
#
#
# Elastic Compliance Matrix: (Units=1/GPa)
#
#
# Indices 1 2 3 4 5 6 
#
# 1 0.010898 -0.000589 -0.003627 0.000000 0.002688 0.000000
# 2 -0.000589 0.018485 -0.004641 0.000000 -0.000379 0.000000
# 3 -0.003627 -0.004641 0.012151 0.000000 0.001923 0.000000
# 4 0.000000 0.000000 0.000000 0.761910 0.000000 -2.387106
# 5 0.002688 -0.000379 0.001923 0.000000 0.034384 0.000000
# 6 0.000000 0.000000 0.000000 -2.387106 0.000000 6.475408
#
#
# Mechanical properties :
#
#
# Convention : Reuss Voigt Hill
#
# Bulk Modulus (GPa) = 41.97987 48.23021 45.10504
# Shear Modulus (GPa) = 0.68130 17.23009 8.95570
#
# Velocity S-wave (km/s) = 0.59088 2.97147 2.14228
# Velocity P-wave (km/s) = 4.68810 6.04058 5.40679
#
# Compressibility (1/GPa) = 0.02382094
#
# Stress axis : x y z
#
# Youngs Moduli (GPa) = 91.76134 54.09856 82.30079
#
# Poissons Ratio (x) = 0.03184 0.29849
# Poissons Ratio (y) = 0.05401 0.38193
# Poissons Ratio (z) = 0.33280 0.25106
#
# Static dielectric constant tensor:
#      x y z
#    x 1.717150 0.000000 -0.007040 
#    y 0.000000 1.698600 0.000000 
#    z -0.007040 0.000000 1.719390 
# 
# From -- ./inp_files/25164.got.cif
#   From: 2010.05.17/outbox.cif.g08.bks.cpg/sg10_13_cif.got.tgz:25164.got - 2010.06.03 11:33:40.
