data_PCOD9146421
_publ_section_title
;
Structure prediction by ZEFSAII (Michael W. Deem and Ramdas Pophale) SiO2 
 PCOD9146421
Probable space group: P 2/M
;
_chemical_formula_sum "Si O2"
_cell_formula_units_Z 32
_cell_length_a 14.102020
_cell_length_b 7.518381
_cell_length_c 33.286418
_cell_angle_alpha 90.000000
_cell_angle_beta 155.208993
_cell_angle_gamma 90.000000
_cell_volume 1479.815321
_symmetry_space_group_name_H-M "P 2/M"
_symmetry_group_IT_number 10
_symmetry_cell_setting 'monoclinic'
loop_
_space_group_symop_operation_xyz
x,y,z
-x,y,-z
-x,-y,-z
x,-y,z
loop_
_atom_site_type_symbol
_atom_site_label
_atom_site_fract_x
_atom_site_fract_y
_atom_site_fract_z
Si Si1 0.373461 0.282054 0.540686
Si Si2 0.488804 0.786807 0.162934
Si Si3 0.757219 0.712190 0.420893
Si Si4 0.875139 0.717946 0.707910
Si Si5 0.626502 0.785727 0.792081
Si Si6 0.748242 0.287811 0.084568
Si Si7 0.000001 0.712983 0.333335
Si Si8 0.876755 0.785730 0.042339
O O1 0.373099 0.500000 0.540651
O O2 0.318477 0.220616 0.564594
O O3 0.622235 0.226896 0.622233
O O4 0.180660 0.222107 0.435545
O O5 0.436396 0.719579 0.187599
O O6 0.744551 0.750356 0.248185
O O7 0.462814 0.000000 0.154271
O O8 0.310003 0.719576 0.061199
O O9 0.783096 0.500000 0.435461
O O10 0.566519 0.742164 0.314231
O O11 0.000000 0.783618 0.500000
O O12 0.875758 0.500000 0.708202
O O13 0.056830 0.779385 0.810709
O O14 0.945315 0.777892 0.690428
O O15 0.872323 0.720848 0.872320
O O16 0.638738 0.000000 0.798860
O O17 0.740191 0.500000 0.087827
O O18 0.809656 0.257837 0.061945
O O19 0.500000 0.216380 0.000000
O O20 0.025105 0.500000 0.341703
O O21 0.880892 0.000000 0.041017
#
# Coordination Sequence:
#
# PCOD9146421 Si02
#       8
#     4   4   4   4   4   4   4   4
#     4   9  17  30  50  76 105 137 171 208 253 303
#     4  10  21  37  55  75 103 136 168 210 266 316
#     4  10  20  34  53  79 110 140 171 212 261 309
#     4   9  17  30  50  76 105 137 171 208 253 303
#     4  10  21  37  56  77 102 136 177 216 256 308
#     4  10  20  34  53  79 110 140 171 212 261 309
#     4  10  19  33  55  79 101 130 174 218 250 296
#     4  10  21  37  56  77 102 136 177 216 256 308
#
# _framework density 21.624320000000001
#
# number of rings (size 3 to 8) (size 9 to 14) (size 15 to 20)
#    0.000    2.250    0.000    3.000    0.000    8.000 
#    0.000    1.250    0.000    5.250    0.000    0.000 
#    0.000    0.000    0.000    0.000    0.000    0.000 
#
# Total GULP energy -178890.544499 kJ/mol
# GULP energy per Si atom -5590.329516 kJ/mol
# Density = 2.157510 g / cm^3
# Si number density = 21.624320 Si / 1000 Ang^3
#
#
#
# Elastic Constant Matrix: (Units=GPa)
#
#
# Indices 1 2 3 4 5 6 
#
# 1 254.7569 -4.0361 156.8805 0.0000 2.3812 0.0000
# 2 -4.0361 52.7939 -3.6763 0.0000 1.0869 0.0000
# 3 156.8805 -3.6763 256.2837 0.0000 2.2986 0.0000
# 4 0.0000 0.0000 0.0000 18.1736 0.0000 -0.9096
# 5 2.3812 1.0869 2.2986 0.0000 49.0783 0.0000
# 6 0.0000 0.0000 0.0000 -0.9096 0.0000 18.4730
#
#
#
# Elastic Compliance Matrix: (Units=1/GPa)
#
#
# Indices 1 2 3 4 5 6 
#
# 1 0.006303 0.000216 -0.003854 0.000000 -0.000130 0.000000
# 2 0.000216 0.018977 0.000144 0.000000 -0.000438 0.000000
# 3 -0.003854 0.000144 0.006264 0.000000 -0.000110 0.000000
# 4 0.000000 0.000000 0.000000 0.055161 0.000000 0.002716
# 5 -0.000130 -0.000438 -0.000110 0.000000 0.020397 0.000000
# 6 0.000000 0.000000 0.000000 0.002716 0.000000 0.054267
#
#
# Mechanical properties :
#
#
# Convention : Reuss Voigt Hill
#
# Bulk Modulus (GPa) = 40.72276 95.79676 68.25976
# Shear Modulus (GPa) = 28.32169 44.78942 36.55555
#
# Velocity S-wave (km/s) = 3.62292 4.55604 4.11601
# Velocity P-wave (km/s) = 6.03105 8.48960 7.36366
#
# Compressibility (1/GPa) = 0.02455630
#
# Stress axis : x y z
#
# Youngs Moduli (GPa) = 158.64330 52.69500 159.63402
#
# Poissons Ratio (x) = -0.01139 0.61528
# Poissons Ratio (y) = -0.03430 -0.02296
# Poissons Ratio (z) = 0.61146 -0.00758
#
# Static dielectric constant tensor:
#      x y z
#    x 1.736780 0.000000 0.000110 
#    y 0.000000 1.844480 0.000000 
#    z 0.000110 0.000000 1.736820 
# 
# From -- ./inp_files/95063.got.cif
#   From: 2010.05.17/outbox.cif.g08.bks.cpg/sg10_48_cif.got.tgz:95063.got - 2010.06.03 11:33:40.
