data_PCOD9146885
_publ_section_title
;
Structure prediction by ZEFSAII (Michael W. Deem and Ramdas Pophale) SiO2 
 PCOD9146885
Probable space group: P 2/M
;
_chemical_formula_sum "Si O2"
_cell_formula_units_Z 30
_cell_length_a 15.071896
_cell_length_b 11.327755
_cell_length_c 12.366018
_cell_angle_alpha 90.000000
_cell_angle_beta 129.699181
_cell_angle_gamma 90.000000
_cell_volume 1624.421373
_symmetry_space_group_name_H-M "P 2/M"
_symmetry_group_IT_number 10
_symmetry_cell_setting 'monoclinic'
loop_
_space_group_symop_operation_xyz
x,y,z
-x,y,-z
-x,-y,-z
x,-y,z
loop_
_atom_site_type_symbol
_atom_site_label
_atom_site_fract_x
_atom_site_fract_y
_atom_site_fract_z
Si Si1 0.029677 0.366444 0.789107
Si Si2 0.000000 0.743457 0.000000
Si Si3 0.570393 0.860278 0.769077
Si Si4 0.631740 0.132884 0.063549
Si Si5 0.309779 0.858741 0.546928
Si Si6 0.232256 0.368502 0.785250
Si Si7 0.759519 0.857569 0.747939
Si Si8 0.099788 0.244040 0.504801
O O1 0.986490 0.500000 0.745215
O O2 0.157507 0.363387 0.837167
O O3 0.023904 0.328627 0.908759
O O4 0.956651 0.285100 0.651259
O O5 0.115499 0.817139 0.114857
O O6 0.627673 0.852974 0.930995
O O7 0.439548 0.812440 0.669177
O O8 0.657341 0.812274 0.746580
O O9 0.558285 0.000000 0.735343
O O10 0.680328 0.000000 0.126803
O O11 0.500000 0.130030 0.000000
O O12 0.690170 0.251073 0.154274
O O13 0.267865 0.819266 0.395674
O O14 0.213712 0.825757 0.559494
O O15 0.316042 0.000000 0.550735
O O16 0.285470 0.500000 0.819043
O O17 0.143601 0.350086 0.616330
O O18 0.757907 0.000000 0.748590
O O19 0.000000 0.182906 0.500000
#
# Coordination Sequence:
#
# PCOD9146885 Si02
#       8
#     4   2   4   4   4   4   4   4
#     4  10  21  37  55  78 105 142 188 233 282 340
#     4  12  20  34  56  82 112 140 178 234 290 348
#     4   9  18  33  54  78 109 153 195 229 275 340
#     4  10  20  35  55  83 116 149 186 235 293 344
#     4  10  19  34  54  80 112 148 192 236 279 338
#     4  10  21  37  58  81 111 150 193 236 280 339
#     4  10  20  33  52  80 114 148 184 229 283 343
#     4  10  20  36  55  79 110 145 188 236 285 337
#
# _framework density 18.468115999999998
#
# number of rings (size 3 to 8) (size 9 to 14) (size 15 to 20)
#    0.000    2.000    1.333    2.800    0.000    5.333 
#    0.000    2.667    0.000    0.000    0.000    0.933 
#    0.000    0.000    0.000    0.000    0.000    0.000 
#
# Total GULP energy -167116.824800 kJ/mol
# GULP energy per Si atom -5570.560827 kJ/mol
# Density = 1.842608 g / cm^3
# Si number density = 18.468116 Si / 1000 Ang^3
#
#
#
# Elastic Constant Matrix: (Units=GPa)
#
#
# Indices 1 2 3 4 5 6 
#
# 1 97.2301 20.1327 33.1951 0.0000 -10.7082 0.0000
# 2 20.1327 57.4839 29.1379 0.0000 5.8836 0.0000
# 3 33.1951 29.1379 75.1133 0.0000 -3.9030 0.0000
# 4 0.0000 0.0000 0.0000 13.7328 0.0000 -1.1659
# 5 -10.7082 5.8836 -3.9030 0.0000 38.2732 0.0000
# 6 0.0000 0.0000 0.0000 -1.1659 0.0000 18.7639
#
#
#
# Elastic Compliance Matrix: (Units=1/GPa)
#
#
# Indices 1 2 3 4 5 6 
#
# 1 0.012718 -0.002559 -0.004446 0.000000 0.003498 0.000000
# 2 -0.002559 0.022864 -0.008001 0.000000 -0.005047 0.000000
# 3 -0.004446 -0.008001 0.018479 0.000000 0.001870 0.000000
# 4 0.000000 0.000000 0.000000 0.073205 0.000000 0.004548
# 5 0.003498 -0.005047 0.001870 0.000000 0.028073 0.000000
# 6 0.000000 0.000000 0.000000 0.004548 0.000000 0.053577
#
#
# Mechanical properties :
#
#
# Convention : Reuss Voigt Hill
#
# Bulk Modulus (GPa) = 41.58036 43.86209 42.72122
# Shear Modulus (GPa) = 20.24750 23.97808 22.11279
#
# Velocity S-wave (km/s) = 3.31471 3.60717 3.46403
# Velocity P-wave (km/s) = 6.10027 6.41488 6.25955
#
# Compressibility (1/GPa) = 0.02404982
#
# Stress axis : x y z
#
# Youngs Moduli (GPa) = 78.62945 43.73599 54.11513
#
# Poissons Ratio (x) = 0.11190 0.24061
# Poissons Ratio (y) = 0.20118 0.43298
# Poissons Ratio (z) = 0.34960 0.34994
#
# Static dielectric constant tensor:
#      x y z
#    x 1.663320 0.000000 0.000960 
#    y 0.000000 1.632920 0.000000 
#    z 0.000960 0.000000 1.663790 
# 
# From -- ./inp_files/46758.got.cif
#   From: 2010.05.17/outbox.cif.g08.bks.cpg/sg10_24_cif.got.tgz:46758.got - 2010.06.03 11:33:40.
