data_PCOD9146989
_publ_section_title
;
Structure prediction by ZEFSAII (Michael W. Deem and Ramdas Pophale) SiO2 
 PCOD9146989
Probable space group: P 2/M
;
_chemical_formula_sum "Si O2"
_cell_formula_units_Z 32
_cell_length_a 9.248640
_cell_length_b 20.148208
_cell_length_c 10.273086
_cell_angle_alpha 90.000000
_cell_angle_beta 44.873351
_cell_angle_gamma 90.000000
_cell_volume 1350.635370
_symmetry_space_group_name_H-M "P 2/M"
_symmetry_group_IT_number 10
_symmetry_cell_setting 'monoclinic'
loop_
_space_group_symop_operation_xyz
x,y,z
-x,y,-z
-x,-y,-z
x,-y,z
loop_
_atom_site_type_symbol
_atom_site_label
_atom_site_fract_x
_atom_site_fract_y
_atom_site_fract_z
Si Si1 0.848311 0.927869 0.274433
Si Si2 0.494465 0.211977 0.278536
Si Si3 0.172178 0.216690 0.723503
Si Si4 0.500106 0.423302 0.676564
Si Si5 0.760709 0.428345 0.890476
Si Si6 0.239547 0.328124 0.339947
Si Si7 0.486326 0.929680 0.288614
Si Si8 0.886447 0.636407 0.209922
O O1 0.947048 0.854198 0.201382
O O2 0.675364 0.927356 0.271066
O O3 0.718403 0.930269 0.491208
O O4 0.958862 0.000000 0.192268
O O5 0.340034 0.208241 0.501558
O O6 0.711086 0.224874 0.211759
O O7 0.399105 0.268143 0.250181
O O8 0.494518 0.140089 0.211721
O O9 0.082063 0.289187 0.754327
O O10 0.543278 0.500000 0.616656
O O11 0.694801 0.377101 0.583377
O O12 0.340611 0.387591 0.681237
O O13 0.378793 0.424499 0.892633
O O14 0.732660 0.500000 0.843829
O O15 0.728284 0.369667 0.810907
O O16 0.991122 0.419791 0.792476
O O17 0.000000 0.308760 0.500000
O O18 0.496061 0.000000 0.211017
O O19 0.000000 0.640583 0.000000
#
# Coordination Sequence:
#
# PCOD9146989 Si02
#       8
#     4   4   4   4   4   4   4   4
#     4   7  10  17  35  64  96 127 157 193 237 284
#     4   9  17  28  47  70 102 136 159 196 249 300
#     4   9  15  28  47  71 101 131 163 200 247 293
#     4  10  21  39  59  75  95 128 170 212 254 299
#     4  10  22  39  57  75  98 130 169 213 255 298
#     4  12  23  35  51  77 108 135 163 202 254 309
#     4   7  10  19  37  64  93 124 163 198 231 280
#     4  10  19  34  56  77  95 124 168 214 250 295
#
# _framework density 23.692553
#
# number of rings (size 3 to 8) (size 9 to 14) (size 15 to 20)
#    0.000    2.750    1.250    4.125    0.000    3.500 
#    0.000    0.000    0.000    3.000    0.000    0.875 
#    0.000    3.000    0.000    0.000    0.000    1.000 
#
# Total GULP energy -178610.336259 kJ/mol
# GULP energy per Si atom -5581.573008 kJ/mol
# Density = 2.363863 g / cm^3
# Si number density = 23.692553 Si / 1000 Ang^3
#
#
#
# Elastic Constant Matrix: (Units=GPa)
#
#
# Indices 1 2 3 4 5 6 
#
# 1 73.0029 43.1613 4.1872 0.0000 -0.2712 0.0000
# 2 43.1613 223.8729 7.7165 0.0000 2.3975 0.0000
# 3 4.1872 7.7165 45.0126 0.0000 -5.8644 0.0000
# 4 0.0000 0.0000 0.0000 6.3740 0.0000 2.1207
# 5 -0.2712 2.3975 -5.8644 0.0000 20.5331 0.0000
# 6 0.0000 0.0000 0.0000 2.1207 0.0000 21.1075
#
#
#
# Elastic Compliance Matrix: (Units=1/GPa)
#
#
# Indices 1 2 3 4 5 6 
#
# 1 0.015501 -0.002961 -0.000896 0.000000 0.000295 0.000000
# 2 -0.002961 0.005071 -0.000702 0.000000 -0.000832 0.000000
# 3 -0.000896 -0.000702 0.023296 0.000000 0.006724 0.000000
# 4 0.000000 0.000000 0.000000 0.162312 0.000000 -0.016308
# 5 0.000295 -0.000832 0.006724 0.000000 0.050723 0.000000
# 6 0.000000 0.000000 0.000000 -0.016308 0.000000 0.049015
#
#
# Mechanical properties :
#
#
# Convention : Reuss Voigt Hill
#
# Bulk Modulus (GPa) = 28.77741 50.22428 39.50085
# Shear Modulus (GPa) = 15.30835 28.72450 22.01642
#
# Velocity S-wave (km/s) = 2.54466 3.48571 3.05168
# Velocity P-wave (km/s) = 4.56139 6.11920 5.39680
#
# Compressibility (1/GPa) = 0.03474948
#
# Stress axis : x y z
#
# Youngs Moduli (GPa) = 64.51173 197.20945 42.92635
#
# Poissons Ratio (x) = 0.58389 0.03846
# Poissons Ratio (y) = 0.19100 0.03014
# Poissons Ratio (z) = 0.05780 0.13848
#
# Static dielectric constant tensor:
#      x y z
#    x 1.883940 0.000000 0.020610 
#    y 0.000000 1.956850 0.000000 
#    z 0.020610 0.000000 1.977140 
# 
# From -- ./inp_files/43596.got.cif
#   From: 2010.05.17/outbox.cif.g08.bks.cpg/sg10_22_cif.got.tgz:43596.got - 2010.06.03 11:33:40.
