data_PCOD9146127
_publ_section_title
;
Structure prediction by ZEFSAII (Michael W. Deem and Ramdas Pophale) SiO2 
 PCOD9146127
Probable space group: P 2/M
;
_chemical_formula_sum "Si O2"
_cell_formula_units_Z 32
_cell_length_a 22.362795
_cell_length_b 11.001263
_cell_length_c 21.272303
_cell_angle_alpha 90.000000
_cell_angle_beta 159.835055
_cell_angle_gamma 90.000000
_cell_volume 1804.074991
_symmetry_space_group_name_H-M "P 2/M"
_symmetry_group_IT_number 10
_symmetry_cell_setting 'monoclinic'
loop_
_space_group_symop_operation_xyz
x,y,z
-x,y,-z
-x,-y,-z
x,-y,z
loop_
_atom_site_type_symbol
_atom_site_label
_atom_site_fract_x
_atom_site_fract_y
_atom_site_fract_z
Si Si1 0.184550 0.851095 0.848841
Si Si2 0.647446 0.859929 0.418263
Si Si3 0.948079 0.142253 0.149986
Si Si4 0.492185 0.363662 0.642977
Si Si5 0.558454 0.142018 0.183649
Si Si6 0.223463 0.636412 0.265418
Si Si7 0.095943 0.851695 0.531372
Si Si8 0.153357 0.702190 0.065177
O O1 0.153270 0.806854 0.889077
O O2 0.023333 0.819203 0.645732
O O3 0.192447 0.000000 0.858662
O O4 0.364718 0.806677 0.996640
O O5 0.539306 0.750417 0.342238
O O6 0.630133 0.854970 0.325827
O O7 0.846924 0.840218 0.635419
O O8 0.597037 0.000000 0.386537
O O9 0.915691 0.000000 0.118681
O O10 0.891137 0.190956 0.026665
O O11 0.447980 0.500000 0.623685
O O12 0.367285 0.340177 0.459613
O O13 0.689231 0.364917 0.813614
O O14 0.708039 0.193167 0.286301
O O15 0.538231 0.000000 0.145863
O O16 0.254542 0.500000 0.270533
O O17 0.218599 0.725495 0.200837
O O18 0.032440 0.638278 0.107703
O O19 0.000000 0.812360 0.500000
O O20 0.103305 0.000000 0.540030
#
# Coordination Sequence:
#
# PCOD9146127 Si02
#       8
#     4   4   4   4   4   4   4   4
#     4   9  16  27  43  63  89 128 170 206 247 300
#     4  10  19  35  55  75 102 139 176 213 259 309
#     4  10  19  33  52  73 100 135 175 214 256 309
#     4  11  22  36  56  81 104 131 169 214 262 311
#     4   9  16  27  45  65  91 129 170 207 248 299
#     4  10  21  37  53  73  99 130 168 208 254 316
#     4   9  16  25  38  61  96 133 168 206 246 294
#     4  11  20  34  54  74  96 129 166 208 256 305
#
# _framework density 17.737622000000002
#
# number of rings (size 3 to 8) (size 9 to 14) (size 15 to 20)
#    0.000    2.125    2.500    2.625    0.000    3.000 
#    0.000    4.375    0.000    1.500    0.000    0.000 
#    0.000    0.500    0.000    3.500    0.000    2.625 
#
# Total GULP energy -178186.294289 kJ/mol
# GULP energy per Si atom -5568.321697 kJ/mol
# Density = 1.769725 g / cm^3
# Si number density = 17.737622 Si / 1000 Ang^3
#
#
#
# Elastic Constant Matrix: (Units=GPa)
#
#
# Indices 1 2 3 4 5 6 
#
# 1 72.5508 22.4821 5.7302 0.0000 26.5248 0.0000
# 2 22.4821 32.7138 11.2650 0.0000 14.3302 0.0000
# 3 5.7302 11.2650 46.3856 0.0000 20.2284 0.0000
# 4 0.0000 0.0000 0.0000 31.0739 0.0000 35.8180
# 5 26.5248 14.3302 20.2284 0.0000 24.4642 0.0000
# 6 0.0000 0.0000 0.0000 35.8180 0.0000 46.3960
#
#
#
# Elastic Compliance Matrix: (Units=1/GPa)
#
#
# Indices 1 2 3 4 5 6 
#
# 1 0.030179 -0.008226 0.016324 0.000000 -0.041400 0.000000
# 2 -0.008226 0.043381 -0.003639 0.000000 -0.013482 0.000000
# 3 0.016324 -0.003639 0.042562 0.000000 -0.050760 0.000000
# 4 0.000000 0.000000 0.000000 0.292209 0.000000 -0.225587
# 5 -0.041400 -0.013482 -0.050760 0.000000 0.135632 0.000000
# 6 0.000000 0.000000 0.000000 -0.225587 0.000000 0.195708
#
#
# Mechanical properties :
#
#
# Convention : Reuss Voigt Hill
#
# Bulk Modulus (GPa) = 7.99755 25.62276 16.81015
# Shear Modulus (GPa) = 6.47306 27.86502 17.16904
#
# Velocity S-wave (km/s) = 1.91240 3.96783 3.11456
# Velocity P-wave (km/s) = 3.06512 5.95553 4.73621
#
# Compressibility (1/GPa) = 0.12503831
#
# Stress axis : x y z
#
# Youngs Moduli (GPa) = 33.13514 23.05176 23.49537
#
# Poissons Ratio (x) = 0.18963 -0.38354
# Poissons Ratio (y) = 0.27258 0.08551
# Poissons Ratio (z) = -0.54090 0.08390
#
# Static dielectric constant tensor:
#      x y z
#    x 1.627940 0.000000 0.022600 
#    y 0.000000 1.588150 0.000000 
#    z 0.022600 0.000000 1.644540 
# 
# From -- ./inp_files/86285.got.cif
#   From: 2010.05.17/outbox.cif.g08.bks.cpg/sg10_44_cif.got.tgz:86285.got - 2010.06.03 11:33:40.
