data_PCOD9146920
_publ_section_title
;
Structure prediction by ZEFSAII (Michael W. Deem and Ramdas Pophale) SiO2 
 PCOD9146920
Probable space group: P 2/M
;
_chemical_formula_sum "Si O2"
_cell_formula_units_Z 20
_cell_length_a 16.323707
_cell_length_b 8.844705
_cell_length_c 28.163492
_cell_angle_alpha 90.000000
_cell_angle_beta 16.092096
_cell_angle_gamma 90.000000
_cell_volume 1127.077662
_symmetry_space_group_name_H-M "P 2/M"
_symmetry_group_IT_number 10
_symmetry_cell_setting 'monoclinic'
loop_
_space_group_symop_operation_xyz
x,y,z
-x,y,-z
-x,-y,-z
x,-y,z
loop_
_atom_site_type_symbol
_atom_site_label
_atom_site_fract_x
_atom_site_fract_y
_atom_site_fract_z
Si Si1 0.629913 0.320305 0.540679
Si Si2 0.836665 0.173873 0.332635
Si Si3 0.415863 0.681997 0.241622
Si Si4 0.976832 0.319483 0.865062
Si Si5 0.809446 0.180576 0.540198
O O1 0.654699 0.500000 0.534209
O O2 0.829137 0.269369 0.385051
O O3 0.716288 0.233188 0.540014
O O4 0.290832 0.284710 0.715004
O O5 0.500000 0.179769 0.500000
O O6 0.031233 0.239147 0.181472
O O7 0.909531 0.000000 0.302083
O O8 0.391712 0.500000 0.258229
O O9 0.409112 0.752268 0.297977
O O10 0.128073 0.748699 0.375756
O O11 0.707077 0.720770 0.049576
O O12 0.971111 0.500000 0.860293
O O13 0.821374 0.000000 0.537271
#
# Coordination Sequence:
#
# PCOD9146920 Si02
#       5
#     4   4   4   4   4
#     4  10  19  34  55  78 105 137 173 212 253 301
#     4   9  17  30  50  77 108 138 167 205 256 307
#     4  10  20  37  57  76 101 136 175 212 256 308
#     4   9  19  34  55  80 104 134 173 213 253 303
#     4  11  22  36  53  76 105 137 173 212 259 308
#
# _framework density 17.745006
#
# number of rings (size 3 to 8) (size 9 to 14) (size 15 to 20)
#    0.000    2.200    0.000    4.800    0.000    5.600 
#    0.000    5.000    0.000    6.000    0.000    0.000 
#    0.000    0.000    0.000    0.000    0.000    0.000 
#
# Total GULP energy -111613.862501 kJ/mol
# GULP energy per Si atom -5580.693125 kJ/mol
# Density = 1.770462 g / cm^3
# Si number density = 17.745006 Si / 1000 Ang^3
#
#
#
# Elastic Constant Matrix: (Units=GPa)
#
#
# Indices 1 2 3 4 5 6 
#
# 1 79.1742 74.9973 135.8490 0.0000 44.5056 0.0000
# 2 74.9973 69.2415 -49.1464 0.0000 5.3402 0.0000
# 3 135.8490 -49.1464 -319.8521 0.0000 -24.3207 0.0000
# 4 0.0000 0.0000 0.0000 -7.4877 0.0000 -2.3651
# 5 44.5056 5.3402 -24.3207 0.0000 14.1388 0.0000
# 6 0.0000 0.0000 0.0000 -2.3651 0.0000 26.3632
#
#
#
# Elastic Compliance Matrix: (Units=1/GPa)
#
#
# Indices 1 2 3 4 5 6 
#
# 1 0.021281 -0.010314 0.013637 0.000000 -0.039634 0.000000
# 2 -0.010314 0.018957 -0.008151 0.000000 0.011284 0.000000
# 3 0.013637 -0.008151 0.006144 0.000000 -0.029278 0.000000
# 4 0.000000 0.000000 0.000000 -0.129873 0.000000 -0.011651
# 5 -0.039634 0.011284 -0.029278 0.000000 0.140862 0.000000
# 6 0.000000 0.000000 0.000000 -0.011651 0.000000 0.036886
#
#
# Mechanical properties :
#
#
# Convention : Reuss Voigt Hill
#
# Bulk Modulus (GPa) = 27.22885 16.88483 22.05684
# Shear Modulus (GPa) = 43.04551 -15.60622 13.71964
#
# Velocity S-wave (km/s) = 4.93057 -2.96881 2.78358
# Velocity P-wave (km/s) = 6.91316 1.48857 4.77368
#
# Compressibility (1/GPa) = 0.03672575
#
# Stress axis : x y z
#
# Youngs Moduli (GPa) = 46.99087 52.74991 162.75598
#
# Poissons Ratio (x) = 0.54405 -2.21948
# Poissons Ratio (y) = 0.48465 1.32668
# Poissons Ratio (z) = -0.64081 0.42998
#
# Static dielectric constant tensor:
#      x y z
#    x 1.585290 0.000000 0.003600 
#    y 0.000000 1.591930 0.000000 
#    z 0.003600 0.000000 1.601030 
# 
# From -- ./inp_files/22292.got.cif
#   From: 2010.05.17/outbox.cif.g08.bks.cpg/sg10_12_cif.got.tgz:22292.got - 2010.06.03 11:33:40.
