data_PCOD9146957
_publ_section_title
;
Structure prediction by ZEFSAII (Michael W. Deem and Ramdas Pophale) SiO2 
 PCOD9146957
Probable space group: P 2/M
;
_chemical_formula_sum "Si O2"
_cell_formula_units_Z 28
_cell_length_a 9.774352
_cell_length_b 8.557188
_cell_length_c 27.800419
_cell_angle_alpha 90.000000
_cell_angle_beta 139.684309
_cell_angle_gamma 90.000000
_cell_volume 1504.436093
_symmetry_space_group_name_H-M "P 2/M"
_symmetry_group_IT_number 10
_symmetry_cell_setting 'monoclinic'
loop_
_space_group_symop_operation_xyz
x,y,z
-x,y,-z
-x,-y,-z
x,-y,z
loop_
_atom_site_type_symbol
_atom_site_label
_atom_site_fract_x
_atom_site_fract_y
_atom_site_fract_z
Si Si1 0.632839 0.186932 0.716977
Si Si2 0.771172 0.679549 0.950082
Si Si3 0.861922 0.809614 0.417871
Si Si4 0.016864 0.314542 0.760221
Si Si5 0.572562 0.814677 0.072520
Si Si6 0.103406 0.818844 0.678455
Si Si7 0.544349 0.324176 0.787662
O O1 0.386022 0.233422 0.642497
O O2 0.801456 0.241149 0.723094
O O3 0.688930 0.269101 0.782545
O O4 0.640428 0.000000 0.723350
O O5 0.795653 0.500000 0.975040
O O6 0.624722 0.775908 0.946170
O O7 0.658646 0.670570 0.868692
O O8 0.000000 0.747380 0.000000
O O9 0.957171 0.759741 0.391460
O O10 0.000000 0.756214 0.500000
O O11 0.865949 0.000000 0.417912
O O12 0.008540 0.500000 0.761718
O O13 0.218634 0.257482 0.846092
O O14 0.040856 0.268078 0.710494
O O15 0.609921 0.000000 0.079534
O O16 0.500000 0.758241 0.000000
O O17 0.356300 0.799436 0.742345
O O18 0.042715 0.000000 0.666980
O O19 0.460938 0.500000 0.755421
#
# Coordination Sequence:
#
# PCOD9146957 Si02
#       7
#     4   4   4   4   4   4   4
#     4  10  21  36  58  86 116 150 191 239 285 335
#     4  10  22  38  56  81 111 147 190 232 281 342
#     4   8  16  34  61  91 118 146 186 234 284 339
#     4  12  24  39  59  82 115 157 196 239 288 347
#     4  11  25  42  59  84 114 148 193 245 298 344
#     4  10  19  34  59  86 113 148 189 236 282 333
#     4  10  19  34  55  81 111 147 188 233 282 338
#
# _framework density 18.611625
#
# number of rings (size 3 to 8) (size 9 to 14) (size 15 to 20)
#    0.000    1.857    1.429    3.857    2.000    2.000 
#    0.000    0.714    0.000   19.714    0.000    0.000 
#    0.000    0.000    0.000    0.000    0.000    0.000 
#
# Total GULP energy -156088.107930 kJ/mol
# GULP energy per Si atom -5574.575283 kJ/mol
# Density = 1.856926 g / cm^3
# Si number density = 18.611625 Si / 1000 Ang^3
#
#
#
# Elastic Constant Matrix: (Units=GPa)
#
#
# Indices 1 2 3 4 5 6 
#
# 1 132.0855 19.8781 55.9960 0.0000 -15.8826 0.0000
# 2 19.8781 54.2133 23.5408 0.0000 -7.7519 0.0000
# 3 55.9960 23.5408 86.7540 0.0000 -23.4590 0.0000
# 4 0.0000 0.0000 0.0000 1.1974 0.0000 0.8593
# 5 -15.8826 -7.7519 -23.4590 0.0000 28.3718 0.0000
# 6 0.0000 0.0000 0.0000 0.8593 0.0000 120.6381
#
#
#
# Elastic Compliance Matrix: (Units=1/GPa)
#
#
# Indices 1 2 3 4 5 6 
#
# 1 0.010475 -0.001017 -0.006407 0.000000 0.000288 0.000000
# 2 -0.001017 0.021046 -0.004705 0.000000 0.001290 0.000000
# 3 -0.006407 -0.004705 0.020120 0.000000 0.011764 0.000000
# 4 0.000000 0.000000 0.000000 0.839401 0.000000 -0.005979
# 5 0.000288 0.001290 0.011764 0.000000 0.045487 0.000000
# 6 0.000000 0.000000 0.000000 -0.005979 0.000000 0.008332
#
#
# Mechanical properties :
#
#
# Convention : Reuss Voigt Hill
#
# Bulk Modulus (GPa) = 36.52065 52.43140 44.47603
# Shear Modulus (GPa) = 5.11118 41.61732 23.36425
#
# Velocity S-wave (km/s) = 1.65897 4.73386 3.54695
# Velocity P-wave (km/s) = 4.83060 7.62311 6.38148
#
# Compressibility (1/GPa) = 0.02738177
#
# Stress axis : x y z
#
# Youngs Moduli (GPa) = 95.46715 47.51410 49.70131
#
# Poissons Ratio (x) = 0.04834 0.31844
# Poissons Ratio (y) = 0.09713 0.23386
# Poissons Ratio (z) = 0.61166 0.22357
#
# Static dielectric constant tensor:
#      x y z
#    x 1.650050 0.000000 -0.021060 
#    y 0.000000 1.652530 0.000000 
#    z -0.021060 0.000000 1.668510 
# 
# From -- ./inp_files/86661.got.cif
#   From: 2010.05.17/outbox.cif.g08.bks.cpg/sg10_44_cif.got.tgz:86661.got - 2010.06.03 11:33:40.
