data_PCOD9146245
_publ_section_title
;
Structure prediction by ZEFSAII (Michael W. Deem and Ramdas Pophale) SiO2 
 PCOD9146245
Probable space group: P 2/M
;
_chemical_formula_sum "Si O2"
_cell_formula_units_Z 25
_cell_length_a 13.540245
_cell_length_b 7.801067
_cell_length_c 15.598808
_cell_angle_alpha 90.000000
_cell_angle_beta 143.647547
_cell_angle_gamma 90.000000
_cell_volume 976.661454
_symmetry_space_group_name_H-M "P 2/M"
_symmetry_group_IT_number 10
_symmetry_cell_setting 'monoclinic'
loop_
_space_group_symop_operation_xyz
x,y,z
-x,y,-z
-x,-y,-z
x,-y,z
loop_
_atom_site_type_symbol
_atom_site_label
_atom_site_fract_x
_atom_site_fract_y
_atom_site_fract_z
Si Si1 0.694260 0.206825 0.624913
Si Si2 0.786309 0.301726 0.057843
Si Si3 0.396843 0.707683 0.804444
Si Si4 0.387570 0.701562 0.608193
Si Si5 0.237354 0.195709 0.147490
Si Si6 0.000000 0.500000 0.500000
Si Si7 0.912774 0.813421 0.314496
O O1 0.500000 0.263425 0.500000
O O2 0.732291 0.266224 0.555464
O O3 0.793745 0.268451 0.778608
O O4 0.698547 0.000000 0.630127
O O5 0.798576 0.500000 0.089832
O O6 0.902127 0.202571 0.204365
O O7 0.592085 0.252227 0.937430
O O8 0.819586 0.281848 0.980019
O O9 0.376987 0.500000 0.802995
O O10 0.329500 0.747873 0.662272
O O11 0.281854 0.800724 0.791492
O O12 0.430221 0.500000 0.641073
O O13 0.560701 0.800659 0.715557
O O14 0.181094 0.000000 0.104745
O O15 0.012859 0.651331 0.583676
O O16 0.982098 0.000000 0.385747
#
# Coordination Sequence:
#
# PCOD9146245 Si02
#       7
#     4   4   4   4   4   1   4
#     4   8  14  23  34  53  90 136 174 208 238 280
#     4  10  19  33  53  79 111 141 169 215 264 309
#     4   9  18  33  51  77 112 142 169 215 265 308
#     4   9  16  24  39  62  95 136 172 205 247 296
#     4   9  16  25  38  61  96 136 175 208 243 297
#     4  12  26  48  58  74 108 130 174 238 252 314
#     4  12  24  39  62  81 101 140 175 212 271 316
#
# _framework density 25.597404999999998
#
# number of rings (size 3 to 8) (size 9 to 14) (size 15 to 20)
#    0.000    2.400    1.600    4.080    0.000    9.280 
#    0.000    0.000    0.000    0.000    0.000    0.000 
#    0.000    2.560    0.000    6.880    0.000    1.440 
#
# Total GULP energy -139503.593896 kJ/mol
# GULP energy per Si atom -5580.143756 kJ/mol
# Density = 2.553914 g / cm^3
# Si number density = 25.597405 Si / 1000 Ang^3
#
#
#
# Elastic Constant Matrix: (Units=GPa)
#
#
# Indices 1 2 3 4 5 6 
#
# 1 46.6724 9.8336 86.6024 0.0000 -0.4747 0.0000
# 2 9.8336 111.1203 44.2569 0.0000 -8.6699 0.0000
# 3 86.6024 44.2569 116.4860 0.0000 -48.6767 0.0000
# 4 0.0000 0.0000 0.0000 21.6020 0.0000 -21.6612
# 5 -0.4747 -8.6699 -48.6767 0.0000 68.0386 0.0000
# 6 0.0000 0.0000 0.0000 -21.6612 0.0000 3.8580
#
#
#
# Elastic Compliance Matrix: (Units=1/GPa)
#
#
# Indices 1 2 3 4 5 6 
#
# 1 -0.018353 -0.006051 0.022207 0.000000 0.014989 0.000000
# 2 -0.006051 0.008841 0.002272 0.000000 0.002710 0.000000
# 3 0.022207 0.002272 -0.012272 0.000000 -0.008335 0.000000
# 4 0.000000 0.000000 0.000000 -0.009998 0.000000 -0.056137
# 5 0.014989 0.002710 -0.008335 0.000000 0.009184 0.000000
# 6 0.000000 0.000000 0.000000 -0.056137 0.000000 -0.055983
#
#
# Mechanical properties :
#
#
# Convention : Reuss Voigt Hill
#
# Bulk Modulus (GPa) = 66.34506 61.74050 64.04278
# Shear Modulus (GPa) = -45.28411 27.60544 -8.83933
#
# Velocity S-wave (km/s) = -4.21062 3.28753 -1.86030
# Velocity P-wave (km/s) = 1.52835 6.21150 4.52319
#
# Compressibility (1/GPa) = 0.01507271
#
# Stress axis : x y z
#
# Youngs Moduli (GPa) = -54.48553 113.10580 -81.48708
#
# Poissons Ratio (x) = 0.68441 1.80962
# Poissons Ratio (y) = -0.32970 0.18514
# Poissons Ratio (z) = 1.20999 -0.25698
#
# Static dielectric constant tensor:
#      x y z
#    x 2.076220 0.000000 0.027900 
#    y 0.000000 1.913070 0.000000 
#    z 0.027900 0.000000 2.060320 
# 
# From -- ./inp_files/66704.got.cif
#   From: 2010.05.17/outbox.cif.g08.bks.cpg/sg10_34_cif.got.tgz:66704.got - 2010.06.03 11:33:40.
