data_PCOD9146069
_publ_section_title
;
Structure prediction by ZEFSAII (Michael W. Deem and Ramdas Pophale) SiO2 
 PCOD9146069
Probable space group: P 2/M
;
_chemical_formula_sum "Si O2"
_cell_formula_units_Z 26
_cell_length_a 15.429087
_cell_length_b 8.499669
_cell_length_c 16.578845
_cell_angle_alpha 90.000000
_cell_angle_beta 37.710969
_cell_angle_gamma 90.000000
_cell_volume 1329.902284
_symmetry_space_group_name_H-M "P 2/M"
_symmetry_group_IT_number 10
_symmetry_cell_setting 'monoclinic'
loop_
_space_group_symop_operation_xyz
x,y,z
-x,y,-z
-x,-y,-z
x,-y,z
loop_
_atom_site_type_symbol
_atom_site_label
_atom_site_fract_x
_atom_site_fract_y
_atom_site_fract_z
Si Si1 0.668255 0.500000 0.724277
Si Si2 0.672859 0.777474 0.592788
Si Si3 0.014692 0.168501 0.586294
Si Si4 0.875725 0.500000 0.719396
Si Si5 0.350131 0.174093 0.871567
Si Si6 0.347747 0.689370 0.577966
Si Si7 0.646794 0.500000 0.028234
Si Si8 0.833200 0.688515 0.135962
O O1 0.673238 0.640527 0.658351
O O2 0.795452 0.500000 0.692860
O O3 0.516632 0.500000 0.879769
O O4 0.514380 0.839824 0.724521
O O5 0.678184 0.743039 0.493775
O O6 0.823658 0.848577 0.504984
O O7 0.960072 0.334896 0.661659
O O8 0.000000 0.180859 0.500000
O O9 0.941915 0.000000 0.662352
O O10 0.759079 0.500000 0.874699
O O11 0.335267 0.334592 0.935826
O O12 0.255509 0.212746 0.863198
O O13 0.310720 0.000000 0.934885
O O14 0.500000 0.745753 0.500000
O O15 0.355342 0.500000 0.569019
O O16 0.224909 0.729750 0.732302
O O17 0.804975 0.500000 0.144854
O O18 0.000000 0.713126 0.000000
#
# Coordination Sequence:
#
# PCOD9146069 Si02
#       8
#     2   4   4   2   4   4   2   4
#     4  10  20  38  66  93 126 172 222 270 332 391
#     4  11  20  38  64  97 132 169 219 271 330 389
#     4  11  24  41  65  97 132 169 213 270 331 392
#     4  12  23  44  65  93 130 174 220 271 329 404
#     4  11  23  42  67  93 126 171 219 269 330 394
#     4  10  19  32  61  97 128 166 217 270 318 386
#     4  10  25  41  66  92 128 168 220 275 326 387
#     4  10  21  39  61  91 134 172 217 267 331 391
#
# _framework density 19.55031
#
# number of rings (size 3 to 8) (size 9 to 14) (size 15 to 20)
#    0.000    1.385    4.615    1.385    0.000    2.154 
#    0.000    2.308    0.000    2.769    0.000    0.000 
#    0.000    0.000    0.000    0.000    0.000    0.000 
#
# Total GULP energy -144747.895763 kJ/mol
# GULP energy per Si atom -5567.226760 kJ/mol
# Density = 1.950581 g / cm^3
# Si number density = 19.550310 Si / 1000 Ang^3
#
#
#
# Elastic Constant Matrix: (Units=GPa)
#
#
# Indices 1 2 3 4 5 6 
#
# 1 130.9327 41.9310 47.3481 0.0000 -8.8499 0.0000
# 2 41.9310 143.7238 59.8699 0.0000 -11.6814 0.0000
# 3 47.3481 59.8699 107.2348 0.0000 -5.4663 0.0000
# 4 0.0000 0.0000 0.0000 35.8678 0.0000 67.8376
# 5 -8.8499 -11.6814 -5.4663 0.0000 20.4648 0.0000
# 6 0.0000 0.0000 0.0000 67.8376 0.0000 12.8171
#
#
#
# Elastic Compliance Matrix: (Units=1/GPa)
#
#
# Indices 1 2 3 4 5 6 
#
# 1 0.009394 -0.001123 -0.003393 0.000000 0.002515 0.000000
# 2 -0.001123 0.009514 -0.004627 0.000000 0.003709 0.000000
# 3 -0.003393 -0.004627 0.013379 0.000000 -0.000534 0.000000
# 4 0.000000 0.000000 0.000000 -0.003094 0.000000 0.016377
# 5 0.002515 0.003709 -0.000534 0.000000 0.051926 0.000000
# 6 0.000000 0.000000 0.000000 0.016377 0.000000 -0.008659
#
#
# Mechanical properties :
#
#
# Convention : Reuss Voigt Hill
#
# Bulk Modulus (GPa) = 71.41604 75.57659 73.49631
# Shear Modulus (GPa) = 52.40351 29.34608 40.87480
#
# Velocity S-wave (km/s) = 5.18292 3.87855 4.57743
# Velocity P-wave (km/s) = 8.51032 7.66805 8.10014
#
# Compressibility (1/GPa) = 0.01400246
#
# Stress axis : x y z
#
# Youngs Moduli (GPa) = 106.45095 105.10465 74.74225
#
# Poissons Ratio (x) = 0.11803 0.25357
# Poissons Ratio (y) = 0.11955 0.34583
# Poissons Ratio (z) = 0.36114 0.48632
#
# Static dielectric constant tensor:
#      x y z
#    x 1.649940 0.000000 -0.020340 
#    y 0.000000 1.767450 0.000000 
#    z -0.020340 0.000000 1.670080 
# 
# From -- ./inp_files/66847.got.cif
#   From: 2010.05.17/outbox.cif.g08.bks.cpg/sg10_34_cif.got.tgz:66847.got - 2010.06.03 11:33:40.
