data_PCOD9146144
_publ_section_title
;
Structure prediction by ZEFSAII (Michael W. Deem and Ramdas Pophale) SiO2 
 PCOD9146144
Probable space group: P 2/M
;
_chemical_formula_sum "Si O2"
_cell_formula_units_Z 32
_cell_length_a 8.903063
_cell_length_b 12.914714
_cell_length_c 12.971238
_cell_angle_alpha 90.000000
_cell_angle_beta 97.097471
_cell_angle_gamma 90.000000
_cell_volume 1480.011275
_symmetry_space_group_name_H-M "P 2/M"
_symmetry_group_IT_number 10
_symmetry_cell_setting 'monoclinic'
loop_
_space_group_symop_operation_xyz
x,y,z
-x,y,-z
-x,-y,-z
x,-y,z
loop_
_atom_site_type_symbol
_atom_site_label
_atom_site_fract_x
_atom_site_fract_y
_atom_site_fract_z
Si Si1 0.541667 0.112207 0.174379
Si Si2 0.567898 0.168790 0.610653
Si Si3 0.870745 0.216275 0.725587
Si Si4 0.148332 0.659862 0.953420
Si Si5 0.443348 0.615383 0.665038
Si Si6 0.631739 0.314032 0.865870
Si Si7 0.874895 0.115334 0.120257
Si Si8 0.107788 0.617417 0.708663
O O1 0.503780 0.121248 0.292140
O O2 0.455730 0.207793 0.115707
O O3 0.720404 0.120416 0.173126
O O4 0.489642 0.000000 0.131142
O O5 0.500000 0.126124 0.500000
O O6 0.748091 0.163373 0.641389
O O7 0.522609 0.290566 0.613316
O O8 0.771875 0.278998 0.803133
O O9 0.980241 0.138243 0.795813
O O10 0.978725 0.298382 0.677930
O O11 0.140714 0.785860 0.954965
O O12 0.144021 0.628093 0.834237
O O13 0.297311 0.631913 0.029409
O O14 0.000000 0.620885 0.000000
O O15 0.467019 0.500000 0.625543
O O16 0.518220 0.621445 0.785328
O O17 0.264587 0.635730 0.662340
O O18 0.881957 0.000000 0.075592
O O19 0.057045 0.500000 0.684168
#
# Coordination Sequence:
#
# PCOD9146144 Si02
#       8
#     4   4   4   4   4   4   4   4
#     4   9  20  37  55  76 105 141 173 208 261 315
#     4  10  21  37  59  83 103 128 166 217 264 311
#     4   9  18  35  53  77 103 136 172 210 262 312
#     4  11  20  34  46  80 110 137 182 223 257 285
#     4   9  20  37  55  76 105 141 173 208 261 315
#     4  10  19  33  52  75 107 142 178 221 255 294
#     4  10  20  35  54  75 106 144 176 211 256 306
#     4  10  20  35  54  75 106 144 176 211 256 306
#
# _framework density 21.621458000000001
#
# number of rings (size 3 to 8) (size 9 to 14) (size 15 to 20)
#    0.000    2.500    2.500    3.000    0.000    8.000 
#    0.000    5.000    0.000    3.000    0.000    0.000 
#    0.000    0.000    0.000    0.000    0.000    0.000 
#
# Total GULP energy -178706.619045 kJ/mol
# GULP energy per Si atom -5584.581845 kJ/mol
# Density = 2.157225 g / cm^3
# Si number density = 21.621458 Si / 1000 Ang^3
#
#
#
# Elastic Constant Matrix: (Units=GPa)
#
#
# Indices 1 2 3 4 5 6 
#
# 1 109.5173 17.4103 20.7660 0.0000 15.6705 0.0000
# 2 17.4103 88.7533 -12.9784 0.0000 -5.4215 0.0000
# 3 20.7660 -12.9784 62.6778 0.0000 18.8257 0.0000
# 4 0.0000 0.0000 0.0000 12.4321 0.0000 -100.4066
# 5 15.6705 -5.4215 18.8257 0.0000 16.0459 0.0000
# 6 0.0000 0.0000 0.0000 -100.4066 0.0000 412.0307
#
#
#
# Elastic Compliance Matrix: (Units=1/GPa)
#
#
# Indices 1 2 3 4 5 6 
#
# 1 0.011382 -0.003062 -0.001167 0.000000 -0.010781 0.000000
# 2 -0.003062 0.012473 0.002213 0.000000 0.004608 0.000000
# 3 -0.001167 0.002213 0.025065 0.000000 -0.027520 0.000000
# 4 0.000000 0.000000 0.000000 -0.083086 0.000000 -0.020247
# 5 -0.010781 0.004608 -0.027520 0.000000 0.106695 0.000000
# 6 0.000000 0.000000 0.000000 -0.020247 0.000000 -0.002507
#
#
# Mechanical properties :
#
#
# Convention : Reuss Voigt Hill
#
# Bulk Modulus (GPa) = 22.27725 34.59382 28.43554
# Shear Modulus (GPa) = 56.16974 103.81842 79.99408
#
# Velocity S-wave (km/s) = 5.10246 6.93690 6.08916
# Velocity P-wave (km/s) = 6.71112 8.95518 7.91311
#
# Compressibility (1/GPa) = 0.04488884
#
# Stress axis : x y z
#
# Youngs Moduli (GPa) = 87.86140 80.17379 39.89571
#
# Poissons Ratio (x) = 0.24548 0.04655
# Poissons Ratio (y) = 0.26902 -0.08829
# Poissons Ratio (z) = 0.10251 -0.17743
#
# Static dielectric constant tensor:
#      x y z
#    x 1.778150 0.000000 0.001030 
#    y 0.000000 1.817830 0.000000 
#    z 0.001030 0.000000 1.786510 
# 
# From -- ./inp_files/61560.got.cif
#   From: 2010.05.17/outbox.cif.g08.bks.cpg/sg10_31_cif.got.tgz:61560.got - 2010.06.03 11:33:40.
