data_PCOD9147048
_publ_section_title
;
Structure prediction by ZEFSAII (Michael W. Deem and Ramdas Pophale) SiO2 
 PCOD9147048
Probable space group: P 2/M
;
_chemical_formula_sum "Si O2"
_cell_formula_units_Z 30
_cell_length_a 13.240836
_cell_length_b 20.697645
_cell_length_c 10.930892
_cell_angle_alpha 90.000000
_cell_angle_beta 147.801554
_cell_angle_gamma 90.000000
_cell_volume 1596.245272
_symmetry_space_group_name_H-M "P 2/M"
_symmetry_group_IT_number 10
_symmetry_cell_setting 'monoclinic'
loop_
_space_group_symop_operation_xyz
x,y,z
-x,y,-z
-x,-y,-z
x,-y,z
loop_
_atom_site_type_symbol
_atom_site_label
_atom_site_fract_x
_atom_site_fract_y
_atom_site_fract_z
Si Si1 0.417382 0.193886 0.551029
Si Si2 0.890400 0.286664 0.691384
Si Si3 0.000000 0.387162 0.000000
Si Si4 0.326192 0.299621 0.055377
Si Si5 0.634735 0.428669 0.755629
Si Si6 0.775505 0.120050 0.279256
Si Si7 0.510360 0.926139 0.213702
Si Si8 0.219638 0.271253 0.684911
O O1 0.500000 0.198244 0.500000
O O2 0.205519 0.222660 0.350276
O O3 0.438485 0.122394 0.625529
O O4 0.544993 0.242257 0.762597
O O5 0.882672 0.341495 0.786582
O O6 0.780041 0.300324 0.450811
O O7 0.111672 0.282678 0.881071
O O8 0.849205 0.426079 0.924246
O O9 0.329327 0.301465 0.911618
O O10 0.382769 0.367909 0.172577
O O11 0.500000 0.420222 0.500000
O O12 0.596429 0.500000 0.769434
O O13 0.679425 0.078538 0.287393
O O14 0.732999 0.194920 0.269384
O O15 0.000000 0.112008 0.500000
O O16 0.671602 0.100975 0.047157
O O17 0.480546 0.000000 0.219699
O O18 0.000000 0.274619 0.500000
#
# Coordination Sequence:
#
# PCOD9147048 Si02
#       8
#     4   4   2   4   4   4   4   4
#     4  12  23  36  56  78 108 149 191 228 278 326
#     4  10  20  35  55  83 112 137 180 235 276 322
#     4  10  19  34  56  82 111 146 186 226 273 316
#     4  10  20  36  57  84 110 141 184 234 280 325
#     4  10  20  35  55  81 114 150 187 224 270 329
#     4  10  19  38  60  82 111 142 179 230 283 335
#     4  11  24  37  54  83 113 144 187 230 278 336
#     4   9  17  31  57  84 108 136 176 227 284 322
#
# _framework density 18.794104000000001
#
# number of rings (size 3 to 8) (size 9 to 14) (size 15 to 20)
#    0.000    1.733    2.667    3.800    0.000    1.867 
#    0.000    0.000    0.000   10.800    0.000    7.000 
#    0.000    0.000    0.000    0.000    0.000    0.267 
#
# Total GULP energy -167470.386538 kJ/mol
# GULP energy per Si atom -5582.346218 kJ/mol
# Density = 1.875133 g / cm^3
# Si number density = 18.794104 Si / 1000 Ang^3
#
#
#
# Elastic Constant Matrix: (Units=GPa)
#
#
# Indices 1 2 3 4 5 6 
#
# 1 71.7683 27.2944 26.9215 0.0000 -10.2782 0.0000
# 2 27.2944 125.2417 53.5693 0.0000 -19.4255 0.0000
# 3 26.9215 53.5693 85.6326 0.0000 -4.4165 0.0000
# 4 0.0000 0.0000 0.0000 6.1945 0.0000 0.1760
# 5 -10.2782 -19.4255 -4.4165 0.0000 36.9650 0.0000
# 6 0.0000 0.0000 0.0000 0.1760 0.0000 17.9269
#
#
#
# Elastic Compliance Matrix: (Units=1/GPa)
#
#
# Indices 1 2 3 4 5 6 
#
# 1 0.016484 -0.001258 -0.004219 0.000000 0.003419 0.000000
# 2 -0.001258 0.011976 -0.006832 0.000000 0.005128 0.000000
# 3 -0.004219 -0.006832 0.017138 0.000000 -0.002716 0.000000
# 4 0.000000 0.000000 0.000000 0.161478 0.000000 -0.001585
# 5 0.003419 0.005128 -0.002716 0.000000 0.030373 0.000000
# 6 0.000000 0.000000 0.000000 -0.001585 0.000000 0.055798
#
#
# Mechanical properties :
#
#
# Convention : Reuss Voigt Hill
#
# Bulk Modulus (GPa) = 47.66312 55.35700 51.51006
# Shear Modulus (GPa) = 15.39125 23.87445 19.63285
#
# Velocity S-wave (km/s) = 2.86482 3.56802 3.23558
# Velocity P-wave (km/s) = 6.02981 6.81856 6.43628
#
# Compressibility (1/GPa) = 0.02098058
#
# Stress axis : x y z
#
# Youngs Moduli (GPa) = 60.66363 83.49859 58.34895
#
# Poissons Ratio (x) = 0.10500 0.24620
# Poissons Ratio (y) = 0.07628 0.39865
# Poissons Ratio (z) = 0.25597 0.57048
#
# Static dielectric constant tensor:
#      x y z
#    x 1.690650 0.000000 0.035460 
#    y 0.000000 1.627150 0.000000 
#    z 0.035460 0.000000 1.689300 
# 
# From -- ./inp_files/51892.got.cif
#   From: 2010.05.17/outbox.cif.g08.bks.cpg/sg10_26_cif.got.tgz:51892.got - 2010.06.03 11:33:40.
