data_PCOD9147738
_publ_section_title
;
Structure prediction by ZEFSAII (Michael W. Deem and Ramdas Pophale) SiO2 
 PCOD9147738
Probable space group: P 2/M
;
_chemical_formula_sum "Si O2"
_cell_formula_units_Z 32
_cell_length_a 28.786113
_cell_length_b 7.872138
_cell_length_c 22.380609
_cell_angle_alpha 90.000000
_cell_angle_beta 18.759446
_cell_angle_gamma 90.000000
_cell_volume 1631.014003
_symmetry_space_group_name_H-M "P 2/M"
_symmetry_group_IT_number 10
_symmetry_cell_setting 'monoclinic'
loop_
_space_group_symop_operation_xyz
x,y,z
-x,y,-z
-x,-y,-z
x,-y,z
loop_
_atom_site_type_symbol
_atom_site_label
_atom_site_fract_x
_atom_site_fract_y
_atom_site_fract_z
Si Si1 0.658812 0.200786 0.290808
Si Si2 0.162352 0.296235 0.179879
Si Si3 0.958245 0.297373 0.985781
Si Si4 0.351609 0.698126 0.305225
Si Si5 0.100648 0.708021 0.692003
Si Si6 0.801542 0.705508 0.995124
Si Si7 0.827404 0.198549 0.589833
Si Si8 0.676743 0.292738 0.896918
O O1 0.500000 0.270198 0.500000
O O2 0.792776 0.270541 0.166598
O O3 0.697393 0.232576 0.174457
O O4 0.657178 0.000000 0.303603
O O5 0.178602 0.500000 0.159681
O O6 0.241024 0.234318 0.143557
O O7 0.992804 0.257206 0.388964
O O8 0.224069 0.233825 0.041125
O O9 0.980879 0.500000 0.960144
O O10 0.000000 0.228042 0.000000
O O11 0.059368 0.232405 0.808602
O O12 0.372842 0.500000 0.294420
O O13 0.248560 0.770805 0.482537
O O14 0.262449 0.709517 0.352501
O O15 0.511389 0.768834 0.101526
O O16 0.104553 0.500000 0.687678
O O17 0.964368 0.754785 0.816309
O O18 0.795935 0.500000 0.002728
O O19 0.755523 0.231620 0.741413
O O20 0.822624 0.000000 0.581923
O O21 0.679245 0.500000 0.891686
#
# Coordination Sequence:
#
# PCOD9147738 Si02
#       8
#     4   4   4   4   4   4   4   4
#     4  10  21  36  54  79 114 151 185 218 260 319
#     4  10  20  38  59  82 109 138 179 227 272 325
#     4   9  18  34  56  85 113 140 179 227 274 314
#     4  10  19  36  58  79 106 141 182 225 270 320
#     4   8  14  29  54  79 104 135 173 219 263 311
#     4   9  17  33  58  82 105 138 182 229 270 310
#     4  12  24  36  55  80 107 144 186 222 267 323
#     4  10  22  37  56  81 108 141 179 222 279 329
#
# _framework density 19.619696000000001
#
# number of rings (size 3 to 8) (size 9 to 14) (size 15 to 20)
#    0.000    2.250    1.250    3.000    0.000    5.750 
#    2.250    0.000    0.000    0.000    0.000    0.000 
#    0.000    0.000    0.000    0.000    0.000    0.000 
#
# Total GULP energy -178569.577883 kJ/mol
# GULP energy per Si atom -5580.299309 kJ/mol
# Density = 1.957504 g / cm^3
# Si number density = 19.619696 Si / 1000 Ang^3
#
#
#
# Elastic Constant Matrix: (Units=GPa)
#
#
# Indices 1 2 3 4 5 6 
#
# 1 60.8873 15.5356 106.9243 0.0000 24.5671 0.0000
# 2 15.5356 1.1899 -34.4372 0.0000 -1.8600 0.0000
# 3 106.9243 -34.4372 110.4137 0.0000 6.3549 0.0000
# 4 0.0000 0.0000 0.0000 -675.1193 0.0000 -70.8613
# 5 24.5671 -1.8600 6.3549 0.0000 27.6742 0.0000
# 6 0.0000 0.0000 0.0000 -70.8613 0.0000 -22.8152
#
#
#
# Elastic Compliance Matrix: (Units=1/GPa)
#
#
# Indices 1 2 3 4 5 6 
#
# 1 0.005147 0.026299 0.003425 0.000000 -0.003588 0.000000
# 2 0.026299 0.029679 -0.015183 0.000000 -0.017865 0.000000
# 3 0.003425 -0.015183 0.001255 0.000000 -0.004349 0.000000
# 4 0.000000 0.000000 0.000000 -0.002198 0.000000 0.006826
# 5 -0.003588 -0.017865 -0.004349 0.000000 0.039118 0.000000
# 6 0.000000 0.000000 0.000000 0.006826 0.000000 -0.065030
#
#
# Mechanical properties :
#
#
# Convention : Reuss Voigt Hill
#
# Bulk Modulus (GPa) = 15.34632 38.72626 27.03629
# Shear Modulus (GPa) = 8183.11748 -128.42084 4027.34832
#
# Velocity S-wave (km/s) = 64.65232 -8.09921 45.35596
# Velocity P-wave (km/s) = 74.70656 8.22688 52.50423
#
# Compressibility (1/GPa) = 0.06516219
#
# Stress axis : x y z
#
# Youngs Moduli (GPa) = 194.28046 33.69416 796.69738
#
# Poissons Ratio (x) = -0.88614 -2.72835
# Poissons Ratio (y) = -5.10946 12.09662
# Poissons Ratio (z) = -0.66533 0.51159
#
# Static dielectric constant tensor:
#      x y z
#    x 1.702250 0.000000 0.006250 
#    y 0.000000 1.792830 0.000000 
#    z 0.006250 0.000000 1.684330 
# 
# From -- ./inp_files/86898.got.cif
#   From: 2010.05.17/outbox.cif.g08.bks.cpg/sg10_44_cif.got.tgz:86898.got - 2010.06.03 11:33:40.
