data_PCOD9147971
_publ_section_title
;
Structure prediction by ZEFSAII (Michael W. Deem and Ramdas Pophale) SiO2 
 PCOD9147971
Probable space group: P 2/M
;
_chemical_formula_sum "Si O2"
_cell_formula_units_Z 24
_cell_length_a 11.663005
_cell_length_b 8.715130
_cell_length_c 21.972217
_cell_angle_alpha 90.000000
_cell_angle_beta 149.039337
_cell_angle_gamma 90.000000
_cell_volume 1148.949456
_symmetry_space_group_name_H-M "P 2/M"
_symmetry_group_IT_number 10
_symmetry_cell_setting 'monoclinic'
loop_
_space_group_symop_operation_xyz
x,y,z
-x,y,-z
-x,-y,-z
x,-y,z
loop_
_atom_site_type_symbol
_atom_site_label
_atom_site_fract_x
_atom_site_fract_y
_atom_site_fract_z
Si Si1 0.075676 0.682632 0.735706
Si Si2 0.616608 0.682010 0.459087
Si Si3 0.529136 0.179765 0.161362
Si Si4 0.150727 0.179787 0.255355
Si Si5 0.951483 0.318362 0.047985
Si Si6 0.734681 0.320479 0.373669
O O1 0.106199 0.500000 0.743829
O O2 0.287405 0.767005 0.803904
O O3 0.852513 0.725466 0.596122
O O4 0.019537 0.729668 0.778786
O O5 0.584104 0.500000 0.455445
O O6 0.402190 0.770431 0.385488
O O7 0.635156 0.705850 0.395039
O O8 0.302633 0.275452 0.053012
O O9 0.631975 0.217033 0.274494
O O10 0.481136 0.000000 0.133295
O O11 0.120482 0.000000 0.250216
O O12 0.103774 0.228271 0.164788
O O13 0.991382 0.500000 0.073059
O O14 0.000000 0.277097 0.000000
O O15 0.696324 0.500000 0.339591
O O16 0.000000 0.298745 0.500000
#
# Coordination Sequence:
#
# PCOD9147971 Si02
#       6
#     4   4   4   4   4   4
#     4  11  23  43  67  92 126 172 221 261 306 376
#     4  10  21  39  65  93 126 171 220 263 306 370
#     4  12  25  40  63  98 135 166 205 265 330 377
#     4  12  26  42  63  95 132 166 207 264 327 380
#     4  11  25  47  72  94 121 166 219 261 305 377
#     4  10  19  37  62  91 125 167 215 257 302 368
#
# _framework density 20.888646999999999
#
# number of rings (size 3 to 8) (size 9 to 14) (size 15 to 20)
#    0.000    1.000    1.667    5.500    0.000   10.333 
#    0.000    3.333    0.000    0.000    0.000    0.000 
#    0.000    0.000    0.000    0.000    0.000    0.000 
#
# Total GULP energy -134372.903349 kJ/mol
# GULP energy per Si atom -5598.870973 kJ/mol
# Density = 2.084110 g / cm^3
# Si number density = 20.888647 Si / 1000 Ang^3
#
#
#
# Elastic Constant Matrix: (Units=GPa)
#
#
# Indices 1 2 3 4 5 6 
#
# 1 65.7224 3.1760 15.7668 0.0000 7.2493 0.0000
# 2 3.1760 15.6435 -1.3996 0.0000 0.2643 0.0000
# 3 15.7668 -1.3996 50.4663 0.0000 11.0100 0.0000
# 4 0.0000 0.0000 0.0000 203.3605 0.0000 -128.3111
# 5 7.2493 0.2643 11.0100 0.0000 27.7719 0.0000
# 6 0.0000 0.0000 0.0000 -128.3111 0.0000 66.2395
#
#
#
# Elastic Compliance Matrix: (Units=1/GPa)
#
#
# Indices 1 2 3 4 5 6 
#
# 1 0.016828 -0.003807 -0.004830 0.000000 -0.002441 0.000000
# 2 -0.003807 0.064998 0.003186 0.000000 -0.000888 0.000000
# 3 -0.004830 0.003186 0.023146 0.000000 -0.007946 0.000000
# 4 0.000000 0.000000 0.000000 -0.022130 0.000000 -0.042867
# 5 -0.002441 -0.000888 -0.007946 0.000000 0.039803 0.000000
# 6 0.000000 0.000000 0.000000 -0.042867 0.000000 -0.067940
#
#
# Mechanical properties :
#
#
# Convention : Reuss Voigt Hill
#
# Bulk Modulus (GPa) = 10.63066 18.54649 14.58858
# Shear Modulus (GPa) = 51.56528 67.09363 59.32946
#
# Velocity S-wave (km/s) = 4.97387 5.67357 5.33520
# Velocity P-wave (km/s) = 6.17139 7.19842 6.70460
#
# Compressibility (1/GPa) = 0.09406752
#
# Stress axis : x y z
#
# Youngs Moduli (GPa) = 59.42630 15.38521 43.20380
#
# Poissons Ratio (x) = 0.05858 0.20869
# Poissons Ratio (y) = 0.22625 -0.13764
# Poissons Ratio (z) = 0.28705 -0.04901
#
# Static dielectric constant tensor:
#      x y z
#    x 1.739550 0.000000 -0.014080 
#    y 0.000000 1.697700 0.000000 
#    z -0.014080 0.000000 1.749540 
# 
# From -- ./inp_files/88751.got.cif
#   From: 2010.05.17/outbox.cif.g08.bks.cpg/sg10_45_cif.got.tgz:88751.got - 2010.06.03 11:33:40.
