data_PCOD9147095
_publ_section_title
;
Structure prediction by ZEFSAII (Michael W. Deem and Ramdas Pophale) SiO2 
 PCOD9147095
Probable space group: P 2/M
;
_chemical_formula_sum "Si O2"
_cell_formula_units_Z 28
_cell_length_a 15.083203
_cell_length_b 7.599717
_cell_length_c 20.560746
_cell_angle_alpha 90.000000
_cell_angle_beta 32.439927
_cell_angle_gamma 90.000000
_cell_volume 1264.243739
_symmetry_space_group_name_H-M "P 2/M"
_symmetry_group_IT_number 10
_symmetry_cell_setting 'monoclinic'
loop_
_space_group_symop_operation_xyz
x,y,z
-x,y,-z
-x,-y,-z
x,-y,z
loop_
_atom_site_type_symbol
_atom_site_label
_atom_site_fract_x
_atom_site_fract_y
_atom_site_fract_z
Si Si1 0.520681 0.800418 0.776802
Si Si2 0.647318 0.699296 0.462146
Si Si3 0.846071 0.700020 0.634471
Si Si4 0.608147 0.288756 0.280964
Si Si5 0.113165 0.283681 0.793872
Si Si6 0.772650 0.712194 0.953808
Si Si7 0.312291 0.714342 0.133649
O O1 0.687304 0.694584 0.685622
O O2 0.413184 0.747619 0.781044
O O3 0.400126 0.780240 0.912555
O O4 0.573066 0.000000 0.736609
O O5 0.500000 0.687079 0.500000
O O6 0.698567 0.500000 0.448475
O O7 0.554698 0.782149 0.580674
O O8 0.795702 0.777496 0.328720
O O9 0.898479 0.500000 0.618662
O O10 0.773816 0.778960 0.746662
O O11 0.000000 0.781561 0.500000
O O12 0.605672 0.500000 0.291588
O O13 0.774403 0.227263 0.214689
O O14 0.115634 0.500000 0.792033
O O15 0.924335 0.228236 0.904895
O O16 0.764514 0.500000 0.962504
O O17 0.792773 0.757708 0.865716
O O18 0.322372 0.500000 0.133497
O O19 0.500000 0.772082 0.000000
#
# Coordination Sequence:
#
# PCOD9147095 Si02
#       7
#     4   4   4   4   4   4   4
#     4  12  25  38  52  75 111 152 191 227 276 330
#     4   7  11  23  46  76 104 128 165 222 281 329
#     4  10  21  39  64  92 115 139 179 230 282 337
#     4   9  17  32  55  80 110 146 184 226 276 332
#     4   8  15  28  52  86 112 136 178 234 282 323
#     4  10  19  34  57  80 107 143 188 232 276 332
#     4   9  16  31  58  87 113 140 174 223 281 333
#
# _framework density 22.147628999999998
#
# number of rings (size 3 to 8) (size 9 to 14) (size 15 to 20)
#    0.000    2.714    1.429    3.000    0.000    2.000 
#    0.000    9.286    0.000    6.429    0.000    0.000 
#    0.000    0.000    0.000    0.000    0.000    0.000 
#
# Total GULP energy -156071.532379 kJ/mol
# GULP energy per Si atom -5573.983299 kJ/mol
# Density = 2.209722 g / cm^3
# Si number density = 22.147629 Si / 1000 Ang^3
#
#
#
# Elastic Constant Matrix: (Units=GPa)
#
#
# Indices 1 2 3 4 5 6 
#
# 1 111.1650 5.0983 54.3359 0.0000 9.1282 0.0000
# 2 5.0983 47.7098 2.3447 0.0000 -0.7079 0.0000
# 3 54.3359 2.3447 137.4525 0.0000 0.0538 0.0000
# 4 0.0000 0.0000 0.0000 81.4453 0.0000 48.0474
# 5 9.1282 -0.7079 0.0538 0.0000 33.3675 0.0000
# 6 0.0000 0.0000 0.0000 48.0474 0.0000 -77.4816
#
#
#
# Elastic Compliance Matrix: (Units=1/GPa)
#
#
# Indices 1 2 3 4 5 6 
#
# 1 0.011521 -0.001055 -0.004535 0.000000 -0.003167 0.000000
# 2 -0.001055 0.021081 0.000057 0.000000 0.000736 0.000000
# 3 -0.004535 0.000057 0.009066 0.000000 0.001227 0.000000
# 4 0.000000 0.000000 0.000000 0.008990 0.000000 0.005575
# 5 -0.003167 0.000736 0.001227 0.000000 0.030849 0.000000
# 6 0.000000 0.000000 0.000000 0.005575 0.000000 -0.009449
#
#
# Mechanical properties :
#
#
# Convention : Reuss Voigt Hill
#
# Bulk Modulus (GPa) = 32.67740 46.65392 39.66566
# Shear Modulus (GPa) = 53.57674 23.10278 38.33976
#
# Velocity S-wave (km/s) = 4.92374 3.23325 4.16516
# Velocity P-wave (km/s) = 6.86372 5.92024 6.40937
#
# Compressibility (1/GPa) = 0.03060219
#
# Stress axis : x y z
#
# Youngs Moduli (GPa) = 86.80028 47.43626 110.29624
#
# Poissons Ratio (x) = 0.05006 0.50019
# Poissons Ratio (y) = 0.09159 -0.00631
# Poissons Ratio (z) = 0.39364 -0.00272
#
# Static dielectric constant tensor:
#      x y z
#    x 1.809690 0.000000 0.023200 
#    y 0.000000 1.861660 0.000000 
#    z 0.023200 0.000000 1.835450 
# 
# From -- ./inp_files/84897.got.cif
#   From: 2010.05.17/outbox.cif.g08.bks.cpg/sg10_43_cif.got.tgz:84897.got - 2010.06.03 11:33:40.
