data_PCOD9147428
_publ_section_title
;
Structure prediction by ZEFSAII (Michael W. Deem and Ramdas Pophale) SiO2 
 PCOD9147428
Probable space group: P 2/M
;
_chemical_formula_sum "Si O2"
_cell_formula_units_Z 32
_cell_length_a 15.194299
_cell_length_b 18.281498
_cell_length_c 20.579806
_cell_angle_alpha 90.000000
_cell_angle_beta 161.474262
_cell_angle_gamma 90.000000
_cell_volume 1816.321815
_symmetry_space_group_name_H-M "P 2/M"
_symmetry_group_IT_number 10
_symmetry_cell_setting 'monoclinic'
loop_
_space_group_symop_operation_xyz
x,y,z
-x,y,-z
-x,-y,-z
x,-y,z
loop_
_atom_site_type_symbol
_atom_site_label
_atom_site_fract_x
_atom_site_fract_y
_atom_site_fract_z
Si Si1 0.227452 0.842470 0.954550
Si Si2 0.772482 0.917960 0.285715
Si Si3 0.948041 0.306558 0.123413
Si Si4 0.789215 0.918774 0.740719
Si Si5 0.826839 0.213266 0.224566
Si Si6 0.250017 0.771724 0.222723
Si Si7 0.737437 0.585825 0.866158
Si Si8 0.242003 0.681807 0.465337
O O1 0.260480 0.761975 0.010165
O O2 0.112113 0.821449 0.803157
O O3 0.021417 0.888914 0.854232
O O4 0.496856 0.889241 0.127938
O O5 0.858499 0.853647 0.296554
O O6 0.000000 0.923134 0.500000
O O7 0.733529 0.000000 0.229717
O O8 0.188025 0.268678 0.247584
O O9 0.073703 0.333356 0.280249
O O10 0.814487 0.368582 0.984886
O O11 0.500000 0.920035 0.500000
O O12 0.758349 0.858041 0.773838
O O13 0.854559 0.000000 0.809504
O O14 0.025974 0.283962 0.366131
O O15 0.500000 0.234174 0.000000
O O16 0.538799 0.745511 0.397543
O O17 0.000000 0.751107 0.000000
O O18 0.705681 0.500000 0.857541
O O19 0.451380 0.618234 0.635781
O O20 0.000000 0.592676 0.000000
#
# Coordination Sequence:
#
# PCOD9147428 Si02
#       8
#     4   4   4   4   4   4   4   4
#     4   9  19  34  54  74  99 144 187 221 276 322
#     4  10  21  34  50  78 111 141 181 238 290 323
#     4  10  19  35  56  81 113 145 185 219 262 327
#     4  10  20  32  47  71 103 141 186 228 269 325
#     4   9  20  35  53  80 101 140 196 231 269 325
#     4  11  19  32  52  77 106 142 187 222 267 329
#     4  11  23  37  56  91 121 144 177 214 273 342
#     4  11  20  36  60  79 110 151 183 221 274 322
#
# _framework density 17.618022
#
# number of rings (size 3 to 8) (size 9 to 14) (size 15 to 20)
#    0.000    1.875    2.500    3.000    1.750    3.500 
#    0.000    1.875    0.000    0.375    0.000   10.500 
#    0.000    0.000    0.000    0.000    0.000    0.000 
#
# Total GULP energy -178298.908568 kJ/mol
# GULP energy per Si atom -5571.840893 kJ/mol
# Density = 1.757792 g / cm^3
# Si number density = 17.618022 Si / 1000 Ang^3
#
#
#
# Elastic Constant Matrix: (Units=GPa)
#
#
# Indices 1 2 3 4 5 6 
#
# 1 52.2368 46.8306 14.8303 0.0000 -4.9571 0.0000
# 2 46.8306 150.8572 44.1057 0.0000 -6.7204 0.0000
# 3 14.8303 44.1057 59.8342 0.0000 -15.4624 0.0000
# 4 0.0000 0.0000 0.0000 695.4396 0.0000 -107.6142
# 5 -4.9571 -6.7204 -15.4624 0.0000 16.8708 0.0000
# 6 0.0000 0.0000 0.0000 -107.6142 0.0000 38.3707
#
#
#
# Elastic Compliance Matrix: (Units=1/GPa)
#
#
# Indices 1 2 3 4 5 6 
#
# 1 0.026909 -0.008376 0.000898 0.000000 0.005393 0.000000
# 2 -0.008376 0.011180 -0.007404 0.000000 -0.004793 0.000000
# 3 0.000898 -0.007404 0.027850 0.000000 0.022840 0.000000
# 4 0.000000 0.000000 0.000000 0.002540 0.000000 0.007125
# 5 0.005393 -0.004793 0.022840 0.000000 0.079883 0.000000
# 6 0.000000 0.000000 0.000000 0.007125 0.000000 0.046044
#
#
# Mechanical properties :
#
#
# Convention : Reuss Voigt Hill
#
# Bulk Modulus (GPa) = 27.64223 52.71793 40.18008
# Shear Modulus (GPa) = 21.16593 160.61364 90.88979
#
# Velocity S-wave (km/s) = 3.46985 9.55836 7.19035
# Velocity P-wave (km/s) = 5.63711 12.32088 9.58074
#
# Compressibility (1/GPa) = 0.03617653
#
# Stress axis : x y z
#
# Youngs Moduli (GPa) = 37.16182 89.44562 35.90652
#
# Poissons Ratio (x) = 0.74918 -0.03225
# Poissons Ratio (y) = 0.31126 0.26584
# Poissons Ratio (z) = -0.03338 0.66224
#
# Static dielectric constant tensor:
#      x y z
#    x 1.611200 0.000000 -0.044390 
#    y 0.000000 1.632740 0.000000 
#    z -0.044390 0.000000 1.394620 
# 
# From -- ./inp_files/85510.got.cif
#   From: 2010.05.17/outbox.cif.g08.bks.cpg/sg10_43_cif.got.tgz:85510.got - 2010.06.03 11:33:40.
