data_PCOD9147304
_publ_section_title
;
Structure prediction by ZEFSAII (Michael W. Deem and Ramdas Pophale) SiO2 
 PCOD9147304
Probable space group: P 2/M
;
_chemical_formula_sum "Si O2"
_cell_formula_units_Z 32
_cell_length_a 22.776058
_cell_length_b 8.777861
_cell_length_c 12.555062
_cell_angle_alpha 90.000000
_cell_angle_beta 143.648468
_cell_angle_gamma 90.000000
_cell_volume 1487.814341
_symmetry_space_group_name_H-M "P 2/M"
_symmetry_group_IT_number 10
_symmetry_cell_setting 'monoclinic'
loop_
_space_group_symop_operation_xyz
x,y,z
-x,y,-z
-x,-y,-z
x,-y,z
loop_
_atom_site_type_symbol
_atom_site_label
_atom_site_fract_x
_atom_site_fract_y
_atom_site_fract_z
Si Si1 0.397638 0.181116 0.903988
Si Si2 0.691224 0.683066 0.597404
Si Si3 0.161227 0.181526 0.785628
Si Si4 0.191929 0.319925 0.597244
Si Si5 0.324687 0.319261 0.178028
Si Si6 0.897520 0.182865 0.905430
Si Si7 0.521783 0.680788 0.771989
Si Si8 0.988764 0.817343 0.257377
O O1 0.411556 0.229581 0.046908
O O2 0.390483 0.000000 0.883732
O O3 0.500000 0.234411 0.000000
O O4 0.297207 0.254251 0.713928
O O5 0.692890 0.500000 0.593956
O O6 0.677610 0.725591 0.702126
O O7 0.796529 0.746587 0.714774
O O8 0.591841 0.734254 0.392161
O O9 0.176900 0.266774 0.697846
O O10 0.060703 0.222942 0.702165
O O11 0.160580 0.000000 0.764539
O O12 0.247683 0.225506 0.994361
O O13 0.194427 0.500000 0.594373
O O14 0.095662 0.255453 0.397513
O O15 0.299374 0.500000 0.134501
O O16 0.430938 0.302143 0.275961
O O17 0.890126 0.000000 0.886354
O O18 0.000000 0.230084 0.000000
O O19 0.914126 0.225476 0.053494
O O20 0.525961 0.500000 0.803843
O O21 0.999837 0.000000 0.270598
#
# Coordination Sequence:
#
# PCOD9147304 Si02
#       8
#     4   4   4   4   4   4   4   4
#     4  11  25  44  64  86 116 157 203 250 299 351
#     4  10  21  37  60  90 125 158 194 239 293 357
#     4  11  21  36  61  90 123 158 195 242 296 354
#     4  12  25  40  62  91 121 156 197 245 300 360
#     4  10  19  34  59  89 123 160 192 232 294 358
#     4  10  22  41  62  84 115 157 204 250 296 346
#     4  10  21  38  61  91 124 158 194 238 296 355
#     4  10  22  40  61  88 122 159 198 246 300 352
#
# _framework density 21.50806
#
# number of rings (size 3 to 8) (size 9 to 14) (size 15 to 20)
#    0.000    1.500    2.500    2.625    0.000    7.250 
#    0.000    3.750    0.000    2.250    0.000    0.000 
#    0.000    0.000    0.000    0.000    0.000    0.000 
#
# Total GULP energy -178925.263402 kJ/mol
# GULP energy per Si atom -5591.414481 kJ/mol
# Density = 2.145911 g / cm^3
# Si number density = 21.508060 Si / 1000 Ang^3
#
#
#
# Elastic Constant Matrix: (Units=GPa)
#
#
# Indices 1 2 3 4 5 6 
#
# 1 49.7477 5.9916 -1.9389 0.0000 25.5216 0.0000
# 2 5.9916 19.8266 20.0567 0.0000 15.0981 0.0000
# 3 -1.9389 20.0567 113.8715 0.0000 36.4150 0.0000
# 4 0.0000 0.0000 0.0000 19.1334 0.0000 5.5126
# 5 25.5216 15.0981 36.4150 0.0000 37.8898 0.0000
# 6 0.0000 0.0000 0.0000 5.5126 0.0000 34.1544
#
#
#
# Elastic Compliance Matrix: (Units=1/GPa)
#
#
# Indices 1 2 3 4 5 6 
#
# 1 0.042963 0.007418 0.013895 0.000000 -0.045249 0.000000
# 2 0.007418 0.075794 -0.002841 0.000000 -0.032468 0.000000
# 3 0.013895 -0.002841 0.017541 0.000000 -0.025086 0.000000
# 4 0.000000 0.000000 0.000000 0.054814 0.000000 -0.008847
# 5 -0.045249 -0.032468 -0.025086 0.000000 0.093918 0.000000
# 6 0.000000 0.000000 0.000000 -0.008847 0.000000 0.030707
#
#
# Mechanical properties :
#
#
# Convention : Reuss Voigt Hill
#
# Bulk Modulus (GPa) = 5.77222 25.74050 15.75636
# Shear Modulus (GPa) = 14.85705 28.85796 21.85750
#
# Velocity S-wave (km/s) = 2.63110 3.66693 3.19132
# Velocity P-wave (km/s) = 3.45250 5.47013 4.57396
#
# Compressibility (1/GPa) = 0.17324347
#
# Stress axis : x y z
#
# Youngs Moduli (GPa) = 23.27558 13.19359 57.00943
#
# Poissons Ratio (x) = -0.09786 -0.79217
# Poissons Ratio (y) = -0.17265 0.16194
# Poissons Ratio (z) = -0.32342 0.03748
#
# Static dielectric constant tensor:
#      x y z
#    x 1.827050 0.000000 0.015610 
#    y 0.000000 1.717670 0.000000 
#    z 0.015610 0.000000 1.764020 
# 
# From -- ./inp_files/71633.got.cif
#   From: 2010.05.17/outbox.cif.g08.bks.cpg/sg10_36_cif.got.tgz:71633.got - 2010.06.03 11:33:40.
