data_PCOD9147476
_publ_section_title
;
Structure prediction by ZEFSAII (Michael W. Deem and Ramdas Pophale) SiO2 
 PCOD9147476
Probable space group: P 2/M
;
_chemical_formula_sum "Si O2"
_cell_formula_units_Z 28
_cell_length_a 14.961903
_cell_length_b 7.690683
_cell_length_c 21.843966
_cell_angle_alpha 90.000000
_cell_angle_beta 150.730205
_cell_angle_gamma 90.000000
_cell_volume 1228.919382
_symmetry_space_group_name_H-M "P 2/M"
_symmetry_group_IT_number 10
_symmetry_cell_setting 'monoclinic'
loop_
_space_group_symop_operation_xyz
x,y,z
-x,y,-z
-x,-y,-z
x,-y,z
loop_
_atom_site_type_symbol
_atom_site_label
_atom_site_fract_x
_atom_site_fract_y
_atom_site_fract_z
Si Si1 0.096001 0.203370 0.261948
Si Si2 0.795229 0.300222 0.546461
Si Si3 0.259555 0.788174 0.021151
Si Si4 0.569120 0.787576 0.108753
Si Si5 0.417437 0.697420 0.368294
Si Si6 0.936950 0.201242 0.396369
Si Si7 0.218038 0.794898 0.130601
O O1 0.083442 0.294541 0.319739
O O2 0.292775 0.224654 0.347224
O O3 0.938370 0.267341 0.122103
O O4 0.063699 0.000000 0.253798
O O5 0.762299 0.500000 0.508510
O O6 0.606107 0.218777 0.457998
O O7 0.893476 0.209774 0.548942
O O8 0.254426 0.000000 0.021424
O O9 0.414275 0.740304 0.065523
O O10 0.291569 0.729439 0.109520
O O11 0.762862 0.726573 0.253708
O O12 0.579706 0.000000 0.111150
O O13 0.500000 0.729408 0.000000
O O14 0.460815 0.500000 0.411769
O O15 0.294871 0.699212 0.234695
O O16 0.000000 0.277060 0.500000
O O17 0.887688 0.000000 0.379713
O O18 0.263396 0.000000 0.165000
O O19 0.000000 0.782438 0.000000
#
# Coordination Sequence:
#
# PCOD9147476 Si02
#       7
#     4   4   4   4   4   4   4
#     4  11  21  38  63  91 118 150 196 246 295 349
#     4  11  25  42  59  82 119 163 199 238 298 359
#     4   9  18  32  56  87 117 148 184 238 301 352
#     4   9  17  32  56  86 118 149 185 241 308 357
#     4  11  24  39  56  83 121 161 200 238 290 359
#     4  10  22  39  62  92 117 148 204 260 299 350
#     4  10  19  35  57  84 116 151 196 244 291 345
#
# _framework density 22.784244000000001
#
# number of rings (size 3 to 8) (size 9 to 14) (size 15 to 20)
#    0.000    1.857    1.429    2.571    2.000    6.857 
#    0.000    0.000    0.000    4.714    0.000    0.000 
#    0.000    0.000    0.000    0.000    0.000    0.000 
#
# Total GULP energy -156394.171450 kJ/mol
# GULP energy per Si atom -5585.506123 kJ/mol
# Density = 2.273239 g / cm^3
# Si number density = 22.784244 Si / 1000 Ang^3
#
#
#
# Elastic Constant Matrix: (Units=GPa)
#
#
# Indices 1 2 3 4 5 6 
#
# 1 165.0279 3.9226 60.7575 0.0000 -25.3109 0.0000
# 2 3.9226 38.0431 8.2668 0.0000 -0.9793 0.0000
# 3 60.7575 8.2668 112.3200 0.0000 -15.4722 0.0000
# 4 0.0000 0.0000 0.0000 13.7972 0.0000 -11.6367
# 5 -25.3109 -0.9793 -15.4722 0.0000 41.7045 0.0000
# 6 0.0000 0.0000 0.0000 -11.6367 0.0000 68.2240
#
#
#
# Elastic Compliance Matrix: (Units=1/GPa)
#
#
# Indices 1 2 3 4 5 6 
#
# 1 0.008006 0.000103 -0.003866 0.000000 0.003427 0.000000
# 2 0.000103 0.026715 -0.002031 0.000000 -0.000064 0.000000
# 3 -0.003866 -0.002031 0.011397 0.000000 0.001834 0.000000
# 4 0.000000 0.000000 0.000000 0.084657 0.000000 0.014439
# 5 0.003427 -0.000064 0.001834 0.000000 0.026737 0.000000
# 6 0.000000 0.000000 0.000000 0.014439 0.000000 0.017120
#
#
# Mechanical properties :
#
#
# Convention : Reuss Voigt Hill
#
# Bulk Modulus (GPa) = 28.96060 51.25387 40.10724
# Shear Modulus (GPa) = 25.28702 40.90808 33.09755
#
# Velocity S-wave (km/s) = 3.33505 4.24188 3.81550
# Velocity P-wave (km/s) = 5.25057 6.82169 6.08704
#
# Compressibility (1/GPa) = 0.03452967
#
# Stress axis : x y z
#
# Youngs Moduli (GPa) = 124.90327 37.43215 87.74537
#
# Poissons Ratio (x) = -0.00385 0.33925
# Poissons Ratio (y) = -0.01285 0.17818
# Poissons Ratio (z) = 0.48291 0.07601
#
# Static dielectric constant tensor:
#      x y z
#    x 1.801260 0.000000 0.005450 
#    y 0.000000 1.858220 0.000000 
#    z 0.005450 0.000000 1.879550 
# 
# From -- ./inp_files/49620.got.cif
#   From: 2010.05.17/outbox.cif.g08.bks.cpg/sg10_25_cif.got.tgz:49620.got - 2010.06.03 11:33:40.
