data_PCOD9147564
_publ_section_title
;
Structure prediction by ZEFSAII (Michael W. Deem and Ramdas Pophale) SiO2 
 PCOD9147564
Probable space group: P 2/M
;
_chemical_formula_sum "Si O2"
_cell_formula_units_Z 24
_cell_length_a 14.706137
_cell_length_b 8.945369
_cell_length_c 15.298847
_cell_angle_alpha 90.000000
_cell_angle_beta 148.105406
_cell_angle_gamma 90.000000
_cell_volume 1063.369123
_symmetry_space_group_name_H-M "P 2/M"
_symmetry_group_IT_number 10
_symmetry_cell_setting 'monoclinic'
loop_
_space_group_symop_operation_xyz
x,y,z
-x,y,-z
-x,-y,-z
x,-y,z
loop_
_atom_site_type_symbol
_atom_site_label
_atom_site_fract_x
_atom_site_fract_y
_atom_site_fract_z
Si Si1 0.706747 0.320474 0.428933
Si Si2 0.077291 0.824240 0.702960
Si Si3 0.590870 0.675307 0.695132
Si Si4 0.351021 0.321214 0.812285
Si Si5 0.132964 0.170074 0.191084
Si Si6 0.145036 0.328432 0.926923
O O1 0.723789 0.500000 0.450835
O O2 0.891535 0.247469 0.568153
O O3 0.591081 0.268741 0.415992
O O4 0.612453 0.290744 0.259322
O O5 0.823728 0.755168 0.298292
O O6 0.181894 0.777426 0.875509
O O7 0.063575 0.000000 0.682815
O O8 0.578112 0.500000 0.660380
O O9 0.688243 0.766346 0.699765
O O10 0.717253 0.681622 0.882874
O O11 0.331638 0.500000 0.805440
O O12 0.500000 0.272066 0.000000
O O13 0.037533 0.278670 0.180794
O O14 0.147429 0.000000 0.235879
O O15 0.000000 0.166207 0.000000
O O16 0.139947 0.500000 0.892340
#
# Coordination Sequence:
#
# PCOD9147564 Si02
#       6
#     4   4   4   4   4   4
#     4  10  21  38  59  82 111 147 186 227 272 326
#     4  12  25  38  54  81 117 151 183 224 278 334
#     4   9  18  34  58  85 109 141 188 235 276 323
#     4  10  21  40  65  88 109 140 185 231 273 323
#     4   9  17  30  51  82 117 148 179 223 280 333
#     4  10  19  35  59  83 109 145 191 236 275 323
#
# _framework density 22.569773999999999
#
# number of rings (size 3 to 8) (size 9 to 14) (size 15 to 20)
#    0.000    2.000    0.000    4.000    0.000    9.000 
#    0.000    2.500    0.000    5.000    0.000    0.000 
#    0.000    0.000    0.000    0.000    0.000    0.000 
#
# Total GULP energy -134279.800473 kJ/mol
# GULP energy per Si atom -5594.991686 kJ/mol
# Density = 2.251840 g / cm^3
# Si number density = 22.569774 Si / 1000 Ang^3
#
#
#
# Elastic Constant Matrix: (Units=GPa)
#
#
# Indices 1 2 3 4 5 6 
#
# 1 137.5381 26.3146 22.3695 0.0000 20.5108 0.0000
# 2 26.3146 27.3092 8.0763 0.0000 8.0415 0.0000
# 3 22.3695 8.0763 73.7537 0.0000 5.2033 0.0000
# 4 0.0000 0.0000 0.0000 14.3711 0.0000 -11.9338
# 5 20.5108 8.0415 5.2033 0.0000 39.4985 0.0000
# 6 0.0000 0.0000 0.0000 -11.9338 0.0000 -54.3055
#
#
#
# Elastic Compliance Matrix: (Units=1/GPa)
#
#
# Indices 1 2 3 4 5 6 
#
# 1 0.009507 -0.007701 -0.001819 0.000000 -0.003129 0.000000
# 2 -0.007701 0.046241 -0.002368 0.000000 -0.005103 0.000000
# 3 -0.001819 -0.002368 0.014403 0.000000 -0.000471 0.000000
# 4 0.000000 0.000000 0.000000 0.058846 0.000000 -0.012931
# 5 -0.003129 -0.005103 -0.000471 0.000000 0.028043 0.000000
# 6 0.000000 0.000000 0.000000 -0.012931 0.000000 -0.015573
#
#
# Mechanical properties :
#
#
# Convention : Reuss Voigt Hill
#
# Bulk Modulus (GPa) = 21.56357 39.12464 30.34411
# Shear Modulus (GPa) = 27.66992 12.03552 19.85272
#
# Velocity S-wave (km/s) = 3.50519 2.31174 2.96905
# Velocity P-wave (km/s) = 5.09477 4.94956 5.02269
#
# Compressibility (1/GPa) = 0.04637450
#
# Stress axis : x y z
#
# Youngs Moduli (GPa) = 105.18951 21.62572 69.43031
#
# Poissons Ratio (x) = 0.16654 0.12632
# Poissons Ratio (y) = 0.81006 0.16440
# Poissons Ratio (z) = 0.19137 0.05121
#
# Static dielectric constant tensor:
#      x y z
#    x 1.811580 0.000000 -0.018940 
#    y 0.000000 1.749350 0.000000 
#    z -0.018940 0.000000 1.930810 
# 
# From -- ./inp_files/74184.got.cif
#   From: 2010.05.17/outbox.cif.g08.bks.cpg/sg10_38_cif.got.tgz:74184.got - 2010.06.03 11:33:40.
