data_PCOD9147888
_publ_section_title
;
Structure prediction by ZEFSAII (Michael W. Deem and Ramdas Pophale) SiO2 
 PCOD9147888
Probable space group: P 2/M
;
_chemical_formula_sum "Si O2"
_cell_formula_units_Z 24
_cell_length_a 19.694031
_cell_length_b 13.479967
_cell_length_c 8.895917
_cell_angle_alpha 90.000000
_cell_angle_beta 30.059080
_cell_angle_gamma 90.000000
_cell_volume 1182.929589
_symmetry_space_group_name_H-M "P 2/M"
_symmetry_group_IT_number 10
_symmetry_cell_setting 'monoclinic'
loop_
_space_group_symop_operation_xyz
x,y,z
-x,y,-z
-x,-y,-z
x,-y,z
loop_
_atom_site_type_symbol
_atom_site_label
_atom_site_fract_x
_atom_site_fract_y
_atom_site_fract_z
Si Si1 0.567307 0.614439 0.708176
Si Si2 0.300167 0.309756 0.097487
Si Si3 0.209250 0.288815 0.933517
Si Si4 0.572110 0.111994 0.014543
Si Si5 0.371548 0.109255 0.661609
Si Si6 0.036901 0.617412 0.756502
O O1 0.610928 0.500000 0.634432
O O2 0.688927 0.674151 0.394625
O O3 0.500000 0.639805 0.000000
O O4 0.440269 0.631746 0.842755
O O5 0.332705 0.196113 0.091820
O O6 0.189881 0.354130 0.422771
O O7 0.247104 0.324315 0.029137
O O8 0.237763 0.172196 0.901219
O O9 0.062265 0.322271 0.163355
O O10 0.632313 0.000000 0.882793
O O11 0.500000 0.144958 0.000000
O O12 0.440270 0.100202 0.370303
O O13 0.500000 0.160454 0.500000
O O14 0.351207 0.000000 0.769324
O O15 0.016085 0.500000 0.773554
O O16 0.000000 0.640086 0.000000
#
# Coordination Sequence:
#
# PCOD9147888 Si02
#       6
#     4   4   4   4   4   4
#     4  11  23  38  60  89 122 158 204 260 313 370
#     4  12  23  39  63  93 124 161 208 258 314 367
#     4  12  23  39  63  94 122 162 208 257 314 368
#     4  10  21  37  63  98 131 164 204 252 308 368
#     4  10  19  36  62  95 131 162 197 247 310 372
#     4  11  27  47  64  83 120 171 213 259 321 380
#
# _framework density 20.288611
#
# number of rings (size 3 to 8) (size 9 to 14) (size 15 to 20)
#    0.000    1.000    3.333    3.500    2.333    6.667 
#    0.000    0.833    0.000    3.000    0.000    0.000 
#    0.000    0.000    0.000    0.000    0.000    0.000 
#
# Total GULP energy -133761.850219 kJ/mol
# GULP energy per Si atom -5573.410426 kJ/mol
# Density = 2.024243 g / cm^3
# Si number density = 20.288611 Si / 1000 Ang^3
#
#
#
# Elastic Constant Matrix: (Units=GPa)
#
#
# Indices 1 2 3 4 5 6 
#
# 1 81.0084 12.5126 -13.5211 0.0000 5.2299 0.0000
# 2 12.5126 85.9396 -5.4175 0.0000 -4.0022 0.0000
# 3 -13.5211 -5.4175 49.5909 0.0000 0.2307 0.0000
# 4 0.0000 0.0000 0.0000 17.3675 0.0000 -2.8142
# 5 5.2299 -4.0022 0.2307 0.0000 36.7768 0.0000
# 6 0.0000 0.0000 0.0000 -2.8142 0.0000 5.0435
#
#
#
# Elastic Compliance Matrix: (Units=1/GPa)
#
#
# Indices 1 2 3 4 5 6 
#
# 1 0.013338 -0.001823 0.003447 0.000000 -0.002117 0.000000
# 2 -0.001823 0.012025 0.000809 0.000000 0.001563 0.000000
# 3 0.003447 0.000809 0.021196 0.000000 -0.000535 0.000000
# 4 0.000000 0.000000 0.000000 0.063302 0.000000 0.035321
# 5 -0.002117 0.001563 -0.000535 0.000000 0.027666 0.000000
# 6 0.000000 0.000000 0.000000 0.035321 0.000000 0.217984
#
#
# Mechanical properties :
#
#
# Convention : Reuss Voigt Hill
#
# Bulk Modulus (GPa) = 19.44542 22.63188 21.03865
# Shear Modulus (GPa) = 13.59485 26.70189 20.14837
#
# Velocity S-wave (km/s) = 2.59139 3.63175 3.15475
# Velocity P-wave (km/s) = 4.30801 5.36333 4.86437
#
# Compressibility (1/GPa) = 0.05142598
#
# Stress axis : x y z
#
# Youngs Moduli (GPa) = 74.97337 83.15771 47.17915
#
# Poissons Ratio (x) = 0.15162 -0.16264
# Poissons Ratio (y) = 0.13670 -0.03818
# Poissons Ratio (z) = -0.25846 -0.06730
#
# Static dielectric constant tensor:
#      x y z
#    x 1.813000 0.000000 0.062800 
#    y 0.000000 1.835760 0.000000 
#    z 0.062800 0.000000 1.695440 
# 
# From -- ./inp_files/32741.got.cif
#   From: 2010.05.17/outbox.cif.g08.bks.cpg/sg10_17_cif.got.tgz:32741.got - 2010.06.03 11:33:40.
