data_PCOD9147666
_publ_section_title
;
Structure prediction by ZEFSAII (Michael W. Deem and Ramdas Pophale) SiO2 
 PCOD9147666
Probable space group: P 2/M
;
_chemical_formula_sum "Si O2"
_cell_formula_units_Z 32
_cell_length_a 8.861464
_cell_length_b 14.331142
_cell_length_c 25.266245
_cell_angle_alpha 90.000000
_cell_angle_beta 150.959017
_cell_angle_gamma 90.000000
_cell_volume 1557.607954
_symmetry_space_group_name_H-M "P 2/M"
_symmetry_group_IT_number 10
_symmetry_cell_setting 'monoclinic'
loop_
_space_group_symop_operation_xyz
x,y,z
-x,y,-z
-x,-y,-z
x,-y,z
loop_
_atom_site_type_symbol
_atom_site_label
_atom_site_fract_x
_atom_site_fract_y
_atom_site_fract_z
Si Si1 0.490432 0.109887 0.934511
Si Si2 0.310367 0.103368 0.623052
Si Si3 0.710573 0.394142 0.116356
Si Si4 0.416960 0.387745 0.312693
Si Si5 0.588359 0.716001 0.472773
Si Si6 0.207841 0.104480 0.324422
Si Si7 0.337027 0.270326 0.084393
Si Si8 0.320102 0.737360 0.699745
O O1 0.697544 0.174848 0.960141
O O2 0.142470 0.120714 0.803418
O O3 0.572118 0.000000 0.957293
O O4 0.500000 0.137293 0.000000
O O5 0.574439 0.098676 0.660319
O O6 0.425308 0.167093 0.704851
O O7 0.000000 0.143279 0.500000
O O8 0.225761 0.000000 0.615845
O O9 0.749009 0.500000 0.147791
O O10 0.530962 0.335674 0.104694
O O11 0.052433 0.360967 0.204527
O O12 0.500000 0.394639 0.000000
O O13 0.448811 0.500000 0.321856
O O14 0.552313 0.342643 0.407847
O O15 0.567896 0.343217 0.306447
O O16 0.500000 0.663457 0.500000
O O17 0.360746 0.807107 0.400892
O O18 0.948663 0.741252 0.587603
O O19 0.219521 0.000000 0.353750
O O20 0.538769 0.265240 0.199200
O O21 0.000000 0.304615 0.000000
#
# Coordination Sequence:
#
# PCOD9147666 Si02
#       8
#     4   4   4   4   4   4   4   4
#     4  10  23  43  65  89 124 172 218 257 303 366
#     4  10  19  35  61  91 120 158 207 253 302 359
#     4  10  22  44  71  94 120 158 207 263 316 369
#     4  11  24  43  67  92 123 165 210 256 311 379
#     4  12  24  40  62  91 130 166 206 259 311 371
#     4  10  20  37  63  91 120 160 209 258 306 359
#     4  12  27  41  64  96 129 164 203 257 317 378
#     4  12  24  40  62  93 126 167 204 256 316 368
#
# _framework density 20.544322000000001
#
# number of rings (size 3 to 8) (size 9 to 14) (size 15 to 20)
#    0.000    1.125    2.500    3.750    1.750    3.000 
#    0.000    0.000    0.000    0.000    0.000    0.000 
#    0.000    0.000    0.000    0.000    0.000    0.000 
#
# Total GULP energy -178735.895165 kJ/mol
# GULP energy per Si atom -5585.496724 kJ/mol
# Density = 2.049756 g / cm^3
# Si number density = 20.544322 Si / 1000 Ang^3
#
#
#
# Elastic Constant Matrix: (Units=GPa)
#
#
# Indices 1 2 3 4 5 6 
#
# 1 100.8443 44.5503 17.5687 0.0000 -19.3290 0.0000
# 2 44.5503 78.3464 20.7762 0.0000 -18.1016 0.0000
# 3 17.5687 20.7762 79.1579 0.0000 -13.2282 0.0000
# 4 0.0000 0.0000 0.0000 20.9158 0.0000 5.7477
# 5 -19.3290 -18.1016 -13.2282 0.0000 40.7677 0.0000
# 6 0.0000 0.0000 0.0000 5.7477 0.0000 1.0276
#
#
#
# Elastic Compliance Matrix: (Units=1/GPa)
#
#
# Indices 1 2 3 4 5 6 
#
# 1 0.013681 -0.006850 -0.000701 0.000000 0.003218 0.000000
# 2 -0.006850 0.018280 -0.002605 0.000000 0.004023 0.000000
# 3 -0.000701 -0.002605 0.013982 0.000000 0.003048 0.000000
# 4 0.000000 0.000000 0.000000 -0.089028 0.000000 0.497957
# 5 0.003218 0.004023 0.003048 0.000000 0.028830 0.000000
# 6 0.000000 0.000000 0.000000 0.497957 0.000000 -1.812066
#
#
# Mechanical properties :
#
#
# Convention : Reuss Voigt Hill
#
# Bulk Modulus (GPa) = 39.01675 47.12655 43.07165
# Shear Modulus (GPa) = -2.78169 24.23912 10.72871
#
# Velocity S-wave (km/s) = -1.16488 3.43861 2.28770
# Velocity P-wave (km/s) = 4.15012 6.22529 5.29045
#
# Compressibility (1/GPa) = 0.02563002
#
# Stress axis : x y z
#
# Youngs Moduli (GPa) = 73.09176 54.70591 71.52283
#
# Poissons Ratio (x) = 0.37476 0.05012
# Poissons Ratio (y) = 0.50071 0.18632
# Poissons Ratio (z) = 0.05122 0.14251
#
# Static dielectric constant tensor:
#      x y z
#    x 1.718510 0.000000 0.052580 
#    y 0.000000 1.785690 0.000000 
#    z 0.052580 0.000000 1.726960 
# 
# From -- ./inp_files/88270.got.cif
#   From: 2010.05.17/outbox.cif.g08.bks.cpg/sg10_45_cif.got.tgz:88270.got - 2010.06.03 11:33:40.
