data_PCOD9147832
_publ_section_title
;
Structure prediction by ZEFSAII (Michael W. Deem and Ramdas Pophale) SiO2 
 PCOD9147832
Probable space group: P 2/M
;
_chemical_formula_sum "Si O2"
_cell_formula_units_Z 32
_cell_length_a 16.609358
_cell_length_b 8.988641
_cell_length_c 10.846728
_cell_angle_alpha 90.000000
_cell_angle_beta 93.567677
_cell_angle_gamma 90.000000
_cell_volume 1616.229943
_symmetry_space_group_name_H-M "P 2/M"
_symmetry_group_IT_number 10
_symmetry_cell_setting 'monoclinic'
loop_
_space_group_symop_operation_xyz
x,y,z
-x,y,-z
-x,-y,-z
x,-y,z
loop_
_atom_site_type_symbol
_atom_site_label
_atom_site_fract_x
_atom_site_fract_y
_atom_site_fract_z
Si Si1 0.772908 0.180386 0.353443
Si Si2 0.948222 0.821046 0.872694
Si Si3 0.618464 0.329885 0.963623
Si Si4 0.682807 0.821860 0.597108
Si Si5 0.224305 0.675656 0.166820
Si Si6 0.468960 0.673714 0.309934
Si Si7 0.616034 0.823746 0.210561
Si Si8 0.042688 0.181452 0.631899
O O1 0.730008 0.220146 0.477736
O O2 0.708114 0.225921 0.244399
O O3 0.864547 0.234424 0.352946
O O4 0.777705 0.000000 0.350111
O O5 0.862867 0.739768 0.870564
O O6 0.994194 0.776978 0.750823
O O7 0.935651 0.000000 0.866972
O O8 0.000000 0.788871 0.000000
O O9 0.605896 0.500000 0.004613
O O10 0.712003 0.306293 0.937989
O O11 0.571921 0.312392 0.830199
O O12 0.593306 0.222783 0.070460
O O13 0.737195 0.763231 0.714807
O O14 0.594366 0.751135 0.604991
O O15 0.675728 0.000000 0.601181
O O16 0.221548 0.500000 0.195526
O O17 0.476045 0.500000 0.339568
O O18 0.555241 0.749189 0.301303
O O19 0.611029 0.000000 0.225522
O O20 0.000000 0.228996 0.500000
O O21 0.043730 0.000000 0.629694
#
# Coordination Sequence:
#
# PCOD9147832 Si02
#       8
#     4   4   4   4   4   4   4   4
#     4   9  20  35  54  83 115 145 178 233 295 337
#     4  10  21  34  56  88 115 146 195 247 288 339
#     4   9  20  37  55  76 107 150 189 225 277 341
#     4  10  19  36  61  84 107 140 191 237 275 330
#     4  10  21  37  57  81 114 151 185 227 288 346
#     4  10  21  38  57  79 113 151 186 228 282 338
#     4  11  22  34  54  83 114 146 186 235 282 333
#     4   9  17  33  57  82 112 150 189 233 293 350
#
# _framework density 19.799164000000001
#
# number of rings (size 3 to 8) (size 9 to 14) (size 15 to 20)
#    0.000    2.250    0.000    3.375    1.750    7.250 
#    0.000    5.000    0.000    4.125    0.000    0.000 
#    0.000    0.000    0.000    0.000    0.000    0.000 
#
# Total GULP energy -178687.656453 kJ/mol
# GULP energy per Si atom -5583.989264 kJ/mol
# Density = 1.975410 g / cm^3
# Si number density = 19.799164 Si / 1000 Ang^3
#
#
#
# Elastic Constant Matrix: (Units=GPa)
#
#
# Indices 1 2 3 4 5 6 
#
# 1 140.2096 35.6828 30.5140 0.0000 -9.7093 0.0000
# 2 35.6828 49.1064 28.0856 0.0000 -9.4804 0.0000
# 3 30.5140 28.0856 77.4500 0.0000 -3.1054 0.0000
# 4 0.0000 0.0000 0.0000 48.3220 0.0000 -12.2449
# 5 -9.7093 -9.4804 -3.1054 0.0000 20.1818 0.0000
# 6 0.0000 0.0000 0.0000 -12.2449 0.0000 27.5680
#
#
#
# Elastic Compliance Matrix: (Units=1/GPa)
#
#
# Indices 1 2 3 4 5 6 
#
# 1 0.008924 -0.005309 -0.001528 0.000000 0.001564 0.000000
# 2 -0.005309 0.031373 -0.008851 0.000000 0.010822 0.000000
# 3 -0.001528 -0.008851 0.016630 0.000000 -0.002334 0.000000
# 4 0.000000 0.000000 0.000000 0.023319 0.000000 0.010358
# 5 0.001564 0.010822 -0.002334 0.000000 0.055027 0.000000
# 6 0.000000 0.000000 0.000000 0.010358 0.000000 0.040875
#
#
# Mechanical properties :
#
#
# Convention : Reuss Voigt Hill
#
# Bulk Modulus (GPa) = 39.13796 50.59230 44.86513
# Shear Modulus (GPa) = 23.14383 30.71326 26.92855
#
# Velocity S-wave (km/s) = 3.42267 3.94285 3.69193
# Velocity P-wave (km/s) = 5.95231 6.80708 6.39399
#
# Compressibility (1/GPa) = 0.02555064
#
# Stress axis : x y z
#
# Youngs Moduli (GPa) = 112.05607 31.87453 60.13303
#
# Poissons Ratio (x) = 0.16921 0.09189
# Poissons Ratio (y) = 0.59486 0.53226
# Poissons Ratio (z) = 0.17124 0.28213
#
# Static dielectric constant tensor:
#      x y z
#    x 1.703970 0.000000 0.012840 
#    y 0.000000 1.660080 0.000000 
#    z 0.012840 0.000000 1.694680 
# 
# From -- ./inp_files/49894.got.cif
#   From: 2010.05.17/outbox.cif.g08.bks.cpg/sg10_25_cif.got.tgz:49894.got - 2010.06.03 11:33:40.
