data_PCOD9147550
_publ_section_title
;
Structure prediction by ZEFSAII (Michael W. Deem and Ramdas Pophale) SiO2 
 PCOD9147550
Probable space group: P 2/M
;
_chemical_formula_sum "Si O2"
_cell_formula_units_Z 32
_cell_length_a 22.060569
_cell_length_b 7.568741
_cell_length_c 28.089637
_cell_angle_alpha 90.000000
_cell_angle_beta 18.802394
_cell_angle_gamma 90.000000
_cell_volume 1511.659087
_symmetry_space_group_name_H-M "P 2/M"
_symmetry_group_IT_number 10
_symmetry_cell_setting 'monoclinic'
loop_
_space_group_symop_operation_xyz
x,y,z
-x,y,-z
-x,-y,-z
x,-y,z
loop_
_atom_site_type_symbol
_atom_site_label
_atom_site_fract_x
_atom_site_fract_y
_atom_site_fract_z
Si Si1 0.478134 0.215910 0.962122
Si Si2 0.786357 0.215697 0.655177
Si Si3 0.859944 0.302436 0.283220
Si Si4 0.942898 0.800606 0.120725
Si Si5 0.544792 0.786122 0.380459
Si Si6 0.816692 0.212498 0.894208
Si Si7 0.642157 0.216269 0.203910
Si Si8 0.491329 0.784780 0.798885
O O1 0.652539 0.268451 0.798683
O O2 0.476895 0.000000 0.963701
O O3 0.500000 0.276206 0.000000
O O4 0.287095 0.271769 0.076857
O O5 0.680422 0.270169 0.685529
O O6 0.000000 0.276951 0.500000
O O7 0.788852 0.000000 0.653655
O O8 0.896509 0.500000 0.240112
O O9 0.938577 0.189140 0.181193
O O10 0.639852 0.275805 0.455131
O O11 0.975546 0.269873 0.245656
O O12 0.743890 0.720869 0.253114
O O13 0.941123 0.000000 0.102172
O O14 0.140745 0.721583 0.957474
O O15 0.541086 0.734822 0.327813
O O16 0.542015 0.000000 0.386147
O O17 0.817492 0.000000 0.892581
O O18 0.680393 0.268721 0.039006
O O19 0.542494 0.275678 0.229551
O O20 0.647939 0.000000 0.198115
O O21 0.490831 0.000000 0.798664
#
# Coordination Sequence:
#
# PCOD9147550 Si02
#       8
#     4   4   4   4   4   4   4   4
#     4   8  14  25  43  70 100 128 159 200 249 296
#     4   8  13  21  34  59  99 133 152 180 235 297
#     4  12  24  36  51  73 104 139 176 213 253 300
#     4  10  19  35  59  79  98 128 169 214 258 310
#     4  10  21  35  53  79 105 131 164 209 265 314
#     4   9  16  31  54  74  99 134 171 211 253 296
#     4   9  16  30  53  79 102 124 164 212 256 305
#     4   8  13  24  46  71  96 128 161 199 243 292
#
# _framework density 21.168793000000001
#
# number of rings (size 3 to 8) (size 9 to 14) (size 15 to 20)
#    0.000    2.750    1.250    3.375    0.000    3.500 
#    2.250    0.625    0.000    1.875    0.000    0.000 
#    0.000    2.500    0.000    0.000    0.000    0.000 
#
# Total GULP energy -178562.740458 kJ/mol
# GULP energy per Si atom -5580.085639 kJ/mol
# Density = 2.112061 g / cm^3
# Si number density = 21.168793 Si / 1000 Ang^3
#
#
#
# Elastic Constant Matrix: (Units=GPa)
#
#
# Indices 1 2 3 4 5 6 
#
# 1 98.5547 2.8040 6.9002 0.0000 -13.5155 0.0000
# 2 2.8040 54.6062 -0.5195 0.0000 -0.2007 0.0000
# 3 6.9002 -0.5195 59.6953 0.0000 -15.3854 0.0000
# 4 0.0000 0.0000 0.0000 35.0702 0.0000 1.3318
# 5 -13.5155 -0.2007 -15.3854 0.0000 34.8941 0.0000
# 6 0.0000 0.0000 0.0000 1.3318 0.0000 -15.7078
#
#
#
# Elastic Compliance Matrix: (Units=1/GPa)
#
#
# Indices 1 2 3 4 5 6 
#
# 1 0.010734 -0.000538 -0.000197 0.000000 0.004067 0.000000
# 2 -0.000538 0.018343 0.000220 0.000000 -0.000006 0.000000
# 3 -0.000197 0.000220 0.018906 0.000000 0.008261 0.000000
# 4 0.000000 0.000000 0.000000 0.028423 0.000000 0.002410
# 5 0.004067 -0.000006 0.008261 0.000000 0.033876 0.000000
# 6 0.000000 0.000000 0.000000 0.002410 0.000000 -0.063458
#
#
# Mechanical properties :
#
#
# Convention : Reuss Voigt Hill
#
# Bulk Modulus (GPa) = 21.29829 25.69172 23.49501
# Shear Modulus (GPa) = 78.73749 24.42941 51.58345
#
# Velocity S-wave (km/s) = 6.10539 3.40079 4.94172
# Velocity P-wave (km/s) = 7.73202 5.25199 6.60937
#
# Compressibility (1/GPa) = 0.04695212
#
# Stress axis : x y z
#
# Youngs Moduli (GPa) = 93.16580 54.51773 52.89465
#
# Poissons Ratio (x) = 0.02933 0.01042
# Poissons Ratio (y) = 0.05013 -0.01166
# Poissons Ratio (z) = 0.01836 -0.01201
#
# Static dielectric constant tensor:
#      x y z
#    x 1.769260 0.000000 -0.028420 
#    y 0.000000 1.862930 0.000000 
#    z -0.028420 0.000000 1.718760 
# 
# From -- ./inp_files/93599.got.cif
#   From: 2010.05.17/outbox.cif.g08.bks.cpg/sg10_47_cif.got.tgz:93599.got - 2010.06.03 11:33:40.
