data_PCOD9147929
_publ_section_title
;
Structure prediction by ZEFSAII (Michael W. Deem and Ramdas Pophale) SiO2 
 PCOD9147929
Probable space group: P 2/M
;
_chemical_formula_sum "Si O2"
_cell_formula_units_Z 24
_cell_length_a 10.321682
_cell_length_b 11.748337
_cell_length_c 11.657767
_cell_angle_alpha 90.000000
_cell_angle_beta 80.483061
_cell_angle_gamma 90.000000
_cell_volume 1394.194705
_symmetry_space_group_name_H-M "P 2/M"
_symmetry_group_IT_number 10
_symmetry_cell_setting 'monoclinic'
loop_
_space_group_symop_operation_xyz
x,y,z
-x,y,-z
-x,-y,-z
x,-y,z
loop_
_atom_site_type_symbol
_atom_site_label
_atom_site_fract_x
_atom_site_fract_y
_atom_site_fract_z
Si Si1 0.153558 0.769266 0.614392
Si Si2 0.585927 0.635454 0.378495
Si Si3 0.838352 0.000000 0.796246
Si Si4 0.670717 0.000000 0.053524
Si Si5 0.614304 0.634096 0.799213
Si Si6 0.144211 0.000000 0.754722
Si Si7 0.850935 0.235356 0.659078
Si Si8 0.500000 0.201427 0.000000
O O1 0.270600 0.690138 0.641371
O O2 0.163938 0.778108 0.475321
O O3 0.002957 0.732671 0.661166
O O4 0.169584 0.890298 0.673000
O O5 0.500000 0.677447 0.500000
O O6 0.600658 0.500000 0.389743
O O7 0.502010 0.655499 0.275945
O O8 0.819947 0.885677 0.724053
O O9 0.746145 0.000000 0.920560
O O10 0.990809 0.000000 0.810735
O O11 0.767994 0.000000 0.145505
O O12 0.582856 0.114042 0.066245
O O13 0.614231 0.500000 0.828147
O O14 0.749958 0.671319 0.720011
O O15 0.589399 0.715918 0.910523
#
# Coordination Sequence:
#
# PCOD9147929 Si02
#       8
#     4   4   2   2   4   2   4   2
#     4  10  20  36  56  83 117 146 180 227 271 333
#     4  10  20  35  55  78 109 147 183 223 271 322
#     4  10  19  37  57  79 111 148 182 227 273 330
#     4  11  21  36  59  83 109 142 188 228 273 334
#     4  11  22  38  58  81 111 148 188 229 276 326
#     4  10  21  35  55  86 113 145 179 219 284 335
#     4  10  20  35  58  83 112 148 185 224 274 322
#     4  11  23  38  58  82 111 143 184 236 280 319
#
# _framework density 17.214238000000002
#
# number of rings (size 3 to 8) (size 9 to 14) (size 15 to 20)
#    0.000    1.667    3.333    2.000    0.000    2.667 
#    0.000    2.083    0.000    0.000    0.000    5.833 
#    0.000    0.000    0.000    0.000    0.000    0.000 
#
# Total GULP energy -133929.363674 kJ/mol
# GULP energy per Si atom -5580.390153 kJ/mol
# Density = 1.717506 g / cm^3
# Si number density = 17.214238 Si / 1000 Ang^3
#
#
#
# Elastic Constant Matrix: (Units=GPa)
#
#
# Indices 1 2 3 4 5 6 
#
# 1 103.1737 52.9196 29.8649 0.0000 5.0501 0.0000
# 2 52.9196 82.9896 29.3086 0.0000 3.5420 0.0000
# 3 29.8649 29.3086 49.3855 0.0000 -7.3210 0.0000
# 4 0.0000 0.0000 0.0000 12.4353 0.0000 -0.6535
# 5 5.0501 3.5420 -7.3210 0.0000 30.2547 0.0000
# 6 0.0000 0.0000 0.0000 -0.6535 0.0000 27.1781
#
#
#
# Elastic Compliance Matrix: (Units=1/GPa)
#
#
# Indices 1 2 3 4 5 6 
#
# 1 0.015325 -0.007880 -0.005013 0.000000 -0.002849 0.000000
# 2 -0.007880 0.019809 -0.007405 0.000000 -0.002796 0.000000
# 3 -0.005013 -0.007405 0.028967 0.000000 0.008713 0.000000
# 4 0.000000 0.000000 0.000000 0.080518 0.000000 0.001936
# 5 -0.002849 -0.002796 0.008713 0.000000 0.035964 0.000000
# 6 0.000000 0.000000 0.000000 0.001936 0.000000 0.036841
#
#
# Mechanical properties :
#
#
# Convention : Reuss Voigt Hill
#
# Bulk Modulus (GPa) = 42.54584 51.08167 46.81375
# Shear Modulus (GPa) = 18.80730 22.20401 20.50566
#
# Velocity S-wave (km/s) = 3.30895 3.59536 3.45513
# Velocity P-wave (km/s) = 6.27439 6.85376 6.57047
#
# Compressibility (1/GPa) = 0.02350406
#
# Stress axis : x y z
#
# Youngs Moduli (GPa) = 65.25396 50.48197 34.52235
#
# Poissons Ratio (x) = 0.39780 0.17306
# Poissons Ratio (y) = 0.51421 0.25564
# Poissons Ratio (z) = 0.32712 0.37382
#
# Static dielectric constant tensor:
#      x y z
#    x 1.581110 0.000000 -0.010110 
#    y 0.000000 1.560760 0.000000 
#    z -0.010110 0.000000 1.567810 
# 
# From -- ./inp_files/42058.got.cif
#   From: 2010.05.17/outbox.cif.g08.bks.cpg/sg10_22_cif.got.tgz:42058.got - 2010.06.03 11:33:40.
