data_PCOD9147295
_publ_section_title
;
Structure prediction by ZEFSAII (Michael W. Deem and Ramdas Pophale) SiO2 
 PCOD9147295
Probable space group: P 2/M
;
_chemical_formula_sum "Si O2"
_cell_formula_units_Z 32
_cell_length_a 21.412773
_cell_length_b 16.083167
_cell_length_c 5.102638
_cell_angle_alpha 90.000000
_cell_angle_beta 121.000826
_cell_angle_gamma 90.000000
_cell_volume 1506.263931
_symmetry_space_group_name_H-M "P 2/M"
_symmetry_group_IT_number 10
_symmetry_cell_setting 'monoclinic'
loop_
_space_group_symop_operation_xyz
x,y,z
-x,y,-z
-x,-y,-z
x,-y,z
loop_
_atom_site_type_symbol
_atom_site_label
_atom_site_fract_x
_atom_site_fract_y
_atom_site_fract_z
Si Si1 0.950308 0.268225 0.630522
Si Si2 0.342218 0.726860 0.083490
Si Si3 0.431063 0.409838 0.041056
Si Si4 0.794709 0.868235 0.760525
Si Si5 0.803863 0.692246 0.567248
Si Si6 0.706635 0.588257 0.633351
Si Si7 0.701672 0.094875 0.054785
Si Si8 0.074629 0.913139 0.320163
O O1 0.874168 0.312387 0.535325
O O2 0.926801 0.172236 0.522436
O O3 0.000000 0.299064 0.500000
O O4 0.000000 0.269110 0.000000
O O5 0.315232 0.671947 0.266652
O O6 0.349641 0.826057 0.127272
O O7 0.414392 0.675399 0.157340
O O8 0.271042 0.715893 0.744265
O O9 0.437777 0.500000 0.198356
O O10 0.357633 0.418225 0.715152
O O11 0.500000 0.402258 0.000000
O O12 0.813386 0.770057 0.784579
O O13 0.768495 0.894642 0.991022
O O14 0.863473 0.908674 0.767704
O O15 0.730321 0.891064 0.413346
O O16 0.783890 0.607530 0.669482
O O17 0.708348 0.500000 0.786175
O O18 0.674318 0.000000 0.970701
O O19 0.082146 0.000000 0.487816
O O20 0.000000 0.914381 0.000000
#
# Coordination Sequence:
#
# PCOD9147295 Si02
#       8
#     4   4   4   4   4   4   4   4
#     4  10  22  35  53  75 101 145 193 232 288 347
#     4  10  20  33  55  84 116 149 193 234 286 336
#     4   9  19  36  57  87 124 154 182 222 278 348
#     4  10  20  35  51  75 105 144 188 233 287 339
#     4   9  20  35  55  77 113 144 185 241 292 342
#     4  10  19  34  59  88 114 145 184 228 286 345
#     4  11  21  34  54  78 110 148 192 238 280 324
#     4   9  18  30  45  67 100 134 175 227 282 342
#
# _framework density 21.244616000000001
#
# number of rings (size 3 to 8) (size 9 to 14) (size 15 to 20)
#    0.000    2.250    1.250    1.500    1.750    7.250 
#    0.000    4.375    0.000    1.125    0.000    0.875 
#    0.000    0.000    0.000    0.000    0.000    0.000 
#
# Total GULP energy -178332.030203 kJ/mol
# GULP energy per Si atom -5572.875944 kJ/mol
# Density = 2.119626 g / cm^3
# Si number density = 21.244616 Si / 1000 Ang^3
#
#
#
# Elastic Constant Matrix: (Units=GPa)
#
#
# Indices 1 2 3 4 5 6 
#
# 1 133.0604 60.6766 2.9734 0.0000 1.2811 0.0000
# 2 60.6766 145.2942 16.6014 0.0000 9.0433 0.0000
# 3 2.9734 16.6014 45.7929 0.0000 -4.8082 0.0000
# 4 0.0000 0.0000 0.0000 137.2317 0.0000 57.3937
# 5 1.2811 9.0433 -4.8082 0.0000 22.5195 0.0000
# 6 0.0000 0.0000 0.0000 57.3937 0.0000 76.0820
#
#
#
# Elastic Compliance Matrix: (Units=1/GPa)
#
#
# Indices 1 2 3 4 5 6 
#
# 1 0.009352 -0.004105 0.001021 0.000000 0.001335 0.000000
# 2 -0.004105 0.009265 -0.003538 0.000000 -0.004243 0.000000
# 3 0.001021 -0.003538 0.023729 0.000000 0.006429 0.000000
# 4 0.000000 0.000000 0.000000 0.010646 0.000000 -0.008031
# 5 0.001335 -0.004243 0.006429 0.000000 0.047406 0.000000
# 6 0.000000 0.000000 0.000000 -0.008031 0.000000 0.019202
#
#
# Mechanical properties :
#
#
# Convention : Reuss Voigt Hill
#
# Bulk Modulus (GPa) = 34.36185 53.85002 44.10594
# Shear Modulus (GPa) = 35.07693 63.42639 49.25166
#
# Velocity S-wave (km/s) = 4.06778 5.46993 4.82011
# Velocity P-wave (km/s) = 6.18643 8.08060 7.19611
#
# Compressibility (1/GPa) = 0.02910204
#
# Stress axis : x y z
#
# Youngs Moduli (GPa) = 106.93265 107.93045 42.14291
#
# Poissons Ratio (x) = 0.44307 -0.04303
# Poissons Ratio (y) = 0.43897 0.14910
# Poissons Ratio (z) = -0.10919 0.38184
#
# Static dielectric constant tensor:
#      x y z
#    x 1.788910 0.000000 -0.042710 
#    y 0.000000 1.905390 0.000000 
#    z -0.042710 0.000000 1.815340 
# 
# From -- ./inp_files/12832.got.cif
#   From: 2010.05.17/outbox.cif.g08.bks.cpg/sg10_7_cif.got.tgz:12832.got - 2010.06.03 11:33:40.
