data_PCOD9147556
_publ_section_title
;
Structure prediction by ZEFSAII (Michael W. Deem and Ramdas Pophale) SiO2 
 PCOD9147556
Probable space group: P 2/M
;
_chemical_formula_sum "Si O2"
_cell_formula_units_Z 16
_cell_length_a 11.533150
_cell_length_b 8.266364
_cell_length_c 9.510394
_cell_angle_alpha 90.000000
_cell_angle_beta 114.575384
_cell_angle_gamma 90.000000
_cell_volume 824.561451
_symmetry_space_group_name_H-M "P 2/M"
_symmetry_group_IT_number 10
_symmetry_cell_setting 'monoclinic'
loop_
_space_group_symop_operation_xyz
x,y,z
-x,y,-z
-x,-y,-z
x,-y,z
loop_
_atom_site_type_symbol
_atom_site_label
_atom_site_fract_x
_atom_site_fract_y
_atom_site_fract_z
Si Si1 0.622877 0.197794 0.150770
Si Si2 0.851696 0.688770 0.782563
Si Si3 0.375724 0.195812 0.524810
Si Si4 0.131772 0.190727 0.899187
O O1 0.616519 0.249135 0.309468
O O2 0.753438 0.249109 0.141083
O O3 0.622310 0.000000 0.148603
O O4 0.500000 0.251124 0.000000
O O5 0.837736 0.500000 0.806115
O O6 0.750248 0.742608 0.616128
O O7 0.996627 0.723346 0.808735
O O8 0.831663 0.783208 0.919034
O O9 0.500000 0.248075 0.500000
O O10 0.372965 0.000000 0.522296
O O11 0.112738 0.000000 0.865426
#
# Coordination Sequence:
#
# PCOD9147556 Si02
#       4
#     4   4   4   4
#     4   9  18  33  56  85 109 133 175 229 274 314
#     4  11  22  36  54  79 113 146 180 220 267 323
#     4  10  20  36  59  83 108 140 180 224 269 319
#     4  10  19  35  59  82 107 141 183 225 267 316
#
# _framework density 19.404253000000001
#
# number of rings (size 3 to 8) (size 9 to 14) (size 15 to 20)
#    0.000    2.000    0.000    6.000    0.000    5.500 
#    0.000    7.500    0.000    5.250    0.000    0.000 
#    0.000    0.000    0.000    0.000    0.000    0.000 
#
# Total GULP energy -89388.135764 kJ/mol
# GULP energy per Si atom -5586.758485 kJ/mol
# Density = 1.936009 g / cm^3
# Si number density = 19.404253 Si / 1000 Ang^3
#
#
#
# Elastic Constant Matrix: (Units=GPa)
#
#
# Indices 1 2 3 4 5 6 
#
# 1 153.2069 -2.4782 90.1668 0.0000 -18.4671 0.0000
# 2 -2.4782 15.6350 -4.2576 0.0000 -0.8128 0.0000
# 3 90.1668 -4.2576 154.8778 0.0000 12.3697 0.0000
# 4 0.0000 0.0000 0.0000 -24.0385 0.0000 -21.9548
# 5 -18.4671 -0.8128 12.3697 0.0000 25.2381 0.0000
# 6 0.0000 0.0000 0.0000 -21.9548 0.0000 -35.9965
#
#
#
# Elastic Compliance Matrix: (Units=1/GPa)
#
#
# Indices 1 2 3 4 5 6 
#
# 1 0.013600 0.000438 -0.009056 0.000000 0.014404 0.000000
# 2 0.000438 0.064494 0.001380 0.000000 0.001721 0.000000
# 3 -0.009056 0.001380 0.012794 0.000000 -0.012852 0.000000
# 4 0.000000 0.000000 0.000000 -0.093914 0.000000 0.057280
# 5 0.014404 0.001721 -0.012852 0.000000 0.056517 0.000000
# 6 0.000000 0.000000 0.000000 0.057280 0.000000 -0.062716
#
#
# Mechanical properties :
#
#
# Convention : Reuss Voigt Hill
#
# Bulk Modulus (GPa) = 13.08686 54.50905 33.79796
# Shear Modulus (GPa) = 162.75844 9.05987 85.90916
#
# Velocity S-wave (km/s) = 9.16841 2.16313 6.66104
# Velocity P-wave (km/s) = 10.90132 5.86440 8.75300
#
# Compressibility (1/GPa) = 0.07641250
#
# Stress axis : x y z
#
# Youngs Moduli (GPa) = 73.52765 15.50536 78.16468
#
# Poissons Ratio (x) = -0.00680 0.70788
# Poissons Ratio (y) = -0.03224 -0.10789
# Poissons Ratio (z) = 0.66588 -0.02140
#
# Static dielectric constant tensor:
#      x y z
#    x 1.663510 0.000000 -0.007090 
#    y 0.000000 1.654150 0.000000 
#    z -0.007090 0.000000 1.641150 
# 
# From -- ./inp_files/21470.got.cif
#   From: 2010.05.17/outbox.cif.g08.bks.cpg/sg10_11_cif.got.tgz:21470.got - 2010.06.03 11:33:40.
