data_PCOD9147054
_publ_section_title
;
Structure prediction by ZEFSAII (Michael W. Deem and Ramdas Pophale) SiO2 
 PCOD9147054
Probable space group: P 2/M
;
_chemical_formula_sum "Si O2"
_cell_formula_units_Z 20
_cell_length_a 8.721950
_cell_length_b 13.234008
_cell_length_c 9.961723
_cell_angle_alpha 90.000000
_cell_angle_beta 43.384290
_cell_angle_gamma 90.000000
_cell_volume 789.815302
_symmetry_space_group_name_H-M "P 2/M"
_symmetry_group_IT_number 10
_symmetry_cell_setting 'monoclinic'
loop_
_space_group_symop_operation_xyz
x,y,z
-x,y,-z
-x,-y,-z
x,-y,z
loop_
_atom_site_type_symbol
_atom_site_label
_atom_site_fract_x
_atom_site_fract_y
_atom_site_fract_z
Si Si1 0.344712 0.880754 0.797092
Si Si2 0.306882 0.837652 0.216602
Si Si3 0.710109 0.386861 0.455731
Si Si4 0.958324 0.184021 0.243050
Si Si5 0.250580 0.391535 0.279648
O O1 0.590858 0.851255 0.698552
O O2 0.252806 0.861554 0.704632
O O3 0.321787 0.000000 0.833999
O O4 0.165554 0.823941 0.006688
O O5 0.295812 0.717402 0.192745
O O6 0.065537 0.868170 0.308951
O O7 0.500000 0.883721 0.000000
O O8 0.500000 0.363713 0.500000
O O9 0.795735 0.500000 0.370047
O O10 0.886498 0.298596 0.320674
O O11 0.615057 0.390969 0.666935
O O12 0.278283 0.500000 0.191561
O O13 0.000000 0.391647 0.500000
#
# Coordination Sequence:
#
# PCOD9147054 Si02
#       5
#     4   4   4   4   4
#     4  10  22  39  59  83 111 147 195 244 297 346
#     4  10  21  35  58  90 114 150 193 239 282 335
#     4  10  20  34  56  84 117 157 193 225 279 347
#     4  10  19  35  58  84 110 149 192 235 282 338
#     4  10  19  34  56  82 117 156 185 219 277 343
#
# _framework density 25.322375000000001
#
# number of rings (size 3 to 8) (size 9 to 14) (size 15 to 20)
#    0.000    2.000    2.000    2.400    0.000    4.800 
#    0.000    5.000    0.000   11.400    0.000    0.000 
#    0.000    0.000    0.000    0.000    0.000    0.000 
#
# Total GULP energy -111484.891576 kJ/mol
# GULP energy per Si atom -5574.244579 kJ/mol
# Density = 2.526474 g / cm^3
# Si number density = 25.322375 Si / 1000 Ang^3
#
#
#
# Elastic Constant Matrix: (Units=GPa)
#
#
# Indices 1 2 3 4 5 6 
#
# 1 269.7184 16.1867 36.1645 0.0000 -31.8860 0.0000
# 2 16.1867 173.4474 30.0949 0.0000 -6.7718 0.0000
# 3 36.1645 30.0949 76.0566 0.0000 -28.4610 0.0000
# 4 0.0000 0.0000 0.0000 -28.6929 0.0000 -34.5756
# 5 -31.8860 -6.7718 -28.4610 0.0000 34.7345 0.0000
# 6 0.0000 0.0000 0.0000 -34.5756 0.0000 -23.4166
#
#
#
# Elastic Compliance Matrix: (Units=1/GPa)
#
#
# Indices 1 2 3 4 5 6 
#
# 1 0.004195 -0.000138 -0.000734 0.000000 0.003223 0.000000
# 2 -0.000138 0.006227 -0.002872 0.000000 -0.001266 0.000000
# 3 -0.000734 -0.002872 0.020439 0.000000 0.015514 0.000000
# 4 0.000000 0.000000 0.000000 0.044724 0.000000 -0.066037
# 5 0.003223 -0.001266 0.015514 0.000000 0.044213 0.000000
# 6 0.000000 0.000000 0.000000 -0.066037 0.000000 0.054801
#
#
# Mechanical properties :
#
#
# Convention : Reuss Voigt Hill
#
# Bulk Modulus (GPa) = 42.78575 76.01274 59.39924
# Shear Modulus (GPa) = 26.33251 25.64342 25.98797
#
# Velocity S-wave (km/s) = 3.22823 3.18571 3.20704
# Velocity P-wave (km/s) = 5.55233 6.60416 6.10095
#
# Compressibility (1/GPa) = 0.02337227
#
# Stress axis : x y z
#
# Youngs Moduli (GPa) = 238.36222 160.58432 48.92614
#
# Poissons Ratio (x) = 0.02221 0.03592
# Poissons Ratio (y) = 0.03297 0.14052
# Poissons Ratio (z) = 0.17499 0.46123
#
# Static dielectric constant tensor:
#      x y z
#    x 2.222310 0.000000 0.010910 
#    y 0.000000 1.985850 0.000000 
#    z 0.010910 0.000000 1.973410 
# 
# From -- ./inp_files/60609.got.cif
#   From: 2010.05.17/outbox.cif.g08.bks.cpg/sg10_31_cif.got.tgz:60609.got - 2010.06.03 11:33:40.
