data_PCOD9147410
_publ_section_title
;
Structure prediction by ZEFSAII (Michael W. Deem and Ramdas Pophale) SiO2 
 PCOD9147410
Probable space group: P 2/M
;
_chemical_formula_sum "Si O2"
_cell_formula_units_Z 28
_cell_length_a 12.487701
_cell_length_b 18.151321
_cell_length_c 5.460275
_cell_angle_alpha 90.000000
_cell_angle_beta 86.935143
_cell_angle_gamma 90.000000
_cell_volume 1235.900785
_symmetry_space_group_name_H-M "P 2/M"
_symmetry_group_IT_number 10
_symmetry_cell_setting 'monoclinic'
loop_
_space_group_symop_operation_xyz
x,y,z
-x,y,-z
-x,-y,-z
x,-y,z
loop_
_atom_site_type_symbol
_atom_site_label
_atom_site_fract_x
_atom_site_fract_y
_atom_site_fract_z
Si Si1 0.415426 0.159440 0.712818
Si Si2 0.617660 0.000000 0.230031
Si Si3 0.199401 0.844462 0.446656
Si Si4 0.918838 0.739169 0.212332
Si Si5 0.301176 0.266833 0.048491
Si Si6 0.110666 0.419243 0.734409
Si Si7 0.250464 0.580342 0.218221
Si Si8 0.756037 0.000000 0.714744
O O1 0.500000 0.183879 0.500000
O O2 0.447441 0.076341 0.780717
O O3 0.293831 0.145702 0.633884
O O4 0.397064 0.224178 0.907307
O O5 0.671013 0.000000 0.497347
O O6 0.700044 0.000000 0.988581
O O7 0.103604 0.798546 0.576539
O O8 0.178646 0.924135 0.331796
O O9 0.254202 0.790302 0.247948
O O10 0.798811 0.724512 0.125500
O O11 0.957515 0.655961 0.264884
O O12 0.000000 0.769272 0.000000
O O13 0.320378 0.346248 0.167187
O O14 0.056399 0.500000 0.725348
O O15 0.172017 0.421064 0.989432
O O16 0.188219 0.413589 0.485897
O O17 0.305481 0.500000 0.213307
#
# Coordination Sequence:
#
# PCOD9147410 Si02
#       8
#     4   2   4   4   4   4   4   2
#     4  10  21  35  55  85 115 143 178 221 275 337
#     4  10  19  36  56  86 115 147 171 219 280 344
#     4  10  20  37  55  80 107 148 182 226 274 329
#     4  10  21  35  54  79 110 147 188 230 272 323
#     4  10  19  35  56  76 112 145 185 225 275 325
#     4   9  17  31  51  78 110 142 177 223 278 332
#     4   9  17  31  53  78 106 143 184 224 271 327
#     4  10  20  36  60  79 112 146 184 225 276 328
#
# _framework density 22.655542000000001
#
# number of rings (size 3 to 8) (size 9 to 14) (size 15 to 20)
#    0.000    2.286    2.857    0.214    0.000    1.429 
#    0.000    1.786    0.000    5.571    0.000    1.000 
#    0.000    0.000    0.000    0.000    0.000    0.000 
#
# Total GULP energy -156144.457483 kJ/mol
# GULP energy per Si atom -5576.587767 kJ/mol
# Density = 2.260398 g / cm^3
# Si number density = 22.655542 Si / 1000 Ang^3
#
#
#
# Elastic Constant Matrix: (Units=GPa)
#
#
# Indices 1 2 3 4 5 6 
#
# 1 50.2480 2.2402 20.8681 0.0000 -3.2213 0.0000
# 2 2.2402 218.8916 81.6780 0.0000 -45.1963 0.0000
# 3 20.8681 81.6780 174.6864 0.0000 -34.9498 0.0000
# 4 0.0000 0.0000 0.0000 42.6844 0.0000 -8.6252
# 5 -3.2213 -45.1963 -34.9498 0.0000 48.9627 0.0000
# 6 0.0000 0.0000 0.0000 -8.6252 0.0000 -13.5681
#
#
#
# Elastic Compliance Matrix: (Units=1/GPa)
#
#
# Indices 1 2 3 4 5 6 
#
# 1 0.021079 0.000899 -0.002911 0.000000 0.000139 0.000000
# 2 0.000899 0.006255 -0.002176 0.000000 0.004280 0.000000
# 3 -0.002911 -0.002176 0.007757 0.000000 0.003337 0.000000
# 4 0.000000 0.000000 0.000000 0.020761 0.000000 -0.013198
# 5 0.000139 0.004280 0.003337 0.000000 0.026766 0.000000
# 6 0.000000 0.000000 0.000000 -0.013198 0.000000 -0.065313
#
#
# Mechanical properties :
#
#
# Convention : Reuss Voigt Hill
#
# Bulk Modulus (GPa) = 37.43014 72.59985 55.01500
# Shear Modulus (GPa) = 144.57154 38.21845 91.39499
#
# Velocity S-wave (km/s) = 7.99696 4.11169 6.35836
# Velocity P-wave (km/s) = 10.09088 7.39297 8.84539
#
# Compressibility (1/GPa) = 0.02671644
#
# Stress axis : x y z
#
# Youngs Moduli (GPa) = 47.44076 159.87727 128.91180
#
# Poissons Ratio (x) = -0.14374 0.37522
# Poissons Ratio (y) = -0.04265 0.28047
# Poissons Ratio (z) = 0.13808 0.34784
#
# Static dielectric constant tensor:
#      x y z
#    x -2.127910 0.000000 -0.878290 
#    y 0.000000 1.985670 0.000000 
#    z -0.878290 0.000000 1.651770 
# 
# From -- ./inp_files/9648.got.cif
#   From: 2010.05.17/outbox.cif.g08.bks.cpg/sg10_5_cif.got.tgz:9648.got - 2010.06.03 11:33:40.
