data_PCOD9147822
_publ_section_title
;
Structure prediction by ZEFSAII (Michael W. Deem and Ramdas Pophale) SiO2 
 PCOD9147822
Probable space group: P 2/M
;
_chemical_formula_sum "Si O2"
_cell_formula_units_Z 32
_cell_length_a 16.145140
_cell_length_b 8.747890
_cell_length_c 15.215990
_cell_angle_alpha 90.000000
_cell_angle_beta 48.521080
_cell_angle_gamma 90.000000
_cell_volume 1610.062732
_symmetry_space_group_name_H-M "P 2/M"
_symmetry_group_IT_number 10
_symmetry_cell_setting 'monoclinic'
loop_
_space_group_symop_operation_xyz
x,y,z
-x,y,-z
-x,-y,-z
x,-y,z
loop_
_atom_site_type_symbol
_atom_site_label
_atom_site_fract_x
_atom_site_fract_y
_atom_site_fract_z
Si Si1 0.966937 0.326887 0.420008
Si Si2 0.989957 0.184226 0.903865
Si Si3 0.782908 0.317021 0.301482
Si Si4 0.395525 0.317851 0.426394
Si Si5 0.251494 0.814373 0.996047
Si Si6 0.196842 0.815435 0.221826
Si Si7 0.631294 0.183422 0.258383
Si Si8 0.259548 0.817834 0.373794
O O1 0.947406 0.500000 0.401985
O O2 0.854665 0.231209 0.498449
O O3 0.000000 0.334266 0.500000
O O4 0.072728 0.249808 0.301374
O O5 0.092876 0.255289 0.779791
O O6 0.870589 0.231624 0.951360
O O7 0.997100 0.000000 0.893041
O O8 0.000000 0.225766 0.000000
O O9 0.784717 0.500000 0.294739
O O10 0.701642 0.272125 0.438026
O O11 0.726514 0.247212 0.254366
O O12 0.405021 0.500000 0.421697
O O13 0.512311 0.245486 0.369588
O O14 0.357978 0.260701 0.357176
O O15 0.263991 0.766590 0.088335
O O16 0.253081 0.000000 0.994441
O O17 0.339989 0.765740 0.861328
O O18 0.247340 0.769096 0.280360
O O19 0.188903 0.000000 0.228866
O O20 0.632268 0.000000 0.261813
O O21 0.271866 0.000000 0.368157
#
# Coordination Sequence:
#
# PCOD9147822 Si02
#       8
#     4   4   4   4   4   4   4   4
#     4   9  17  30  49  75 111 150 183 226 284 337
#     4  10  19  36  60  88 120 153 190 234 285 341
#     4  11  24  40  59  86 120 153 188 235 291 346
#     4  11  25  42  59  83 117 153 192 241 295 340
#     4   9  19  36  59  87 119 152 188 237 288 337
#     4   9  18  34  56  83 114 151 193 237 283 337
#     4  11  22  41  65  87 112 149 196 237 284 345
#     4  10  20  35  56  82 111 148 198 243 282 334
#
# _framework density 19.875003
#
# number of rings (size 3 to 8) (size 9 to 14) (size 15 to 20)
#    0.000    2.000    1.250    2.250    1.750    5.750 
#    0.000    1.875    0.000    3.750    0.000    0.000 
#    0.000    0.000    0.000    0.000    0.000    0.000 
#
# Total GULP energy -178732.588938 kJ/mol
# GULP energy per Si atom -5585.393404 kJ/mol
# Density = 1.982977 g / cm^3
# Si number density = 19.875003 Si / 1000 Ang^3
#
#
#
# Elastic Constant Matrix: (Units=GPa)
#
#
# Indices 1 2 3 4 5 6 
#
# 1 34.3152 4.9486 12.9752 0.0000 5.8215 0.0000
# 2 4.9486 22.2423 22.6539 0.0000 2.3609 0.0000
# 3 12.9752 22.6539 98.2293 0.0000 6.3097 0.0000
# 4 0.0000 0.0000 0.0000 7.4483 0.0000 16.5507
# 5 5.8215 2.3609 6.3097 0.0000 32.8014 0.0000
# 6 0.0000 0.0000 0.0000 16.5507 0.0000 -36.9982
#
#
#
# Elastic Compliance Matrix: (Units=1/GPa)
#
#
# Indices 1 2 3 4 5 6 
#
# 1 0.031607 -0.003379 -0.003089 0.000000 -0.004772 0.000000
# 2 -0.003379 0.059211 -0.013136 0.000000 -0.001135 0.000000
# 3 -0.003089 -0.013136 0.013691 0.000000 -0.001140 0.000000
# 4 0.000000 0.000000 0.000000 0.067331 0.000000 0.030120
# 5 -0.004772 -0.001135 -0.001140 0.000000 0.031634 0.000000
# 6 0.000000 0.000000 0.000000 0.030120 0.000000 -0.013555
#
#
# Mechanical properties :
#
#
# Convention : Reuss Voigt Hill
#
# Bulk Modulus (GPa) = 15.31406 26.21581 20.76493
# Shear Modulus (GPa) = 19.92874 8.26424 14.09649
#
# Velocity S-wave (km/s) = 3.16999 2.04136 2.66608
# Velocity P-wave (km/s) = 4.59568 4.33303 4.46629
#
# Compressibility (1/GPa) = 0.06529948
#
# Stress axis : x y z
#
# Youngs Moduli (GPa) = 31.63906 16.88884 73.04078
#
# Poissons Ratio (x) = 0.05707 0.22563
# Poissons Ratio (y) = 0.10692 0.95947
# Poissons Ratio (z) = 0.09774 0.22185
#
# Static dielectric constant tensor:
#      x y z
#    x 1.710570 0.000000 0.038600 
#    y 0.000000 1.670580 0.000000 
#    z 0.038600 0.000000 1.707380 
# 
# From -- ./inp_files/78645.got.cif
#   From: 2010.05.17/outbox.cif.g08.bks.cpg/sg10_40_cif.got.tgz:78645.got - 2010.06.03 11:33:40.
