data_PCOD9148232
_publ_section_title
;
Structure prediction by ZEFSAII (Michael W. Deem and Ramdas Pophale) SiO2 
 PCOD9148232
Probable space group: P 2/M
;
_chemical_formula_sum "Si O2"
_cell_formula_units_Z 32
_cell_length_a 16.144295
_cell_length_b 7.694517
_cell_length_c 28.670218
_cell_angle_alpha 90.000000
_cell_angle_beta 27.933937
_cell_angle_gamma 90.000000
_cell_volume 1668.390280
_symmetry_space_group_name_H-M "P 2/M"
_symmetry_group_IT_number 10
_symmetry_cell_setting 'monoclinic'
loop_
_space_group_symop_operation_xyz
x,y,z
-x,y,-z
-x,-y,-z
x,-y,z
loop_
_atom_site_type_symbol
_atom_site_label
_atom_site_fract_x
_atom_site_fract_y
_atom_site_fract_z
Si Si1 0.533841 0.300348 0.099455
Si Si2 0.233671 0.202541 0.101931
Si Si3 0.834801 0.288830 0.296851
Si Si4 0.443632 0.712391 0.644251
Si Si5 0.208404 0.287915 0.845532
Si Si6 0.191881 0.287490 0.960768
Si Si7 0.208028 0.295971 0.576385
Si Si8 0.180266 0.798683 0.232252
O O1 0.500414 0.500000 0.128266
O O2 0.663951 0.224331 0.073991
O O3 0.343208 0.217564 0.185946
O O4 0.640295 0.291267 0.997921
O O5 0.236753 0.274753 0.153277
O O6 0.029905 0.221331 0.187930
O O7 0.286471 0.000000 0.076596
O O8 0.845510 0.500000 0.291957
O O9 0.688655 0.239813 0.331939
O O10 0.787968 0.226834 0.372465
O O11 0.445402 0.500000 0.645823
O O12 0.356882 0.772665 0.735700
O O13 0.639262 0.774445 0.533085
O O14 0.208388 0.500000 0.845328
O O15 0.232992 0.235971 0.887086
O O16 0.010537 0.234462 0.928372
O O17 0.192276 0.500000 0.962510
O O18 0.246811 0.500000 0.561980
O O19 0.006756 0.278759 0.659435
O O20 0.142440 0.000000 0.242354
#
# Coordination Sequence:
#
# PCOD9148232 Si02
#       8
#     4   4   4   4   4   4   4   4
#     4  11  20  30  48  71  91 115 152 192 229 269
#     4  10  20  32  45  65  94 124 153 184 221 270
#     4   9  16  27  44  68  97 124 151 185 224 266
#     4   9  15  24  44  71  95 121 153 188 227 269
#     4   8  13  24  42  67  99 124 141 172 223 274
#     4   8  15  26  42  68  98 121 142 176 223 273
#     4   9  17  29  45  67  94 122 154 192 228 262
#     4  10  21  35  47  62  89 124 157 188 225 269
#
# _framework density 19.180164999999999
#
# number of rings (size 3 to 8) (size 9 to 14) (size 15 to 20)
#    0.000    2.750    0.000    3.375    0.000    6.500 
#    0.000    0.625    0.000    3.750    0.000   23.625 
#    0.000    0.000    0.000    0.000    0.000    0.000 
#
# Total GULP energy -178509.643015 kJ/mol
# GULP energy per Si atom -5578.426344 kJ/mol
# Density = 1.913651 g / cm^3
# Si number density = 19.180165 Si / 1000 Ang^3
#
#
#
# Elastic Constant Matrix: (Units=GPa)
#
#
# Indices 1 2 3 4 5 6 
#
# 1 85.2833 -2.2090 55.9224 0.0000 -17.3599 0.0000
# 2 -2.2090 28.9399 -5.8734 0.0000 3.9420 0.0000
# 3 55.9224 -5.8734 133.9000 0.0000 2.4241 0.0000
# 4 0.0000 0.0000 0.0000 -64.0521 0.0000 41.2589
# 5 -17.3599 3.9420 2.4241 0.0000 17.7427 0.0000
# 6 0.0000 0.0000 0.0000 41.2589 0.0000 -31.7970
#
#
#
# Elastic Compliance Matrix: (Units=1/GPa)
#
#
# Indices 1 2 3 4 5 6 
#
# 1 0.023728 -0.003801 -0.010538 0.000000 0.025501 0.000000
# 2 -0.003801 0.036637 0.003418 0.000000 -0.012326 0.000000
# 3 -0.010538 0.003418 0.012250 0.000000 -0.012744 0.000000
# 4 0.000000 0.000000 0.000000 -0.095094 0.000000 -0.123391
# 5 0.025501 -0.012326 -0.012744 0.000000 0.085792 0.000000
# 6 0.000000 0.000000 0.000000 -0.123391 0.000000 -0.191558
#
#
# Mechanical properties :
#
#
# Convention : Reuss Voigt Hill
#
# Bulk Modulus (GPa) = 19.69600 38.20034 28.94817
# Shear Modulus (GPa) = -55.88003 -2.26908 -29.07456
#
# Velocity S-wave (km/s) = -5.40347 -1.08885 -3.89764
# Velocity P-wave (km/s) = 5.35152 4.28708 2.26493
#
# Compressibility (1/GPa) = 0.05077174
#
# Stress axis : x y z
#
# Youngs Moduli (GPa) = 42.14396 27.29493 81.63180
#
# Poissons Ratio (x) = 0.10375 0.86026
# Poissons Ratio (y) = 0.16019 -0.27899
# Poissons Ratio (z) = 0.44413 -0.09329
#
# Static dielectric constant tensor:
#      x y z
#    x 1.662380 0.000000 0.002620 
#    y 0.000000 1.701370 0.000000 
#    z 0.002620 0.000000 1.664550 
# 
# From -- ./inp_files/66470.got.cif
#   From: 2010.05.17/outbox.cif.g08.bks.cpg/sg10_34_cif.got.tgz:66470.got - 2010.06.03 11:33:40.
