data_PCOD9148501
_publ_section_title
;
Structure prediction by ZEFSAII (Michael W. Deem and Ramdas Pophale) SiO2 
 PCOD9148501
Probable space group: P 2/M
;
_chemical_formula_sum "Si O2"
_cell_formula_units_Z 32
_cell_length_a 21.717575
_cell_length_b 8.739451
_cell_length_c 14.773556
_cell_angle_alpha 90.000000
_cell_angle_beta 47.136349
_cell_angle_gamma 90.000000
_cell_volume 2055.272702
_symmetry_space_group_name_H-M "P 2/M"
_symmetry_group_IT_number 10
_symmetry_cell_setting 'monoclinic'
loop_
_space_group_symop_operation_xyz
x,y,z
-x,y,-z
-x,-y,-z
x,-y,z
loop_
_atom_site_type_symbol
_atom_site_label
_atom_site_fract_x
_atom_site_fract_y
_atom_site_fract_z
Si Si1 0.902201 0.185996 0.698208
Si Si2 0.500001 0.823530 0.609813
Si Si3 0.999999 0.316697 0.892930
Si Si4 0.097800 0.814004 0.502609
Si Si5 0.677543 0.317007 0.428841
Si Si6 0.162644 0.815843 0.045521
Si Si7 0.322460 0.682993 0.783926
Si Si8 0.162642 0.184156 0.629194
O O1 0.875316 0.237548 0.624684
O O2 0.849257 0.234550 0.838034
O O3 0.000000 0.230549 0.613343
O O4 0.901138 0.000000 0.698425
O O5 0.500000 0.819500 0.500000
O O6 0.586218 0.741872 0.551172
O O7 0.413784 0.741877 0.723608
O O8 0.500003 0.000000 0.638445
O O9 0.999997 0.500000 0.881463
O O10 0.082670 0.247033 0.764154
O O11 0.917328 0.247029 0.929497
O O12 0.000000 0.283407 0.000000
O O13 0.150743 0.765450 0.536550
O O14 0.098862 0.000000 0.500700
O O15 0.680464 0.500000 0.431414
O O16 0.688147 0.274408 0.311852
O O17 0.752511 0.245314 0.411197
O O18 0.161467 0.000000 0.043436
O O19 0.247490 0.754681 0.916220
O O20 0.319542 0.500000 0.792336
O O21 0.161461 0.000000 0.633637
#
# Coordination Sequence:
#
# PCOD9148501 Si02
#       8
#     4   4   4   4   4   4   4   4
#     4   8  14  27  47  69  92 118 152 197 245 285
#     4   9  17  31  51  73  94 119 158 205 239 268
#     4  11  23  35  44  59  92 134 165 191 232 283
#     4   8  14  27  47  69  92 118 152 197 245 285
#     4  10  20  33  48  68  98 133 161 189 234 287
#     4  11  20  31  49  72  93 121 162 202 235 274
#     4  10  20  33  48  68  98 133 161 189 234 287
#     4  11  20  31  49  72  93 121 162 202 235 274
#
# _framework density 15.569710000000001
#
# number of rings (size 3 to 8) (size 9 to 14) (size 15 to 20)
#    0.000    2.250    1.250    3.750    0.000    7.000 
#    0.000    0.000    0.000    3.750    0.000    0.875 
#    0.000    7.000    0.000    0.000    0.000    0.000 
#
# Total GULP energy -178452.074014 kJ/mol
# GULP energy per Si atom -5576.627313 kJ/mol
# Density = 1.553427 g / cm^3
# Si number density = 15.569710 Si / 1000 Ang^3
#
#
#
# Elastic Constant Matrix: (Units=GPa)
#
#
# Indices 1 2 3 4 5 6 
#
# 1 113.1256 44.1000 104.6579 0.0000 -3.5697 0.0000
# 2 44.1000 45.0155 44.1205 0.0000 -0.0832 0.0000
# 3 104.6579 44.1205 115.4541 0.0000 -7.8119 0.0000
# 4 0.0000 0.0000 0.0000 6.9457 0.0000 -3.2469
# 5 -3.5697 -0.0832 -7.8119 0.0000 25.4658 0.0000
# 6 0.0000 0.0000 0.0000 -3.2469 0.0000 6.2847
#
#
#
# Elastic Compliance Matrix: (Units=1/GPa)
#
#
# Indices 1 2 3 4 5 6 
#
# 1 0.057908 -0.007695 -0.050044 0.000000 -0.007259 0.000000
# 2 -0.007695 0.036972 -0.007371 0.000000 -0.003219 0.000000
# 3 -0.050044 -0.007371 0.057561 0.000000 0.010618 0.000000
# 4 0.000000 0.000000 0.000000 0.189816 0.000000 0.098066
# 5 -0.007259 -0.003219 0.010618 0.000000 0.041497 0.000000
# 6 0.000000 0.000000 0.000000 0.098066 0.000000 0.209781
#
#
# Mechanical properties :
#
#
# Convention : Reuss Voigt Hill
#
# Bulk Modulus (GPa) = 45.00210 73.26133 59.13171
# Shear Modulus (GPa) = 6.83843 13.12039 9.97941
#
# Velocity S-wave (km/s) = 2.09802 2.90606 2.53445
# Velocity P-wave (km/s) = 5.90214 7.64304 6.82830
#
# Compressibility (1/GPa) = 0.02222119
#
# Stress axis : x y z
#
# Youngs Moduli (GPa) = 17.26864 27.04782 17.37299
#
# Poissons Ratio (x) = 0.20814 0.86941
# Poissons Ratio (y) = 0.13289 0.12805
# Poissons Ratio (z) = 0.86419 0.19936
#
# Static dielectric constant tensor:
#      x y z
#    x 1.509850 0.000000 0.018030 
#    y 0.000000 1.525090 0.000000 
#    z 0.018030 0.000000 1.506180 
# 
# From -- ./inp_files/29099.got.cif
#   From: 2010.05.17/outbox.cif.g08.bks.cpg/sg10_15_cif.got.tgz:29099.got - 2010.06.03 11:33:40.
