data_PCOD9148676
_publ_section_title
;
Structure prediction by ZEFSAII (Michael W. Deem and Ramdas Pophale) SiO2 
 PCOD9148676
Probable space group: P 2/M
;
_chemical_formula_sum "Si O2"
_cell_formula_units_Z 28
_cell_length_a 20.329304
_cell_length_b 8.177164
_cell_length_c 8.104470
_cell_angle_alpha 90.000000
_cell_angle_beta 123.607064
_cell_angle_gamma 90.000000
_cell_volume 1122.065463
_symmetry_space_group_name_H-M "P 2/M"
_symmetry_group_IT_number 10
_symmetry_cell_setting 'monoclinic'
loop_
_space_group_symop_operation_xyz
x,y,z
-x,y,-z
-x,-y,-z
x,-y,z
loop_
_atom_site_type_symbol
_atom_site_label
_atom_site_fract_x
_atom_site_fract_y
_atom_site_fract_z
Si Si1 0.050685 0.807393 0.414869
Si Si2 0.246817 0.302973 0.997971
Si Si3 0.473093 0.804672 0.211058
Si Si4 0.662108 0.810957 0.196773
Si Si5 0.191305 0.689729 0.416950
Si Si6 0.094556 0.697913 0.972547
Si Si7 0.383092 0.690968 0.415089
O O1 0.132548 0.718647 0.489375
O O2 0.000000 0.745173 0.500000
O O3 0.066274 0.000000 0.457319
O O4 0.989196 0.776398 0.180716
O O5 0.256583 0.500000 0.987386
O O6 0.155938 0.268979 0.908926
O O7 0.296444 0.258729 0.232854
O O8 0.285681 0.212235 0.898413
O O9 0.431520 0.721817 0.311492
O O10 0.565845 0.774743 0.370274
O O11 0.461084 0.000000 0.204573
O O12 0.423283 0.745114 0.983162
O O13 0.720269 0.741272 0.415670
O O14 0.651264 0.000000 0.219073
O O15 0.196738 0.500000 0.386407
O O16 0.141679 0.763632 0.196997
O O17 0.083562 0.500000 0.969946
O O18 0.382164 0.500000 0.451898
#
# Coordination Sequence:
#
# PCOD9148676 Si02
#       7
#     4   4   4   4   4   4   4
#     4  11  24  40  59  84 110 135 168 210 255 305
#     4   9  18  33  53  77 106 138 173 217 264 308
#     4   9  16  26  42  67 101 136 168 210 261 306
#     4  10  20  33  51  77 107 138 176 219 262 310
#     4  11  23  38  57  79 105 139 176 213 256 307
#     4  10  22  39  57  79 107 139 175 212 255 308
#     4   9  15  24  43  71 100 131 169 212 258 306
#
# _framework density 24.953983000000001
#
# number of rings (size 3 to 8) (size 9 to 14) (size 15 to 20)
#    0.000    2.143    0.000    4.286    0.000    9.143 
#    0.000    0.000    0.000    0.857    0.000    6.000 
#    0.000    0.000    0.000    0.000    0.000    0.000 
#
# Total GULP energy -156544.486946 kJ/mol
# GULP energy per Si atom -5590.874534 kJ/mol
# Density = 2.489719 g / cm^3
# Si number density = 24.953983 Si / 1000 Ang^3
#
#
#
# Elastic Constant Matrix: (Units=GPa)
#
#
# Indices 1 2 3 4 5 6 
#
# 1 98.4343 -2.8058 28.0803 0.0000 26.0124 0.0000
# 2 -2.8058 19.8039 5.3731 0.0000 6.7719 0.0000
# 3 28.0803 5.3731 161.3266 0.0000 18.5907 0.0000
# 4 0.0000 0.0000 0.0000 33.9560 0.0000 21.2405
# 5 26.0124 6.7719 18.5907 0.0000 55.6256 0.0000
# 6 0.0000 0.0000 0.0000 21.2405 0.0000 -2.8221
#
#
#
# Elastic Compliance Matrix: (Units=1/GPa)
#
#
# Indices 1 2 3 4 5 6 
#
# 1 0.012239 0.004116 -0.001612 0.000000 -0.005685 0.000000
# 2 0.004116 0.054246 -0.001602 0.000000 -0.007993 0.000000
# 3 -0.001612 -0.001602 0.006681 0.000000 -0.001284 0.000000
# 4 0.000000 0.000000 0.000000 0.005159 0.000000 0.038832
# 5 -0.005685 -0.007993 -0.001284 0.000000 0.022038 0.000000
# 6 0.000000 0.000000 0.000000 0.038832 0.000000 -0.062078
#
#
# Mechanical properties :
#
#
# Convention : Reuss Voigt Hill
#
# Bulk Modulus (GPa) = 13.33901 37.87333 25.60617
# Shear Modulus (GPa) = 81.33886 33.94636 57.64261
#
# Velocity S-wave (km/s) = 5.71544 3.69231 4.81141
# Velocity P-wave (km/s) = 6.99372 5.77821 6.41482
#
# Compressibility (1/GPa) = 0.07496811
#
# Stress axis : x y z
#
# Youngs Moduli (GPa) = 81.70786 18.43452 149.68917
#
# Poissons Ratio (x) = -0.07587 0.24132
# Poissons Ratio (y) = -0.33627 0.23980
# Poissons Ratio (z) = 0.13173 0.02953
#
# Static dielectric constant tensor:
#      x y z
#    x 2.018420 0.000000 -0.046870 
#    y 0.000000 1.854240 0.000000 
#    z -0.046870 0.000000 2.066420 
# 
# From -- ./inp_files/37309.got.cif
#   From: 2010.05.17/outbox.cif.g08.bks.cpg/sg10_19_cif.got.tgz:37309.got - 2010.06.03 11:33:40.
