data_PCOD9148913
_publ_section_title
;
Structure prediction by ZEFSAII (Michael W. Deem and Ramdas Pophale) SiO2 
 PCOD9148913
Probable space group: P 2/M
;
_chemical_formula_sum "Si O2"
_cell_formula_units_Z 28
_cell_length_a 14.476556
_cell_length_b 9.303349
_cell_length_c 14.165519
_cell_angle_alpha 90.000000
_cell_angle_beta 101.184687
_cell_angle_gamma 90.000000
_cell_volume 1871.583377
_symmetry_space_group_name_H-M "P 2/M"
_symmetry_group_IT_number 10
_symmetry_cell_setting 'monoclinic'
loop_
_space_group_symop_operation_xyz
x,y,z
-x,y,-z
-x,-y,-z
x,-y,z
loop_
_atom_site_type_symbol
_atom_site_label
_atom_site_fract_x
_atom_site_fract_y
_atom_site_fract_z
Si Si1 0.412951 0.336051 0.557363
Si Si2 0.953152 0.165708 0.095615
Si Si3 0.434094 0.670079 0.077516
Si Si4 0.783382 0.329929 0.982488
Si Si5 0.301004 0.327287 0.358848
Si Si6 0.532774 0.828310 0.723278
Si Si7 0.875379 0.330133 0.795407
O O1 0.500000 0.336006 0.500000
O O2 0.403691 0.500000 0.590864
O O3 0.324848 0.298446 0.473080
O O4 0.443631 0.229480 0.645687
O O5 0.028138 0.243196 0.177897
O O6 0.941203 0.000000 0.118393
O O7 0.853710 0.244758 0.064345
O O8 0.000000 0.172809 0.000000
O O9 0.434354 0.500000 0.104270
O O10 0.326042 0.708543 0.032129
O O11 0.467946 0.763993 0.172129
O O12 0.500000 0.688209 0.000000
O O13 0.793618 0.500000 0.002267
O O14 0.817448 0.304370 0.881339
O O15 0.316285 0.500000 0.346775
O O16 0.375618 0.240448 0.310232
O O17 0.196199 0.293713 0.302972
O O18 0.537628 0.000000 0.723274
O O19 0.896305 0.500000 0.796239
#
# Coordination Sequence:
#
# PCOD9148913 Si02
#       7
#     4   4   4   4   4   4   4
#     4   8  15  27  43  59  80 111 146 177 207 250
#     4   9  17  26  37  57  84 111 139 168 205 254
#     4  10  20  34  50  64  80 109 151 190 219 252
#     4   9  16  28  44  59  78 107 142 178 214 249
#     4   9  16  28  44  62  84 114 148 178 209 250
#     4  11  20  28  41  60  87 115 141 177 219 258
#     4   9  15  25  42  61  83 110 142 175 207 247
#
# _framework density 14.960594
#
# number of rings (size 3 to 8) (size 9 to 14) (size 15 to 20)
#    0.000    2.714    1.429    2.571    0.000    5.714 
#    0.000    0.000    0.000    0.000    0.000    0.000 
#    0.000    1.143    0.000   13.143    0.000    5.143 
#
# Total GULP energy -155953.290931 kJ/mol
# GULP energy per Si atom -5569.760390 kJ/mol
# Density = 1.492654 g / cm^3
# Si number density = 14.960594 Si / 1000 Ang^3
#
#
#
# Elastic Constant Matrix: (Units=GPa)
#
#
# Indices 1 2 3 4 5 6 
#
# 1 70.8716 47.4979 54.7736 0.0000 30.4503 0.0000
# 2 47.4979 77.3460 62.8725 0.0000 22.2763 0.0000
# 3 54.7736 62.8725 85.3427 0.0000 36.7626 0.0000
# 4 0.0000 0.0000 0.0000 4.8424 0.0000 -1.8240
# 5 30.4503 22.2763 36.7626 0.0000 32.5657 0.0000
# 6 0.0000 0.0000 0.0000 -1.8240 0.0000 4.2582
#
#
#
# Elastic Compliance Matrix: (Units=1/GPa)
#
#
# Indices 1 2 3 4 5 6 
#
# 1 0.033217 -0.010214 -0.006667 0.000000 -0.016547 0.000000
# 2 -0.010214 0.036871 -0.026975 0.000000 0.014780 0.000000
# 3 -0.006667 -0.026975 0.049122 0.000000 -0.030767 0.000000
# 4 0.000000 0.000000 0.000000 0.246239 0.000000 0.105475
# 5 -0.016547 0.014780 -0.030767 0.000000 0.070801 0.000000
# 6 0.000000 0.000000 0.000000 0.105475 0.000000 0.280019
#
#
# Mechanical properties :
#
#
# Convention : Reuss Voigt Hill
#
# Bulk Modulus (GPa) = 31.74575 62.64982 47.19779
# Shear Modulus (GPa) = 6.13888 12.89436 9.51662
#
# Velocity S-wave (km/s) = 2.02787 2.93898 2.52486
# Velocity P-wave (km/s) = 5.17191 7.31329 6.33376
#
# Compressibility (1/GPa) = 0.03150028
#
# Stress axis : x y z
#
# Youngs Moduli (GPa) = 30.10506 27.12122 20.35742
#
# Poissons Ratio (x) = 0.27701 0.13572
# Poissons Ratio (y) = 0.30748 0.54914
# Poissons Ratio (z) = 0.20070 0.73159
#
# Static dielectric constant tensor:
#      x y z
#    x 1.483520 0.000000 0.032660 
#    y 0.000000 1.496410 0.000000 
#    z 0.032660 0.000000 1.499970 
# 
# From -- ./inp_files/65778.got.cif
#   From: 2010.05.17/outbox.cif.g08.bks.cpg/sg10_33_cif.got.tgz:65778.got - 2010.06.03 11:33:40.
