data_PCOD9148337
_publ_section_title
;
Structure prediction by ZEFSAII (Michael W. Deem and Ramdas Pophale) SiO2 
 PCOD9148337
Probable space group: P 2/M
;
_chemical_formula_sum "Si O2"
_cell_formula_units_Z 30
_cell_length_a 14.475682
_cell_length_b 24.393935
_cell_length_c 15.060121
_cell_angle_alpha 90.000000
_cell_angle_beta 159.573603
_cell_angle_gamma 90.000000
_cell_volume 1856.006745
_symmetry_space_group_name_H-M "P 2/M"
_symmetry_group_IT_number 10
_symmetry_cell_setting 'monoclinic'
loop_
_space_group_symop_operation_xyz
x,y,z
-x,y,-z
-x,-y,-z
x,-y,z
loop_
_atom_site_type_symbol
_atom_site_label
_atom_site_fract_x
_atom_site_fract_y
_atom_site_fract_z
Si Si1 0.800350 0.713356 0.240111
Si Si2 0.198482 0.060578 0.761868
Si Si3 0.300920 0.500000 0.236555
Si Si4 0.836264 0.727514 0.939489
Si Si5 0.522200 0.616283 0.627502
Si Si6 0.885004 0.315739 0.637804
Si Si7 0.578609 0.214194 0.338279
Si Si8 0.859285 0.173913 0.191767
O O1 0.837801 0.777554 0.245966
O O2 0.000000 0.700958 0.500000
O O3 0.887600 0.678831 0.230966
O O4 0.500000 0.704559 0.000000
O O5 0.158220 0.113252 0.786190
O O6 0.000000 0.065106 0.500000
O O7 0.154084 0.000000 0.762932
O O8 0.500000 0.062182 0.000000
O O9 0.500000 0.500000 0.500000
O O10 0.363567 0.557004 0.243754
O O11 0.000000 0.500000 0.000000
O O12 0.715129 0.666872 0.819759
O O13 0.605732 0.772115 0.744018
O O14 0.000000 0.740010 0.000000
O O15 0.006495 0.721145 0.182597
O O16 0.500000 0.616190 0.500000
O O17 0.257414 0.632903 0.443449
O O18 0.669425 0.276484 0.394753
O O19 0.850407 0.181296 0.590079
O O20 0.385789 0.186713 0.093492
#
# Coordination Sequence:
#
# PCOD9148337 Si02
#       8
#     4   4   2   4   4   4   4   4
#     4  11  21  32  49  71 102 138 175 212 258 298
#     4  10  20  33  50  75 104 139 185 224 261 316
#     4  10  22  36  52  80 112 137 180 213 248 326
#     4  11  19  33  54  75 111 141 173 205 270 322
#     4  10  20  33  55  79 108 146 171 211 265 317
#     4  10  21  35  50  77 106 139 179 217 252 330
#     4  10  20  32  49  72 103 135 173 215 250 311
#     4  11  19  34  50  71 104 141 175 215 257 308
#
# _framework density 16.163734999999999
#
# number of rings (size 3 to 8) (size 9 to 14) (size 15 to 20)
#    0.000    1.600    4.000    3.600    3.733    0.000 
#    0.000    0.000    0.000    0.000    0.000    0.933 
#    0.000    3.200    0.000    0.000    0.000    0.000 
#
# Total GULP energy -167092.004926 kJ/mol
# GULP energy per Si atom -5569.733498 kJ/mol
# Density = 1.612695 g / cm^3
# Si number density = 16.163735 Si / 1000 Ang^3
#
#
#
# Elastic Constant Matrix: (Units=GPa)
#
#
# Indices 1 2 3 4 5 6 
#
# 1 116.7145 44.6198 44.7838 0.0000 25.5406 0.0000
# 2 44.6198 110.0350 31.2519 0.0000 10.1386 0.0000
# 3 44.7838 31.2519 108.4989 0.0000 13.1336 0.0000
# 4 0.0000 0.0000 0.0000 19.1104 0.0000 3.5920
# 5 25.5406 10.1386 13.1336 0.0000 31.3831 0.0000
# 6 0.0000 0.0000 0.0000 3.5920 0.0000 27.2846
#
#
#
# Elastic Compliance Matrix: (Units=1/GPa)
#
#
# Indices 1 2 3 4 5 6 
#
# 1 0.012971 -0.003569 -0.003358 0.000000 -0.007998 0.000000
# 2 -0.003569 0.011015 -0.001707 0.000000 0.000061 0.000000
# 3 -0.003358 -0.001707 0.011267 0.000000 -0.001431 0.000000
# 4 0.000000 0.000000 0.000000 0.053655 0.000000 -0.007064
# 5 -0.007998 0.000061 -0.001431 0.000000 0.038953 0.000000
# 6 0.000000 0.000000 0.000000 -0.007064 0.000000 0.037581
#
#
# Mechanical properties :
#
#
# Convention : Reuss Voigt Hill
#
# Bulk Modulus (GPa) = 55.59970 64.06216 59.83093
# Shear Modulus (GPa) = 26.49653 29.86181 28.17917
#
# Velocity S-wave (km/s) = 4.05317 4.30287 4.17988
# Velocity P-wave (km/s) = 7.50844 8.02531 7.77117
#
# Compressibility (1/GPa) = 0.01798571
#
# Stress axis : x y z
#
# Youngs Moduli (GPa) = 77.09523 90.78933 88.75115
#
# Poissons Ratio (x) = 0.32405 0.29800
# Poissons Ratio (y) = 0.27517 0.15147
# Poissons Ratio (z) = 0.25886 0.15495
#
# Static dielectric constant tensor:
#      x y z
#    x 1.580640 0.000000 0.009050 
#    y 0.000000 1.543570 0.000000 
#    z 0.009050 0.000000 1.611910 
# 
# From -- ./inp_files/68042.got.cif
#   From: 2010.05.17/outbox.cif.g08.bks.cpg/sg10_35_cif.got.tgz:68042.got - 2010.06.03 11:33:40.
