data_PCOD9148575
_publ_section_title
;
Structure prediction by ZEFSAII (Michael W. Deem and Ramdas Pophale) SiO2 
 PCOD9148575
Probable space group: P 2/M
;
_chemical_formula_sum "Si O2"
_cell_formula_units_Z 32
_cell_length_a 21.312235
_cell_length_b 9.286197
_cell_length_c 9.469208
_cell_angle_alpha 90.000000
_cell_angle_beta 95.206632
_cell_angle_gamma 90.000000
_cell_volume 1866.314784
_symmetry_space_group_name_H-M "P 2/M"
_symmetry_group_IT_number 10
_symmetry_cell_setting 'monoclinic'
loop_
_space_group_symop_operation_xyz
x,y,z
-x,y,-z
-x,-y,-z
x,-y,z
loop_
_atom_site_type_symbol
_atom_site_label
_atom_site_fract_x
_atom_site_fract_y
_atom_site_fract_z
Si Si1 0.269338 0.170924 0.223302
Si Si2 0.610942 0.830898 0.562886
Si Si3 0.935546 0.665547 0.079470
Si Si4 0.466406 0.667670 0.225017
Si Si5 0.656898 0.332235 0.997887
Si Si6 0.405498 0.829897 0.772051
Si Si7 0.996277 0.172975 0.664032
Si Si8 0.126964 0.171705 0.181122
O O1 0.320518 0.199654 0.355991
O O2 0.291316 0.259676 0.091540
O O3 0.197397 0.204410 0.247214
O O4 0.273161 0.000000 0.192821
O O5 0.560690 0.734702 0.635981
O O6 0.609489 0.807942 0.396056
O O7 0.596236 0.000000 0.586999
O O8 0.917786 0.500000 0.101043
O O9 0.952735 0.747681 0.227085
O O10 0.886756 0.747311 0.968381
O O11 0.000000 0.666642 0.000000
O O12 0.483161 0.500000 0.244263
O O13 0.408870 0.678394 0.102973
O O14 0.526722 0.757103 0.189120
O O15 0.669967 0.500000 0.025004
O O16 0.645211 0.246151 0.138728
O O17 0.408138 0.000000 0.801542
O O18 0.927798 0.208210 0.717646
O O19 0.000000 0.212340 0.500000
O O20 0.004926 0.000000 0.676984
O O21 0.122263 0.000000 0.155451
#
# Coordination Sequence:
#
# PCOD9148575 Si02
#       8
#     4   4   4   4   4   4   4   4
#     4   9  18  35  55  71  91 125 167 204 241 289
#     4   9  19  34  50  70  97 127 161 202 246 295
#     4   9  17  29  47  72 101 132 164 198 237 281
#     4  10  20  33  50  72  96 125 162 202 248 301
#     4  10  21  35  50  70  97 126 159 203 249 293
#     4  11  21  32  49  73  99 127 160 201 250 299
#     4   9  17  30  49  76 108 135 162 201 246 288
#     4   9  17  31  53  75  95 127 168 204 239 285
#
# _framework density 17.146089
#
# number of rings (size 3 to 8) (size 9 to 14) (size 15 to 20)
#    0.000    2.500    0.000    2.250    0.000    7.750 
#    0.000    1.250    0.000    4.500    0.000    0.000 
#    0.000    0.000    0.000    0.000    0.000    0.000 
#
# Total GULP energy -178491.338523 kJ/mol
# GULP energy per Si atom -5577.854329 kJ/mol
# Density = 1.710706 g / cm^3
# Si number density = 17.146089 Si / 1000 Ang^3
#
#
#
# Elastic Constant Matrix: (Units=GPa)
#
#
# Indices 1 2 3 4 5 6 
#
# 1 60.7712 25.4982 15.6303 0.0000 -4.9316 0.0000
# 2 25.4982 57.9322 44.7490 0.0000 -7.4687 0.0000
# 3 15.6303 44.7490 85.0705 0.0000 -11.6752 0.0000
# 4 0.0000 0.0000 0.0000 7.6728 0.0000 5.2034
# 5 -4.9316 -7.4687 -11.6752 0.0000 14.6162 0.0000
# 6 0.0000 0.0000 0.0000 5.2034 0.0000 11.1643
#
#
#
# Elastic Compliance Matrix: (Units=1/GPa)
#
#
# Indices 1 2 3 4 5 6 
#
# 1 0.020461 -0.010149 0.002038 0.000000 0.003346 0.000000
# 2 -0.010149 0.034224 -0.015957 0.000000 0.001318 0.000000
# 3 0.002038 -0.015957 0.021058 0.000000 0.009355 0.000000
# 4 0.000000 0.000000 0.000000 0.190564 0.000000 -0.088817
# 5 0.003346 0.001318 0.009355 0.000000 0.077692 0.000000
# 6 0.000000 0.000000 0.000000 -0.088817 0.000000 0.130967
#
#
# Mechanical properties :
#
#
# Convention : Reuss Voigt Hill
#
# Bulk Modulus (GPa) = 36.22155 41.72543 38.97349
# Shear Modulus (GPa) = 9.39314 14.55041 11.97178
#
# Velocity S-wave (km/s) = 2.34312 2.91626 2.64526
# Velocity P-wave (km/s) = 5.33773 5.97725 5.66652
#
# Compressibility (1/GPa) = 0.02760787
#
# Stress axis : x y z
#
# Youngs Moduli (GPa) = 48.87455 29.21919 47.48754
#
# Poissons Ratio (x) = 0.29653 -0.09679
# Poissons Ratio (y) = 0.49601 0.75777
# Poissons Ratio (z) = -0.09962 0.46626
#
# Static dielectric constant tensor:
#      x y z
#    x 1.577440 0.000000 0.007920 
#    y 0.000000 1.574710 0.000000 
#    z 0.007920 0.000000 1.568640 
# 
# From -- ./inp_files/35682.got.cif
#   From: 2010.05.17/outbox.cif.g08.bks.cpg/sg10_18_cif.got.tgz:35682.got - 2010.06.03 11:33:40.
