data_PCOD9148667
_publ_section_title
;
Structure prediction by ZEFSAII (Michael W. Deem and Ramdas Pophale) SiO2 
 PCOD9148667
Probable space group: P 2/M
;
_chemical_formula_sum "Si O2"
_cell_formula_units_Z 30
_cell_length_a 9.525367
_cell_length_b 14.225231
_cell_length_c 13.831138
_cell_angle_alpha 90.000000
_cell_angle_beta 115.611624
_cell_angle_gamma 90.000000
_cell_volume 1689.984140
_symmetry_space_group_name_H-M "P 2/M"
_symmetry_group_IT_number 10
_symmetry_cell_setting 'monoclinic'
loop_
_space_group_symop_operation_xyz
x,y,z
-x,y,-z
-x,-y,-z
x,-y,z
loop_
_atom_site_type_symbol
_atom_site_label
_atom_site_fract_x
_atom_site_fract_y
_atom_site_fract_z
Si Si1 0.181676 0.808314 0.545726
Si Si2 0.387219 0.886490 0.785237
Si Si3 0.884062 0.108121 0.169051
Si Si4 0.314746 0.785191 0.191448
Si Si5 0.265244 0.607224 0.504604
Si Si6 0.000000 0.833360 0.000000
Si Si7 0.793603 0.886739 0.652435
Si Si8 0.373138 0.394757 0.325434
O O1 0.283836 0.850325 0.663312
O O2 0.190700 0.694838 0.538522
O O3 0.249629 0.848989 0.465431
O O4 0.000000 0.836924 0.500000
O O5 0.283481 0.856860 0.847245
O O6 0.552223 0.834788 0.831377
O O7 0.409268 0.000000 0.787728
O O8 0.030245 0.148984 0.271579
O O9 0.881358 0.000000 0.198248
O O10 0.927014 0.112377 0.069502
O O11 0.303711 0.846830 0.286901
O O12 0.355330 0.681737 0.238284
O O13 0.148154 0.781920 0.089836
O O14 0.205736 0.500000 0.503128
O O15 0.446919 0.606311 0.588511
O O16 0.269743 0.626207 0.390264
O O17 0.788206 0.000000 0.652082
O O18 0.334299 0.500000 0.282078
#
# Coordination Sequence:
#
# PCOD9148667 Si02
#       8
#     4   4   4   4   4   2   4   4
#     4  12  21  32  53  80 116 156 180 215 268 326
#     4  11  23  35  53  83 116 147 186 223 264 328
#     4   9  19  37  55  76 105 145 189 228 270 317
#     4  11  21  38  56  82 107 142 185 237 278 319
#     4   9  18  33  53  81 110 144 185 222 265 324
#     4  10  23  38  61  78 102 140 186 238 288 326
#     4  10  20  33  51  76 114 154 185 213 260 325
#     4   9  17  33  58  80 106 141 180 224 271 326
#
# _framework density 17.751646999999998
#
# number of rings (size 3 to 8) (size 9 to 14) (size 15 to 20)
#    0.000    1.867    4.000    1.800    0.000    3.467 
#    0.000    3.000    0.000    0.000    0.000    2.800 
#    0.000    0.000    0.000    0.000    0.000    0.000 
#
# Total GULP energy -167155.991182 kJ/mol
# GULP energy per Si atom -5571.866373 kJ/mol
# Density = 1.771124 g / cm^3
# Si number density = 17.751647 Si / 1000 Ang^3
#
#
#
# Elastic Constant Matrix: (Units=GPa)
#
#
# Indices 1 2 3 4 5 6 
#
# 1 92.1380 20.0569 19.4792 0.0000 -6.8634 0.0000
# 2 20.0569 83.0653 10.4394 0.0000 1.4942 0.0000
# 3 19.4792 10.4394 49.7551 0.0000 -3.1261 0.0000
# 4 0.0000 0.0000 0.0000 6.4584 0.0000 -0.1328
# 5 -6.8634 1.4942 -3.1261 0.0000 21.6478 0.0000
# 6 0.0000 0.0000 0.0000 -0.1328 0.0000 18.8039
#
#
#
# Elastic Compliance Matrix: (Units=1/GPa)
#
#
# Indices 1 2 3 4 5 6 
#
# 1 0.012557 -0.002574 -0.004152 0.000000 0.003559 0.000000
# 2 -0.002574 0.012925 -0.001828 0.000000 -0.001972 0.000000
# 3 -0.004152 -0.001828 0.022235 0.000000 0.002021 0.000000
# 4 0.000000 0.000000 0.000000 0.154859 0.000000 0.001093
# 5 0.003559 -0.001972 0.002021 0.000000 0.047750 0.000000
# 6 0.000000 0.000000 0.000000 0.001093 0.000000 0.053188
#
#
# Mechanical properties :
#
#
# Convention : Reuss Voigt Hill
#
# Bulk Modulus (GPa) = 32.67147 36.10106 34.38626
# Shear Modulus (GPa) = 15.11369 21.04755 18.08062
#
# Velocity S-wave (km/s) = 2.92104 3.44709 3.19491
# Velocity P-wave (km/s) = 5.46089 6.01865 5.74654
#
# Compressibility (1/GPa) = 0.03060775
#
# Stress axis : x y z
#
# Youngs Moduli (GPa) = 79.63946 77.36653 44.97502
#
# Poissons Ratio (x) = 0.19915 0.18675
# Poissons Ratio (y) = 0.20500 0.08222
# Poissons Ratio (z) = 0.33068 0.14144
#
# Static dielectric constant tensor:
#      x y z
#    x 1.655580 0.000000 -0.012300 
#    y 0.000000 1.603840 0.000000 
#    z -0.012300 0.000000 1.610970 
# 
# From -- ./inp_files/43010.got.cif
#   From: 2010.05.17/outbox.cif.g08.bks.cpg/sg10_22_cif.got.tgz:43010.got - 2010.06.03 11:33:40.
