data_PCOD9148220
_publ_section_title
;
Structure prediction by ZEFSAII (Michael W. Deem and Ramdas Pophale) SiO2 
 PCOD9148220
Probable space group: P 2/M
;
_chemical_formula_sum "Si O2"
_cell_formula_units_Z 28
_cell_length_a 25.772113
_cell_length_b 18.436688
_cell_length_c 23.361335
_cell_angle_alpha 90.000000
_cell_angle_beta 10.658497
_cell_angle_gamma 90.000000
_cell_volume 2053.034233
_symmetry_space_group_name_H-M "P 2/M"
_symmetry_group_IT_number 10
_symmetry_cell_setting 'monoclinic'
loop_
_space_group_symop_operation_xyz
x,y,z
-x,y,-z
-x,-y,-z
x,-y,z
loop_
_atom_site_type_symbol
_atom_site_label
_atom_site_fract_x
_atom_site_fract_y
_atom_site_fract_z
Si Si1 0.439082 0.412101 0.840582
Si Si2 0.609298 0.082575 0.815396
Si Si3 0.542914 0.411690 0.388218
Si Si4 0.192867 0.587122 0.452816
Si Si5 0.106550 0.836738 0.318459
Si Si6 0.179056 0.309237 0.362210
Si Si7 0.170443 0.411602 0.686864
O O1 0.454565 0.500000 0.823060
O O2 0.567676 0.389516 0.762209
O O3 0.634332 0.386444 0.576935
O O4 0.112182 0.394284 0.190277
O O5 0.929783 0.106952 0.472723
O O6 0.572054 0.000000 0.835968
O O7 0.500000 0.084756 0.000000
O O8 0.426931 0.138982 0.976180
O O9 0.500000 0.387455 0.500000
O O10 0.539289 0.500000 0.393454
O O11 0.304158 0.389601 0.602514
O O12 0.847080 0.389512 0.034886
O O13 0.206939 0.500000 0.430454
O O14 0.214050 0.626501 0.369294
O O15 0.000000 0.841488 0.500000
O O16 0.005077 0.756468 0.411763
O O17 0.000000 0.331064 0.500000
O O18 0.500000 0.283986 0.000000
O O19 0.172785 0.500000 0.682805
#
# Coordination Sequence:
#
# PCOD9148220 Si02
#       7
#     4   4   4   4   4   4   4
#     4   9  17  29  42  54  66  81 106 141 177 209
#     4   9  15  23  37  55  73  91 109 127 144 171
#     4   9  15  21  30  47  69  89 107 124 145 184
#     4  10  20  32  44  56  67  81 109 148 183 219
#     4   9  16  26  37  52  72  91 109 126 152 196
#     4  11  21  32  44  55  70  90 108 134 178 227
#     4   9  15  23  35  48  64  86 106 127 159 194
#
# _framework density 13.638351
#
# number of rings (size 3 to 8) (size 9 to 14) (size 15 to 20)
#    0.000    2.571    0.000    4.714    0.000    7.429 
#    0.000    0.000    0.000    0.000    0.000    0.000 
#    0.000    0.000    0.000    0.000    0.000    0.000 
#
# Total GULP energy -155891.221267 kJ/mol
# GULP energy per Si atom -5567.543617 kJ/mol
# Density = 1.360731 g / cm^3
# Si number density = 13.638351 Si / 1000 Ang^3
#
#
#
# Elastic Constant Matrix: (Units=GPa)
#
#
# Indices 1 2 3 4 5 6 
#
# 1 28.5914 6.1078 -4.0586 0.0000 -6.7557 0.0000
# 2 6.1078 25.6811 2.7294 0.0000 -0.4620 0.0000
# 3 -4.0586 2.7294 26.4373 0.0000 -11.2005 0.0000
# 4 0.0000 0.0000 0.0000 8.1243 0.0000 -6.2936
# 5 -6.7557 -0.4620 -11.2005 0.0000 21.7716 0.0000
# 6 0.0000 0.0000 0.0000 -6.2936 0.0000 4.0657
#
#
#
# Elastic Compliance Matrix: (Units=1/GPa)
#
#
# Indices 1 2 3 4 5 6 
#
# 1 0.045687 -0.012375 0.018140 0.000000 0.023246 0.000000
# 2 -0.012375 0.042767 -0.009664 0.000000 -0.007904 0.000000
# 3 0.018140 -0.009664 0.056142 0.000000 0.034306 0.000000
# 4 0.000000 0.000000 0.000000 -0.617976 0.000000 -0.956624
# 5 0.023246 -0.007904 0.034306 0.000000 0.070626 0.000000
# 6 0.000000 0.000000 0.000000 -0.956624 0.000000 -1.234888
#
#
# Mechanical properties :
#
#
# Convention : Reuss Voigt Hill
#
# Bulk Modulus (GPa) = 7.31009 10.02966 8.66988
# Shear Modulus (GPa) = -3.15608 11.85440 4.34916
#
# Velocity S-wave (km/s) = -1.52287 2.95141 1.78769
# Velocity P-wave (km/s) = 1.50977 4.35711 3.26066
#
# Compressibility (1/GPa) = 0.13679718
#
# Stress axis : x y z
#
# Youngs Moduli (GPa) = 21.88817 23.38234 17.81197
#
# Poissons Ratio (x) = 0.28937 -0.32311
# Poissons Ratio (y) = 0.27088 0.17213
# Poissons Ratio (z) = -0.39705 0.22596
#
# Static dielectric constant tensor:
#      x y z
#    x 1.451530 0.000000 -0.012040 
#    y 0.000000 1.447490 0.000000 
#    z -0.012040 0.000000 1.470620 
# 
# From -- ./inp_files/91318.got.cif
#   From: 2010.05.17/outbox.cif.g08.bks.cpg/sg10_46_cif.got.tgz:91318.got - 2010.06.03 11:33:40.
