data_PCOD9148278
_publ_section_title
;
Structure prediction by ZEFSAII (Michael W. Deem and Ramdas Pophale) SiO2 
 PCOD9148278
Probable space group: P 2/M
;
_chemical_formula_sum "Si O2"
_cell_formula_units_Z 32
_cell_length_a 13.196406
_cell_length_b 9.196564
_cell_length_c 15.221319
_cell_angle_alpha 90.000000
_cell_angle_beta 73.962971
_cell_angle_gamma 90.000000
_cell_volume 1775.393438
_symmetry_space_group_name_H-M "P 2/M"
_symmetry_group_IT_number 10
_symmetry_cell_setting 'monoclinic'
loop_
_space_group_symop_operation_xyz
x,y,z
-x,y,-z
-x,-y,-z
x,-y,z
loop_
_atom_site_type_symbol
_atom_site_label
_atom_site_fract_x
_atom_site_fract_y
_atom_site_fract_z
Si Si1 0.839971 0.672659 0.906347
Si Si2 0.431962 0.330106 0.267994
Si Si3 0.853626 0.166254 0.076447
Si Si4 0.798482 0.332373 0.362497
Si Si5 0.398092 0.677315 0.080885
Si Si6 0.683041 0.339149 0.202036
Si Si7 0.393989 0.321774 0.471934
Si Si8 0.018045 0.830325 0.771460
O O1 0.850331 0.500000 0.897671
O O2 0.736582 0.786274 0.133340
O O3 0.716255 0.712402 0.930874
O O4 0.882173 0.730319 0.989413
O O5 0.398497 0.500000 0.275756
O O6 0.399675 0.268262 0.181285
O O7 0.558693 0.327508 0.238211
O O8 0.396334 0.269633 0.370580
O O9 0.908997 0.253289 0.813507
O O10 0.861148 0.000000 0.045000
O O11 0.921060 0.182323 0.149102
O O12 0.826605 0.500000 0.375828
O O13 0.732846 0.334552 0.286887
O O14 0.713809 0.277811 0.453840
O O15 0.903234 0.240707 0.318264
O O16 0.405550 0.500000 0.081885
O O17 0.500000 0.725997 0.000000
O O18 0.708628 0.500000 0.157382
O O19 0.500000 0.277741 0.500000
O O20 0.396046 0.500000 0.471667
O O21 0.001503 0.000000 0.757849
#
# Coordination Sequence:
#
# PCOD9148278 Si02
#       8
#     4   4   4   4   4   4   4   4
#     4  11  21  33  51  72  94 124 168 212 245 287
#     4   9  15  25  45  72 103 135 164 200 248 293
#     4  10  20  32  47  69  98 129 161 200 250 301
#     4   9  16  27  46  75 105 128 158 198 240 294
#     4   9  18  31  47  71 101 131 165 202 241 287
#     4   9  15  25  45  71  99 131 162 194 235 289
#     4   9  14  23  43  76 110 133 157 198 252 300
#     4  10  21  35  50  69  97 131 164 200 251 305
#
# _framework density 18.024173000000001
#
# number of rings (size 3 to 8) (size 9 to 14) (size 15 to 20)
#    0.000    2.500    1.250    2.250    0.000    5.000 
#    0.000    0.000    0.000    8.625    0.000    5.250 
#    0.000    0.000    0.000    0.000    0.000    0.000 
#
# Total GULP energy -178303.645817 kJ/mol
# GULP energy per Si atom -5571.988932 kJ/mol
# Density = 1.798315 g / cm^3
# Si number density = 18.024173 Si / 1000 Ang^3
#
#
#
# Elastic Constant Matrix: (Units=GPa)
#
#
# Indices 1 2 3 4 5 6 
#
# 1 58.0014 31.7640 41.1530 0.0000 -17.5810 0.0000
# 2 31.7640 44.5296 32.4034 0.0000 -13.7511 0.0000
# 3 41.1530 32.4034 119.7730 0.0000 -19.9991 0.0000
# 4 0.0000 0.0000 0.0000 5.5227 0.0000 1.9116
# 5 -17.5810 -13.7511 -19.9991 0.0000 27.5061 0.0000
# 6 0.0000 0.0000 0.0000 1.9116 0.0000 1.2890
#
#
#
# Elastic Compliance Matrix: (Units=1/GPa)
#
#
# Indices 1 2 3 4 5 6 
#
# 1 0.032900 -0.016942 -0.005262 0.000000 0.008733 0.000000
# 2 -0.016942 0.039134 -0.003765 0.000000 0.005998 0.000000
# 3 -0.005262 -0.003765 0.011723 0.000000 0.003278 0.000000
# 4 0.000000 0.000000 0.000000 0.372081 0.000000 -0.551830
# 5 0.008733 0.005998 0.003278 0.000000 0.047319 0.000000
# 6 0.000000 0.000000 0.000000 -0.551830 0.000000 1.594233
#
#
# Mechanical properties :
#
#
# Convention : Reuss Voigt Hill
#
# Bulk Modulus (GPa) = 31.42832 48.10497 39.76665
# Shear Modulus (GPa) = 2.31488 14.66245 8.48867
#
# Velocity S-wave (km/s) = 1.13451 2.85527 2.17252
# Velocity P-wave (km/s) = 4.38073 6.13328 5.32954
#
# Compressibility (1/GPa) = 0.03181843
#
# Stress axis : x y z
#
# Youngs Moduli (GPa) = 30.39510 25.55323 85.30182
#
# Poissons Ratio (x) = 0.43293 0.44890
# Poissons Ratio (y) = 0.51496 0.32113
# Poissons Ratio (z) = 0.15995 0.09620
#
# Static dielectric constant tensor:
#      x y z
#    x 1.620670 0.000000 -0.001850 
#    y 0.000000 1.601010 0.000000 
#    z -0.001850 0.000000 1.649750 
# 
# From -- ./inp_files/67009.got.cif
#   From: 2010.05.17/outbox.cif.g08.bks.cpg/sg10_34_cif.got.tgz:67009.got - 2010.06.03 11:33:40.
