data_PCOD9148315
_publ_section_title
;
Structure prediction by ZEFSAII (Michael W. Deem and Ramdas Pophale) SiO2 
 PCOD9148315
Probable space group: P 2/M
;
_chemical_formula_sum "Si O2"
_cell_formula_units_Z 24
_cell_length_a 9.356449
_cell_length_b 7.896612
_cell_length_c 21.740244
_cell_angle_alpha 90.000000
_cell_angle_beta 131.321184
_cell_angle_gamma 90.000000
_cell_volume 1206.334658
_symmetry_space_group_name_H-M "P 2/M"
_symmetry_group_IT_number 10
_symmetry_cell_setting 'monoclinic'
loop_
_space_group_symop_operation_xyz
x,y,z
-x,y,-z
-x,-y,-z
x,-y,z
loop_
_atom_site_type_symbol
_atom_site_label
_atom_site_fract_x
_atom_site_fract_y
_atom_site_fract_z
Si Si1 0.719209 0.301296 0.409237
Si Si2 0.422484 0.699761 0.231339
Si Si3 0.231408 0.793789 0.760203
Si Si4 0.942742 0.193957 0.581984
Si Si5 0.291959 0.207357 0.917284
Si Si6 0.014546 0.801775 0.072570
O O1 0.744889 0.500000 0.402034
O O2 0.516382 0.249721 0.323590
O O3 0.771045 0.277052 0.495211
O O4 0.877549 0.204461 0.414018
O O5 0.383523 0.500000 0.221674
O O6 0.586564 0.735235 0.227573
O O7 0.228283 0.789042 0.158081
O O8 0.251057 0.738061 0.835975
O O9 0.037734 0.734608 0.671014
O O10 0.230039 0.000000 0.757619
O O11 0.889877 0.000000 0.577381
O O12 0.133317 0.269370 0.920000
O O13 0.288536 0.000000 0.914922
O O14 0.500000 0.257688 0.000000
O O15 0.962529 0.000000 0.051847
O O16 0.000000 0.726160 0.000000
#
# Coordination Sequence:
#
# PCOD9148315 Si02
#       6
#     4   4   4   4   4   4
#     4   9  16  26  41  63  93 127 160 193 232 278
#     4  10  20  32  48  72 101 131 162 198 239 283
#     4   9  17  30  49  73 100 128 161 201 242 286
#     4   9  15  23  40  67  95 122 155 197 240 277
#     4   9  17  31  52  75  97 122 156 198 241 287
#     4  10  20  34  54  76  96 124 161 198 240 289
#
# _framework density 19.894976
#
# number of rings (size 3 to 8) (size 9 to 14) (size 15 to 20)
#    0.000    2.667    0.000    3.500    0.000    5.667 
#    0.000    0.833    0.000    3.000    0.000    7.000 
#    0.000    0.000    0.000    0.000    0.000    0.000 
#
# Total GULP energy -133746.095131 kJ/mol
# GULP energy per Si atom -5572.753964 kJ/mol
# Density = 1.984969 g / cm^3
# Si number density = 19.894976 Si / 1000 Ang^3
#
#
#
# Elastic Constant Matrix: (Units=GPa)
#
#
# Indices 1 2 3 4 5 6 
#
# 1 75.5041 -3.7471 68.7998 0.0000 -6.6939 0.0000
# 2 -3.7471 19.8614 -3.2343 0.0000 -4.6642 0.0000
# 3 68.7998 -3.2343 201.0840 0.0000 -17.4051 0.0000
# 4 0.0000 0.0000 0.0000 23.2039 0.0000 14.2871
# 5 -6.6939 -4.6642 -17.4051 0.0000 22.5888 0.0000
# 6 0.0000 0.0000 0.0000 14.2871 0.0000 1.5712
#
#
#
# Elastic Compliance Matrix: (Units=1/GPa)
#
#
# Indices 1 2 3 4 5 6 
#
# 1 0.019412 0.002929 -0.006476 0.000000 0.001367 0.000000
# 2 0.002929 0.054061 0.000974 0.000000 0.012781 0.000000
# 3 -0.006476 0.000974 0.007560 0.000000 0.004107 0.000000
# 4 0.000000 0.000000 0.000000 -0.009371 0.000000 0.085213
# 5 0.001367 0.012781 0.004107 0.000000 0.050478 0.000000
# 6 0.000000 0.000000 0.000000 0.085213 0.000000 -0.138396
#
#
# Mechanical properties :
#
#
# Convention : Reuss Voigt Hill
#
# Bulk Modulus (GPa) = 13.17767 46.67627 29.92697
# Shear Modulus (GPa) = 352.39892 25.11485 188.75688
#
# Velocity S-wave (km/s) = 13.32344 3.55684 9.75103
# Velocity P-wave (km/s) = 15.59883 6.35456 11.91016
#
# Compressibility (1/GPa) = 0.07588596
#
# Stress axis : x y z
#
# Youngs Moduli (GPa) = 51.51423 18.49747 132.27455
#
# Poissons Ratio (x) = -0.05417 0.85665
# Poissons Ratio (y) = -0.15087 -0.12881
# Poissons Ratio (z) = 0.33362 -0.01801
#
# Static dielectric constant tensor:
#      x y z
#    x 1.664400 0.000000 -0.021810 
#    y 0.000000 1.704610 0.000000 
#    z -0.021810 0.000000 1.754330 
# 
# From -- ./inp_files/35648.got.cif
#   From: 2010.05.17/outbox.cif.g08.bks.cpg/sg10_18_cif.got.tgz:35648.got - 2010.06.03 11:33:40.
