data_PCOD9148967
_publ_section_title
;
Structure prediction by ZEFSAII (Michael W. Deem and Ramdas Pophale) SiO2 
 PCOD9148967
Probable space group: P 2/M
;
_chemical_formula_sum "Si O2"
_cell_formula_units_Z 32
_cell_length_a 19.079390
_cell_length_b 7.400992
_cell_length_c 27.305385
_cell_angle_alpha 90.000000
_cell_angle_beta 20.908910
_cell_angle_gamma 90.000000
_cell_volume 1376.033214
_symmetry_space_group_name_H-M "P 2/M"
_symmetry_group_IT_number 10
_symmetry_cell_setting 'monoclinic'
loop_
_space_group_symop_operation_xyz
x,y,z
-x,y,-z
-x,-y,-z
x,-y,z
loop_
_atom_site_type_symbol
_atom_site_label
_atom_site_fract_x
_atom_site_fract_y
_atom_site_fract_z
Si Si1 0.606794 0.289796 0.978903
Si Si2 0.447357 0.717428 0.433973
Si Si3 0.164472 0.220021 0.454849
Si Si4 0.056005 0.780562 0.018683
Si Si5 0.030239 0.720444 0.738219
Si Si6 0.269147 0.217958 0.275782
Si Si7 0.771200 0.706434 0.292339
Si Si8 0.471484 0.210993 0.726993
O O1 0.644387 0.500000 0.942741
O O2 0.453957 0.281191 0.123798
O O3 0.500000 0.211837 0.000000
O O4 0.819337 0.214059 0.856626
O O5 0.454634 0.500000 0.430617
O O6 0.219502 0.771335 0.582204
O O7 0.569024 0.784352 0.401798
O O8 0.549806 0.775844 0.317208
O O9 0.249003 0.270100 0.346070
O O10 0.320660 0.286937 0.392126
O O11 0.941011 0.279532 0.608744
O O12 0.153093 0.000000 0.462533
O O13 0.913549 0.706906 0.152636
O O14 0.047393 0.000000 0.027014
O O15 0.279947 0.716947 0.878931
O O16 0.000000 0.729493 0.000000
O O17 0.017203 0.500000 0.748368
O O18 0.103583 0.782841 0.744202
O O19 0.277693 0.000000 0.269070
O O20 0.725984 0.500000 0.336544
O O21 0.476941 0.000000 0.736143
#
# Coordination Sequence:
#
# PCOD9148967 Si02
#       8
#     4   4   4   4   4   4   4   4
#     4  10  22  38  55  77 109 144 172 210 268 322
#     4  10  20  35  56  79 103 137 182 224 260 303
#     4   8  17  34  56  80 106 139 173 214 265 311
#     4  10  20  34  51  75 110 144 168 204 265 321
#     4   9  20  38  56  76 105 141 177 217 267 314
#     4   9  18  36  59  80 104 135 177 221 260 307
#     4  10  20  35  57  79 102 136 181 226 259 301
#     4  10  20  34  53  77 109 144 174 209 261 319
#
# _framework density 23.255253
#
# number of rings (size 3 to 8) (size 9 to 14) (size 15 to 20)
#    0.000    2.500    1.250    1.125    3.500    2.500 
#    0.000    3.125    0.000    1.500    0.000    0.000 
#    0.000    0.000    0.000    0.000    0.000    0.000 
#
# Total GULP energy -178635.182574 kJ/mol
# GULP energy per Si atom -5582.349455 kJ/mol
# Density = 2.320232 g / cm^3
# Si number density = 23.255253 Si / 1000 Ang^3
#
#
#
# Elastic Constant Matrix: (Units=GPa)
#
#
# Indices 1 2 3 4 5 6 
#
# 1 98.3816 -1.3632 47.2320 0.0000 -43.4066 0.0000
# 2 -1.3632 75.2314 -6.8834 0.0000 -9.2583 0.0000
# 3 47.2320 -6.8834 146.7755 0.0000 -30.4606 0.0000
# 4 0.0000 0.0000 0.0000 13.7738 0.0000 2.4720
# 5 -43.4066 -9.2583 -30.4606 0.0000 41.8236 0.0000
# 6 0.0000 0.0000 0.0000 2.4720 0.0000 -0.2299
#
#
#
# Elastic Compliance Matrix: (Units=1/GPa)
#
#
# Indices 1 2 3 4 5 6 
#
# 1 0.019929 0.002575 -0.002217 0.000000 0.019639 0.000000
# 2 0.002575 0.014281 0.001239 0.000000 0.006737 0.000000
# 3 -0.002217 0.001239 0.008440 0.000000 0.004120 0.000000
# 4 0.000000 0.000000 0.000000 0.024782 0.000000 0.266453
# 5 0.019639 0.006737 0.004120 0.000000 0.048785 0.000000
# 6 0.000000 0.000000 0.000000 0.266453 0.000000 -1.484670
#
#
# Mechanical properties :
#
#
# Convention : Reuss Voigt Hill
#
# Bulk Modulus (GPa) = 21.81229 44.26215 33.03722
# Shear Modulus (GPa) = -3.68632 29.83369 13.07369
#
# Velocity S-wave (km/s) = -1.26040 3.58562 2.37361
# Velocity P-wave (km/s) = 2.69847 6.01803 4.66361
#
# Compressibility (1/GPa) = 0.04584571
#
# Stress axis : x y z
#
# Youngs Moduli (GPa) = 50.17720 70.02125 118.48791
#
# Poissons Ratio (x) = -0.18032 0.26265
# Poissons Ratio (y) = -0.12922 -0.14682
# Poissons Ratio (z) = 0.11123 -0.08676
#
# Static dielectric constant tensor:
#      x y z
#    x 1.891650 0.000000 -0.043260 
#    y 0.000000 1.895740 0.000000 
#    z -0.043260 0.000000 1.842320 
# 
# From -- ./inp_files/69178.got.cif
#   From: 2010.05.17/outbox.cif.g08.bks.cpg/sg10_35_cif.got.tgz:69178.got - 2010.06.03 11:33:40.
