data_PCOD9148085
_publ_section_title
;
Structure prediction by ZEFSAII (Michael W. Deem and Ramdas Pophale) SiO2 
 PCOD9148085
Probable space group: P 2/M
;
_chemical_formula_sum "Si O2"
_cell_formula_units_Z 30
_cell_length_a 17.534630
_cell_length_b 13.458540
_cell_length_c 18.541115
_cell_angle_alpha 90.000000
_cell_angle_beta 159.970797
_cell_angle_gamma 90.000000
_cell_volume 1498.613960
_symmetry_space_group_name_H-M "P 2/M"
_symmetry_group_IT_number 10
_symmetry_cell_setting 'monoclinic'
loop_
_space_group_symop_operation_xyz
x,y,z
-x,y,-z
-x,-y,-z
x,-y,z
loop_
_atom_site_type_symbol
_atom_site_label
_atom_site_fract_x
_atom_site_fract_y
_atom_site_fract_z
Si Si1 0.000000 0.180859 0.500000
Si Si2 0.685409 0.389169 0.793645
Si Si3 0.694022 0.106837 0.112795
Si Si4 0.992215 0.273963 0.173364
Si Si5 0.594185 0.237093 0.233308
Si Si6 0.265348 0.611384 0.528306
Si Si7 0.468317 0.200052 0.548198
Si Si8 0.401525 0.884057 0.182153
O O1 0.912648 0.119403 0.354243
O O2 0.790558 0.236744 0.348748
O O3 0.723068 0.500000 0.796977
O O4 0.462423 0.392327 0.644381
O O5 0.628822 0.298360 0.690049
O O6 0.880903 0.355319 0.021426
O O7 0.695890 0.000000 0.075383
O O8 0.500000 0.100978 0.000000
O O9 0.626651 0.201606 0.005503
O O10 0.072170 0.323398 0.319432
O O11 0.213682 0.231967 0.333088
O O12 0.811560 0.186589 0.021884
O O13 0.622441 0.337767 0.302678
O O14 0.592491 0.154435 0.296344
O O15 0.188008 0.500000 0.474479
O O16 0.500000 0.147507 0.500000
O O17 0.531226 0.140069 0.675882
O O18 0.358666 0.000000 0.136330
#
# Coordination Sequence:
#
# PCOD9148085 Si02
#       8
#     2   4   4   4   4   4   4   4
#     4  10  23  36  65  84 128 164 191 244 311 358
#     4   9  18  34  58  88 118 156 205 257 309 360
#     4   9  19  35  54  81 115 152 191 233 289 351
#     4  10  19  39  59  88 118 162 206 249 307 357
#     4  11  21  40  58  92 123 154 200 251 300 360
#     4  10  20  37  63  90 120 159 204 252 305 362
#     4  10  22  40  59  85 127 164 202 254 303 361
#     4  11  24  40  60  89 123 160 209 258 301 359
#
# _framework density 20.018497
#
# number of rings (size 3 to 8) (size 9 to 14) (size 15 to 20)
#    0.000    2.000    4.000    1.000    1.867    5.333 
#    0.000    1.667    0.000    3.600    0.000    0.000 
#    0.000    0.000    0.000    0.000    0.000    0.000 
#
# Total GULP energy -167123.186877 kJ/mol
# GULP energy per Si atom -5570.772896 kJ/mol
# Density = 1.997293 g / cm^3
# Si number density = 20.018497 Si / 1000 Ang^3
#
#
#
# Elastic Constant Matrix: (Units=GPa)
#
#
# Indices 1 2 3 4 5 6 
#
# 1 85.4515 26.7834 22.1498 0.0000 -15.5997 0.0000
# 2 26.7834 86.9730 25.1431 0.0000 -4.2346 0.0000
# 3 22.1498 25.1431 91.1400 0.0000 -11.0683 0.0000
# 4 0.0000 0.0000 0.0000 6.9909 0.0000 0.7866
# 5 -15.5997 -4.2346 -11.0683 0.0000 25.5250 0.0000
# 6 0.0000 0.0000 0.0000 0.7866 0.0000 3.6726
#
#
#
# Elastic Compliance Matrix: (Units=1/GPa)
#
#
# Indices 1 2 3 4 5 6 
#
# 1 0.014673 -0.003677 -0.001622 0.000000 0.007654 0.000000
# 2 -0.003677 0.013425 -0.002969 0.000000 -0.001307 0.000000
# 3 -0.001622 -0.002969 0.012672 0.000000 0.004011 0.000000
# 4 0.000000 0.000000 0.000000 0.146576 0.000000 -0.031395
# 5 0.007654 -0.001307 0.004011 0.000000 0.045378 0.000000
# 6 0.000000 0.000000 0.000000 -0.031395 0.000000 0.279010
#
#
# Mechanical properties :
#
#
# Convention : Reuss Voigt Hill
#
# Bulk Modulus (GPa) = 41.26325 45.74636 43.50480
# Shear Modulus (GPa) = 9.32232 19.87024 14.59628
#
# Velocity S-wave (km/s) = 2.16032 3.15396 2.70319
# Velocity P-wave (km/s) = 5.18459 6.01373 5.61449
#
# Compressibility (1/GPa) = 0.02423464
#
# Stress axis : x y z
#
# Youngs Moduli (GPa) = 68.15360 74.48959 78.91126
#
# Poissons Ratio (x) = 0.27389 0.12800
# Poissons Ratio (y) = 0.25059 0.23426
# Poissons Ratio (z) = 0.11055 0.22114
#
# Static dielectric constant tensor:
#      x y z
#    x 1.715790 0.000000 -0.012590 
#    y 0.000000 1.725500 0.000000 
#    z -0.012590 0.000000 1.754410 
# 
# From -- ./inp_files/79076.got.cif
#   From: 2010.05.17/outbox.cif.g08.bks.cpg/sg10_40_cif.got.tgz:79076.got - 2010.06.03 11:33:40.
