data_PCOD9148280
_publ_section_title
;
Structure prediction by ZEFSAII (Michael W. Deem and Ramdas Pophale) SiO2 
 PCOD9148280
Probable space group: P 2/M
;
_chemical_formula_sum "Si O2"
_cell_formula_units_Z 32
_cell_length_a 11.821197
_cell_length_b 21.890077
_cell_length_c 12.867697
_cell_angle_alpha 90.000000
_cell_angle_beta 23.303296
_cell_angle_gamma 90.000000
_cell_volume 1317.237320
_symmetry_space_group_name_H-M "P 2/M"
_symmetry_group_IT_number 10
_symmetry_cell_setting 'monoclinic'
loop_
_space_group_symop_operation_xyz
x,y,z
-x,y,-z
-x,-y,-z
x,-y,z
loop_
_atom_site_type_symbol
_atom_site_label
_atom_site_fract_x
_atom_site_fract_y
_atom_site_fract_z
Si Si1 0.532316 0.853170 0.612737
Si Si2 0.821557 0.091915 0.747299
Si Si3 0.973649 0.223293 0.387305
Si Si4 0.677635 0.569159 0.448108
Si Si5 0.962269 0.930612 0.865288
Si Si6 0.534876 0.697441 0.135968
Si Si7 0.691500 0.429571 0.031454
Si Si8 0.315671 0.275238 0.755257
O O1 0.751243 0.813999 0.500718
O O2 0.328616 0.798489 0.747902
O O3 0.752393 0.890879 0.354720
O O4 0.323818 0.899382 0.848927
O O5 0.930358 0.070354 0.767055
O O6 0.000000 0.068953 0.500000
O O7 0.845052 0.166010 0.723827
O O8 0.500000 0.073725 0.000000
O O9 0.757347 0.265257 0.637425
O O10 0.196102 0.266281 0.138647
O O11 0.500000 0.592319 0.500000
O O12 0.760325 0.500000 0.347058
O O13 0.984983 0.594772 0.222137
O O14 0.472449 0.566623 0.720468
O O15 0.991290 0.000000 0.877223
O O16 0.571233 0.699460 0.231025
O O17 0.538476 0.626357 0.100467
O O18 0.694859 0.500000 0.986001
O O19 0.500000 0.289189 0.500000
O O20 0.000000 0.297687 0.000000
#
# Coordination Sequence:
#
# PCOD9148280 Si02
#       8
#     4   4   4   4   4   4   4   4
#     4  10  20  38  56  75 106 144 184 222 266 313
#     4  11  21  35  57  86 117 141 167 208 252 301
#     4  10  20  37  56  76 106 144 178 211 261 313
#     4   9  17  29  42  58  87 130 170 203 254 317
#     4  11  22  37  59  83 111 150 180 199 245 321
#     4  11  21  35  53  76 106 139 180 224 268 328
#     4  10  20  32  47  69  99 134 172 218 265 315
#     4  11  21  34  54  77  99 131 183 243 286 307
#
# _framework density 24.293267
#
# number of rings (size 3 to 8) (size 9 to 14) (size 15 to 20)
#    0.000    1.625    0.000    9.000    0.000    3.500 
#    0.000    0.000    0.000    7.500    0.000    0.000 
#    0.000   10.000    0.000    0.000    0.000    0.000 
#
# Total GULP energy -178894.699389 kJ/mol
# GULP energy per Si atom -5590.459356 kJ/mol
# Density = 2.423797 g / cm^3
# Si number density = 24.293267 Si / 1000 Ang^3
#
#
#
# Elastic Constant Matrix: (Units=GPa)
#
#
# Indices 1 2 3 4 5 6 
#
# 1 52.8277 6.6063 16.1369 0.0000 -5.9482 0.0000
# 2 6.6063 193.5611 29.1695 0.0000 -2.1885 0.0000
# 3 16.1369 29.1695 167.1544 0.0000 -11.2730 0.0000
# 4 0.0000 0.0000 0.0000 69.0766 0.0000 -50.3145
# 5 -5.9482 -2.1885 -11.2730 0.0000 39.1889 0.0000
# 6 0.0000 0.0000 0.0000 -50.3145 0.0000 41.3300
#
#
#
# Elastic Compliance Matrix: (Units=1/GPa)
#
#
# Indices 1 2 3 4 5 6 
#
# 1 0.019771 -0.000395 -0.001671 0.000000 0.002498 0.000000
# 2 -0.000395 0.005314 -0.000890 0.000000 -0.000019 0.000000
# 3 -0.001671 -0.000890 0.006403 0.000000 0.001538 0.000000
# 4 0.000000 0.000000 0.000000 0.127804 0.000000 0.155586
# 5 0.002498 -0.000019 0.001538 0.000000 0.026338 0.000000
# 6 0.000000 0.000000 0.000000 0.155586 0.000000 0.213603
#
#
# Mechanical properties :
#
#
# Convention : Reuss Voigt Hill
#
# Bulk Modulus (GPa) = 39.10148 57.48540 48.29344
# Shear Modulus (GPa) = 12.08692 54.02781 33.05737
#
# Velocity S-wave (km/s) = 2.23298 4.72103 3.69285
# Velocity P-wave (km/s) = 4.77272 7.30972 6.17296
#
# Compressibility (1/GPa) = 0.02557448
#
# Stress axis : x y z
#
# Youngs Moduli (GPa) = 50.58011 188.19011 156.17713
#
# Poissons Ratio (x) = 0.07427 0.26102
# Poissons Ratio (y) = 0.01996 0.13907
# Poissons Ratio (z) = 0.08453 0.16758
#
# Static dielectric constant tensor:
#      x y z
#    x 1.932260 0.000000 0.012020 
#    y 0.000000 1.988130 0.000000 
#    z 0.012020 0.000000 1.877630 
# 
# From -- ./inp_files/67944.got.cif
#   From: 2010.05.17/outbox.cif.g08.bks.cpg/sg10_34_cif.got.tgz:67944.got - 2010.06.03 11:33:40.
