data_PCOD9148010
_publ_section_title
;
Structure prediction by ZEFSAII (Michael W. Deem and Ramdas Pophale) SiO2 
 PCOD9148010
Probable space group: P 2/M
;
_chemical_formula_sum "Si O2"
_cell_formula_units_Z 32
_cell_length_a 8.773047
_cell_length_b 14.941218
_cell_length_c 24.745440
_cell_angle_alpha 90.000000
_cell_angle_beta 30.705084
_cell_angle_gamma 90.000000
_cell_volume 1656.261057
_symmetry_space_group_name_H-M "P 2/M"
_symmetry_group_IT_number 10
_symmetry_cell_setting 'monoclinic'
loop_
_space_group_symop_operation_xyz
x,y,z
-x,y,-z
-x,-y,-z
x,-y,z
loop_
_atom_site_type_symbol
_atom_site_label
_atom_site_fract_x
_atom_site_fract_y
_atom_site_fract_z
Si Si1 0.297723 0.897432 0.834961
Si Si2 0.878198 0.737437 0.978597
Si Si3 0.707091 0.905251 0.489326
Si Si4 0.166960 0.763076 0.311463
Si Si5 0.167740 0.727223 0.189654
Si Si6 0.934448 0.400139 0.173012
Si Si7 0.297482 0.663978 0.376200
Si Si8 0.353034 0.157159 0.697560
O O1 0.558277 0.833132 0.779212
O O2 0.342138 0.895238 0.756777
O O3 0.002186 0.838368 0.934577
O O4 0.295077 0.000000 0.855103
O O5 0.005337 0.671964 0.893132
O O6 0.522762 0.738839 0.081444
O O7 0.000000 0.705823 0.000000
O O8 0.500000 0.906354 0.500000
O O9 0.498941 0.896433 0.604521
O O10 0.919608 0.821550 0.417252
O O11 0.877946 0.000000 0.439735
O O12 0.072944 0.728558 0.281389
O O13 0.240599 0.683729 0.330267
O O14 0.092653 0.638823 0.178227
O O15 0.970483 0.804407 0.220923
O O16 0.036326 0.500000 0.127896
O O17 0.581207 0.400176 0.292943
O O18 0.430538 0.757610 0.358556
O O19 0.000000 0.639868 0.500000
#
# Coordination Sequence:
#
# PCOD9148010 Si02
#       8
#     4   4   4   4   4   4   4   4
#     4  11  23  40  60  90 128 170 214 256 303 363
#     4  12  23  43  67  92 125 162 209 264 309 366
#     4  11  21  31  52  90 127 166 218 261 298 357
#     4  11  20  38  60  89 124 171 209 254 311 364
#     4  11  22  40  64  86 126 163 205 262 315 371
#     4  11  25  45  70  96 122 158 202 257 325 382
#     4  10  19  37  66  93 122 164 201 245 314 371
#     4  10  20  37  57  87 125 170 209 256 307 357
#
# _framework density 19.320625
#
# number of rings (size 3 to 8) (size 9 to 14) (size 15 to 20)
#    0.000    1.125    7.500    1.125    0.000    1.750 
#    0.000    5.625    0.000    0.750    0.000    0.000 
#    0.000    0.000    0.000    0.000    0.000    0.000 
#
# Total GULP energy -178581.924194 kJ/mol
# GULP energy per Si atom -5580.685131 kJ/mol
# Density = 1.927665 g / cm^3
# Si number density = 19.320625 Si / 1000 Ang^3
#
#
#
# Elastic Constant Matrix: (Units=GPa)
#
#
# Indices 1 2 3 4 5 6 
#
# 1 107.3491 22.6960 26.4208 0.0000 13.0002 0.0000
# 2 22.6960 69.8444 20.8933 0.0000 12.0050 0.0000
# 3 26.4208 20.8933 88.8714 0.0000 -7.2418 0.0000
# 4 0.0000 0.0000 0.0000 4.6395 0.0000 -2.5361
# 5 13.0002 12.0050 -7.2418 0.0000 37.5828 0.0000
# 6 0.0000 0.0000 0.0000 -2.5361 0.0000 2.6819
#
#
#
# Elastic Compliance Matrix: (Units=1/GPa)
#
#
# Indices 1 2 3 4 5 6 
#
# 1 0.010951 -0.001989 -0.003094 0.000000 -0.003749 0.000000
# 2 -0.001989 0.017069 -0.003871 0.000000 -0.005510 0.000000
# 3 -0.003094 -0.003871 0.013482 0.000000 0.004904 0.000000
# 4 0.000000 0.000000 0.000000 0.446174 0.000000 0.421917
# 5 -0.003749 -0.005510 0.004904 0.000000 0.030610 0.000000
# 6 0.000000 0.000000 0.000000 0.421917 0.000000 0.771854
#
#
# Mechanical properties :
#
#
# Convention : Reuss Voigt Hill
#
# Bulk Modulus (GPa) = 42.38092 45.12057 43.75074
# Shear Modulus (GPa) = 3.79965 22.05115 12.92540
#
# Velocity S-wave (km/s) = 1.40389 3.38202 2.58930
# Velocity P-wave (km/s) = 4.96095 6.21731 5.62433
#
# Compressibility (1/GPa) = 0.02359552
#
# Stress axis : x y z
#
# Youngs Moduli (GPa) = 91.31326 58.58670 74.17565
#
# Poissons Ratio (x) = 0.11652 0.22948
# Poissons Ratio (y) = 0.18160 0.28710
# Poissons Ratio (z) = 0.28249 0.22676
#
# Static dielectric constant tensor:
#      x y z
#    x 1.673450 0.000000 -0.008730 
#    y 0.000000 1.682380 0.000000 
#    z -0.008730 0.000000 1.714350 
# 
# From -- ./inp_files/88260.got.cif
#   From: 2010.05.17/outbox.cif.g08.bks.cpg/sg10_45_cif.got.tgz:88260.got - 2010.06.03 11:33:40.
