data_PCOD9148036
_publ_section_title
;
Structure prediction by ZEFSAII (Michael W. Deem and Ramdas Pophale) SiO2 
 PCOD9148036
Probable space group: P 2/M
;
_chemical_formula_sum "Si O2"
_cell_formula_units_Z 28
_cell_length_a 11.867569
_cell_length_b 20.000399
_cell_length_c 6.080504
_cell_angle_alpha 90.000000
_cell_angle_beta 65.131496
_cell_angle_gamma 90.000000
_cell_volume 1309.420401
_symmetry_space_group_name_H-M "P 2/M"
_symmetry_group_IT_number 10
_symmetry_cell_setting 'monoclinic'
loop_
_space_group_symop_operation_xyz
x,y,z
-x,y,-z
-x,-y,-z
x,-y,z
loop_
_atom_site_type_symbol
_atom_site_label
_atom_site_fract_x
_atom_site_fract_y
_atom_site_fract_z
Si Si1 0.627294 0.110239 0.964128
Si Si2 0.000000 0.892675 0.500000
Si Si3 0.790240 0.194594 0.499168
Si Si4 0.618973 0.760674 0.256840
Si Si5 0.733542 0.327769 0.798901
Si Si6 0.368953 0.576756 0.481365
Si Si7 0.869193 0.577822 0.996699
Si Si8 0.820319 0.000000 0.880280
O O1 0.696531 0.142303 0.695380
O O2 0.716796 0.058924 0.011331
O O3 0.500000 0.076279 0.000000
O O4 0.590962 0.173351 0.140967
O O5 0.081247 0.844923 0.591074
O O6 0.082495 0.941254 0.282284
O O7 0.735648 0.218777 0.312848
O O8 0.792374 0.262167 0.640246
O O9 0.500000 0.744350 0.500000
O O10 0.651775 0.701612 0.064627
O O11 0.652566 0.369600 0.692313
O O12 0.835995 0.376310 0.817933
O O13 0.500000 0.585104 0.500000
O O14 0.368658 0.500000 0.395132
O O15 0.248507 0.582894 0.740131
O O16 0.879458 0.500000 0.923621
O O17 0.000000 0.597305 0.000000
#
# Coordination Sequence:
#
# PCOD9148036 Si02
#       8
#     4   2   4   4   4   4   4   2
#     4  10  19  38  62  92 126 158 206 263 324 374
#     4   9  20  42  64  88 129 170 208 258 323 380
#     4  10  22  38  59  89 127 168 206 265 318 384
#     4  11  23  40  61  92 134 169 213 270 326 386
#     4  11  24  39  65  97 125 176 225 266 335 395
#     4  10  23  44  67  97 137 174 220 282 339 399
#     4  10  23  43  66  95 131 170 222 282 333 393
#     4   9  19  38  68  93 117 169 216 257 312 391
#
# _framework density 21.383507000000002
#
# number of rings (size 3 to 8) (size 9 to 14) (size 15 to 20)
#    0.000    1.857    1.429    1.500    0.000    6.857 
#    0.000   14.643    0.000    1.286    0.000    0.000 
#    0.000    0.000    0.000    0.000    0.000    0.000 
#
# Total GULP energy -155963.533509 kJ/mol
# GULP energy per Si atom -5570.126197 kJ/mol
# Density = 2.133484 g / cm^3
# Si number density = 21.383507 Si / 1000 Ang^3
#
#
#
# Elastic Constant Matrix: (Units=GPa)
#
#
# Indices 1 2 3 4 5 6 
#
# 1 135.3644 56.4555 20.8715 0.0000 0.8758 0.0000
# 2 56.4555 138.0438 26.4056 0.0000 4.6288 0.0000
# 3 20.8715 26.4056 28.2454 0.0000 3.4017 0.0000
# 4 0.0000 0.0000 0.0000 -11.3737 0.0000 -13.3643
# 5 0.8758 4.6288 3.4017 0.0000 21.2161 0.0000
# 6 0.0000 0.0000 0.0000 -13.3643 0.0000 -10.4997
#
#
#
# Elastic Compliance Matrix: (Units=1/GPa)
#
#
# Indices 1 2 3 4 5 6 
#
# 1 0.009286 -0.003038 -0.004135 0.000000 0.000943 0.000000
# 2 -0.003038 0.009824 -0.006827 0.000000 -0.000923 0.000000
# 3 -0.004135 -0.006827 0.045521 0.000000 -0.005638 0.000000
# 4 0.000000 0.000000 0.000000 0.177405 0.000000 -0.225807
# 5 0.000943 -0.000923 -0.005638 0.000000 0.048201 0.000000
# 6 0.000000 0.000000 0.000000 -0.225807 0.000000 0.192173
#
#
# Mechanical properties :
#
#
# Convention : Reuss Voigt Hill
#
# Bulk Modulus (GPa) = 27.30032 56.56876 41.93454
# Shear Modulus (GPa) = 9.56716 13.06326 11.31521
#
# Velocity S-wave (km/s) = 2.11750 2.47433 2.30283
# Velocity P-wave (km/s) = 4.33279 5.88854 5.16953
#
# Compressibility (1/GPa) = 0.03662961
#
# Stress axis : x y z
#
# Youngs Moduli (GPa) = 107.68759 101.79548 21.96777
#
# Poissons Ratio (x) = 0.30929 0.09083
# Poissons Ratio (y) = 0.32720 0.14998
# Poissons Ratio (z) = 0.44528 0.69500
#
# Static dielectric constant tensor:
#      x y z
#    x 1.794060 0.000000 0.012660 
#    y 0.000000 1.692430 0.000000 
#    z 0.012660 0.000000 1.784440 
# 
# From -- ./inp_files/7714.got.cif
#   From: 2010.05.17/outbox.cif.g08.bks.cpg/sg10_4_cif.got.tgz:7714.got - 2010.06.03 11:33:40.
