data_PCOD9148482
_publ_section_title
;
Structure prediction by ZEFSAII (Michael W. Deem and Ramdas Pophale) SiO2 
 PCOD9148482
Probable space group: P 2/M
;
_chemical_formula_sum "Si O2"
_cell_formula_units_Z 28
_cell_length_a 20.135057
_cell_length_b 13.920460
_cell_length_c 15.285088
_cell_angle_alpha 90.000000
_cell_angle_beta 162.355508
_cell_angle_gamma 90.000000
_cell_volume 1298.597711
_symmetry_space_group_name_H-M "P 2/M"
_symmetry_group_IT_number 10
_symmetry_cell_setting 'monoclinic'
loop_
_space_group_symop_operation_xyz
x,y,z
-x,y,-z
-x,-y,-z
x,-y,z
loop_
_atom_site_type_symbol
_atom_site_label
_atom_site_fract_x
_atom_site_fract_y
_atom_site_fract_z
Si Si1 0.365106 0.612205 0.950990
Si Si2 0.781741 0.751509 0.464331
Si Si3 0.837928 0.114024 0.870106
Si Si4 0.036500 0.611326 0.691062
Si Si5 0.478575 0.110682 0.769644
Si Si6 0.338106 0.112525 0.174470
Si Si7 0.824716 0.889178 0.352305
O O1 0.435203 0.500000 0.036084
O O2 0.172126 0.622301 0.636965
O O3 0.248468 0.631636 0.897694
O O4 0.565365 0.683427 0.186945
O O5 0.984361 0.679267 0.706914
O O6 0.724889 0.818806 0.475502
O O7 0.811870 0.823613 0.420376
O O8 0.591030 0.119161 0.522032
O O9 0.809662 0.153898 0.933392
O O10 0.890545 0.000000 0.944690
O O11 0.000000 0.154679 0.000000
O O12 0.045720 0.500000 0.728192
O O13 0.649712 0.144840 0.910492
O O14 0.416375 0.000000 0.671902
O O15 0.599933 0.110168 0.015293
O O16 0.279064 0.000000 0.095868
O O17 0.000000 0.855784 0.500000
O O18 0.877623 0.000000 0.442022
#
# Coordination Sequence:
#
# PCOD9148482 Si02
#       7
#     4   4   4   4   4   4   4
#     4   9  18  31  46  66  85 104 139 189 241 288
#     4  12  21  30  51  63  83 121 160 193 233 271
#     4   8  13  25  46  66  83 108 138 170 224 286
#     4   9  18  30  45  66  87 104 138 190 239 287
#     4  10  20  33  45  63  91 122 160 203 232 256
#     4   8  15  28  43  62  89 111 138 186 228 265
#     4  10  22  36  46  59  84 124 172 211 235 256
#
# _framework density 21.561720000000001
#
# number of rings (size 3 to 8) (size 9 to 14) (size 15 to 20)
#    0.000    2.571    0.000    5.143    4.000    2.286 
#    2.571    0.000    0.000    0.000    0.000    0.000 
#    0.000    0.000    0.000   10.286    0.000   29.714 
#
# Total GULP energy -156405.226240 kJ/mol
# GULP energy per Si atom -5585.900937 kJ/mol
# Density = 2.151264 g / cm^3
# Si number density = 21.561720 Si / 1000 Ang^3
#
#
#
# Elastic Constant Matrix: (Units=GPa)
#
#
# Indices 1 2 3 4 5 6 
#
# 1 140.6761 56.6629 29.8469 0.0000 46.5715 0.0000
# 2 56.6629 97.2046 18.9156 0.0000 25.1602 0.0000
# 3 29.8469 18.9156 64.3195 0.0000 31.3061 0.0000
# 4 0.0000 0.0000 0.0000 15.7198 0.0000 -3.9908
# 5 46.5715 25.1602 31.3061 0.0000 45.1145 0.0000
# 6 0.0000 0.0000 0.0000 -3.9908 0.0000 -29.2558
#
#
#
# Elastic Compliance Matrix: (Units=1/GPa)
#
#
# Indices 1 2 3 4 5 6 
#
# 1 0.012336 -0.004567 0.000872 0.000000 -0.010792 0.000000
# 2 -0.004567 0.013721 -0.000734 0.000000 -0.002428 0.000000
# 3 0.000872 -0.000734 0.023552 0.000000 -0.016834 0.000000
# 4 0.000000 0.000000 0.000000 0.061485 0.000000 -0.008387
# 5 -0.010792 -0.002428 -0.016834 0.000000 0.046342 0.000000
# 6 0.000000 0.000000 0.000000 -0.008387 0.000000 -0.033037
#
#
# Mechanical properties :
#
#
# Convention : Reuss Voigt Hill
#
# Bulk Modulus (GPa) = 24.53965 57.00567 40.77266
# Shear Modulus (GPa) = 34.05021 19.43403 26.74212
#
# Velocity S-wave (km/s) = 3.97822 3.00546 3.52555
# Velocity P-wave (km/s) = 5.70153 6.20802 5.96016
#
# Compressibility (1/GPa) = 0.04075038
#
# Stress axis : x y z
#
# Youngs Moduli (GPa) = 81.06361 72.87969 42.45869
#
# Poissons Ratio (x) = 0.33285 -0.03700
# Poissons Ratio (y) = 0.37023 0.03116
# Poissons Ratio (z) = -0.07065 0.05349
#
# Static dielectric constant tensor:
#      x y z
#    x 1.860230 0.000000 -0.011980 
#    y 0.000000 1.808200 0.000000 
#    z -0.011980 0.000000 1.869130 
# 
# From -- ./inp_files/79668.got.cif
#   From: 2010.05.17/outbox.cif.g08.bks.cpg/sg10_40_cif.got.tgz:79668.got - 2010.06.03 11:33:40.
