data_PCOD9148647
_publ_section_title
;
Structure prediction by ZEFSAII (Michael W. Deem and Ramdas Pophale) SiO2 
 PCOD9148647
Probable space group: P 2/M
;
_chemical_formula_sum "Si O2"
_cell_formula_units_Z 28
_cell_length_a 16.771794
_cell_length_b 7.971183
_cell_length_c 14.247630
_cell_angle_alpha 90.000000
_cell_angle_beta 40.525556
_cell_angle_gamma 90.000000
_cell_volume 1237.701872
_symmetry_space_group_name_H-M "P 2/M"
_symmetry_group_IT_number 10
_symmetry_cell_setting 'monoclinic'
loop_
_space_group_symop_operation_xyz
x,y,z
-x,y,-z
-x,-y,-z
x,-y,z
loop_
_atom_site_type_symbol
_atom_site_label
_atom_site_fract_x
_atom_site_fract_y
_atom_site_fract_z
Si Si1 0.860745 0.690991 0.085181
Si Si2 0.604676 0.804575 0.825333
Si Si3 0.492833 0.302868 0.403152
Si Si4 0.793651 0.195495 0.800050
Si Si5 0.403127 0.304236 0.875656
Si Si6 0.772229 0.195369 0.358625
Si Si7 0.032893 0.797455 0.202692
O O1 0.816260 0.500000 0.124019
O O2 0.788170 0.786381 0.231513
O O3 0.876694 0.753353 0.964832
O O4 0.000000 0.693708 0.000000
O O5 0.727221 0.734937 0.766247
O O6 0.538672 0.709567 0.800451
O O7 0.624172 0.000000 0.781430
O O8 0.500000 0.802948 0.000000
O O9 0.500000 0.225253 0.500000
O O10 0.522441 0.500000 0.383630
O O11 0.581854 0.235661 0.242841
O O12 0.351250 0.285797 0.501299
O O13 0.912273 0.266517 0.747711
O O14 0.817347 0.000000 0.758123
O O15 0.689837 0.206961 0.974213
O O16 0.366780 0.500000 0.908226
O O17 0.896893 0.261703 0.295694
O O18 0.760566 0.000000 0.392286
O O19 0.028377 0.000000 0.211124
#
# Coordination Sequence:
#
# PCOD9148647 Si02
#       7
#     4   4   4   4   4   4   4
#     4   9  17  29  46  68  96 132 167 199 244 298
#     4   8  15  30  51  74 101 133 164 199 251 306
#     4  10  23  40  53  69  99 137 174 213 251 294
#     4   9  18  32  52  78 107 134 160 200 254 307
#     4  10  20  33  51  75 102 133 169 211 253 294
#     4  10  20  34  52  73  98 130 171 213 251 295
#     4   9  18  32  50  75 104 130 162 209 256 296
#
# _framework density 22.622572999999999
#
# number of rings (size 3 to 8) (size 9 to 14) (size 15 to 20)
#    0.000    2.714    0.000    2.143    2.000    6.857 
#    0.000    0.000    0.000    0.857    0.000    6.000 
#    0.000    0.000    0.000    0.000    0.000    0.000 
#
# Total GULP energy -156169.675032 kJ/mol
# GULP energy per Si atom -5577.488394 kJ/mol
# Density = 2.257108 g / cm^3
# Si number density = 22.622573 Si / 1000 Ang^3
#
#
#
# Elastic Constant Matrix: (Units=GPa)
#
#
# Indices 1 2 3 4 5 6 
#
# 1 104.5215 -5.2909 -9.1450 0.0000 -14.4374 0.0000
# 2 -5.2909 22.0819 -7.1911 0.0000 4.3265 0.0000
# 3 -9.1450 -7.1911 34.2570 0.0000 -11.5265 0.0000
# 4 0.0000 0.0000 0.0000 12.5319 0.0000 -0.3216
# 5 -14.4374 4.3265 -11.5265 0.0000 24.0218 0.0000
# 6 0.0000 0.0000 0.0000 -0.3216 0.0000 15.3362
#
#
#
# Elastic Compliance Matrix: (Units=1/GPa)
#
#
# Indices 1 2 3 4 5 6 
#
# 1 0.011718 0.003191 0.007124 0.000000 0.009886 0.000000
# 2 0.003191 0.049908 0.010672 0.000000 -0.001950 0.000000
# 3 0.007124 0.010672 0.040698 0.000000 0.021888 0.000000
# 4 0.000000 0.000000 0.000000 0.079839 0.000000 0.001674
# 5 0.009886 -0.001950 0.021888 0.000000 0.058425 0.000000
# 6 0.000000 0.000000 0.000000 0.001674 0.000000 0.065240
#
#
# Mechanical properties :
#
#
# Convention : Reuss Voigt Hill
#
# Bulk Modulus (GPa) = 6.93013 13.06739 9.99876
# Shear Modulus (GPa) = 16.02806 22.54381 19.28594
#
# Velocity S-wave (km/s) = 2.66465 3.16019 2.92294
# Velocity P-wave (km/s) = 3.54079 4.37088 3.97755
#
# Compressibility (1/GPa) = 0.14429749
#
# Stress axis : x y z
#
# Youngs Moduli (GPa) = 85.33983 20.03691 24.57134
#
# Poissons Ratio (x) = -0.06393 -0.17506
# Poissons Ratio (y) = -0.27229 -0.26222
# Poissons Ratio (z) = -0.60799 -0.21383
#
# Static dielectric constant tensor:
#      x y z
#    x 1.959990 0.000000 -0.018720 
#    y 0.000000 1.789870 0.000000 
#    z -0.018720 0.000000 1.821030 
# 
# From -- ./inp_files/68596.got.cif
#   From: 2010.05.17/outbox.cif.g08.bks.cpg/sg10_35_cif.got.tgz:68596.got - 2010.06.03 11:33:40.
