data_PCOD9148470
_publ_section_title
;
Structure prediction by ZEFSAII (Michael W. Deem and Ramdas Pophale) SiO2 
 PCOD9148470
Probable space group: P 2/M
;
_chemical_formula_sum "Si O2"
_cell_formula_units_Z 26
_cell_length_a 9.313286
_cell_length_b 13.785959
_cell_length_c 21.894799
_cell_angle_alpha 90.000000
_cell_angle_beta 31.192822
_cell_angle_gamma 90.000000
_cell_volume 1455.939865
_symmetry_space_group_name_H-M "P 2/M"
_symmetry_group_IT_number 10
_symmetry_cell_setting 'monoclinic'
loop_
_space_group_symop_operation_xyz
x,y,z
-x,y,-z
-x,-y,-z
x,-y,z
loop_
_atom_site_type_symbol
_atom_site_label
_atom_site_fract_x
_atom_site_fract_y
_atom_site_fract_z
Si Si1 0.740713 0.112615 0.133664
Si Si2 0.377991 0.758213 0.704601
Si Si3 0.976500 0.388242 0.108400
Si Si4 0.534030 0.613633 0.157642
Si Si5 0.758549 0.110179 0.360802
Si Si6 0.000000 0.231789 0.500000
Si Si7 0.809867 0.194955 0.702278
O O1 0.693415 0.174373 0.211397
O O2 0.463955 0.129365 0.195827
O O3 0.217880 0.000000 0.866894
O O4 0.000000 0.148338 0.000000
O O5 0.149398 0.674374 0.791505
O O6 0.337698 0.824425 0.660529
O O7 0.696344 0.720832 0.597313
O O8 0.001154 0.500000 0.116777
O O9 0.744062 0.381655 0.139092
O O10 0.270103 0.359811 0.971438
O O11 0.447526 0.500000 0.183832
O O12 0.294980 0.693247 0.254077
O O13 0.500000 0.102211 0.500000
O O14 0.992728 0.163435 0.315178
O O15 0.839549 0.000000 0.313070
O O16 0.943042 0.179093 0.585988
#
# Coordination Sequence:
#
# PCOD9148470 Si02
#       7
#     4   4   4   4   4   2   4
#     4  10  20  34  55  82 109 141 188 240 285 330
#     4  11  20  37  56  81 114 148 187 235 283 334
#     4   9  17  32  58  87 111 141 184 233 286 336
#     4   9  17  32  58  87 111 141 184 233 286 336
#     4  11  24  40  56  77 114 158 192 228 277 337
#     4  10  20  32  56  84 106 140 192 236 278 334
#     4  11  20  37  56  81 114 148 187 235 283 334
#
# _framework density 17.857880000000002
#
# number of rings (size 3 to 8) (size 9 to 14) (size 15 to 20)
#    0.000    1.846    4.615    2.769    0.000    0.000 
#    0.000    7.692    0.000    8.308    0.000    0.000 
#    0.000    0.000    0.000    0.000    0.000    0.000 
#
# Total GULP energy -144803.340179 kJ/mol
# GULP energy per Si atom -5569.359238 kJ/mol
# Density = 1.781724 g / cm^3
# Si number density = 17.857880 Si / 1000 Ang^3
#
#
#
# Elastic Constant Matrix: (Units=GPa)
#
#
# Indices 1 2 3 4 5 6 
#
# 1 69.9677 22.7618 28.5434 0.0000 -2.7898 0.0000
# 2 22.7618 84.5628 33.9616 0.0000 7.4209 0.0000
# 3 28.5434 33.9616 102.3508 0.0000 3.6909 0.0000
# 4 0.0000 0.0000 0.0000 -52.3839 0.0000 230.0375
# 5 -2.7898 7.4209 3.6909 0.0000 18.6670 0.0000
# 6 0.0000 0.0000 0.0000 230.0375 0.0000 -728.6475
#
#
#
# Elastic Compliance Matrix: (Units=1/GPa)
#
#
# Indices 1 2 3 4 5 6 
#
# 1 0.017170 -0.003512 -0.003793 0.000000 0.004712 0.000000
# 2 -0.003512 0.014759 -0.003714 0.000000 -0.005658 0.000000
# 3 -0.003793 -0.003714 0.012114 0.000000 -0.001486 0.000000
# 4 0.000000 0.000000 0.000000 0.049407 0.000000 0.015598
# 5 0.004712 -0.005658 -0.001486 0.000000 0.056818 0.000000
# 6 0.000000 0.000000 0.000000 0.015598 0.000000 0.003552
#
#
# Mechanical properties :
#
#
# Convention : Reuss Voigt Hill
#
# Bulk Modulus (GPa) = 45.44311 47.49055 46.46683
# Shear Modulus (GPa) = 27.29379 -141.03190 -56.86906
#
# Velocity S-wave (km/s) = 3.91370 -8.89641 -5.64929
# Velocity P-wave (km/s) = 6.77681 8.88126 4.05904
#
# Compressibility (1/GPa) = 0.02200554
#
# Stress axis : x y z
#
# Youngs Moduli (GPa) = 58.24105 67.75603 82.54928
#
# Poissons Ratio (x) = 0.23795 0.31311
# Poissons Ratio (y) = 0.20453 0.30657
# Poissons Ratio (z) = 0.22091 0.25163
#
# Static dielectric constant tensor:
#      x y z
#    x 1.606980 0.000000 -0.001520 
#    y 0.000000 1.641940 0.000000 
#    z -0.001520 0.000000 1.633840 
# 
# From -- ./inp_files/34900.got.cif
#   From: 2010.05.17/outbox.cif.g08.bks.cpg/sg10_18_cif.got.tgz:34900.got - 2010.06.03 11:33:40.
