data_PCOD9148306
_publ_section_title
;
Structure prediction by ZEFSAII (Michael W. Deem and Ramdas Pophale) SiO2 
 PCOD9148306
Probable space group: P 2/M
;
_chemical_formula_sum "Si O2"
_cell_formula_units_Z 32
_cell_length_a 20.136779
_cell_length_b 18.937151
_cell_length_c 15.615294
_cell_angle_alpha 90.000000
_cell_angle_beta 161.231146
_cell_angle_gamma 90.000000
_cell_volume 1915.908581
_symmetry_space_group_name_H-M "P 2/M"
_symmetry_group_IT_number 10
_symmetry_cell_setting 'monoclinic'
loop_
_space_group_symop_operation_xyz
x,y,z
-x,y,-z
-x,-y,-z
x,-y,z
loop_
_atom_site_type_symbol
_atom_site_label
_atom_site_fract_x
_atom_site_fract_y
_atom_site_fract_z
Si Si1 0.389147 0.328863 0.278321
Si Si2 0.579957 0.224651 0.377908
Si Si3 0.827271 0.311337 0.438161
Si Si4 0.108784 0.078549 0.996445
Si Si5 0.666516 0.078548 0.554188
Si Si6 0.605527 0.688672 0.994642
Si Si7 0.015904 0.775343 0.813860
Si Si8 0.802215 0.583495 0.104410
O O1 0.500000 0.352166 0.500000
O O2 0.539357 0.279083 0.405150
O O3 0.192189 0.279083 0.058002
O O4 0.309690 0.390941 0.119412
O O5 0.547310 0.145180 0.370837
O O6 0.429876 0.249548 0.118059
O O7 0.813072 0.230184 0.626169
O O8 0.615555 0.324235 0.231128
O O9 0.946481 0.249563 0.634676
O O10 0.973984 0.379349 0.620720
O O11 0.764111 0.294097 0.264116
O O12 0.099688 0.145182 0.923203
O O13 0.886798 0.077564 0.773611
O O14 0.139125 0.000000 0.996755
O O15 0.275745 0.089630 0.275736
O O16 0.576110 0.000000 0.433760
O O17 0.680561 0.620666 0.033821
O O18 0.811530 0.500000 0.123068
#
# Coordination Sequence:
#
# PCOD9148306 Si02
#       8
#     4   4   4   4   4   4   4   4
#     4  10  20  32  48  70  91 117 155 186 215 266
#     4   9  17  30  47  66  92 123 153 189 227 263
#     4   9  18  32  50  71  92 117 151 188 226 268
#     4   8  13  22  39  63  89 119 153 186 224 266
#     4   8  13  22  39  63  89 119 153 186 224 266
#     4   9  18  32  50  71  92 117 151 188 226 268
#     4   9  17  30  47  66  92 123 153 189 227 263
#     4  10  21  35  50  70  95 119 144 180 227 274
#
# _framework density 16.702258
#
# number of rings (size 3 to 8) (size 9 to 14) (size 15 to 20)
#    0.000    3.000    0.000    1.875    0.000    3.250 
#    0.000    1.875    0.000    3.000    0.000   12.250 
#    0.000    6.000    0.000    0.500    0.000    0.000 
#
# Total GULP energy -178332.149223 kJ/mol
# GULP energy per Si atom -5572.879663 kJ/mol
# Density = 1.666424 g / cm^3
# Si number density = 16.702258 Si / 1000 Ang^3
#
#
#
# Elastic Constant Matrix: (Units=GPa)
#
#
# Indices 1 2 3 4 5 6 
#
# 1 58.1391 39.0467 51.6603 0.0000 -5.9109 0.0000
# 2 39.0467 145.7143 49.8397 0.0000 -16.3581 0.0000
# 3 51.6603 49.8397 76.3371 0.0000 -21.6735 0.0000
# 4 0.0000 0.0000 0.0000 19.1689 0.0000 10.9172
# 5 -5.9109 -16.3581 -21.6735 0.0000 29.2106 0.0000
# 6 0.0000 0.0000 0.0000 10.9172 0.0000 26.3195
#
#
#
# Elastic Compliance Matrix: (Units=1/GPa)
#
#
# Indices 1 2 3 4 5 6 
#
# 1 0.051236 -0.002792 -0.038451 0.000000 -0.019725 0.000000
# 2 -0.002792 0.009005 -0.003443 0.000000 0.001923 0.000000
# 3 -0.038451 -0.003443 0.048917 0.000000 0.026586 0.000000
# 4 0.000000 0.000000 0.000000 0.068303 0.000000 -0.028332
# 5 -0.019725 0.001923 0.026586 0.000000 0.051046 0.000000
# 6 0.000000 0.000000 0.000000 -0.028332 0.000000 0.049747
#
#
# Mechanical properties :
#
#
# Convention : Reuss Voigt Hill
#
# Bulk Modulus (GPa) = 50.54314 62.36487 56.45400
# Shear Modulus (GPa) = 13.36108 24.24939 18.80524
#
# Velocity S-wave (km/s) = 2.83142 3.81447 3.35910
# Velocity P-wave (km/s) = 6.40439 7.53793 6.99416
#
# Compressibility (1/GPa) = 0.01978508
#
# Stress axis : x y z
#
# Youngs Moduli (GPa) = 19.51757 111.05391 20.44270
#
# Poissons Ratio (x) = 0.31011 0.78603
# Poissons Ratio (y) = 0.05450 0.07039
# Poissons Ratio (z) = 0.75046 0.38240
#
# Static dielectric constant tensor:
#      x y z
#    x 1.594070 0.000000 0.028470 
#    y 0.000000 1.538020 0.000000 
#    z 0.028470 0.000000 1.575380 
# 
# From -- ./inp_files/32181.got.cif
#   From: 2010.05.17/outbox.cif.g08.bks.cpg/sg10_17_cif.got.tgz:32181.got - 2010.06.03 11:33:40.
