data_PCOD9149749
_publ_section_title
;
Structure prediction by ZEFSAII (Michael W. Deem and Ramdas Pophale) SiO2 
 PCOD9149749
Probable space group: P 2/M
;
_chemical_formula_sum "Si O2"
_cell_formula_units_Z 28
_cell_length_a 15.549007
_cell_length_b 7.927230
_cell_length_c 10.668089
_cell_angle_alpha 90.000000
_cell_angle_beta 63.332399
_cell_angle_gamma 90.000000
_cell_volume 1175.076699
_symmetry_space_group_name_H-M "P 2/M"
_symmetry_group_IT_number 10
_symmetry_cell_setting 'monoclinic'
loop_
_space_group_symop_operation_xyz
x,y,z
-x,y,-z
-x,-y,-z
x,-y,z
loop_
_atom_site_type_symbol
_atom_site_label
_atom_site_fract_x
_atom_site_fract_y
_atom_site_fract_z
Si Si1 0.195037 0.197060 0.805220
Si Si2 0.091808 0.689637 0.497978
Si Si3 0.718997 0.704019 0.519405
Si Si4 0.008001 0.194300 0.794571
Si Si5 0.583236 0.701705 0.039748
Si Si6 0.210134 0.308119 0.060118
Si Si7 0.495044 0.803960 0.359470
O O1 0.246807 0.243360 0.642061
O O2 0.229796 0.305134 0.898312
O O3 0.079637 0.219423 0.865306
O O4 0.212794 0.000000 0.820860
O O5 0.098448 0.500000 0.440311
O O6 0.198386 0.762044 0.437000
O O7 0.000000 0.782278 0.500000
O O8 0.056576 0.682215 0.663543
O O9 0.714418 0.500000 0.529474
O O10 0.615543 0.781509 0.608423
O O11 0.027671 0.000000 0.745847
O O12 0.893752 0.219620 0.863809
O O13 0.589068 0.500000 0.016526
O O14 0.692256 0.766558 0.944820
O O15 0.554252 0.730232 0.204012
O O16 0.500000 0.766652 0.000000
O O17 0.197309 0.500000 0.111868
O O18 0.500000 0.733002 0.500000
O O19 0.522833 0.000000 0.350995
#
# Coordination Sequence:
#
# PCOD9149749 Si02
#       7
#     4   4   4   4   4   4   4
#     4  10  20  35  55  83 119 151 183 229 285 344
#     4   9  19  36  56  79 109 145 185 228 275 333
#     4  10  20  35  58  85 113 148 189 236 288 341
#     4  10  21  35  53  80 114 149 182 223 279 341
#     4  10  24  45  64  85 117 157 202 251 301 354
#     4  11  22  36  58  83 109 147 191 235 284 341
#     4  11  24  41  63  91 121 155 197 248 303 357
#
# _framework density 23.828232
#
# number of rings (size 3 to 8) (size 9 to 14) (size 15 to 20)
#    0.000    1.857    0.000    3.429    0.000   10.286 
#    0.000    5.714    0.000    0.000    0.000    0.000 
#    0.000    0.000    0.000    0.000    0.000    0.000 
#
# Total GULP energy -156205.396027 kJ/mol
# GULP energy per Si atom -5578.764144 kJ/mol
# Density = 2.377400 g / cm^3
# Si number density = 23.828232 Si / 1000 Ang^3
#
#
#
# Elastic Constant Matrix: (Units=GPa)
#
#
# Indices 1 2 3 4 5 6 
#
# 1 164.0555 16.7736 28.8797 0.0000 -21.3410 0.0000
# 2 16.7736 43.6566 2.1348 0.0000 4.9234 0.0000
# 3 28.8797 2.1348 62.7089 0.0000 -16.6168 0.0000
# 4 0.0000 0.0000 0.0000 41.3672 0.0000 2.1104
# 5 -21.3410 4.9234 -16.6168 0.0000 36.8759 0.0000
# 6 0.0000 0.0000 0.0000 2.1104 0.0000 22.1825
#
#
#
# Elastic Compliance Matrix: (Units=1/GPa)
#
#
# Indices 1 2 3 4 5 6 
#
# 1 0.007283 -0.003091 -0.002297 0.000000 0.003593 0.000000
# 2 -0.003091 0.024755 -0.000873 0.000000 -0.005488 0.000000
# 3 -0.002297 -0.000873 0.018979 0.000000 0.007340 0.000000
# 4 0.000000 0.000000 0.000000 0.024292 0.000000 -0.002311
# 5 0.003593 -0.005488 0.007340 0.000000 0.033237 0.000000
# 6 0.000000 0.000000 0.000000 -0.002311 0.000000 0.045300
#
#
# Mechanical properties :
#
#
# Convention : Reuss Voigt Hill
#
# Bulk Modulus (GPa) = 25.97751 40.66634 33.32193
# Shear Modulus (GPa) = 27.90160 34.92733 31.41446
#
# Velocity S-wave (km/s) = 3.42562 3.83272 3.63488
# Velocity P-wave (km/s) = 5.15482 6.05722 5.62415
#
# Compressibility (1/GPa) = 0.03849483
#
# Stress axis : x y z
#
# Youngs Moduli (GPa) = 137.30143 40.39537 52.68955
#
# Poissons Ratio (x) = 0.12487 0.12103
# Poissons Ratio (y) = 0.42442 0.04601
# Poissons Ratio (z) = 0.31538 0.03528
#
# Static dielectric constant tensor:
#      x y z
#    x 2.007320 0.000000 0.034240 
#    y 0.000000 1.854520 0.000000 
#    z 0.034240 0.000000 1.941260 
# 
# From -- ./inp_files/49639.got.cif
#   From: 2010.05.17/outbox.cif.g08.bks.cpg/sg10_25_cif.got.tgz:49639.got - 2010.06.03 11:33:40.
