data_PCOD9149762
_publ_section_title
;
Structure prediction by ZEFSAII (Michael W. Deem and Ramdas Pophale) SiO2 
 PCOD9149762
Probable space group: P 2/M
;
_chemical_formula_sum "Si O2"
_cell_formula_units_Z 24
_cell_length_a 19.788950
_cell_length_b 7.464159
_cell_length_c 7.453179
_cell_angle_alpha 90.000000
_cell_angle_beta 53.979988
_cell_angle_gamma 90.000000
_cell_volume 890.415233
_symmetry_space_group_name_H-M "P 2/M"
_symmetry_group_IT_number 10
_symmetry_cell_setting 'monoclinic'
loop_
_space_group_symop_operation_xyz
x,y,z
-x,y,-z
-x,-y,-z
x,-y,z
loop_
_atom_site_type_symbol
_atom_site_label
_atom_site_fract_x
_atom_site_fract_y
_atom_site_fract_z
Si Si1 0.929505 0.715452 0.246326
Si Si2 0.874920 0.211434 0.703776
Si Si3 0.302295 0.781148 0.170810
Si Si4 0.201580 0.293918 0.817873
Si Si5 0.429912 0.780954 0.250688
Si Si6 0.378681 0.203702 0.696713
O O1 0.927834 0.500000 0.238064
O O2 0.939855 0.760801 0.439623
O O3 0.843159 0.781519 0.289110
O O4 0.000000 0.781927 0.000000
O O5 0.789322 0.279719 0.741473
O O6 0.868009 0.292111 0.912847
O O7 0.870280 0.000000 0.740303
O O8 0.342372 0.727847 0.295466
O O9 0.301186 0.000000 0.167903
O O10 0.364317 0.717571 0.914945
O O11 0.224697 0.500000 0.753983
O O12 0.283960 0.198504 0.763245
O O13 0.432957 0.717208 0.450483
O O14 0.432231 0.000000 0.254964
O O15 0.500000 0.726207 0.000000
O O16 0.406789 0.000000 0.683138
#
# Coordination Sequence:
#
# PCOD9149762 Si02
#       6
#     4   4   4   4   4   4
#     4  10  22  38  54  75 105 139 171 206 253 307
#     4  10  20  35  56  79 104 134 170 214 258 301
#     4   8  15  27  43  66  94 124 158 199 247 291
#     4  10  20  35  56  78 101 133 173 213 253 303
#     4   9  16  25  41  68  99 128 159 200 250 298
#     4   9  17  30  48  70  97 127 163 208 251 293
#
# _framework density 26.953720000000001
#
# number of rings (size 3 to 8) (size 9 to 14) (size 15 to 20)
#    0.000    2.667    0.000    3.000    0.000    4.333 
#    0.000    6.667    0.000    0.500    0.000    4.667 
#    0.000    0.000    0.000    0.000    0.000    0.000 
#
# Total GULP energy -134220.050812 kJ/mol
# GULP energy per Si atom -5592.502117 kJ/mol
# Density = 2.689237 g / cm^3
# Si number density = 26.953720 Si / 1000 Ang^3
#
#
#
# Elastic Constant Matrix: (Units=GPa)
#
#
# Indices 1 2 3 4 5 6 
#
# 1 86.3976 -3.6847 8.3464 0.0000 26.4261 0.0000
# 2 -3.6847 102.4152 -5.5207 0.0000 -2.9056 0.0000
# 3 8.3464 -5.5207 170.3321 0.0000 28.8030 0.0000
# 4 0.0000 0.0000 0.0000 13.5329 0.0000 8.9479
# 5 26.4261 -2.9056 28.8030 0.0000 58.9781 0.0000
# 6 0.0000 0.0000 0.0000 8.9479 0.0000 1.1579
#
#
#
# Elastic Compliance Matrix: (Units=1/GPa)
#
#
# Indices 1 2 3 4 5 6 
#
# 1 0.013448 0.000329 0.000401 0.000000 -0.006205 0.000000
# 2 0.000329 0.009796 0.000267 0.000000 0.000205 0.000000
# 3 0.000401 0.000267 0.006418 0.000000 -0.003301 0.000000
# 4 0.000000 0.000000 0.000000 -0.017980 0.000000 0.138953
# 5 -0.006205 0.000205 -0.003301 0.000000 0.021358 0.000000
# 6 0.000000 0.000000 0.000000 0.138953 0.000000 -0.210154
#
#
# Mechanical properties :
#
#
# Convention : Reuss Voigt Hill
#
# Bulk Modulus (GPa) = 31.58943 39.71409 35.65176
# Shear Modulus (GPa) = -29.66353 38.73403 4.53525
#
# Velocity S-wave (km/s) = -3.32103 3.79497 1.29856
# Velocity P-wave (km/s) = 1.72056 5.82825 3.93752
#
# Compressibility (1/GPa) = 0.03165616
#
# Stress axis : x y z
#
# Youngs Moduli (GPa) = 74.36267 102.08021 155.81027
#
# Poissons Ratio (x) = -0.03362 -0.06248
# Poissons Ratio (y) = -0.02449 -0.04156
# Poissons Ratio (z) = -0.02982 -0.02723
#
# Static dielectric constant tensor:
#      x y z
#    x 2.106210 0.000000 -0.084600 
#    y 0.000000 2.004280 0.000000 
#    z -0.084600 0.000000 2.192660 
# 
# From -- ./inp_files/35643.got.cif
#   From: 2010.05.17/outbox.cif.g08.bks.cpg/sg10_18_cif.got.tgz:35643.got - 2010.06.03 11:33:40.
