data_PCOD9149248
_publ_section_title
;
Structure prediction by ZEFSAII (Michael W. Deem and Ramdas Pophale) SiO2 
 PCOD9149248
Probable space group: P 2/M
;
_chemical_formula_sum "Si O2"
_cell_formula_units_Z 32
_cell_length_a 23.784596
_cell_length_b 7.378705
_cell_length_c 14.857264
_cell_angle_alpha 90.000000
_cell_angle_beta 147.872684
_cell_angle_gamma 90.000000
_cell_volume 1386.644234
_symmetry_space_group_name_H-M "P 2/M"
_symmetry_group_IT_number 10
_symmetry_cell_setting 'monoclinic'
loop_
_space_group_symop_operation_xyz
x,y,z
-x,y,-z
-x,-y,-z
x,-y,z
loop_
_atom_site_type_symbol
_atom_site_label
_atom_site_fract_x
_atom_site_fract_y
_atom_site_fract_z
Si Si1 0.756439 0.718712 0.439335
Si Si2 0.088159 0.791482 0.683619
Si Si3 0.999678 0.719596 0.240909
Si Si4 0.593510 0.210876 0.066686
Si Si5 0.682321 0.719610 0.532728
Si Si6 0.673760 0.776678 0.986382
Si Si7 0.476158 0.790370 0.369424
Si Si8 0.101154 0.279400 0.078557
O O1 0.756333 0.500000 0.439514
O O2 0.878768 0.776555 0.610026
O O3 0.698670 0.778179 0.270064
O O4 0.693845 0.778083 0.444287
O O5 0.000000 0.706299 0.500000
O O6 0.043189 0.786562 0.722818
O O7 0.101160 0.000000 0.670726
O O8 0.205667 0.714676 0.842086
O O9 0.000040 0.500000 0.243012
O O10 0.923795 0.777148 0.056712
O O11 0.566788 0.000000 0.016846
O O12 0.500000 0.293208 0.000000
O O13 0.612082 0.284526 0.992269
O O14 0.679666 0.500000 0.529438
O O15 0.579747 0.783393 0.447003
O O16 0.788569 0.778713 0.728960
O O17 0.617668 0.713506 0.819123
O O18 0.672429 0.000000 0.983488
O O19 0.500000 0.709550 0.500000
O O20 0.447290 0.000000 0.346803
O O21 0.102740 0.500000 0.082696
O O22 0.000000 0.223233 0.000000
#
# Coordination Sequence:
#
# PCOD9149248 Si02
#       8
#     4   4   4   4   4   4   4   4
#     4  10  20  34  54  82 113 141 171 218 275 325
#     4  10  21  37  57  79 108 147 184 222 270 323
#     4  10  20  34  55  82 109 140 180 222 267 320
#     4  10  20  35  58  81 103 138 183 224 265 320
#     4  10  20  35  57  82 110 143 181 224 268 322
#     4   9  19  37  56  77 109 145 182 221 269 329
#     4  10  22  39  58  79 107 146 185 225 274 322
#     4   9  16  32  56  80 109 146 180 213 267 332
#
# _framework density 23.077297000000002
#
# number of rings (size 3 to 8) (size 9 to 14) (size 15 to 20)
#    0.000    2.250    1.250    1.500    1.750    3.750 
#    0.000    1.875    0.000    0.750    0.000    0.000 
#    0.000    0.000    0.000    0.000    0.000    0.000 
#
# Total GULP energy -178901.644085 kJ/mol
# GULP energy per Si atom -5590.676378 kJ/mol
# Density = 2.302477 g / cm^3
# Si number density = 23.077297 Si / 1000 Ang^3
#
#
#
# Elastic Constant Matrix: (Units=GPa)
#
#
# Indices 1 2 3 4 5 6 
#
# 1 125.9836 -1.0538 52.6698 0.0000 -19.1230 0.0000
# 2 -1.0538 83.2473 3.5801 0.0000 -1.2518 0.0000
# 3 52.6698 3.5801 150.9881 0.0000 -19.9935 0.0000
# 4 0.0000 0.0000 0.0000 13.8992 0.0000 0.6868
# 5 -19.1230 -1.2518 -19.9935 0.0000 46.1233 0.0000
# 6 0.0000 0.0000 0.0000 0.6868 0.0000 24.7265
#
#
#
# Elastic Compliance Matrix: (Units=1/GPa)
#
#
# Indices 1 2 3 4 5 6 
#
# 1 0.009603 0.000291 -0.003001 0.000000 0.002688 0.000000
# 2 0.000291 0.012035 -0.000348 0.000000 0.000297 0.000000
# 3 -0.003001 -0.000348 0.007969 0.000000 0.002201 0.000000
# 4 0.000000 0.000000 0.000000 0.072045 0.000000 -0.002001
# 5 0.002688 0.000297 0.002201 0.000000 0.023758 0.000000
# 6 0.000000 0.000000 0.000000 -0.002001 0.000000 0.040498
#
#
# Mechanical properties :
#
#
# Convention : Reuss Voigt Hill
#
# Bulk Modulus (GPa) = 42.56569 52.29015 47.42792
# Shear Modulus (GPa) = 27.80030 37.28466 32.54248
#
# Velocity S-wave (km/s) = 3.47459 4.02387 3.75927
# Velocity P-wave (km/s) = 5.88064 6.65557 6.28006
#
# Compressibility (1/GPa) = 0.02349310
#
# Stress axis : x y z
#
# Youngs Moduli (GPa) = 104.13952 83.08757 125.47917
#
# Poissons Ratio (x) = -0.02418 0.37651
# Poissons Ratio (y) = -0.03031 0.04362
# Poissons Ratio (z) = 0.31248 0.02888
#
# Static dielectric constant tensor:
#      x y z
#    x 1.811270 0.000000 -0.008590 
#    y 0.000000 1.883270 0.000000 
#    z -0.008590 0.000000 1.845510 
# 
# From -- ./inp_files/71461.got.cif
#   From: 2010.05.17/outbox.cif.g08.bks.cpg/sg10_36_cif.got.tgz:71461.got - 2010.06.03 11:33:40.
