data_PCOD9149714
_publ_section_title
;
Structure prediction by ZEFSAII (Michael W. Deem and Ramdas Pophale) SiO2 
 PCOD9149714
Probable space group: P 2/M
;
_chemical_formula_sum "Si O2"
_cell_formula_units_Z 28
_cell_length_a 17.382559
_cell_length_b 8.216635
_cell_length_c 15.610588
_cell_angle_alpha 90.000000
_cell_angle_beta 134.679713
_cell_angle_gamma 90.000000
_cell_volume 1585.353748
_symmetry_space_group_name_H-M "P 2/M"
_symmetry_group_IT_number 10
_symmetry_cell_setting 'monoclinic'
loop_
_space_group_symop_operation_xyz
x,y,z
-x,y,-z
-x,-y,-z
x,-y,z
loop_
_atom_site_type_symbol
_atom_site_label
_atom_site_fract_x
_atom_site_fract_y
_atom_site_fract_z
Si Si1 0.843851 0.302199 0.437639
Si Si2 0.743101 0.308336 0.836957
Si Si3 0.914937 0.698155 0.312694
Si Si4 0.098468 0.697414 0.890259
Si Si5 0.290999 0.307034 0.509692
Si Si6 0.138714 0.809402 0.237604
Si Si7 0.508530 0.191967 0.604836
O O1 0.841062 0.500000 0.432392
O O2 0.845437 0.245760 0.340283
O O3 0.751157 0.249251 0.430540
O O4 0.960281 0.257812 0.569582
O O5 0.721750 0.500000 0.830410
O O6 0.816976 0.282429 0.811018
O O7 0.628948 0.222274 0.732343
O O8 0.809860 0.248479 0.971536
O O9 0.911456 0.500000 0.309268
O O10 0.883659 0.753527 0.193497
O O11 0.097473 0.500000 0.889929
O O12 0.980865 0.754086 0.829598
O O13 0.269774 0.500000 0.487148
O O14 0.219918 0.224544 0.379782
O O15 0.416028 0.274117 0.589075
O O16 0.138702 0.000000 0.217905
O O17 0.500000 0.253557 0.500000
O O18 0.485379 0.000000 0.585074
#
# Coordination Sequence:
#
# PCOD9149714 Si02
#       7
#     4   4   4   4   4   4   4
#     4   8  14  25  49  81 107 132 165 209 262 305
#     4  11  23  37  55  77 102 138 181 220 256 303
#     4   8  13  26  49  79 109 133 163 209 260 306
#     4  10  20  35  55  79 107 139 176 215 257 305
#     4  11  20  33  56  81 106 136 175 219 259 303
#     4  12  23  34  50  76 110 146 175 207 259 314
#     4  11  23  38  55  76 103 137 175 217 265 311
#
# _framework density 17.661671999999999
#
# number of rings (size 3 to 8) (size 9 to 14) (size 15 to 20)
#    0.000    1.857    2.857    3.857    0.000    3.429 
#    0.000    0.000    0.000    3.429    0.000    6.000 
#    0.000    0.000    0.000    0.000    0.000    0.000 
#
# Total GULP energy -156281.215236 kJ/mol
# GULP energy per Si atom -5581.471973 kJ/mol
# Density = 1.762147 g / cm^3
# Si number density = 17.661672 Si / 1000 Ang^3
#
#
#
# Elastic Constant Matrix: (Units=GPa)
#
#
# Indices 1 2 3 4 5 6 
#
# 1 136.0746 -5.4650 58.5142 0.0000 -19.2080 0.0000
# 2 -5.4650 13.1924 -8.2109 0.0000 3.0516 0.0000
# 3 58.5142 -8.2109 103.2277 0.0000 -4.6845 0.0000
# 4 0.0000 0.0000 0.0000 5.1935 0.0000 6.2363
# 5 -19.2080 3.0516 -4.6845 0.0000 16.3536 0.0000
# 6 0.0000 0.0000 0.0000 6.2363 0.0000 -10.0518
#
#
#
# Elastic Compliance Matrix: (Units=1/GPa)
#
#
# Indices 1 2 3 4 5 6 
#
# 1 0.011679 -0.001870 -0.006212 0.000000 0.012288 0.000000
# 2 -0.001870 0.082981 0.006948 0.000000 -0.015691 0.000000
# 3 -0.006212 0.006948 0.013547 0.000000 -0.004712 0.000000
# 4 0.000000 0.000000 0.000000 0.110343 0.000000 0.068459
# 5 0.012288 -0.015691 -0.004712 0.000000 0.077159 0.000000
# 6 0.000000 0.000000 0.000000 0.068459 0.000000 -0.057012
#
#
# Mechanical properties :
#
#
# Convention : Reuss Voigt Hill
#
# Bulk Modulus (GPa) = 9.43921 38.01903 23.72912
# Shear Modulus (GPa) = 18.09771 16.14284 17.12027
#
# Velocity S-wave (km/s) = 3.20455 3.02653 3.11681
# Velocity P-wave (km/s) = 4.36443 5.81259 5.13977
#
# Compressibility (1/GPa) = 0.10594104
#
# Stress axis : x y z
#
# Youngs Moduli (GPa) = 85.62129 12.05096 73.81623
#
# Poissons Ratio (x) = 0.02254 0.45851
# Poissons Ratio (y) = 0.16012 -0.51291
# Poissons Ratio (z) = 0.53184 -0.08374
#
# Static dielectric constant tensor:
#      x y z
#    x 1.601390 0.000000 -0.027800 
#    y 0.000000 1.607150 0.000000 
#    z -0.027800 0.000000 1.583620 
# 
# From -- ./inp_files/49172.got.cif
#   From: 2010.05.17/outbox.cif.g08.bks.cpg/sg10_25_cif.got.tgz:49172.got - 2010.06.03 11:33:40.
