data_PCOD9149690
_publ_section_title
;
Structure prediction by ZEFSAII (Michael W. Deem and Ramdas Pophale) SiO2 
 PCOD9149690
Probable space group: P 2/M
;
_chemical_formula_sum "Si O2"
_cell_formula_units_Z 28
_cell_length_a 32.388540
_cell_length_b 7.523603
_cell_length_c 10.422726
_cell_angle_alpha 90.000000
_cell_angle_beta 35.599809
_cell_angle_gamma 90.000000
_cell_volume 1478.465782
_symmetry_space_group_name_H-M "P 2/M"
_symmetry_group_IT_number 10
_symmetry_cell_setting 'monoclinic'
loop_
_space_group_symop_operation_xyz
x,y,z
-x,y,-z
-x,-y,-z
x,-y,z
loop_
_atom_site_type_symbol
_atom_site_label
_atom_site_fract_x
_atom_site_fract_y
_atom_site_fract_z
Si Si1 0.966676 0.792849 0.951171
Si Si2 0.453785 0.000000 0.988468
Si Si3 0.816209 0.714382 0.425584
Si Si4 0.448327 0.000000 0.508601
Si Si5 0.345043 0.289286 0.866466
Si Si6 0.046065 0.296082 0.496807
Si Si7 0.654369 0.711923 0.828071
Si Si8 0.183629 0.716947 0.281081
O O1 0.881921 0.775911 0.174793
O O2 0.985965 0.000000 0.894046
O O3 0.000000 0.721347 0.000000
O O4 0.000115 0.703412 0.742702
O O5 0.506834 0.000000 0.733588
O O6 0.500000 0.000000 0.000000
O O7 0.402262 0.829434 0.103714
O O8 0.817090 0.500000 0.424370
O O9 0.735965 0.765048 0.591595
O O10 0.829118 0.775281 0.539842
O O11 0.500000 0.000000 0.500000
O O12 0.398947 0.827529 0.649791
O O13 0.353692 0.500000 0.823263
O O14 0.355138 0.257855 0.994185
O O15 0.263791 0.237443 0.042431
O O16 0.060765 0.500000 0.419817
O O17 0.121932 0.217128 0.344229
O O18 0.000000 0.212033 0.500000
O O19 0.646791 0.500000 0.825373
O O20 0.180557 0.500000 0.291690
#
# Coordination Sequence:
#
# PCOD9149690 Si02
#       8
#     4   2   4   2   4   4   4   4
#     4  11  22  33  48  82 115 145 190 236 284 328
#     4  12  26  42  60  86 126 157 181 226 286 351
#     4   9  17  32  58  83 106 142 190 240 282 324
#     4  12  22  38  60  94 114 144 193 226 283 347
#     4   9  18  35  61  91 117 142 187 246 287 327
#     4  10  20  35  55  77 108 150 192 233 280 332
#     4   9  19  37  61  90 115 149 194 233 286 342
#     4   8  15  31  54  81 110 143 182 229 285 329
#
# _framework density 18.938552000000001
#
# number of rings (size 3 to 8) (size 9 to 14) (size 15 to 20)
#    0.000    2.286    2.857    2.143    1.000    2.000 
#    2.571    1.429    0.000    3.429    0.000    0.000 
#    0.000    0.000    0.000    0.000    0.000    0.000 
#
# Total GULP energy -156265.205794 kJ/mol
# GULP energy per Si atom -5580.900207 kJ/mol
# Density = 1.889545 g / cm^3
# Si number density = 18.938552 Si / 1000 Ang^3
#
#
#
# Elastic Constant Matrix: (Units=GPa)
#
#
# Indices 1 2 3 4 5 6 
#
# 1 158.4605 35.6487 55.6688 0.0000 -24.3043 0.0000
# 2 35.6487 65.2336 16.4528 0.0000 -12.2404 0.0000
# 3 55.6688 16.4528 82.2559 0.0000 -20.3879 0.0000
# 4 0.0000 0.0000 0.0000 38.9170 0.0000 -16.9588
# 5 -24.3043 -12.2404 -20.3879 0.0000 26.8899 0.0000
# 6 0.0000 0.0000 0.0000 -16.9588 0.0000 18.8035
#
#
#
# Elastic Compliance Matrix: (Units=1/GPa)
#
#
# Indices 1 2 3 4 5 6 
#
# 1 0.009214 -0.003221 -0.004791 0.000000 0.003229 0.000000
# 2 -0.003221 0.018106 -0.000148 0.000000 0.005218 0.000000
# 3 -0.004791 -0.000148 0.017658 0.000000 0.008990 0.000000
# 4 0.000000 0.000000 0.000000 0.042334 0.000000 0.038181
# 5 0.003229 0.005218 0.008990 0.000000 0.049299 0.000000
# 6 0.000000 0.000000 0.000000 0.038181 0.000000 0.087616
#
#
# Mechanical properties :
#
#
# Convention : Reuss Voigt Hill
#
# Bulk Modulus (GPa) = 34.89550 57.94340 46.41945
# Shear Modulus (GPa) = 19.99206 30.13406 25.06306
#
# Velocity S-wave (km/s) = 3.25257 3.99325 3.64179
# Velocity P-wave (km/s) = 5.70712 7.20578 6.49979
#
# Compressibility (1/GPa) = 0.02865699
#
# Stress axis : x y z
#
# Youngs Moduli (GPa) = 108.53376 55.22966 56.63286
#
# Poissons Ratio (x) = 0.17788 0.27133
# Poissons Ratio (y) = 0.34957 0.00841
# Poissons Ratio (z) = 0.51999 0.00820
#
# Static dielectric constant tensor:
#      x y z
#    x 1.658640 0.000000 -0.025780 
#    y 0.000000 1.701510 0.000000 
#    z -0.025780 0.000000 1.635520 
# 
# From -- ./inp_files/37138.got.cif
#   From: 2010.05.17/outbox.cif.g08.bks.cpg/sg10_19_cif.got.tgz:37138.got - 2010.06.03 11:33:40.
