data_PCOD9149945
_publ_section_title
;
Structure prediction by ZEFSAII (Michael W. Deem and Ramdas Pophale) SiO2 
 PCOD9149945
Probable space group: P 2/M
;
_chemical_formula_sum "Si O2"
_cell_formula_units_Z 28
_cell_length_a 15.169464
_cell_length_b 9.201503
_cell_length_c 20.972608
_cell_angle_alpha 90.000000
_cell_angle_beta 29.705214
_cell_angle_gamma 90.000000
_cell_volume 1450.635026
_symmetry_space_group_name_H-M "P 2/M"
_symmetry_group_IT_number 10
_symmetry_cell_setting 'monoclinic'
loop_
_space_group_symop_operation_xyz
x,y,z
-x,y,-z
-x,-y,-z
x,-y,z
loop_
_atom_site_type_symbol
_atom_site_label
_atom_site_fract_x
_atom_site_fract_y
_atom_site_fract_z
Si Si1 0.144531 0.172887 0.126891
Si Si2 0.263973 0.674585 0.843264
Si Si3 0.622741 0.169641 0.648900
Si Si4 0.949921 0.174077 0.121107
Si Si5 0.964760 0.833454 0.365698
Si Si6 0.484265 0.664209 0.937154
Si Si7 0.826794 0.740180 0.644866
O O1 0.997349 0.195707 0.165127
O O2 0.070494 0.233328 0.240460
O O3 0.176859 0.000000 0.110924
O O4 0.334334 0.245538 0.994490
O O5 0.246512 0.500000 0.854830
O O6 0.453025 0.728750 0.749605
O O7 0.219611 0.742960 0.801565
O O8 0.116703 0.752360 0.980093
O O9 0.772082 0.225488 0.505306
O O10 0.719866 0.178661 0.656317
O O11 0.577167 0.000000 0.665601
O O12 0.940254 0.000000 0.114967
O O13 0.080838 0.831171 0.356972
O O14 0.932866 0.000000 0.367383
O O15 0.417969 0.500000 0.985109
O O16 0.670417 0.660737 0.782349
O O17 0.500000 0.723816 0.000000
O O18 0.000000 0.669735 0.500000
#
# Coordination Sequence:
#
# PCOD9149945 Si02
#       7
#     4   4   4   4   4   4   4
#     4  10  21  37  60  86 112 146 188 233 285 335
#     4  11  22  37  57  82 112 146 184 230 285 342
#     4  10  20  35  58  84 112 147 189 236 285 332
#     4  10  20  36  60  86 110 140 183 235 288 339
#     4   9  18  35  56  82 114 147 187 234 279 334
#     4  11  23  37  53  80 117 155 191 230 279 335
#     4  10  20  35  57  84 115 152 194 239 282 331
#
# _framework density 19.301891000000001
#
# number of rings (size 3 to 8) (size 9 to 14) (size 15 to 20)
#    0.000    1.857    1.429    3.857    0.000    7.429 
#    0.000    3.571    0.000    4.286    0.000    0.000 
#    0.000    0.000    0.000    0.000    0.000    0.000 
#
# Total GULP energy -155949.838296 kJ/mol
# GULP energy per Si atom -5569.637082 kJ/mol
# Density = 1.925796 g / cm^3
# Si number density = 19.301891 Si / 1000 Ang^3
#
#
#
# Elastic Constant Matrix: (Units=GPa)
#
#
# Indices 1 2 3 4 5 6 
#
# 1 97.8615 34.6894 35.4464 0.0000 -3.7973 0.0000
# 2 34.6894 80.6721 21.8471 0.0000 -5.8413 0.0000
# 3 35.4464 21.8471 91.1254 0.0000 3.3146 0.0000
# 4 0.0000 0.0000 0.0000 7698.0228 0.0000-9634.3003
# 5 -3.7973 -5.8413 3.3146 0.0000 27.3455 0.0000
# 6 0.0000 0.0000 0.0000-9634.3003 0.000012059.0095
#
#
#
# Elastic Compliance Matrix: (Units=1/GPa)
#
#
# Indices 1 2 3 4 5 6 
#
# 1 0.013389 -0.004526 -0.004174 0.000000 0.001398 0.000000
# 2 -0.004526 0.015077 -0.001957 0.000000 0.002829 0.000000
# 3 -0.004174 -0.001957 0.013161 0.000000 -0.002593 0.000000
# 4 0.000000 0.000000 0.000000 1.117818 0.000000 0.893058
# 5 0.001398 0.002829 -0.002593 0.000000 0.037682 0.000000
# 6 0.000000 0.000000 0.000000 0.893058 0.000000 0.713573
#
#
# Mechanical properties :
#
#
# Convention : Reuss Voigt Hill
#
# Bulk Modulus (GPa) = 49.22893 50.40276 49.81584
# Shear Modulus (GPa) = 2.57894 3968.72062 1985.64978
#
# Velocity S-wave (km/s) = 1.15715 45.39377 32.10867
# Velocity P-wave (km/s) = 5.22929 52.66525 37.42308
#
# Compressibility (1/GPa) = 0.02031326
#
# Stress axis : x y z
#
# Youngs Moduli (GPa) = 74.68901 66.32699 75.98199
#
# Poissons Ratio (x) = 0.30017 0.31714
# Poissons Ratio (y) = 0.33802 0.14871
# Poissons Ratio (z) = 0.31174 0.12981
#
# Static dielectric constant tensor:
#      x y z
#    x 1.714790 0.000000 0.026780 
#    y 0.000000 1.659230 0.000000 
#    z 0.026780 0.000000 1.711840 
# 
# From -- ./inp_files/84906.got.cif
#   From: 2010.05.17/outbox.cif.g08.bks.cpg/sg10_43_cif.got.tgz:84906.got - 2010.06.03 11:33:40.
