data_PCOD9149485
_publ_section_title
;
Structure prediction by ZEFSAII (Michael W. Deem and Ramdas Pophale) SiO2 
 PCOD9149485
Probable space group: P 2/M
;
_chemical_formula_sum "Si O2"
_cell_formula_units_Z 28
_cell_length_a 20.811801
_cell_length_b 12.080694
_cell_length_c 11.163261
_cell_angle_alpha 90.000000
_cell_angle_beta 31.286712
_cell_angle_gamma 90.000000
_cell_volume 1457.566759
_symmetry_space_group_name_H-M "P 2/M"
_symmetry_group_IT_number 10
_symmetry_cell_setting 'monoclinic'
loop_
_space_group_symop_operation_xyz
x,y,z
-x,y,-z
-x,-y,-z
x,-y,z
loop_
_atom_site_type_symbol
_atom_site_label
_atom_site_fract_x
_atom_site_fract_y
_atom_site_fract_z
Si Si1 0.952189 0.500000 0.435738
Si Si2 0.791980 0.866863 0.401177
Si Si3 0.646848 0.877222 0.280235
Si Si4 0.259617 0.126123 0.136643
Si Si5 0.091024 0.257673 0.558811
Si Si6 0.160427 0.258154 0.897978
Si Si7 0.099647 0.500000 0.950541
Si Si8 0.488827 0.125502 0.160159
O O1 0.882298 0.385206 0.518452
O O2 0.000000 0.500000 0.500000
O O3 0.049991 0.500000 0.168017
O O4 0.834796 0.797395 0.448431
O O5 0.867003 0.827158 0.165692
O O6 0.649556 0.834096 0.598477
O O7 0.797753 0.000000 0.411712
O O8 0.500000 0.864053 0.500000
O O9 0.711886 0.780691 0.248358
O O10 0.668699 0.000000 0.299957
O O11 0.713224 0.877537 0.046309
O O12 0.137030 0.188571 0.371810
O O13 0.249326 0.000000 0.199545
O O14 0.385715 0.179102 0.990659
O O15 0.949027 0.251295 0.829073
O O16 0.166299 0.381895 0.836047
O O17 0.000000 0.500000 0.000000
O O18 0.491748 0.000000 0.205873
O O19 0.500000 0.120051 0.000000
#
# Coordination Sequence:
#
# PCOD9149485 Si02
#       8
#     2   4   4   4   4   4   2   4
#     4  10  24  42  64  81 111 166 216 247 293 369
#     4  11  21  35  60  92 126 160 195 241 303 373
#     4  10  22  40  59  85 121 161 202 245 301 369
#     4  10  20  34  57  86 121 156 191 244 302 357
#     4  11  23  37  59  88 119 149 203 254 301 354
#     4  11  23  38  61  86 118 160 203 250 301 361
#     4  10  22  44  65  88 121 162 210 258 305 363
#     4   9  16  31  53  81 116 158 198 228 280 361
#
# _framework density 19.210097000000001
#
# number of rings (size 3 to 8) (size 9 to 14) (size 15 to 20)
#    0.000    1.714    1.429    3.857    4.000    5.143 
#    0.000    1.786    0.000    4.286    0.000    0.000 
#    0.000    0.000    0.000    0.000    0.000    0.000 
#
# Total GULP energy -155996.769797 kJ/mol
# GULP energy per Si atom -5571.313207 kJ/mol
# Density = 1.916637 g / cm^3
# Si number density = 19.210097 Si / 1000 Ang^3
#
#
#
# Elastic Constant Matrix: (Units=GPa)
#
#
# Indices 1 2 3 4 5 6 
#
# 1 77.0135 55.2538 20.1053 0.0000 4.0515 0.0000
# 2 55.2538 133.7961 43.2981 0.0000 -12.1060 0.0000
# 3 20.1053 43.2981 89.2116 0.0000 7.7299 0.0000
# 4 0.0000 0.0000 0.0000 -105.7213 0.0000 -152.7937
# 5 4.0515 -12.1060 7.7299 0.0000 38.7792 0.0000
# 6 0.0000 0.0000 0.0000 -152.7937 0.0000 -170.8999
#
#
#
# Elastic Compliance Matrix: (Units=1/GPa)
#
#
# Indices 1 2 3 4 5 6 
#
# 1 0.019225 -0.008411 0.000154 0.000000 -0.004665 0.000000
# 2 -0.008411 0.013098 -0.004978 0.000000 0.005960 0.000000
# 3 0.000154 -0.004978 0.013968 0.000000 -0.004354 0.000000
# 4 0.000000 0.000000 0.000000 0.032379 0.000000 -0.028948
# 5 -0.004665 0.005960 -0.004354 0.000000 0.029003 0.000000
# 6 0.000000 0.000000 0.000000 -0.028948 0.000000 0.020030
#
#
# Mechanical properties :
#
#
# Convention : Reuss Voigt Hill
#
# Bulk Modulus (GPa) = 50.45337 59.70395 55.07866
# Shear Modulus (GPa) = 31.09881 -35.47748 -2.18934
#
# Velocity S-wave (km/s) = 4.02789 -4.30212 -1.06872
# Velocity P-wave (km/s) = 6.92480 2.54348 5.21643
#
# Compressibility (1/GPa) = 0.01982028
#
# Stress axis : x y z
#
# Youngs Moduli (GPa) = 52.01687 76.34956 71.59339
#
# Poissons Ratio (x) = 0.64218 -0.01102
# Poissons Ratio (y) = 0.43752 0.35637
# Poissons Ratio (z) = -0.00800 0.38004
#
# Static dielectric constant tensor:
#      x y z
#    x 1.727140 0.000000 0.022870 
#    y 0.000000 1.676910 0.000000 
#    z 0.022870 0.000000 1.720560 
# 
# From -- ./inp_files/55839.got.cif
#   From: 2010.05.17/outbox.cif.g08.bks.cpg/sg10_28_cif.got.tgz:55839.got - 2010.06.03 11:33:40.
