data_PCOD9149636
_publ_section_title
;
Structure prediction by ZEFSAII (Michael W. Deem and Ramdas Pophale) SiO2 
 PCOD9149636
Probable space group: P 2/M
;
_chemical_formula_sum "Si O2"
_cell_formula_units_Z 32
_cell_length_a 15.669392
_cell_length_b 9.086404
_cell_length_c 12.203441
_cell_angle_alpha 90.000000
_cell_angle_beta 91.305472
_cell_angle_gamma 90.000000
_cell_volume 1737.055732
_symmetry_space_group_name_H-M "P 2/M"
_symmetry_group_IT_number 10
_symmetry_cell_setting 'monoclinic'
loop_
_space_group_symop_operation_xyz
x,y,z
-x,y,-z
-x,-y,-z
x,-y,z
loop_
_atom_site_type_symbol
_atom_site_label
_atom_site_fract_x
_atom_site_fract_y
_atom_site_fract_z
Si Si1 0.190888 0.324631 0.705421
Si Si2 0.952004 0.173081 0.170983
Si Si3 0.129354 0.826655 0.073757
Si Si4 0.285132 0.172912 0.515676
Si Si5 0.690442 0.674408 0.919466
Si Si6 0.630983 0.673484 0.675080
Si Si7 0.457670 0.169396 0.662220
Si Si8 0.336846 0.826068 0.857320
O O1 0.197050 0.500000 0.705456
O O2 0.098988 0.269730 0.743858
O O3 0.217546 0.258253 0.588890
O O4 0.259389 0.256861 0.793688
O O5 0.051019 0.209469 0.152380
O O6 0.945718 0.000000 0.199444
O O7 0.906428 0.190208 0.050992
O O8 0.212045 0.727885 0.089950
O O9 0.150595 0.000000 0.088075
O O10 0.301151 0.240291 0.397247
O O11 0.376233 0.189043 0.581243
O O12 0.265097 0.000000 0.511536
O O13 0.687059 0.500000 0.940358
O O14 0.644207 0.705972 0.803654
O O15 0.652867 0.760996 0.021983
O O16 0.641122 0.500000 0.657565
O O17 0.536020 0.725153 0.641497
O O18 0.419427 0.191741 0.782739
O O19 0.487050 0.000000 0.651771
O O20 0.316317 0.000000 0.860673
#
# Coordination Sequence:
#
# PCOD9149636 Si02
#       8
#     4   4   4   4   4   4   4   4
#     4  11  20  31  53  84 113 140 171 215 271 320
#     4   9  17  31  52  81 111 139 176 217 259 310
#     4   9  18  32  53  78 108 144 178 216 258 308
#     4  10  21  38  59  80 104 137 180 227 266 310
#     4  11  23  36  51  76 112 146 178 217 264 321
#     4  11  24  38  53  77 108 142 178 221 271 320
#     4   9  20  37  57  80 103 132 176 228 271 313
#     4  10  20  35  54  77 107 142 180 220 263 312
#
# _framework density 18.421976999999998
#
# number of rings (size 3 to 8) (size 9 to 14) (size 15 to 20)
#    0.000    2.000    1.250    4.500    0.000    7.500 
#    0.000    3.750    0.000    0.750    0.000    5.250 
#    0.000    0.000    0.000    0.000    0.000    0.000 
#
# Total GULP energy -178706.815429 kJ/mol
# GULP energy per Si atom -5584.587982 kJ/mol
# Density = 1.838005 g / cm^3
# Si number density = 18.421977 Si / 1000 Ang^3
#
#
#
# Elastic Constant Matrix: (Units=GPa)
#
#
# Indices 1 2 3 4 5 6 
#
# 1 26.1055 21.8378 12.1956 0.0000 -17.7380 0.0000
# 2 21.8378 82.1826 50.7061 0.0000 -22.2988 0.0000
# 3 12.1956 50.7061 77.5754 0.0000 -29.1837 0.0000
# 4 0.0000 0.0000 0.0000 30.1177 0.0000 -6.4340
# 5 -17.7380 -22.2988 -29.1837 0.0000 24.7875 0.0000
# 6 0.0000 0.0000 0.0000 -6.4340 0.0000 15.7749
#
#
#
# Elastic Compliance Matrix: (Units=1/GPa)
#
#
# Indices 1 2 3 4 5 6 
#
# 1 0.108094 -0.024169 0.035408 0.000000 0.097297 0.000000
# 2 -0.024169 0.026114 -0.019635 0.000000 -0.016921 0.000000
# 3 0.035408 -0.019635 0.041368 0.000000 0.056379 0.000000
# 4 0.000000 0.000000 0.000000 0.036372 0.000000 0.014835
# 5 0.097297 -0.016921 0.056379 0.000000 0.161125 0.000000
# 6 0.000000 0.000000 0.000000 0.014835 0.000000 0.069442
#
#
# Mechanical properties :
#
#
# Convention : Reuss Voigt Hill
#
# Bulk Modulus (GPa) = 6.29792 39.48247 22.89020
# Shear Modulus (GPa) = 9.76111 20.87764 15.31937
#
# Velocity S-wave (km/s) = 2.30437 3.37011 2.88684
# Velocity P-wave (km/s) = 3.24134 6.05163 4.85431
#
# Compressibility (1/GPa) = 0.15878257
#
# Stress axis : x y z
#
# Youngs Moduli (GPa) = 9.25121 38.29404 24.17314
#
# Poissons Ratio (x) = 0.92554 -0.85591
# Poissons Ratio (y) = 0.22360 0.47464
# Poissons Ratio (z) = -0.32756 0.75190
#
# Static dielectric constant tensor:
#      x y z
#    x 1.624070 0.000000 -0.014060 
#    y 0.000000 1.611590 0.000000 
#    z -0.014060 0.000000 1.647770 
# 
# From -- ./inp_files/49766.got.cif
#   From: 2010.05.17/outbox.cif.g08.bks.cpg/sg10_25_cif.got.tgz:49766.got - 2010.06.03 11:33:40.
