data_PCOD9149711
_publ_section_title
;
Structure prediction by ZEFSAII (Michael W. Deem and Ramdas Pophale) SiO2 
 PCOD9149711
Probable space group: P 2/M
;
_chemical_formula_sum "Si O2"
_cell_formula_units_Z 32
_cell_length_a 16.234107
_cell_length_b 13.979604
_cell_length_c 9.503355
_cell_angle_alpha 90.000000
_cell_angle_beta 61.804130
_cell_angle_gamma 90.000000
_cell_volume 1900.826515
_symmetry_space_group_name_H-M "P 2/M"
_symmetry_group_IT_number 10
_symmetry_cell_setting 'monoclinic'
loop_
_space_group_symop_operation_xyz
x,y,z
-x,y,-z
-x,-y,-z
x,-y,z
loop_
_atom_site_type_symbol
_atom_site_label
_atom_site_fract_x
_atom_site_fract_y
_atom_site_fract_z
Si Si1 0.239218 0.213057 0.794279
Si Si2 0.023763 0.397407 0.316318
Si Si3 0.411733 0.884667 0.161683
Si Si4 0.246402 0.112080 0.084016
Si Si5 0.945155 0.803660 0.690058
Si Si6 0.931301 0.103222 0.187337
Si Si7 0.100291 0.388126 0.842964
Si Si8 0.400985 0.886453 0.499810
O O1 0.166245 0.136352 0.791926
O O2 0.182304 0.313499 0.818474
O O3 0.332003 0.188817 0.631072
O O4 0.257024 0.180985 0.940703
O O5 0.064625 0.500000 0.239920
O O6 0.087779 0.304513 0.251307
O O7 0.000000 0.401602 0.500000
O O8 0.930843 0.384050 0.296331
O O9 0.318241 0.861735 0.149924
O O10 0.410529 0.859002 0.327243
O O11 0.418579 0.000000 0.156969
O O12 0.500000 0.848126 0.000000
O O13 0.140973 0.125585 0.224295
O O14 0.261841 0.000000 0.032078
O O15 0.000000 0.809081 0.500000
O O16 0.022459 0.825224 0.743339
O O17 0.925149 0.000000 0.262001
O O18 0.000000 0.098368 0.000000
O O19 0.122961 0.500000 0.855282
O O20 0.000000 0.365231 0.000000
O O21 0.500000 0.883456 0.500000
O O22 0.369764 0.000000 0.532716
#
# Coordination Sequence:
#
# PCOD9149711 Si02
#       8
#     4   4   4   4   4   4   4   4
#     4  12  21  34  54  77 105 139 182 221 267 317
#     4   9  18  33  50  67  93 131 174 220 265 303
#     4   9  19  36  55  75 103 137 176 220 264 311
#     4  11  22  34  49  72 104 144 176 210 260 315
#     4  11  22  33  47  70 104 140 178 214 258 312
#     4  11  21  33  47  68 104 147 178 207 250 314
#     4  10  20  35  55  79 106 139 181 226 271 318
#     4  10  21  36  56  82 109 140 180 224 268 319
#
# _framework density 16.834782000000001
#
# number of rings (size 3 to 8) (size 9 to 14) (size 15 to 20)
#    0.000    1.625    2.500    3.375    1.750    3.000 
#    0.000    0.000    0.000    0.375    0.000    0.000 
#    0.000    3.500    0.000    0.000    0.000    0.000 
#
# Total GULP energy -178242.460916 kJ/mol
# GULP energy per Si atom -5570.076904 kJ/mol
# Density = 1.679647 g / cm^3
# Si number density = 16.834782 Si / 1000 Ang^3
#
#
#
# Elastic Constant Matrix: (Units=GPa)
#
#
# Indices 1 2 3 4 5 6 
#
# 1 85.9043 19.3958 51.1697 0.0000 18.7783 0.0000
# 2 19.3958 89.4494 31.4259 0.0000 6.3894 0.0000
# 3 51.1697 31.4259 101.1792 0.0000 18.1407 0.0000
# 4 0.0000 0.0000 0.0000 14.3521 0.0000 4.4185
# 5 18.7783 6.3894 18.1407 0.0000 31.2629 0.0000
# 6 0.0000 0.0000 0.0000 4.4185 0.0000 22.0754
#
#
#
# Elastic Compliance Matrix: (Units=1/GPa)
#
#
# Indices 1 2 3 4 5 6 
#
# 1 0.017668 -0.000719 -0.007629 0.000000 -0.006038 0.000000
# 2 -0.000719 0.012581 -0.003527 0.000000 -0.000092 0.000000
# 3 -0.007629 -0.003527 0.015499 0.000000 -0.003690 0.000000
# 4 0.000000 0.000000 0.000000 0.074251 0.000000 -0.014862
# 5 -0.006038 -0.000092 -0.003690 0.000000 0.037774 0.000000
# 6 0.000000 0.000000 0.000000 -0.014862 0.000000 0.048274
#
#
# Mechanical properties :
#
#
# Convention : Reuss Voigt Hill
#
# Bulk Modulus (GPa) = 45.46212 53.39064 49.42638
# Shear Modulus (GPa) = 21.08545 25.17420 23.12982
#
# Velocity S-wave (km/s) = 3.54290 3.87119 3.71068
# Velocity P-wave (km/s) = 6.61813 7.19478 6.91247
#
# Compressibility (1/GPa) = 0.02199633
#
# Stress axis : x y z
#
# Youngs Moduli (GPa) = 56.60109 79.48285 64.52073
#
# Poissons Ratio (x) = 0.05718 0.49223
# Poissons Ratio (y) = 0.04072 0.22759
# Poissons Ratio (z) = 0.43181 0.28036
#
# Static dielectric constant tensor:
#      x y z
#    x 1.548620 0.000000 0.018710 
#    y 0.000000 1.609280 0.000000 
#    z 0.018710 0.000000 1.585680 
# 
# From -- ./inp_files/29510.got.cif
#   From: 2010.05.17/outbox.cif.g08.bks.cpg/sg10_15_cif.got.tgz:29510.got - 2010.06.03 11:33:40.
