data_PCOD9149340
_publ_section_title
;
Structure prediction by ZEFSAII (Michael W. Deem and Ramdas Pophale) SiO2 
 PCOD9149340
Probable space group: P 2/M
;
_chemical_formula_sum "Si O2"
_cell_formula_units_Z 32
_cell_length_a 21.492277
_cell_length_b 8.834261
_cell_length_c 26.139308
_cell_angle_alpha 90.000000
_cell_angle_beta 20.422940
_cell_angle_gamma 90.000000
_cell_volume 1731.835219
_symmetry_space_group_name_H-M "P 2/M"
_symmetry_group_IT_number 10
_symmetry_cell_setting 'monoclinic'
loop_
_space_group_symop_operation_xyz
x,y,z
-x,y,-z
-x,-y,-z
x,-y,z
loop_
_atom_site_type_symbol
_atom_site_label
_atom_site_fract_x
_atom_site_fract_y
_atom_site_fract_z
Si Si1 0.118990 0.180353 0.749373
Si Si2 0.969566 0.321162 0.360782
Si Si3 0.599173 0.821393 0.616400
Si Si4 0.103847 0.318702 0.470104
Si Si5 0.520925 0.679442 0.569043
Si Si6 0.835953 0.320573 0.889411
Si Si7 0.891255 0.682031 0.134971
Si Si8 0.483746 0.819427 0.206047
O O1 0.320727 0.237451 0.583272
O O2 0.051707 0.239578 0.856259
O O3 0.993536 0.247423 0.801635
O O4 0.114246 0.000000 0.751416
O O5 0.918590 0.500000 0.395944
O O6 0.803661 0.220515 0.470664
O O7 0.002857 0.290476 0.394774
O O8 0.125065 0.294912 0.200545
O O9 0.538874 0.725644 0.614452
O O10 0.500525 0.783892 0.745450
O O11 0.581184 0.000000 0.619407
O O12 0.127596 0.500000 0.447097
O O13 0.297146 0.245640 0.329351
O O14 0.000000 0.264333 0.500000
O O15 0.547043 0.500000 0.542220
O O16 0.319121 0.717030 0.708808
O O17 0.837622 0.500000 0.897461
O O18 0.649706 0.250929 0.049318
O O19 0.910138 0.500000 0.125519
O O20 0.000000 0.727325 0.000000
O O21 0.481897 0.000000 0.202790
#
# Coordination Sequence:
#
# PCOD9149340 Si02
#       8
#     4   4   4   4   4   4   4   4
#     4  12  25  40  60  86 116 152 193 240 297 352
#     4   9  18  34  57  85 114 148 191 236 283 338
#     4  10  20  34  55  83 113 146 187 236 287 342
#     4   9  18  36  62  89 117 153 198 242 285 340
#     4  11  22  38  61  85 112 149 194 239 286 349
#     4  11  22  37  59  85 116 153 195 240 290 346
#     4  10  24  44  62  84 113 150 196 244 294 351
#     4  10  22  37  55  85 122 155 191 237 292 345
#
# _framework density 18.477506999999999
#
# number of rings (size 3 to 8) (size 9 to 14) (size 15 to 20)
#    0.000    1.750    1.250    3.000    1.750    5.000 
#    0.000    0.625    0.000    3.750    0.000    0.000 
#    0.000    0.000    0.000    0.000    0.000    0.000 
#
# Total GULP energy -178717.942289 kJ/mol
# GULP energy per Si atom -5584.935697 kJ/mol
# Density = 1.843545 g / cm^3
# Si number density = 18.477507 Si / 1000 Ang^3
#
#
#
# Elastic Constant Matrix: (Units=GPa)
#
#
# Indices 1 2 3 4 5 6 
#
# 1 120.1014 38.7284 49.2931 0.0000 17.8356 0.0000
# 2 38.7284 37.4568 38.4233 0.0000 14.0785 0.0000
# 3 49.2931 38.4233 105.4412 0.0000 30.8057 0.0000
# 4 0.0000 0.0000 0.0000 -94.2001 0.0000 108.7922
# 5 17.8356 14.0785 30.8057 0.0000 23.4706 0.0000
# 6 0.0000 0.0000 0.0000 108.7922 0.0000 -87.8389
#
#
#
# Elastic Compliance Matrix: (Units=1/GPa)
#
#
# Indices 1 2 3 4 5 6 
#
# 1 0.012720 -0.011162 -0.001640 0.000000 -0.000818 0.000000
# 2 -0.011162 0.053477 -0.011963 0.000000 -0.007894 0.000000
# 3 -0.001640 -0.011963 0.019706 0.000000 -0.017443 0.000000
# 4 0.000000 0.000000 0.000000 0.024665 0.000000 0.030548
# 5 -0.000818 -0.007894 -0.017443 0.000000 0.070857 0.000000
# 6 0.000000 0.000000 0.000000 0.030548 0.000000 0.026451
#
#
# Mechanical properties :
#
#
# Convention : Reuss Voigt Hill
#
# Bulk Modulus (GPa) = 27.49283 57.32100 42.40691
# Shear Modulus (GPa) = 18.55073 -22.61005 -2.02966
#
# Velocity S-wave (km/s) = 3.17197 -3.50187 -1.04921
# Velocity P-wave (km/s) = 5.32227 3.83909 4.64032
#
# Compressibility (1/GPa) = 0.03637312
#
# Stress axis : x y z
#
# Youngs Moduli (GPa) = 78.61399 18.69959 50.74589
#
# Poissons Ratio (x) = 0.20873 0.08323
# Poissons Ratio (y) = 0.87752 0.60706
# Poissons Ratio (z) = 0.12893 0.22370
#
# Static dielectric constant tensor:
#      x y z
#    x 1.642350 0.000000 0.024310 
#    y 0.000000 1.617170 0.000000 
#    z 0.024310 0.000000 1.620220 
# 
# From -- ./inp_files/93690.got.cif
#   From: 2010.05.17/outbox.cif.g08.bks.cpg/sg10_47_cif.got.tgz:93690.got - 2010.06.03 11:33:40.
