data_PCOD9149576
_publ_section_title
;
Structure prediction by ZEFSAII (Michael W. Deem and Ramdas Pophale) SiO2 
 PCOD9149576
Probable space group: P 2/M
;
_chemical_formula_sum "Si O2"
_cell_formula_units_Z 32
_cell_length_a 12.041859
_cell_length_b 8.977789
_cell_length_c 24.504503
_cell_angle_alpha 90.000000
_cell_angle_beta 43.439424
_cell_angle_gamma 90.000000
_cell_volume 1821.531432
_symmetry_space_group_name_H-M "P 2/M"
_symmetry_group_IT_number 10
_symmetry_cell_setting 'monoclinic'
loop_
_space_group_symop_operation_xyz
x,y,z
-x,y,-z
-x,-y,-z
x,-y,z
loop_
_atom_site_type_symbol
_atom_site_label
_atom_site_fract_x
_atom_site_fract_y
_atom_site_fract_z
Si Si1 0.164091 0.819722 0.685818
Si Si2 0.587416 0.177873 0.225578
Si Si3 0.795459 0.178682 0.838777
Si Si4 0.260565 0.677278 0.028694
Si Si5 0.479881 0.178829 0.144414
Si Si6 0.464226 0.676870 0.642484
Si Si7 0.068146 0.676320 0.914809
Si Si8 0.657989 0.829715 0.482821
O O1 0.298883 0.744242 0.675657
O O2 0.202716 0.781444 0.608788
O O3 0.982568 0.777674 0.766135
O O4 0.182020 0.000000 0.683966
O O5 0.499995 0.221571 0.200290
O O6 0.517725 0.256850 0.303762
O O7 0.773565 0.228447 0.152989
O O8 0.578808 0.000000 0.235155
O O9 0.717938 0.254506 0.919277
O O10 0.690496 0.215609 0.822894
O O11 0.790191 0.000000 0.847892
O O12 0.281169 0.500000 0.022403
O O13 0.077742 0.709986 0.074257
O O14 0.381943 0.746404 0.941503
O O15 0.501269 0.000000 0.133870
O O16 0.452177 0.500000 0.648024
O O17 0.608707 0.728986 0.551117
O O18 0.108153 0.500000 0.896301
O O19 0.000000 0.702457 0.000000
O O20 0.500000 0.831681 0.500000
O O21 0.686647 0.000000 0.490594
#
# Coordination Sequence:
#
# PCOD9149576 Si02
#       8
#     4   4   4   4   4   4   4   4
#     4   9  18  34  56  80 106 136 167 206 254 303
#     4  11  22  35  53  75 101 135 177 215 253 303
#     4  10  21  37  55  75 101 132 171 215 257 299
#     4  11  22  35  53  76 102 133 171 212 258 307
#     4  10  22  38  54  72  97 134 176 218 257 297
#     4  11  21  32  51  80 111 138 166 203 253 307
#     4  10  20  35  52  73 103 134 164 207 258 304
#     4   8  15  30  52  78 107 135 165 202 249 302
#
# _framework density 17.567636
#
# number of rings (size 3 to 8) (size 9 to 14) (size 15 to 20)
#    0.000    2.000    1.250    3.750    0.000    8.500 
#    0.000    0.000    0.000    0.750    0.000    5.250 
#    0.000    0.000    0.000    0.000    0.000    0.000 
#
# Total GULP energy -178641.499508 kJ/mol
# GULP energy per Si atom -5582.546860 kJ/mol
# Density = 1.752765 g / cm^3
# Si number density = 17.567636 Si / 1000 Ang^3
#
#
#
# Elastic Constant Matrix: (Units=GPa)
#
#
# Indices 1 2 3 4 5 6 
#
# 1 76.1577 35.9800 48.0527 0.0000 21.8466 0.0000
# 2 35.9800 44.3425 43.4115 0.0000 15.6840 0.0000
# 3 48.0527 43.4115 109.5347 0.0000 30.2086 0.0000
# 4 0.0000 0.0000 0.0000 8.0484 0.0000 0.0886
# 5 21.8466 15.6840 30.2086 0.0000 20.7723 0.0000
# 6 0.0000 0.0000 0.0000 0.0886 0.0000 9.5444
#
#
#
# Elastic Compliance Matrix: (Units=1/GPa)
#
#
# Indices 1 2 3 4 5 6 
#
# 1 0.024269 -0.013399 -0.001815 0.000000 -0.012767 0.000000
# 2 -0.013399 0.045815 -0.011063 0.000000 -0.004412 0.000000
# 3 -0.001815 -0.011063 0.019168 0.000000 -0.017613 0.000000
# 4 0.000000 0.000000 0.000000 0.124260 0.000000 -0.001154
# 5 -0.012767 -0.004412 -0.017613 0.000000 0.090514 0.000000
# 6 0.000000 0.000000 0.000000 -0.001154 0.000000 0.104784
#
#
# Mechanical properties :
#
#
# Convention : Reuss Voigt Hill
#
# Bulk Modulus (GPa) = 27.24984 53.88036 40.56510
# Shear Modulus (GPa) = 10.55753 14.51242 12.53498
#
# Velocity S-wave (km/s) = 2.45412 2.87729 2.67409
# Velocity P-wave (km/s) = 4.85544 6.46338 5.71623
#
# Compressibility (1/GPa) = 0.03669746
#
# Stress axis : x y z
#
# Youngs Moduli (GPa) = 41.20563 21.82707 52.17055
#
# Poissons Ratio (x) = 0.29246 0.09470
# Poissons Ratio (y) = 0.55211 0.57715
# Poissons Ratio (z) = 0.07480 0.24147
#
# Static dielectric constant tensor:
#      x y z
#    x 1.593880 0.000000 0.006960 
#    y 0.000000 1.582700 0.000000 
#    z 0.006960 0.000000 1.600770 
# 
# From -- ./inp_files/83574.got.cif
#   From: 2010.05.17/outbox.cif.g08.bks.cpg/sg10_42_cif.got.tgz:83574.got - 2010.06.03 11:33:40.
