data_PCOD9149901
_publ_section_title
;
Structure prediction by ZEFSAII (Michael W. Deem and Ramdas Pophale) SiO2 
 PCOD9149901
Probable space group: P 2/M
;
_chemical_formula_sum "Si O2"
_cell_formula_units_Z 28
_cell_length_a 29.617135
_cell_length_b 9.125850
_cell_length_c 5.519995
_cell_angle_alpha 90.000000
_cell_angle_beta 59.752825
_cell_angle_gamma 90.000000
_cell_volume 1288.838773
_symmetry_space_group_name_H-M "P 2/M"
_symmetry_group_IT_number 10
_symmetry_cell_setting 'monoclinic'
loop_
_space_group_symop_operation_xyz
x,y,z
-x,y,-z
-x,-y,-z
x,-y,z
loop_
_atom_site_type_symbol
_atom_site_label
_atom_site_fract_x
_atom_site_fract_y
_atom_site_fract_z
Si Si1 0.398120 0.844253 0.299816
Si Si2 0.974410 0.176440 0.319192
Si Si3 0.456608 0.663374 0.819406
Si Si4 0.350018 0.658373 0.816538
Si Si5 0.289928 0.839757 0.308808
Si Si6 0.849988 0.177333 0.645956
Si Si7 0.194030 0.676584 0.737086
O O1 0.383349 0.706808 0.499841
O O2 0.345621 0.858292 0.284771
O O3 0.404658 0.000000 0.414814
O O4 0.449212 0.799199 0.016503
O O5 0.912488 0.200054 0.485776
O O6 0.000000 0.233151 0.500000
O O7 0.982973 0.000000 0.296050
O O8 0.000000 0.233093 0.000000
O O9 0.500000 0.693066 0.500000
O O10 0.468168 0.500000 0.882372
O O11 0.397177 0.652120 0.881271
O O12 0.325234 0.500000 0.860147
O O13 0.306013 0.775411 0.004807
O O14 0.254544 0.724060 0.544452
O O15 0.264600 0.000000 0.365049
O O16 0.830153 0.251132 0.446352
O O17 0.840367 0.000000 0.673310
O O18 0.826928 0.251166 0.954879
O O19 0.187370 0.500000 0.756662
#
# Coordination Sequence:
#
# PCOD9149901 Si02
#       7
#     4   4   4   4   4   4   4
#     4  10  21  36  56  81 110 144 186 239 293 359
#     4   9  17  32  60  96 128 163 215 273 321 372
#     4   9  19  36  55  77 107 144 186 232 286 352
#     4  10  20  35  57  82 110 144 187 239 294 357
#     4  10  22  40  60  82 111 151 199 247 303 369
#     4  11  23  42  68  98 133 174 222 274 326 384
#     4  12  26  43  64  93 133 175 217 271 331 393
#
# _framework density 21.724983999999999
#
# number of rings (size 3 to 8) (size 9 to 14) (size 15 to 20)
#    0.000    1.857    0.000    3.857    2.000    5.429 
#    0.000    2.857    0.000    8.571    0.000    0.000 
#    0.000    0.000    0.000    0.000    0.000    0.000 
#
# Total GULP energy -156021.977803 kJ/mol
# GULP energy per Si atom -5572.213493 kJ/mol
# Density = 2.167554 g / cm^3
# Si number density = 21.724984 Si / 1000 Ang^3
#
#
#
# Elastic Constant Matrix: (Units=GPa)
#
#
# Indices 1 2 3 4 5 6 
#
# 1 82.1265 35.0022 46.3961 0.0000 5.8987 0.0000
# 2 35.0022 110.4245 58.5795 0.0000 3.0071 0.0000
# 3 46.3961 58.5795 135.0072 0.0000 -2.5187 0.0000
# 4 0.0000 0.0000 0.0000 -188.0066 0.0000 -112.0127
# 5 5.8987 3.0071 -2.5187 0.0000 29.7469 0.0000
# 6 0.0000 0.0000 0.0000 -112.0127 0.0000 -43.7924
#
#
#
# Elastic Compliance Matrix: (Units=1/GPa)
#
#
# Indices 1 2 3 4 5 6 
#
# 1 0.016041 -0.002648 -0.004425 0.000000 -0.003288 0.000000
# 2 -0.002648 0.012280 -0.004439 0.000000 -0.001092 0.000000
# 3 -0.004425 -0.004439 0.010896 0.000000 0.002249 0.000000
# 4 0.000000 0.000000 0.000000 0.010152 0.000000 -0.025967
# 5 -0.003288 -0.001092 0.002249 0.000000 0.034570 0.000000
# 6 0.000000 0.000000 0.000000 -0.025967 0.000000 0.043585
#
#
# Mechanical properties :
#
#
# Convention : Reuss Voigt Hill
#
# Bulk Modulus (GPa) = 61.75357 67.50154 64.62756
# Shear Modulus (GPa) = 32.06302 -27.90505 2.07898
#
# Velocity S-wave (km/s) = 3.84586 -3.58784 0.97930
# Velocity P-wave (km/s) = 6.94318 3.73831 5.57596
#
# Compressibility (1/GPa) = 0.01619340
#
# Stress axis : x y z
#
# Youngs Moduli (GPa) = 62.34121 81.43604 91.78034
#
# Poissons Ratio (x) = 0.21561 0.40613
# Poissons Ratio (y) = 0.16505 0.40738
# Poissons Ratio (z) = 0.27586 0.36146
#
# Static dielectric constant tensor:
#      x y z
#    x 1.873770 0.000000 0.109390 
#    y 0.000000 1.844410 0.000000 
#    z 0.109390 0.000000 1.855090 
# 
# From -- ./inp_files/13596.got.cif
#   From: 2010.05.17/outbox.cif.g08.bks.cpg/sg10_7_cif.got.tgz:13596.got - 2010.06.03 11:33:40.
