data_PCOD9149977
_publ_section_title
;
Structure prediction by ZEFSAII (Michael W. Deem and Ramdas Pophale) SiO2 
 PCOD9149977
Probable space group: P 2/M
;
_chemical_formula_sum "Si O2"
_cell_formula_units_Z 22
_cell_length_a 15.983966
_cell_length_b 13.183276
_cell_length_c 7.744610
_cell_angle_alpha 90.000000
_cell_angle_beta 143.316637
_cell_angle_gamma 90.000000
_cell_volume 974.915717
_symmetry_space_group_name_H-M "P 2/M"
_symmetry_group_IT_number 10
_symmetry_cell_setting 'monoclinic'
loop_
_space_group_symop_operation_xyz
x,y,z
-x,y,-z
-x,-y,-z
x,-y,z
loop_
_atom_site_type_symbol
_atom_site_label
_atom_site_fract_x
_atom_site_fract_y
_atom_site_fract_z
Si Si1 0.191016 0.889848 0.272495
Si Si2 0.000000 0.715403 0.500000
Si Si3 0.194851 0.111155 0.685273
Si Si4 0.499372 0.170162 0.289898
Si Si5 0.109373 0.667292 0.032337
Si Si6 0.434479 0.609203 0.584906
O O1 0.161943 0.883487 0.427895
O O2 0.358049 0.882875 0.529283
O O3 0.143554 0.000000 0.127460
O O4 0.130874 0.789649 0.084196
O O5 0.874661 0.792491 0.339662
O O6 0.957070 0.650040 0.264300
O O7 0.150813 0.000000 0.677600
O O8 0.360482 0.119968 0.989214
O O9 0.500000 0.169545 0.500000
O O10 0.506220 0.287166 0.238311
O O11 0.265550 0.622017 0.302265
O O12 0.000000 0.636170 0.000000
O O13 0.500000 0.607513 0.500000
O O14 0.469364 0.500000 0.722657
#
# Coordination Sequence:
#
# PCOD9149977 Si02
#       6
#     4   2   4   4   4   4
#     4  10  21  37  57  83 120 163 205 249 295 348
#     4  12  23  38  59  86 122 170 201 240 297 360
#     4  11  22  35  55  85 122 165 206 243 290 355
#     4  10  20  35  57  86 116 154 200 253 304 352
#     4  11  23  41  62  91 125 163 200 253 301 359
#     4   9  19  39  67  92 118 155 200 255 314 364
#
# _framework density 22.566054000000001
#
# number of rings (size 3 to 8) (size 9 to 14) (size 15 to 20)
#    0.000    1.636    1.818    4.636    0.000    6.545 
#    0.000    0.455    0.000    9.818    0.000    0.000 
#    0.000    0.000    0.000    0.000    0.000    0.000 
#
# Total GULP energy -123032.620349 kJ/mol
# GULP energy per Si atom -5592.391834 kJ/mol
# Density = 2.251469 g / cm^3
# Si number density = 22.566054 Si / 1000 Ang^3
#
#
#
# Elastic Constant Matrix: (Units=GPa)
#
#
# Indices 1 2 3 4 5 6 
#
# 1 108.7954 6.4056 19.4265 0.0000 19.8525 0.0000
# 2 6.4056 103.7078 -0.7344 0.0000 -1.1805 0.0000
# 3 19.4265 -0.7344 58.0484 0.0000 14.5196 0.0000
# 4 0.0000 0.0000 0.0000 -10.5484 0.0000 -19.9935
# 5 19.8525 -1.1805 14.5196 0.0000 53.1969 0.0000
# 6 0.0000 0.0000 0.0000 -19.9935 0.0000 -20.0607
#
#
#
# Elastic Compliance Matrix: (Units=1/GPa)
#
#
# Indices 1 2 3 4 5 6 
#
# 1 0.010278 -0.000689 -0.002667 0.000000 -0.003123 0.000000
# 2 -0.000689 0.009691 0.000252 0.000000 0.000403 0.000000
# 3 -0.002667 0.000252 0.019182 0.000000 -0.004235 0.000000
# 4 0.000000 0.000000 0.000000 0.106631 0.000000 -0.106274
# 5 -0.003123 0.000403 -0.004235 0.000000 0.021128 0.000000
# 6 0.000000 0.000000 0.000000 -0.106274 0.000000 0.056069
#
#
# Mechanical properties :
#
#
# Convention : Reuss Voigt Hill
#
# Bulk Modulus (GPa) = 30.35514 35.63855 32.99685
# Shear Modulus (GPa) = 20.81861 20.88117 20.84989
#
# Velocity S-wave (km/s) = 3.04067 3.04523 3.04295
# Velocity P-wave (km/s) = 5.08020 5.30960 5.19617
#
# Compressibility (1/GPa) = 0.03294335
#
# Stress axis : x y z
#
# Youngs Moduli (GPa) = 97.29243 103.18397 52.13215
#
# Poissons Ratio (x) = 0.07112 0.13905
# Poissons Ratio (y) = 0.06706 -0.01316
# Poissons Ratio (z) = 0.25951 -0.02604
#
# Static dielectric constant tensor:
#      x y z
#    x 1.855430 0.000000 0.004500 
#    y 0.000000 1.836090 0.000000 
#    z 0.004500 0.000000 1.797370 
# 
# From -- ./inp_files/32879.got.cif
#   From: 2010.05.17/outbox.cif.g08.bks.cpg/sg10_17_cif.got.tgz:32879.got - 2010.06.03 11:33:40.
