data_PCOD9149048
_publ_section_title
;
Structure prediction by ZEFSAII (Michael W. Deem and Ramdas Pophale) SiO2 
 PCOD9149048
Probable space group: P 2/M
;
_chemical_formula_sum "Si O2"
_cell_formula_units_Z 28
_cell_length_a 15.099509
_cell_length_b 7.401429
_cell_length_c 22.004489
_cell_angle_alpha 90.000000
_cell_angle_beta 151.131909
_cell_angle_gamma 90.000000
_cell_volume 1187.277470
_symmetry_space_group_name_H-M "P 2/M"
_symmetry_group_IT_number 10
_symmetry_cell_setting 'monoclinic'
loop_
_space_group_symop_operation_xyz
x,y,z
-x,y,-z
-x,-y,-z
x,-y,z
loop_
_atom_site_type_symbol
_atom_site_label
_atom_site_fract_x
_atom_site_fract_y
_atom_site_fract_z
Si Si1 0.717801 0.709513 0.962046
Si Si2 0.823961 0.218581 0.571148
Si Si3 0.932800 0.292164 0.394531
Si Si4 0.438287 0.721371 0.895357
Si Si5 0.430978 0.206178 0.376653
Si Si6 0.904704 0.217994 0.749585
Si Si7 0.787423 0.719259 0.873424
O O1 0.665919 0.500000 0.926064
O O2 0.592552 0.783497 0.940207
O O3 0.699376 0.785085 0.883444
O O4 0.930271 0.718707 0.109170
O O5 0.903154 0.287627 0.555775
O O6 0.622413 0.285919 0.469000
O O7 0.941525 0.267932 0.701714
O O8 0.820848 0.000000 0.564340
O O9 0.882251 0.500000 0.377949
O O10 0.000000 0.213739 0.500000
O O11 0.756694 0.218483 0.251004
O O12 0.433028 0.500000 0.895079
O O13 0.500000 0.780238 0.000000
O O14 0.294876 0.282307 0.346475
O O15 0.307574 0.206183 0.242704
O O16 0.474654 0.000000 0.420269
O O17 0.899759 0.000000 0.750122
O O18 0.776675 0.500000 0.864750
O O19 0.000000 0.768461 0.000000
#
# Coordination Sequence:
#
# PCOD9149048 Si02
#       7
#     4   4   4   4   4   4   4
#     4  10  20  34  56  81 110 145 181 225 280 334
#     4  10  22  39  58  81 111 148 186 229 282 330
#     4  10  22  39  60  85 111 145 192 239 281 335
#     4   9  18  34  56  81 108 141 182 228 280 335
#     4  10  21  36  56  80 110 149 190 225 269 333
#     4  10  20  36  57  82 113 146 184 229 274 329
#     4  10  20  34  52  79 113 145 180 228 280 326
#
# _framework density 23.583368
#
# number of rings (size 3 to 8) (size 9 to 14) (size 15 to 20)
#    0.000    2.143    1.429    1.286    2.000    5.143 
#    0.000    0.714    0.000    5.143    0.000    0.000 
#    0.000    0.000    0.000    0.000    0.000    0.000 
#
# Total GULP energy -156384.840831 kJ/mol
# GULP energy per Si atom -5585.172887 kJ/mol
# Density = 2.352969 g / cm^3
# Si number density = 23.583368 Si / 1000 Ang^3
#
#
#
# Elastic Constant Matrix: (Units=GPa)
#
#
# Indices 1 2 3 4 5 6 
#
# 1 195.5167 3.2632 61.6127 0.0000 -23.9073 0.0000
# 2 3.2632 76.4930 -0.4448 0.0000 -5.8146 0.0000
# 3 61.6127 -0.4448 117.6109 0.0000 -19.2660 0.0000
# 4 0.0000 0.0000 0.0000 7.5545 0.0000 0.8177
# 5 -23.9073 -5.8146 -19.2660 0.0000 47.2233 0.0000
# 6 0.0000 0.0000 0.0000 0.8177 0.0000 9.9655
#
#
#
# Elastic Compliance Matrix: (Units=1/GPa)
#
#
# Indices 1 2 3 4 5 6 
#
# 1 0.006294 -0.000137 -0.002978 0.000000 0.001955 0.000000
# 2 -0.000137 0.013212 0.000404 0.000000 0.001722 0.000000
# 3 -0.002978 0.000404 0.010529 0.000000 0.002838 0.000000
# 4 0.000000 0.000000 0.000000 0.133558 0.000000 -0.010959
# 5 0.001955 0.001722 0.002838 0.000000 0.023535 0.000000
# 6 0.000000 0.000000 0.000000 -0.010959 0.000000 0.101245
#
#
# Mechanical properties :
#
#
# Convention : Reuss Voigt Hill
#
# Bulk Modulus (GPa) = 40.62805 57.60921 49.11863
# Shear Modulus (GPa) = 16.55626 34.62796 25.59211
#
# Velocity S-wave (km/s) = 2.65246 3.83603 3.29777
# Velocity P-wave (km/s) = 5.16193 6.64086 5.94755
#
# Compressibility (1/GPa) = 0.02461354
#
# Stress axis : x y z
#
# Youngs Moduli (GPa) = 158.87309 75.68759 94.97638
#
# Poissons Ratio (x) = 0.01039 0.28281
# Poissons Ratio (y) = 0.02180 -0.03837
# Poissons Ratio (z) = 0.47308 -0.03058
#
# Static dielectric constant tensor:
#      x y z
#    x 1.873140 0.000000 0.009580 
#    y 0.000000 1.890150 0.000000 
#    z 0.009580 0.000000 1.870730 
# 
# From -- ./inp_files/49065.got.cif
#   From: 2010.05.17/outbox.cif.g08.bks.cpg/sg10_25_cif.got.tgz:49065.got - 2010.06.03 11:33:40.
