data_PCOD9149725
_publ_section_title
;
Structure prediction by ZEFSAII (Michael W. Deem and Ramdas Pophale) SiO2 
 PCOD9149725
Probable space group: P 2/M
;
_chemical_formula_sum "Si O2"
_cell_formula_units_Z 28
_cell_length_a 19.074325
_cell_length_b 7.710818
_cell_length_c 14.256269
_cell_angle_alpha 90.000000
_cell_angle_beta 142.804214
_cell_angle_gamma 90.000000
_cell_volume 1267.596217
_symmetry_space_group_name_H-M "P 2/M"
_symmetry_group_IT_number 10
_symmetry_cell_setting 'monoclinic'
loop_
_space_group_symop_operation_xyz
x,y,z
-x,y,-z
-x,-y,-z
x,-y,z
loop_
_atom_site_type_symbol
_atom_site_label
_atom_site_fract_x
_atom_site_fract_y
_atom_site_fract_z
Si Si1 0.535093 0.791813 0.249000
Si Si2 0.189207 0.295838 0.997832
Si Si3 0.701614 0.292281 0.082568
Si Si4 0.572190 0.210194 0.667262
Si Si5 0.037794 0.200899 0.139232
Si Si6 0.205894 0.207648 0.471058
Si Si7 0.883005 0.290683 0.425481
O O1 0.490017 0.731730 0.302985
O O2 0.664672 0.724683 0.371491
O O3 0.539995 0.000000 0.257094
O O4 0.434377 0.747282 0.068304
O O5 0.163915 0.500000 0.961167
O O6 0.295409 0.271165 0.183480
O O7 0.236857 0.228980 0.948211
O O8 0.074276 0.206853 0.913218
O O9 0.711972 0.500000 0.091800
O O10 0.772140 0.227921 0.247518
O O11 0.500000 0.268137 0.500000
O O12 0.574113 0.000000 0.668473
O O13 0.144213 0.277893 0.311807
O O14 0.068920 0.000000 0.152549
O O15 0.000000 0.281871 0.000000
O O16 0.127672 0.240076 0.478311
O O17 0.214296 0.000000 0.468438
O O18 0.884168 0.500000 0.423740
O O19 0.000000 0.229244 0.500000
#
# Coordination Sequence:
#
# PCOD9149725 Si02
#       7
#     4   4   4   4   4   4   4
#     4   9  19  35  54  80 113 145 182 228 276 325
#     4  10  20  35  55  80 111 141 179 231 279 326
#     4   9  19  36  57  81 110 146 184 223 272 330
#     4   9  18  32  56  81 105 145 190 228 270 327
#     4  10  22  38  58  79 107 147 187 228 276 334
#     4  10  22  38  56  83 114 143 181 232 281 325
#     4  10  21  38  60  83 109 146 187 226 273 331
#
# _framework density 22.089053
#
# number of rings (size 3 to 8) (size 9 to 14) (size 15 to 20)
#    0.000    2.429    0.000    1.286    2.000    4.857 
#    0.000    2.857    0.000    0.000    0.000    0.000 
#    0.000    0.000    0.000    0.000    0.000    0.000 
#
# Total GULP energy -156373.799144 kJ/mol
# GULP energy per Si atom -5584.778541 kJ/mol
# Density = 2.203878 g / cm^3
# Si number density = 22.089053 Si / 1000 Ang^3
#
#
#
# Elastic Constant Matrix: (Units=GPa)
#
#
# Indices 1 2 3 4 5 6 
#
# 1 52.1249 -2.0709 45.3353 0.0000 4.4701 0.0000
# 2 -2.0709 37.7150 5.4260 0.0000 -2.7676 0.0000
# 3 45.3353 5.4260 160.8043 0.0000 -12.6323 0.0000
# 4 0.0000 0.0000 0.0000 20.6554 0.0000 16.5371
# 5 4.4701 -2.7676 -12.6323 0.0000 35.1663 0.0000
# 6 0.0000 0.0000 0.0000 16.5371 0.0000 15.9258
#
#
#
# Elastic Compliance Matrix: (Units=1/GPa)
#
#
# Indices 1 2 3 4 5 6 
#
# 1 0.026877 0.002194 -0.008136 0.000000 -0.006166 0.000000
# 2 0.002194 0.026937 -0.001423 0.000000 0.001330 0.000000
# 3 -0.008136 -0.001423 0.008884 0.000000 0.004113 0.000000
# 4 0.000000 0.000000 0.000000 0.287074 0.000000 -0.298094
# 5 -0.006166 0.001330 0.004113 0.000000 0.030802 0.000000
# 6 0.000000 0.000000 0.000000 -0.298094 0.000000 0.372328
#
#
# Mechanical properties :
#
#
# Convention : Reuss Voigt Hill
#
# Bulk Modulus (GPa) = 20.84731 38.66943 29.75837
# Shear Modulus (GPa) = 6.38063 27.81307 17.09685
#
# Velocity S-wave (km/s) = 1.70143 3.55228 2.78510
# Velocity P-wave (km/s) = 3.64941 5.86251 4.88299
#
# Compressibility (1/GPa) = 0.04796781
#
# Stress axis : x y z
#
# Youngs Moduli (GPa) = 37.20704 37.12307 112.56735
#
# Poissons Ratio (x) = -0.08144 0.91582
# Poissons Ratio (y) = -0.08162 0.16018
# Poissons Ratio (z) = 0.30271 0.05282
#
# Static dielectric constant tensor:
#      x y z
#    x 1.778660 0.000000 -0.004030 
#    y 0.000000 1.828710 0.000000 
#    z -0.004030 0.000000 1.833500 
# 
# From -- ./inp_files/70275.got.cif
#   From: 2010.05.17/outbox.cif.g08.bks.cpg/sg10_36_cif.got.tgz:70275.got - 2010.06.03 11:33:40.
