data_PCOD9149357
_publ_section_title
;
Structure prediction by ZEFSAII (Michael W. Deem and Ramdas Pophale) SiO2 
 PCOD9149357
Probable space group: P 2/M
;
_chemical_formula_sum "Si O2"
_cell_formula_units_Z 32
_cell_length_a 22.020780
_cell_length_b 13.987977
_cell_length_c 16.783126
_cell_angle_alpha 90.000000
_cell_angle_beta 19.137153
_cell_angle_gamma 90.000000
_cell_volume 1694.766684
_symmetry_space_group_name_H-M "P 2/M"
_symmetry_group_IT_number 10
_symmetry_cell_setting 'monoclinic'
loop_
_space_group_symop_operation_xyz
x,y,z
-x,y,-z
-x,-y,-z
x,-y,z
loop_
_atom_site_type_symbol
_atom_site_label
_atom_site_fract_x
_atom_site_fract_y
_atom_site_fract_z
Si Si1 0.998204 0.760890 0.304821
Si Si2 0.280063 0.109147 0.258286
Si Si3 0.419521 0.606703 0.017006
Si Si4 0.275731 0.777691 0.107200
Si Si5 0.971699 0.109645 0.875530
Si Si6 0.360946 0.111221 0.598425
Si Si7 0.660423 0.211371 0.536464
Si Si8 0.798092 0.391547 0.449849
O O1 0.819803 0.819723 0.556714
O O2 0.087870 0.821167 0.121871
O O3 0.931929 0.660942 0.348179
O O4 0.133798 0.762491 0.211610
O O5 0.238131 0.140948 0.219349
O O6 0.218880 0.000000 0.347716
O O7 0.500000 0.114268 0.000000
O O8 0.344441 0.500000 0.123449
O O9 0.596962 0.600573 0.740043
O O10 0.500000 0.644214 0.000000
O O11 0.278783 0.680384 0.154411
O O12 0.479214 0.793057 0.816617
O O13 0.183808 0.135022 0.631110
O O14 0.950142 0.000000 0.877858
O O15 0.843977 0.124139 0.111037
O O16 0.500000 0.124484 0.500000
O O17 0.393339 0.183820 0.486440
O O18 0.380155 0.000000 0.547924
O O19 0.761032 0.314193 0.425654
O O20 0.856906 0.500000 0.356085
#
# Coordination Sequence:
#
# PCOD9149357 Si02
#       8
#     4   4   4   4   4   4   4   4
#     4  11  22  35  54  78 107 138 174 221 268 312
#     4  11  23  38  54  73 104 146 185 217 255 313
#     4   9  17  32  54  76 100 133 175 219 261 309
#     4  11  22  34  51  79 109 140 174 215 267 315
#     4  10  20  35  55  78 105 140 181 218 255 307
#     4  10  20  34  55  84 114 141 173 218 267 309
#     4  10  20  35  56  79 108 142 179 215 258 316
#     4   9  19  35  55  77 102 137 177 218 263 313
#
# _framework density 18.881656
#
# number of rings (size 3 to 8) (size 9 to 14) (size 15 to 20)
#    0.000    1.875    0.000    5.625    0.000    5.000 
#    0.000    0.000    0.000   10.125    0.000    0.000 
#    0.000    0.000    0.000    0.000    0.000    0.000 
#
# Total GULP energy -178603.633811 kJ/mol
# GULP energy per Si atom -5581.363557 kJ/mol
# Density = 1.883868 g / cm^3
# Si number density = 18.881656 Si / 1000 Ang^3
#
#
#
# Elastic Constant Matrix: (Units=GPa)
#
#
# Indices 1 2 3 4 5 6 
#
# 1 100.3626 34.9862 0.7202 0.0000 2.4227 0.0000
# 2 34.9862 95.0782 13.7961 0.0000 10.1944 0.0000
# 3 0.7202 13.7961 42.6058 0.0000 0.2550 0.0000
# 4 0.0000 0.0000 0.0000 -6.5506 0.0000 34.3967
# 5 2.4227 10.1944 0.2550 0.0000 26.0145 0.0000
# 6 0.0000 0.0000 0.0000 34.3967 0.0000 -27.6660
#
#
#
# Elastic Compliance Matrix: (Units=1/GPa)
#
#
# Indices 1 2 3 4 5 6 
#
# 1 0.011503 -0.004487 0.001254 0.000000 0.000675 0.000000
# 2 -0.004487 0.013287 -0.004198 0.000000 -0.004748 0.000000
# 3 0.001254 -0.004198 0.024802 0.000000 0.001285 0.000000
# 4 0.000000 0.000000 0.000000 0.027613 0.000000 0.034331
# 5 0.000675 -0.004748 0.001285 0.000000 0.040225 0.000000
# 6 0.000000 0.000000 0.000000 0.034331 0.000000 0.006538
#
#
# Mechanical properties :
#
#
# Convention : Reuss Voigt Hill
#
# Bulk Modulus (GPa) = 28.79380 37.45019 33.12200
# Shear Modulus (GPa) = 33.24331 10.92918 22.08624
#
# Velocity S-wave (km/s) = 4.20052 2.40849 3.42383
# Velocity P-wave (km/s) = 6.22965 5.25468 5.76282
#
# Compressibility (1/GPa) = 0.03472970
#
# Stress axis : x y z
#
# Youngs Moduli (GPa) = 86.93553 75.26142 40.32011
#
# Poissons Ratio (x) = 0.33771 -0.05058
# Poissons Ratio (y) = 0.39009 0.16927
# Poissons Ratio (z) = -0.10906 0.31596
#
# Static dielectric constant tensor:
#      x y z
#    x 1.676510 0.000000 -0.017180 
#    y 0.000000 1.674640 0.000000 
#    z -0.017180 0.000000 1.670520 
# 
# From -- ./inp_files/70744.got.cif
#   From: 2010.05.17/outbox.cif.g08.bks.cpg/sg10_36_cif.got.tgz:70744.got - 2010.06.03 11:33:40.
