data_PCOD9149578
_publ_section_title
;
Structure prediction by ZEFSAII (Michael W. Deem and Ramdas Pophale) SiO2 
 PCOD9149578
Probable space group: P 2/M
;
_chemical_formula_sum "Si O2"
_cell_formula_units_Z 28
_cell_length_a 20.514868
_cell_length_b 9.048895
_cell_length_c 24.452371
_cell_angle_alpha 90.000000
_cell_angle_beta 158.146171
_cell_angle_gamma 90.000000
_cell_volume 1689.694793
_symmetry_space_group_name_H-M "P 2/M"
_symmetry_group_IT_number 10
_symmetry_cell_setting 'monoclinic'
loop_
_space_group_symop_operation_xyz
x,y,z
-x,y,-z
-x,-y,-z
x,-y,z
loop_
_atom_site_type_symbol
_atom_site_label
_atom_site_fract_x
_atom_site_fract_y
_atom_site_fract_z
Si Si1 0.299796 0.176950 0.493783
Si Si2 0.376919 0.823811 0.954847
Si Si3 0.621204 0.327264 0.935199
Si Si4 0.997121 0.322292 0.061679
Si Si5 0.949325 0.327764 0.257656
Si Si6 0.610911 0.321525 0.802819
Si Si7 0.691738 0.822145 0.627564
O O1 0.128047 0.241642 0.389349
O O2 0.471074 0.245560 0.654840
O O3 0.292209 0.217500 0.423785
O O4 0.303244 0.000000 0.500652
O O5 0.186922 0.744859 0.805640
O O6 0.355349 0.000000 0.939377
O O7 0.500000 0.783828 0.000000
O O8 0.453913 0.767080 0.072939
O O9 0.574459 0.500000 0.905595
O O10 0.578988 0.279539 0.841275
O O11 0.831377 0.318145 0.110216
O O12 0.014700 0.500000 0.078683
O O13 0.155091 0.249480 0.217669
O O14 0.808470 0.281852 0.939760
O O15 0.000000 0.280474 0.000000
O O16 0.020590 0.500000 0.707124
O O17 0.595261 0.500000 0.786799
O O18 0.500000 0.777644 0.500000
O O19 0.704258 0.000000 0.641771
#
# Coordination Sequence:
#
# PCOD9149578 Si02
#       7
#     4   4   4   4   4   4   4
#     4  11  22  34  51  77 105 138 180 222 266 318
#     4   9  17  30  52  82 112 138 170 215 262 312
#     4   8  17  31  50  75 102 136 176 213 255 311
#     4  10  21  36  55  79 105 135 178 225 267 314
#     4   9  18  33  53  76 104 138 173 214 261 308
#     4  10  20  35  52  74 105 139 177 220 266 316
#     4  10  22  38  54  75 106 140 177 220 268 323
#
# _framework density 16.57104
#
# number of rings (size 3 to 8) (size 9 to 14) (size 15 to 20)
#    0.857    1.571    0.000    2.571    0.000    5.143 
#    0.000    0.000    0.000    0.857    0.000    6.000 
#    0.000    0.000    0.000    0.000    0.000    0.000 
#
# Total GULP energy -155966.027590 kJ/mol
# GULP energy per Si atom -5570.215271 kJ/mol
# Density = 1.653332 g / cm^3
# Si number density = 16.571040 Si / 1000 Ang^3
#
#
#
# Elastic Constant Matrix: (Units=GPa)
#
#
# Indices 1 2 3 4 5 6 
#
# 1 142.6997 55.4689 78.6971 0.0000 5.0261 0.0000
# 2 55.4689 45.7542 50.4585 0.0000 0.9569 0.0000
# 3 78.6971 50.4585 129.7539 0.0000 -0.3556 0.0000
# 4 0.0000 0.0000 0.0000 28.8230 0.0000 0.7520
# 5 5.0261 0.9569 -0.3556 0.0000 26.6814 0.0000
# 6 0.0000 0.0000 0.0000 0.7520 0.0000 9.8204
#
#
#
# Elastic Compliance Matrix: (Units=1/GPa)
#
#
# Indices 1 2 3 4 5 6 
#
# 1 0.014155 -0.013375 -0.003390 0.000000 -0.002232 0.000000
# 2 -0.013375 0.050972 -0.011708 0.000000 0.000535 0.000000
# 3 -0.003390 -0.011708 0.014319 0.000000 0.001249 0.000000
# 4 0.000000 0.000000 0.000000 0.034764 0.000000 -0.002662
# 5 -0.002232 0.000535 0.001249 0.000000 0.037897 0.000000
# 6 0.000000 0.000000 0.000000 -0.002662 0.000000 0.102032
#
#
# Mechanical properties :
#
#
# Convention : Reuss Voigt Hill
#
# Bulk Modulus (GPa) = 44.44536 76.38408 60.41472
# Shear Modulus (GPa) = 15.69436 21.97053 18.83245
#
# Velocity S-wave (km/s) = 3.08083 3.64516 3.37481
# Velocity P-wave (km/s) = 6.28766 7.99445 7.19187
#
# Compressibility (1/GPa) = 0.02249954
#
# Stress axis : x y z
#
# Youngs Moduli (GPa) = 70.64687 19.61871 69.83558
#
# Poissons Ratio (x) = 0.26240 0.23673
# Poissons Ratio (y) = 0.94492 0.81764
# Poissons Ratio (z) = 0.23948 0.22970
#
# Static dielectric constant tensor:
#      x y z
#    x 1.554060 0.000000 -0.002750 
#    y 0.000000 1.553100 0.000000 
#    z -0.002750 0.000000 1.533560 
# 
# From -- ./inp_files/37909.got.cif
#   From: 2010.05.17/outbox.cif.g08.bks.cpg/sg10_19_cif.got.tgz:37909.got - 2010.06.03 11:33:40.
