data_PCOD9149305
_publ_section_title
;
Structure prediction by ZEFSAII (Michael W. Deem and Ramdas Pophale) SiO2 
 PCOD9149305
Probable space group: P 2/M
;
_chemical_formula_sum "Si O2"
_cell_formula_units_Z 28
_cell_length_a 8.034396
_cell_length_b 7.920793
_cell_length_c 28.823413
_cell_angle_alpha 90.000000
_cell_angle_beta 46.215903
_cell_angle_gamma 90.000000
_cell_volume 1324.267781
_symmetry_space_group_name_H-M "P 2/M"
_symmetry_group_IT_number 10
_symmetry_cell_setting 'monoclinic'
loop_
_space_group_symop_operation_xyz
x,y,z
-x,y,-z
-x,-y,-z
x,-y,z
loop_
_atom_site_type_symbol
_atom_site_label
_atom_site_fract_x
_atom_site_fract_y
_atom_site_fract_z
Si Si1 0.372788 0.308229 0.068753
Si Si2 0.807466 0.703903 0.664211
Si Si3 0.340749 0.201499 0.572453
Si Si4 0.443060 0.692632 0.805207
Si Si5 0.066744 0.306731 0.796545
Si Si6 0.257702 0.805254 0.936351
Si Si7 0.441901 0.296500 0.657333
O O1 0.302090 0.500000 0.068030
O O2 0.566334 0.309953 0.070174
O O3 0.152700 0.225445 0.136024
O O4 0.500000 0.228070 0.000000
O O5 0.790859 0.500000 0.668205
O O6 0.672804 0.763947 0.736611
O O7 0.660199 0.760789 0.646985
O O8 0.074758 0.749454 0.614978
O O9 0.500000 0.268825 0.500000
O O10 0.436374 0.256852 0.604205
O O11 0.351538 0.000000 0.569724
O O12 0.487964 0.500000 0.812312
O O13 0.262299 0.684305 0.798021
O O14 0.323501 0.789775 0.869969
O O15 0.996054 0.500000 0.797433
O O16 0.203042 0.230791 0.726698
O O17 0.288183 0.000000 0.945048
O O18 0.000000 0.755753 0.000000
O O19 0.435513 0.500000 0.663410
#
# Coordination Sequence:
#
# PCOD9149305 Si02
#       7
#     4   4   4   4   4   4   4
#     4  10  20  34  55  80 105 140 187 235 282 333
#     4   9  20  39  64  92 119 152 196 250 302 349
#     4  11  25  41  58  86 125 164 200 241 292 359
#     4   9  18  36  61  84 107 139 183 234 285 339
#     4   8  16  33  57  84 109 135 177 235 288 334
#     4  11  24  37  49  73 112 152 187 228 280 336
#     4   9  19  38  63  89 118 152 197 250 300 351
#
# _framework density 21.143761000000001
#
# number of rings (size 3 to 8) (size 9 to 14) (size 15 to 20)
#    0.000    2.429    0.000    3.429    2.000    5.429 
#    0.000    5.714    0.000    0.000    0.000    0.000 
#    0.000    0.000    0.000    0.000    0.000    0.000 
#
# Total GULP energy -156111.386827 kJ/mol
# GULP energy per Si atom -5575.406672 kJ/mol
# Density = 2.109564 g / cm^3
# Si number density = 21.143761 Si / 1000 Ang^3
#
#
#
# Elastic Constant Matrix: (Units=GPa)
#
#
# Indices 1 2 3 4 5 6 
#
# 1 76.0665 5.7297 65.7236 0.0000 2.2693 0.0000
# 2 5.7297 25.7410 8.3352 0.0000 -2.1527 0.0000
# 3 65.7236 8.3352 176.7930 0.0000 1.5481 0.0000
# 4 0.0000 0.0000 0.0000 62.5480 0.0000 156.8473
# 5 2.2693 -2.1527 1.5481 0.0000 41.7264 0.0000
# 6 0.0000 0.0000 0.0000 156.8473 0.0000 274.6797
#
#
#
# Elastic Compliance Matrix: (Units=1/GPa)
#
#
# Indices 1 2 3 4 5 6 
#
# 1 0.019504 -0.002104 -0.007144 0.000000 -0.000904 0.000000
# 2 -0.002104 0.039863 -0.001117 0.000000 0.002212 0.000000
# 3 -0.007144 -0.001117 0.008364 0.000000 0.000021 0.000000
# 4 0.000000 0.000000 0.000000 -0.037017 0.000000 0.021137
# 5 -0.000904 0.002212 0.000021 0.000000 0.024128 0.000000
# 6 0.000000 0.000000 0.000000 0.021137 0.000000 -0.008429
#
#
# Mechanical properties :
#
#
# Convention : Reuss Voigt Hill
#
# Bulk Modulus (GPa) = 21.27491 48.68638 34.98064
# Shear Modulus (GPa) = 60.37877 89.04496 74.71187
#
# Velocity S-wave (km/s) = 5.34961 6.49658 5.95079
# Velocity P-wave (km/s) = 6.94562 8.90788 7.98724
#
# Compressibility (1/GPa) = 0.04700373
#
# Stress axis : x y z
#
# Youngs Moduli (GPa) = 51.27115 25.08562 119.55317
#
# Poissons Ratio (x) = 0.05278 0.85404
# Poissons Ratio (y) = 0.10787 0.13350
# Poissons Ratio (z) = 0.36626 0.02801
#
# Static dielectric constant tensor:
#      x y z
#    x 0.846130 0.000000 -0.736210 
#    y 0.000000 1.801180 0.000000 
#    z -0.736210 0.000000 1.220440 
# 
# From -- ./inp_files/94498.got.cif
#   From: 2010.05.17/outbox.cif.g08.bks.cpg/sg10_48_cif.got.tgz:94498.got - 2010.06.03 11:33:40.
