data_PCOD9149816
_publ_section_title
;
Structure prediction by ZEFSAII (Michael W. Deem and Ramdas Pophale) SiO2 
 PCOD9149816
Probable space group: P 2/M
;
_chemical_formula_sum "Si O2"
_cell_formula_units_Z 32
_cell_length_a 21.753912
_cell_length_b 9.191992
_cell_length_c 11.770057
_cell_angle_alpha 90.000000
_cell_angle_beta 51.424073
_cell_angle_gamma 90.000000
_cell_volume 1839.973345
_symmetry_space_group_name_H-M "P 2/M"
_symmetry_group_IT_number 10
_symmetry_cell_setting 'monoclinic'
loop_
_space_group_symop_operation_xyz
x,y,z
-x,y,-z
-x,-y,-z
x,-y,z
loop_
_atom_site_type_symbol
_atom_site_label
_atom_site_fract_x
_atom_site_fract_y
_atom_site_fract_z
Si Si1 0.237644 0.324259 0.106990
Si Si2 0.579691 0.826552 0.479297
Si Si3 0.007927 0.831872 0.807956
Si Si4 0.543681 0.823722 0.777240
Si Si5 0.377840 0.823912 0.078939
Si Si6 0.943150 0.325107 0.666018
Si Si7 0.131378 0.168341 0.845720
Si Si8 0.272207 0.673628 0.803959
O O1 0.242640 0.500000 0.111251
O O2 0.301070 0.250057 0.115757
O O3 0.147932 0.278243 0.237060
O O4 0.256536 0.285531 0.953807
O O5 0.500000 0.805807 0.500000
O O6 0.567821 0.775650 0.623482
O O7 0.649214 0.744869 0.335210
O O8 0.596383 0.000000 0.462292
O O9 0.088338 0.788213 0.778585
O O10 0.981309 0.731310 0.737320
O O11 0.016166 0.000000 0.761740
O O12 0.938004 0.828652 0.980974
O O13 0.600843 0.781660 0.815612
O O14 0.543611 0.000000 0.775538
O O15 0.454870 0.782139 0.915483
O O16 0.370582 0.000000 0.083126
O O17 0.942090 0.500000 0.667420
O O18 0.000000 0.274391 0.500000
O O19 0.200845 0.268029 0.809496
O O20 0.157823 0.000000 0.805265
O O21 0.276455 0.500000 0.793787
#
# Coordination Sequence:
#
# PCOD9149816 Si02
#       8
#     4   4   4   4   4   4   4   4
#     4  10  21  36  52  76 107 136 176 224 265 310
#     4  10  20  35  56  81 111 146 178 215 269 321
#     4   9  18  34  57  82 106 132 172 223 270 316
#     4   8  16  33  55  81 110 135 173 220 259 310
#     4   9  17  33  59  82 101 137 180 217 259 310
#     4  10  21  38  56  74 105 147 181 218 268 321
#     4   9  18  34  56  81 107 136 170 218 271 319
#     4  11  22  35  53  79 109 142 180 223 266 314
#
# _framework density 17.391556000000001
#
# number of rings (size 3 to 8) (size 9 to 14) (size 15 to 20)
#    0.000    2.500    1.250    2.625    0.000    3.500 
#    2.250    3.750    0.000    0.000    0.000    0.000 
#    0.000    0.000    0.000    0.000    0.000    0.000 
#
# Total GULP energy -178422.584055 kJ/mol
# GULP energy per Si atom -5575.705752 kJ/mol
# Density = 1.735197 g / cm^3
# Si number density = 17.391556 Si / 1000 Ang^3
#
#
#
# Elastic Constant Matrix: (Units=GPa)
#
#
# Indices 1 2 3 4 5 6 
#
# 1 151.0494 47.9433 79.9983 0.0000 -4.9221 0.0000
# 2 47.9433 22.5745 37.9580 0.0000 -6.7070 0.0000
# 3 79.9983 37.9580 122.8723 0.0000 -2.5488 0.0000
# 4 0.0000 0.0000 0.0000 24.9610 0.0000 4.7914
# 5 -4.9221 -6.7070 -2.5488 0.0000 14.9993 0.0000
# 6 0.0000 0.0000 0.0000 4.7914 0.0000 42.1314
#
#
#
# Elastic Compliance Matrix: (Units=1/GPa)
#
#
# Indices 1 2 3 4 5 6 
#
# 1 0.024005 -0.061926 0.003102 0.000000 -0.019286 0.000000
# 2 -0.061926 0.277348 -0.043363 0.000000 0.096328 0.000000
# 3 0.003102 -0.043363 0.019201 0.000000 -0.015109 0.000000
# 4 0.000000 0.000000 0.000000 0.040957 0.000000 -0.004658
# 5 -0.019286 0.096328 -0.015109 0.000000 0.100847 0.000000
# 6 0.000000 0.000000 0.000000 -0.004658 0.000000 0.024265
#
#
# Mechanical properties :
#
#
# Convention : Reuss Voigt Hill
#
# Bulk Modulus (GPa) = 8.60735 69.81059 39.20897
# Shear Modulus (GPa) = 6.85190 25.12478 15.98834
#
# Velocity S-wave (km/s) = 1.98704 3.80498 3.03531
# Velocity P-wave (km/s) = 3.19755 7.71567 5.90575
#
# Compressibility (1/GPa) = 0.11617978
#
# Stress axis : x y z
#
# Youngs Moduli (GPa) = 41.65866 3.60558 52.07928
#
# Poissons Ratio (x) = 0.22328 -0.16153
# Poissons Ratio (y) = 2.57976 2.25831
# Poissons Ratio (z) = -0.12921 0.15635
#
# Static dielectric constant tensor:
#      x y z
#    x 1.578990 0.000000 0.007230 
#    y 0.000000 1.579910 0.000000 
#    z 0.007230 0.000000 1.598500 
# 
# From -- ./inp_files/55247.got.cif
#   From: 2010.05.17/outbox.cif.g08.bks.cpg/sg10_28_cif.got.tgz:55247.got - 2010.06.03 11:33:40.
