data_PCOD9149022
_publ_section_title
;
Structure prediction by ZEFSAII (Michael W. Deem and Ramdas Pophale) SiO2 
 PCOD9149022
Probable space group: P 2/M
;
_chemical_formula_sum "Si O2"
_cell_formula_units_Z 28
_cell_length_a 15.630949
_cell_length_b 9.715968
_cell_length_c 12.028410
_cell_angle_alpha 90.000000
_cell_angle_beta 53.685786
_cell_angle_gamma 90.000000
_cell_volume 1471.962947
_symmetry_space_group_name_H-M "P 2/M"
_symmetry_group_IT_number 10
_symmetry_cell_setting 'monoclinic'
loop_
_space_group_symop_operation_xyz
x,y,z
-x,y,-z
-x,-y,-z
x,-y,z
loop_
_atom_site_type_symbol
_atom_site_label
_atom_site_fract_x
_atom_site_fract_y
_atom_site_fract_z
Si Si1 0.577467 0.156109 0.549875
Si Si2 0.432777 0.654220 0.790766
Si Si3 0.279303 0.345184 0.697043
Si Si4 0.818927 0.167142 0.675318
Si Si5 0.374501 0.662696 0.078101
Si Si6 0.032196 0.165897 0.640131
Si Si7 0.093463 0.844299 0.840410
O O1 0.500000 0.151665 0.500000
O O2 0.517961 0.228630 0.697872
O O3 0.672107 0.254140 0.438949
O O4 0.609094 0.000000 0.550412
O O5 0.480344 0.500000 0.768912
O O6 0.362383 0.649153 0.734075
O O7 0.363845 0.682473 0.953010
O O8 0.256696 0.500000 0.678477
O O9 0.178750 0.263078 0.816714
O O10 0.710850 0.245206 0.790959
O O11 0.871516 0.206452 0.515975
O O12 0.915908 0.206700 0.684566
O O13 0.804139 0.000000 0.690195
O O14 0.359140 0.500000 0.115069
O O15 0.500000 0.694477 0.000000
O O16 0.053388 0.203171 0.750586
O O17 0.030295 0.000000 0.635887
O O18 0.138496 0.000000 0.794494
O O19 0.000000 0.850876 0.000000
#
# Coordination Sequence:
#
# PCOD9149022 Si02
#       7
#     4   4   4   4   4   4   4
#     4   9  17  31  52  77 102 132 177 222 256 307
#     4   9  19  35  53  74 106 146 177 215 270 324
#     4  10  20  34  52  75 106 145 182 215 265 327
#     4   9  18  36  62  82 105 143 188 227 268 327
#     4  10  22  38  54  78 112 143 177 227 282 326
#     4   8  17  36  58  83 111 143 179 226 280 322
#     4  10  21  35  53  80 113 142 175 222 274 320
#
# _framework density 19.022217000000001
#
# number of rings (size 3 to 8) (size 9 to 14) (size 15 to 20)
#    0.000    2.714    0.000    1.714    2.000    4.571 
#    0.000    5.714    0.000    0.000    0.000    0.000 
#    0.000    0.000    0.000    0.000    0.000    0.000 
#
# Total GULP energy -156047.082452 kJ/mol
# GULP energy per Si atom -5573.110088 kJ/mol
# Density = 1.897892 g / cm^3
# Si number density = 19.022217 Si / 1000 Ang^3
#
#
#
# Elastic Constant Matrix: (Units=GPa)
#
#
# Indices 1 2 3 4 5 6 
#
# 1 21.7819 32.3718 28.2294 0.0000 -11.0010 0.0000
# 2 32.3718 113.5221 55.4156 0.0000 -21.4148 0.0000
# 3 28.2294 55.4156 107.4803 0.0000 -14.4560 0.0000
# 4 0.0000 0.0000 0.0000 139.8682 0.0000 -66.6868
# 5 -11.0010 -21.4148 -14.4560 0.0000 32.6425 0.0000
# 6 0.0000 0.0000 0.0000 -66.6868 0.0000 48.1927
#
#
#
# Elastic Compliance Matrix: (Units=1/GPa)
#
#
# Indices 1 2 3 4 5 6 
#
# 1 0.100131 -0.018523 -0.014721 0.000000 0.015074 0.000000
# 2 -0.018523 0.016149 -0.003058 0.000000 0.002998 0.000000
# 3 -0.014721 -0.003058 0.014685 0.000000 -0.000464 0.000000
# 4 0.000000 0.000000 0.000000 0.021013 0.000000 0.029076
# 5 0.015074 0.002998 -0.000464 0.000000 0.037476 0.000000
# 6 0.000000 0.000000 0.000000 0.029076 0.000000 0.060985
#
#
# Mechanical properties :
#
#
# Convention : Reuss Voigt Hill
#
# Bulk Modulus (GPa) = 17.13522 52.75755 34.94639
# Shear Modulus (GPa) = 14.59869 52.59183 33.59526
#
# Velocity S-wave (km/s) = 2.77330 5.26380 4.20707
# Velocity P-wave (km/s) = 4.39118 8.04602 6.48155
#
# Compressibility (1/GPa) = 0.05835933
#
# Stress axis : x y z
#
# Youngs Moduli (GPa) = 9.98695 61.92254 68.09774
#
# Poissons Ratio (x) = 1.14702 1.00248
# Poissons Ratio (y) = 0.18499 0.20825
# Poissons Ratio (z) = 0.14702 0.18936
#
# Static dielectric constant tensor:
#      x y z
#    x 1.721910 0.000000 0.024870 
#    y 0.000000 1.652120 0.000000 
#    z 0.024870 0.000000 1.664390 
# 
# From -- ./inp_files/49596.got.cif
#   From: 2010.05.17/outbox.cif.g08.bks.cpg/sg10_25_cif.got.tgz:49596.got - 2010.06.03 11:33:40.
