data_PCOD9149856
_publ_section_title
;
Structure prediction by ZEFSAII (Michael W. Deem and Ramdas Pophale) SiO2 
 PCOD9149856
Probable space group: P 2/M
;
_chemical_formula_sum "Si O2"
_cell_formula_units_Z 24
_cell_length_a 9.632952
_cell_length_b 7.683916
_cell_length_c 15.416267
_cell_angle_alpha 90.000000
_cell_angle_beta 100.009776
_cell_angle_gamma 90.000000
_cell_volume 1123.723892
_symmetry_space_group_name_H-M "P 2/M"
_symmetry_group_IT_number 10
_symmetry_cell_setting 'monoclinic'
loop_
_space_group_symop_operation_xyz
x,y,z
-x,y,-z
-x,-y,-z
x,-y,z
loop_
_atom_site_type_symbol
_atom_site_label
_atom_site_fract_x
_atom_site_fract_y
_atom_site_fract_z
Si Si1 0.389629 0.786925 0.913629
Si Si2 0.473455 0.209626 0.251420
Si Si3 0.899612 0.698913 0.560443
Si Si4 0.378840 0.201884 0.558471
Si Si5 0.147848 0.707894 0.251063
Si Si6 0.074116 0.205947 0.921331
O O1 0.451848 0.728407 0.828138
O O2 0.230617 0.725741 0.916513
O O3 0.386892 0.000000 0.911318
O O4 0.500000 0.736137 0.000000
O O5 0.557137 0.272600 0.345339
O O6 0.307787 0.250423 0.240420
O O7 0.482443 0.000000 0.253639
O O8 0.950797 0.500000 0.579081
O O9 0.749580 0.697842 0.497491
O O10 0.882808 0.776450 0.654770
O O11 0.000000 0.785376 0.500000
O O12 0.500000 0.201588 0.500000
O O13 0.334896 0.000000 0.567327
O O14 0.137827 0.500000 0.252501
O O15 0.033242 0.773022 0.170000
O O16 0.094343 0.000000 0.939179
O O17 0.000000 0.279384 0.000000
#
# Coordination Sequence:
#
# PCOD9149856 Si02
#       6
#     4   4   4   4   4   4
#     4   9  18  34  58  86 111 139 180 227 275 332
#     4  10  20  36  58  83 113 146 186 235 283 334
#     4  10  23  40  56  78 113 156 195 230 276 337
#     4  10  20  35  56  84 112 143 186 236 284 327
#     4  11  23  38  57  83 114 151 191 232 279 331
#     4  10  21  38  62  88 114 148 185 226 282 340
#
# _framework density 21.357558999999998
#
# number of rings (size 3 to 8) (size 9 to 14) (size 15 to 20)
#    0.000    2.000    1.667    1.500    2.333    5.000 
#    0.000    0.833    0.000    2.000    0.000    0.000 
#    0.000    0.000    0.000    0.000    0.000    0.000 
#
# Total GULP energy -134016.168287 kJ/mol
# GULP energy per Si atom -5584.007012 kJ/mol
# Density = 2.130895 g / cm^3
# Si number density = 21.357559 Si / 1000 Ang^3
#
#
#
# Elastic Constant Matrix: (Units=GPa)
#
#
# Indices 1 2 3 4 5 6 
#
# 1 158.4175 -4.4454 104.9822 0.0000 -18.4067 0.0000
# 2 -4.4454 35.0271 -7.0363 0.0000 -10.7138 0.0000
# 3 104.9822 -7.0363 196.0135 0.0000 -13.7398 0.0000
# 4 0.0000 0.0000 0.0000 11.9489 0.0000 17.2826
# 5 -18.4067 -10.7138 -13.7398 0.0000 40.1894 0.0000
# 6 0.0000 0.0000 0.0000 17.2826 0.0000 44.9663
#
#
#
# Elastic Compliance Matrix: (Units=1/GPa)
#
#
# Indices 1 2 3 4 5 6 
#
# 1 0.010141 0.001231 -0.005162 0.000000 0.003208 0.000000
# 2 0.001231 0.031822 0.001145 0.000000 0.009438 0.000000
# 3 -0.005162 0.001145 0.007954 0.000000 0.000660 0.000000
# 4 0.000000 0.000000 0.000000 0.188451 0.000000 -0.072430
# 5 0.003208 0.009438 0.000660 0.000000 0.029093 0.000000
# 6 0.000000 0.000000 0.000000 -0.072430 0.000000 0.050077
#
#
# Mechanical properties :
#
#
# Convention : Reuss Voigt Hill
#
# Bulk Modulus (GPa) = 22.55097 64.05100 43.30099
# Shear Modulus (GPa) = 14.79763 39.15143 26.97453
#
# Velocity S-wave (km/s) = 2.63506 4.28617 3.55772
# Velocity P-wave (km/s) = 4.45419 7.38579 6.09876
#
# Compressibility (1/GPa) = 0.04434398
#
# Stress axis : x y z
#
# Youngs Moduli (GPa) = 98.61355 31.42440 125.72605
#
# Poissons Ratio (x) = -0.03869 0.64901
# Poissons Ratio (y) = -0.12141 -0.14390
# Poissons Ratio (z) = 0.50905 -0.03597
#
# Static dielectric constant tensor:
#      x y z
#    x 1.724600 0.000000 -0.026210 
#    y 0.000000 1.825660 0.000000 
#    z -0.026210 0.000000 1.764150 
# 
# From -- ./inp_files/27098.got.cif
#   From: 2010.05.17/outbox.cif.g08.bks.cpg/sg10_14_cif.got.tgz:27098.got - 2010.06.03 11:33:40.
