data_PCOD9149161
_publ_section_title
;
Structure prediction by ZEFSAII (Michael W. Deem and Ramdas Pophale) SiO2 
 PCOD9149161
Probable space group: P 2/M
;
_chemical_formula_sum "Si O2"
_cell_formula_units_Z 32
_cell_length_a 14.573584
_cell_length_b 8.982375
_cell_length_c 12.555537
_cell_angle_alpha 90.000000
_cell_angle_beta 89.741327
_cell_angle_gamma 90.000000
_cell_volume 1643.570800
_symmetry_space_group_name_H-M "P 2/M"
_symmetry_group_IT_number 10
_symmetry_cell_setting 'monoclinic'
loop_
_space_group_symop_operation_xyz
x,y,z
-x,y,-z
-x,-y,-z
x,-y,z
loop_
_atom_site_type_symbol
_atom_site_label
_atom_site_fract_x
_atom_site_fract_y
_atom_site_fract_z
Si Si1 0.684196 0.822970 0.891294
Si Si2 0.155141 0.824795 0.717862
Si Si3 0.285887 0.170166 0.523513
Si Si4 0.499669 0.326143 0.839041
Si Si5 0.553265 0.665075 0.389440
Si Si6 0.772718 0.323356 0.681731
Si Si7 0.713600 0.322388 0.109691
Si Si8 0.033149 0.820376 0.379814
O O1 0.577564 0.770921 0.893148
O O2 0.730806 0.753363 0.786328
O O3 0.690103 0.000000 0.888726
O O4 0.730240 0.757244 0.997189
O O5 0.198510 0.809327 0.599625
O O6 0.215832 0.734050 0.801168
O O7 0.048908 0.784585 0.702257
O O8 0.161730 0.000000 0.745399
O O9 0.370790 0.209665 0.598614
O O10 0.284609 0.277886 0.422994
O O11 0.289205 0.000000 0.486416
O O12 0.514069 0.500000 0.867978
O O13 0.510657 0.310858 0.711548
O O14 0.393015 0.288849 0.859641
O O15 0.500000 0.662958 0.500000
O O16 0.596388 0.500000 0.372516
O O17 0.772960 0.500000 0.695355
O O18 0.873965 0.260411 0.654911
O O19 0.720505 0.500000 0.098961
O O20 0.000000 0.781049 0.500000
O O21 0.047370 0.000000 0.379320
#
# Coordination Sequence:
#
# PCOD9149161 Si02
#       8
#     4   4   4   4   4   4   4   4
#     4  12  26  43  64  89 121 163 213 262 312 367
#     4  10  21  38  63  93 126 161 201 249 301 361
#     4  11  21  36  59  88 123 162 202 247 304 363
#     4  10  21  38  60  90 126 165 207 255 309 363
#     4  10  20  34  53  82 122 166 205 247 303 365
#     4  12  25  41  63  92 127 163 206 257 312 373
#     4  11  23  41  65  91 126 166 209 258 309 363
#     4  10  20  40  66  94 129 165 201 248 307 369
#
# _framework density 19.469804
#
# number of rings (size 3 to 8) (size 9 to 14) (size 15 to 20)
#    0.000    1.250    2.500    4.125    0.000    5.500 
#    0.000    0.625    0.000    3.750    0.000    0.000 
#    0.000    0.000    0.000    0.000    0.000    0.000 
#
# Total GULP energy -178840.362867 kJ/mol
# GULP energy per Si atom -5588.761340 kJ/mol
# Density = 1.942549 g / cm^3
# Si number density = 19.469804 Si / 1000 Ang^3
#
#
#
# Elastic Constant Matrix: (Units=GPa)
#
#
# Indices 1 2 3 4 5 6 
#
# 1 81.3220 49.6889 32.9873 0.0000 11.1088 0.0000
# 2 49.6889 97.5652 56.0855 0.0000 9.7523 0.0000
# 3 32.9873 56.0855 108.7912 0.0000 14.3837 0.0000
# 4 0.0000 0.0000 0.0000 32.3535 0.0000 1.9160
# 5 11.1088 9.7523 14.3837 0.0000 21.5848 0.0000
# 6 0.0000 0.0000 0.0000 1.9160 0.0000 32.9784
#
#
#
# Elastic Compliance Matrix: (Units=1/GPa)
#
#
# Indices 1 2 3 4 5 6 
#
# 1 0.018470 -0.008612 -0.000459 0.000000 -0.005309 0.000000
# 2 -0.008612 0.018641 -0.007096 0.000000 0.000739 0.000000
# 3 -0.000459 -0.007096 0.013745 0.000000 -0.005717 0.000000
# 4 0.000000 0.000000 0.000000 0.031015 0.000000 -0.001802
# 5 -0.005309 0.000739 -0.005717 0.000000 0.052537 0.000000
# 6 0.000000 0.000000 0.000000 -0.001802 0.000000 0.030428
#
#
# Mechanical properties :
#
#
# Convention : Reuss Voigt Hill
#
# Bulk Modulus (GPa) = 53.98987 62.80021 58.39504
# Shear Modulus (GPa) = 24.58860 27.31113 25.94986
#
# Velocity S-wave (km/s) = 3.55760 3.74938 3.65475
# Velocity P-wave (km/s) = 6.68323 7.14626 6.91862
#
# Compressibility (1/GPa) = 0.01852199
#
# Stress axis : x y z
#
# Youngs Moduli (GPa) = 54.14071 53.64423 72.75188
#
# Poissons Ratio (x) = 0.46201 0.03336
# Poissons Ratio (y) = 0.46628 0.51628
# Poissons Ratio (z) = 0.02483 0.38069
#
# Static dielectric constant tensor:
#      x y z
#    x 1.693240 0.000000 -0.003570 
#    y 0.000000 1.662430 0.000000 
#    z -0.003570 0.000000 1.689890 
# 
# From -- ./inp_files/49900.got.cif
#   From: 2010.05.17/outbox.cif.g08.bks.cpg/sg10_25_cif.got.tgz:49900.got - 2010.06.03 11:33:40.
