data_PCOD9149456
_publ_section_title
;
Structure prediction by ZEFSAII (Michael W. Deem and Ramdas Pophale) SiO2 
 PCOD9149456
Probable space group: P 2/M
;
_chemical_formula_sum "Si O2"
_cell_formula_units_Z 28
_cell_length_a 15.258863
_cell_length_b 12.091629
_cell_length_c 8.424022
_cell_angle_alpha 90.000000
_cell_angle_beta 114.159036
_cell_angle_gamma 90.000000
_cell_volume 1418.136141
_symmetry_space_group_name_H-M "P 2/M"
_symmetry_group_IT_number 10
_symmetry_cell_setting 'monoclinic'
loop_
_space_group_symop_operation_xyz
x,y,z
-x,y,-z
-x,-y,-z
x,-y,z
loop_
_atom_site_type_symbol
_atom_site_label
_atom_site_fract_x
_atom_site_fract_y
_atom_site_fract_z
Si Si1 0.096968 0.783959 0.134958
Si Si2 0.934192 0.625402 0.595715
Si Si3 0.227363 0.371460 0.025758
Si Si4 0.279364 0.128079 0.453002
Si Si5 0.733071 0.686605 0.308964
Si Si6 0.404777 0.292529 0.344937
Si Si7 0.478940 0.377793 0.800381
O O1 0.063587 0.700416 0.248548
O O2 0.146058 0.709307 0.034264
O O3 0.181463 0.855966 0.277462
O O4 0.000000 0.840941 0.000000
O O5 0.964036 0.500000 0.653853
O O6 0.825515 0.627563 0.451311
O O7 0.000000 0.667386 0.500000
O O8 0.199054 0.500000 0.990201
O O9 0.312956 0.362406 0.220224
O O10 0.260632 0.328825 0.876345
O O11 0.265872 0.191290 0.611117
O O12 0.362117 0.192778 0.415044
O O13 0.301097 0.000000 0.488577
O O14 0.634636 0.635048 0.302013
O O15 0.500000 0.343415 0.500000
O O16 0.459872 0.274715 0.220159
O O17 0.510452 0.500000 0.765493
O O18 0.500000 0.379630 0.000000
#
# Coordination Sequence:
#
# PCOD9149456 Si02
#       7
#     4   4   4   4   4   4   4
#     4  10  22  39  61  90 122 153 196 247 299 363
#     4  10  20  34  56  87 124 164 196 230 289 360
#     4  11  22  36  59  91 130 165 192 233 292 363
#     4  10  24  45  64  83 112 153 206 263 309 344
#     4  11  21  38  57  84 117 158 205 248 289 349
#     4  11  22  39  57  89 120 159 202 246 289 353
#     4  11  21  35  57  87 127 165 194 232 286 355
#
# _framework density 19.744225
#
# number of rings (size 3 to 8) (size 9 to 14) (size 15 to 20)
#    0.000    1.429    2.857    3.000    0.000    4.000 
#    0.000    2.857    0.000   16.286    0.000    0.000 
#    0.000    0.000    0.000    0.000    0.000    0.000 
#
# Total GULP energy -155987.571292 kJ/mol
# GULP energy per Si atom -5570.984689 kJ/mol
# Density = 1.969929 g / cm^3
# Si number density = 19.744225 Si / 1000 Ang^3
#
#
#
# Elastic Constant Matrix: (Units=GPa)
#
#
# Indices 1 2 3 4 5 6 
#
# 1 87.5138 12.9920 2.8952 0.0000 5.6814 0.0000
# 2 12.9920 88.0442 28.2003 0.0000 -21.9887 0.0000
# 3 2.8952 28.2003 60.6400 0.0000 9.8684 0.0000
# 4 0.0000 0.0000 0.0000 11.5467 0.0000 -2.9477
# 5 5.6814 -21.9887 9.8684 0.0000 50.6581 0.0000
# 6 0.0000 0.0000 0.0000 -2.9477 0.0000 18.2796
#
#
#
# Elastic Compliance Matrix: (Units=1/GPa)
#
#
# Indices 1 2 3 4 5 6 
#
# 1 0.011996 -0.002867 0.001221 0.000000 -0.002828 0.000000
# 2 -0.002867 0.017206 -0.009432 0.000000 0.009628 0.000000
# 3 0.001221 -0.009432 0.022211 0.000000 -0.008558 0.000000
# 4 0.000000 0.000000 0.000000 0.090323 0.000000 0.014565
# 5 -0.002828 0.009628 -0.008558 0.000000 0.025903 0.000000
# 6 0.000000 0.000000 0.000000 0.014565 0.000000 0.057055
#
#
# Mechanical properties :
#
#
# Convention : Reuss Voigt Hill
#
# Bulk Modulus (GPa) = 34.17969 36.04145 35.11057
# Shear Modulus (GPa) = 19.48539 28.90425 24.19482
#
# Velocity S-wave (km/s) = 3.14489 3.83029 3.50439
# Velocity P-wave (km/s) = 5.52593 6.15267 5.84770
#
# Compressibility (1/GPa) = 0.02925714
#
# Stress axis : x y z
#
# Youngs Moduli (GPa) = 83.36360 58.11785 45.02226
#
# Poissons Ratio (x) = 0.16665 -0.05497
# Poissons Ratio (y) = 0.23904 0.42463
# Poissons Ratio (z) = -0.10178 0.54814
#
# Static dielectric constant tensor:
#      x y z
#    x 1.772800 0.000000 -0.039940 
#    y 0.000000 1.667750 0.000000 
#    z -0.039940 0.000000 1.871950 
# 
# From -- ./inp_files/28329.got.cif
#   From: 2010.05.17/outbox.cif.g08.bks.cpg/sg10_15_cif.got.tgz:28329.got - 2010.06.03 11:33:40.
