data_PCOD9149400
_publ_section_title
;
Structure prediction by ZEFSAII (Michael W. Deem and Ramdas Pophale) SiO2 
 PCOD9149400
Probable space group: P 2/M
;
_chemical_formula_sum "Si O2"
_cell_formula_units_Z 28
_cell_length_a 15.237460
_cell_length_b 14.688030
_cell_length_c 5.856163
_cell_angle_alpha 90.000000
_cell_angle_beta 68.949359
_cell_angle_gamma 90.000000
_cell_volume 1223.188760
_symmetry_space_group_name_H-M "P 2/M"
_symmetry_group_IT_number 10
_symmetry_cell_setting 'monoclinic'
loop_
_space_group_symop_operation_xyz
x,y,z
-x,y,-z
-x,-y,-z
x,-y,z
loop_
_atom_site_type_symbol
_atom_site_label
_atom_site_fract_x
_atom_site_fract_y
_atom_site_fract_z
Si Si1 0.580514 0.793706 0.739974
Si Si2 0.239912 0.780275 0.101775
Si Si3 0.204626 0.602582 0.328807
Si Si4 0.953226 0.293806 0.290627
Si Si5 0.422038 0.402952 0.275162
Si Si6 0.125241 0.102590 0.522218
Si Si7 0.309981 0.097024 0.662283
O O1 0.678994 0.782789 0.783115
O O2 0.566637 0.696721 0.628272
O O3 0.597102 0.879524 0.564873
O O4 0.500000 0.807400 0.000000
O O5 0.199624 0.678610 0.133798
O O6 0.160526 0.853043 0.250333
O O7 0.289939 0.816278 0.834020
O O8 0.170435 0.500000 0.312131
O O9 0.144687 0.650418 0.586830
O O10 0.315117 0.595305 0.282733
O O11 0.935400 0.184419 0.313671
O O12 0.000000 0.314597 0.500000
O O13 0.000000 0.315511 0.000000
O O14 0.431762 0.500000 0.390654
O O15 0.500000 0.403007 0.000000
O O16 0.219201 0.093099 0.585016
O O17 0.086878 0.000000 0.540925
O O18 0.317031 0.000000 0.779738
#
# Coordination Sequence:
#
# PCOD9149400 Si02
#       7
#     4   4   4   4   4   4   4
#     4   9  18  32  49  76 116 156 197 251 314 382
#     4   9  18  34  56  81 114 152 201 260 315 382
#     4   9  19  38  63  92 125 168 212 261 320 383
#     4  11  26  44  66  95 135 176 218 273 318 383
#     4   8  14  30  59  90 118 153 201 258 320 384
#     4   9  20  38  61  86 114 154 204 263 324 380
#     4  10  20  34  56  81 110 153 206 259 318 383
#
# _framework density 22.890989000000001
#
# number of rings (size 3 to 8) (size 9 to 14) (size 15 to 20)
#    0.000    2.714    0.000    1.286    4.000    2.571 
#    0.000    1.429    0.000    0.000    0.000   10.000 
#    0.000    0.000    0.000    0.000    0.000    0.000 
#
# Total GULP energy -155889.408870 kJ/mol
# GULP energy per Si atom -5567.478888 kJ/mol
# Density = 2.283889 g / cm^3
# Si number density = 22.890989 Si / 1000 Ang^3
#
#
#
# Elastic Constant Matrix: (Units=GPa)
#
#
# Indices 1 2 3 4 5 6 
#
# 1 71.0711 23.2310 24.8894 0.0000 -3.8001 0.0000
# 2 23.2310 164.5610 63.4771 0.0000 -8.2184 0.0000
# 3 24.8894 63.4771 94.7301 0.0000 -22.0526 0.0000
# 4 0.0000 0.0000 0.0000 -5.4110 0.0000 1.8170
# 5 -3.8001 -8.2184 -22.0526 0.0000 29.3144 0.0000
# 6 0.0000 0.0000 0.0000 1.8170 0.0000 -2.3889
#
#
#
# Elastic Compliance Matrix: (Units=1/GPa)
#
#
# Indices 1 2 3 4 5 6 
#
# 1 0.015609 -0.000780 -0.003828 0.000000 -0.001075 0.000000
# 2 -0.000780 0.008355 -0.005906 0.000000 -0.002202 0.000000
# 3 -0.003828 -0.005906 0.018207 0.000000 0.011545 0.000000
# 4 0.000000 0.000000 0.000000 -0.248206 0.000000 -0.188787
# 5 -0.001075 -0.002202 0.011545 0.000000 0.042041 0.000000
# 6 0.000000 0.000000 0.000000 -0.188787 0.000000 -0.562190
#
#
# Mechanical properties :
#
#
# Convention : Reuss Voigt Hill
#
# Bulk Modulus (GPa) = 47.30097 61.50636 54.40366
# Shear Modulus (GPa) = -7.16223 18.88723 5.86250
#
# Velocity S-wave (km/s) = -1.77077 2.87556 1.60207
# Velocity P-wave (km/s) = 4.06541 6.16058 5.21921
#
# Compressibility (1/GPa) = 0.02114121
#
# Stress axis : x y z
#
# Youngs Moduli (GPa) = 64.06670 119.68552 54.92254
#
# Poissons Ratio (x) = 0.09340 0.21027
# Poissons Ratio (y) = 0.05000 0.32439
# Poissons Ratio (z) = 0.24528 0.70689
#
# Static dielectric constant tensor:
#      x y z
#    x 1.926490 0.000000 0.006190 
#    y 0.000000 1.905200 0.000000 
#    z 0.006190 0.000000 1.891890 
# 
# From -- ./inp_files/11373.got.cif
#   From: 2010.05.17/outbox.cif.g08.bks.cpg/sg10_6_cif.got.tgz:11373.got - 2010.06.03 11:33:40.
