data_PCOD9149118
_publ_section_title
;
Structure prediction by ZEFSAII (Michael W. Deem and Ramdas Pophale) SiO2 
 PCOD9149118
Probable space group: P 2/M
;
_chemical_formula_sum "Si O2"
_cell_formula_units_Z 20
_cell_length_a 17.043570
_cell_length_b 12.927101
_cell_length_c 7.814193
_cell_angle_alpha 90.000000
_cell_angle_beta 148.202798
_cell_angle_gamma 90.000000
_cell_volume 907.164030
_symmetry_space_group_name_H-M "P 2/M"
_symmetry_group_IT_number 10
_symmetry_cell_setting 'monoclinic'
loop_
_space_group_symop_operation_xyz
x,y,z
-x,y,-z
-x,-y,-z
x,-y,z
loop_
_atom_site_type_symbol
_atom_site_label
_atom_site_fract_x
_atom_site_fract_y
_atom_site_fract_z
Si Si1 0.433869 0.109320 0.188524
Si Si2 0.825224 0.883366 0.711237
Si Si3 0.166260 0.166254 0.881347
Si Si4 0.361843 0.707905 0.833788
Si Si5 0.180394 0.614256 0.807490
O O1 0.500000 0.117296 0.500000
O O2 0.481693 0.000000 0.200460
O O3 0.259274 0.110737 0.906671
O O4 0.457308 0.210828 0.124892
O O5 0.738336 0.787357 0.464817
O O6 0.784132 0.000000 0.574587
O O7 0.811012 0.880581 0.890711
O O8 0.000000 0.869028 0.000000
O O9 0.223273 0.285127 0.995967
O O10 0.000000 0.166214 0.500000
O O11 0.248998 0.642923 0.746681
O O12 0.500000 0.648168 0.000000
O O13 0.235707 0.500000 0.958037
O O14 0.000000 0.610430 0.500000
#
# Coordination Sequence:
#
# PCOD9149118 Si02
#       5
#     4   4   4   4   4
#     4  10  20  34  53  77 110 155 196 226 270 337
#     4  11  22  35  55  86 123 160 195 234 285 345
#     4  10  20  35  56  80 109 146 193 240 279 329
#     4  11  23  37  57  88 124 151 185 242 299 345
#     4   9  19  39  64  84 108 149 198 243 289 345
#
# _framework density 22.046728999999999
#
# number of rings (size 3 to 8) (size 9 to 14) (size 15 to 20)
#    0.000    1.800    0.000    6.000    0.000    6.800 
#    0.000    1.000    0.000   28.200    0.000    0.000 
#    0.000    0.000    0.000    0.000    0.000    0.000 
#
# Total GULP energy -111434.217732 kJ/mol
# GULP energy per Si atom -5571.710887 kJ/mol
# Density = 2.199655 g / cm^3
# Si number density = 22.046729 Si / 1000 Ang^3
#
#
#
# Elastic Constant Matrix: (Units=GPa)
#
#
# Indices 1 2 3 4 5 6 
#
# 1 114.1958 11.5325 29.3641 0.0000 35.4516 0.0000
# 2 11.5325 115.6437 15.0194 0.0000 5.9308 0.0000
# 3 29.3641 15.0194 71.9323 0.0000 13.9189 0.0000
# 4 0.0000 0.0000 0.0000 -1.0901 0.0000 -1.6477
# 5 35.4516 5.9308 13.9189 0.0000 48.2353 0.0000
# 6 0.0000 0.0000 0.0000 -1.6477 0.0000 -14.1204
#
#
#
# Elastic Compliance Matrix: (Units=1/GPa)
#
#
# Indices 1 2 3 4 5 6 
#
# 1 0.012100 -0.000369 -0.003337 0.000000 -0.007885 0.000000
# 2 -0.000369 0.008915 -0.001643 0.000000 -0.000351 0.000000
# 3 -0.003337 -0.001643 0.015986 0.000000 -0.001959 0.000000
# 4 0.000000 0.000000 0.000000 -1.113790 0.000000 0.129966
# 5 -0.007885 -0.000351 -0.001959 0.000000 0.027135 0.000000
# 6 0.000000 0.000000 0.000000 0.129966 0.000000 -0.085985
#
#
# Mechanical properties :
#
#
# Convention : Reuss Voigt Hill
#
# Bulk Modulus (GPa) = 38.01659 45.95596 41.98627
# Shear Modulus (GPa) = -4.47959 22.99534 9.25787
#
# Velocity S-wave (km/s) = -1.42698 3.23310 2.05142
# Velocity P-wave (km/s) = 3.81655 5.90146 4.96957
#
# Compressibility (1/GPa) = 0.02630431
#
# Stress axis : x y z
#
# Youngs Moduli (GPa) = 82.64472 112.16512 62.55432
#
# Poissons Ratio (x) = 0.04138 0.20872
# Poissons Ratio (y) = 0.03049 0.10278
# Poissons Ratio (z) = 0.27576 0.18429
#
# Static dielectric constant tensor:
#      x y z
#    x 1.895170 0.000000 0.066770 
#    y 0.000000 1.811360 0.000000 
#    z 0.066770 0.000000 1.852750 
# 
# From -- ./inp_files/32691.got.cif
#   From: 2010.05.17/outbox.cif.g08.bks.cpg/sg10_17_cif.got.tgz:32691.got - 2010.06.03 11:33:40.
