data_PCOD9149608
_publ_section_title
;
Structure prediction by ZEFSAII (Michael W. Deem and Ramdas Pophale) SiO2 
 PCOD9149608
Probable space group: P 2/M
;
_chemical_formula_sum "Si O2"
_cell_formula_units_Z 28
_cell_length_a 14.842238
_cell_length_b 9.308674
_cell_length_c 22.116284
_cell_angle_alpha 90.000000
_cell_angle_beta 149.548027
_cell_angle_gamma 90.000000
_cell_volume 1548.637024
_symmetry_space_group_name_H-M "P 2/M"
_symmetry_group_IT_number 10
_symmetry_cell_setting 'monoclinic'
loop_
_space_group_symop_operation_xyz
x,y,z
-x,y,-z
-x,-y,-z
x,-y,z
loop_
_atom_site_type_symbol
_atom_site_label
_atom_site_fract_x
_atom_site_fract_y
_atom_site_fract_z
Si Si1 0.208657 0.170872 0.348008
Si Si2 0.746288 0.830037 0.210255
Si Si3 0.906461 0.831684 0.510521
Si Si4 0.457597 0.669906 0.123221
Si Si5 0.546666 0.170257 0.625713
Si Si6 0.535104 0.670796 0.304414
Si Si7 0.837051 0.329963 0.144389
O O1 0.356302 0.204027 0.484395
O O2 0.305299 0.197637 0.339742
O O3 0.031341 0.261295 0.252183
O O4 0.169615 0.000000 0.329751
O O5 0.608335 0.763082 0.177726
O O6 0.736680 0.748113 0.141361
O O7 0.944229 0.809722 0.352118
O O8 0.716183 0.000000 0.185722
O O9 0.734238 0.734913 0.418965
O O10 0.000000 0.804166 0.500000
O O11 0.853335 0.000000 0.480935
O O12 0.503318 0.500000 0.143993
O O13 0.451324 0.704343 0.190481
O O14 0.275083 0.693001 0.981595
O O15 0.565740 0.257994 0.697884
O O16 0.547190 0.000000 0.638550
O O17 0.541052 0.500000 0.315062
O O18 0.846768 0.500000 0.161696
#
# Coordination Sequence:
#
# PCOD9149608 Si02
#       7
#     4   4   4   4   4   4   4
#     4   9  19  38  61  85 110 139 177 221 269 325
#     4  11  22  36  57  82 107 141 186 230 270 319
#     4  10  20  35  53  77 110 143 175 217 272 323
#     4  10  23  40  53  73 111 152 185 222 268 319
#     4   9  19  37  61  85 112 141 171 218 278 327
#     4  11  22  35  55  82 111 145 185 223 266 322
#     4  11  23  38  56  78 109 147 183 224 274 320
#
# _framework density 18.080416
#
# number of rings (size 3 to 8) (size 9 to 14) (size 15 to 20)
#    0.000    1.857    1.429    3.429    0.000    9.429 
#    0.000    2.143    0.000    4.286    0.000    0.000 
#    0.000    0.000    0.000    0.000    0.000    0.000 
#
# Total GULP energy -156446.594518 kJ/mol
# GULP energy per Si atom -5587.378376 kJ/mol
# Density = 1.803926 g / cm^3
# Si number density = 18.080416 Si / 1000 Ang^3
#
#
#
# Elastic Constant Matrix: (Units=GPa)
#
#
# Indices 1 2 3 4 5 6 
#
# 1 93.3665 56.6358 42.9008 0.0000 -29.6021 0.0000
# 2 56.6358 62.4815 47.3185 0.0000 -17.4886 0.0000
# 3 42.9008 47.3185 58.1445 0.0000 -16.9820 0.0000
# 4 0.0000 0.0000 0.0000 16.8810 0.0000 -7.3509
# 5 -29.6021 -17.4886 -16.9820 0.0000 23.6732 0.0000
# 6 0.0000 0.0000 0.0000 -7.3509 0.0000 31.9571
#
#
#
# Elastic Compliance Matrix: (Units=1/GPa)
#
#
# Indices 1 2 3 4 5 6 
#
# 1 0.031629 -0.024994 0.004000 0.000000 0.023955 0.000000
# 2 -0.024994 0.062754 -0.035695 0.000000 -0.010500 0.000000
# 3 0.004000 -0.035695 0.046876 0.000000 0.012259 0.000000
# 4 0.000000 0.000000 0.000000 0.065832 0.000000 0.015143
# 5 0.023955 -0.010500 0.012259 0.000000 0.073234 0.000000
# 6 0.000000 0.000000 0.000000 0.015143 0.000000 0.034775
#
#
# Mechanical properties :
#
#
# Convention : Reuss Voigt Hill
#
# Bulk Modulus (GPa) = 35.86604 56.41142 46.13873
# Shear Modulus (GPa) = 11.42148 18.97807 15.19977
#
# Velocity S-wave (km/s) = 2.51610 3.24334 2.90259
# Velocity P-wave (km/s) = 5.32175 6.73006 6.06691
#
# Compressibility (1/GPa) = 0.02788153
#
# Stress axis : x y z
#
# Youngs Moduli (GPa) = 31.61674 15.93534 21.33269
#
# Poissons Ratio (x) = 0.39828 -0.08533
# Poissons Ratio (y) = 0.79022 0.76147
# Poissons Ratio (z) = -0.12647 0.56881
#
# Static dielectric constant tensor:
#      x y z
#    x 1.615850 0.000000 -0.018610 
#    y 0.000000 1.596770 0.000000 
#    z -0.018610 0.000000 1.609860 
# 
# From -- ./inp_files/49072.got.cif
#   From: 2010.05.17/outbox.cif.g08.bks.cpg/sg10_25_cif.got.tgz:49072.got - 2010.06.03 11:33:40.
