data_PCOD9149743
_publ_section_title
;
Structure prediction by ZEFSAII (Michael W. Deem and Ramdas Pophale) SiO2 
 PCOD9149743
Probable space group: P 2/M
;
_chemical_formula_sum "Si O2"
_cell_formula_units_Z 28
_cell_length_a 11.967540
_cell_length_b 9.005227
_cell_length_c 15.282627
_cell_angle_alpha 90.000000
_cell_angle_beta 64.160776
_cell_angle_gamma 90.000000
_cell_volume 1482.347479
_symmetry_space_group_name_H-M "P 2/M"
_symmetry_group_IT_number 10
_symmetry_cell_setting 'monoclinic'
loop_
_space_group_symop_operation_xyz
x,y,z
-x,y,-z
-x,-y,-z
x,-y,z
loop_
_atom_site_type_symbol
_atom_site_label
_atom_site_fract_x
_atom_site_fract_y
_atom_site_fract_z
Si Si1 0.205828 0.823816 0.924870
Si Si2 0.944298 0.323791 0.690485
Si Si3 0.005608 0.176639 0.142931
Si Si4 0.707689 0.823034 0.688038
Si Si5 0.180692 0.175757 0.540827
Si Si6 0.374495 0.675276 0.598989
Si Si7 0.442741 0.323059 0.775699
O O1 0.331655 0.732810 0.874798
O O2 0.115771 0.788086 0.873507
O O3 0.232311 0.000000 0.911795
O O4 0.123450 0.797268 0.039249
O O5 0.937952 0.500000 0.686696
O O6 0.983665 0.270954 0.773629
O O7 0.813129 0.251118 0.711097
O O8 0.050591 0.260257 0.590455
O O9 0.001916 0.000000 0.164737
O O10 0.747132 0.792419 0.573875
O O11 0.572603 0.755762 0.750764
O O12 0.707036 0.000000 0.700796
O O13 0.266545 0.230109 0.591321
O O14 0.158331 0.000000 0.554000
O O15 0.500000 0.696021 0.500000
O O16 0.341444 0.500000 0.606114
O O17 0.402723 0.714904 0.689513
O O18 0.457711 0.500000 0.775374
#
# Coordination Sequence:
#
# PCOD9149743 Si02
#       7
#     4   4   4   4   4   4   4
#     4   9  19  37  63  91 118 150 187 232 286 340
#     4  12  25  39  59  85 115 151 191 238 292 343
#     4   9  19  39  64  89 117 149 189 236 283 337
#     4  11  24  41  59  80 112 154 199 242 282 335
#     4  11  23  38  59  85 113 151 199 242 283 336
#     4  10  20  35  55  82 119 154 186 229 284 339
#     4  11  22  36  57  86 120 156 191 233 287 342
#
# _framework density 18.888957000000001
#
# number of rings (size 3 to 8) (size 9 to 14) (size 15 to 20)
#    0.000    1.571    1.429    4.714    0.000    8.286 
#    0.000    2.143    0.000    4.286    0.000    0.000 
#    0.000    0.000    0.000    0.000    0.000    0.000 
#
# Total GULP energy -156570.147409 kJ/mol
# GULP energy per Si atom -5591.790979 kJ/mol
# Density = 1.884596 g / cm^3
# Si number density = 18.888957 Si / 1000 Ang^3
#
#
#
# Elastic Constant Matrix: (Units=GPa)
#
#
# Indices 1 2 3 4 5 6 
#
# 1 82.5226 52.3935 32.4053 0.0000 -23.6337 0.0000
# 2 52.3935 67.4500 35.0050 0.0000 -15.7970 0.0000
# 3 32.4053 35.0050 44.3457 0.0000 -22.2126 0.0000
# 4 0.0000 0.0000 0.0000 -117.8228 0.0000 56.3026
# 5 -23.6337 -15.7970 -22.2126 0.0000 28.8235 0.0000
# 6 0.0000 0.0000 0.0000 56.3026 0.0000 3.6556
#
#
#
# Elastic Compliance Matrix: (Units=1/GPa)
#
#
# Indices 1 2 3 4 5 6 
#
# 1 0.027310 -0.018970 0.001672 0.000000 0.013284 0.000000
# 2 -0.018970 0.038399 -0.022311 0.000000 -0.011703 0.000000
# 3 0.001672 -0.022311 0.054564 0.000000 0.031192 0.000000
# 4 0.000000 0.000000 0.000000 -0.001015 0.000000 0.015637
# 5 0.013284 -0.011703 0.031192 0.000000 0.063211 0.000000
# 6 0.000000 0.000000 0.000000 0.015637 0.000000 0.032722
#
#
# Mechanical properties :
#
#
# Convention : Reuss Voigt Hill
#
# Bulk Modulus (GPa) = 24.35748 48.21396 36.28572
# Shear Modulus (GPa) = 16.22883 -12.10111 2.06386
#
# Velocity S-wave (km/s) = 2.93434 -2.53384 1.04642
# Velocity P-wave (km/s) = 4.94000 4.12552 4.55101
#
# Compressibility (1/GPa) = 0.04105515
#
# Stress axis : x y z
#
# Youngs Moduli (GPa) = 36.61656 26.04221 18.32717
#
# Poissons Ratio (x) = 0.49403 -0.03064
# Poissons Ratio (y) = 0.69462 0.40889
# Poissons Ratio (z) = -0.06122 0.58102
#
# Static dielectric constant tensor:
#      x y z
#    x 1.632100 0.000000 -0.000200 
#    y 0.000000 1.624040 0.000000 
#    z -0.000200 0.000000 1.654010 
# 
# From -- ./inp_files/49157.got.cif
#   From: 2010.05.17/outbox.cif.g08.bks.cpg/sg10_25_cif.got.tgz:49157.got - 2010.06.03 11:33:40.
