data_PCOD9149471
_publ_section_title
;
Structure prediction by ZEFSAII (Michael W. Deem and Ramdas Pophale) SiO2 
 PCOD9149471
Probable space group: P 2/M
;
_chemical_formula_sum "Si O2"
_cell_formula_units_Z 32
_cell_length_a 15.734034
_cell_length_b 7.581904
_cell_length_c 25.223725
_cell_angle_alpha 90.000000
_cell_angle_beta 28.021727
_cell_angle_gamma 90.000000
_cell_volume 1413.664885
_symmetry_space_group_name_H-M "P 2/M"
_symmetry_group_IT_number 10
_symmetry_cell_setting 'monoclinic'
loop_
_space_group_symop_operation_xyz
x,y,z
-x,y,-z
-x,-y,-z
x,-y,z
loop_
_atom_site_type_symbol
_atom_site_label
_atom_site_fract_x
_atom_site_fract_y
_atom_site_fract_z
Si Si1 0.470301 0.790003 0.258619
Si Si2 0.876611 0.783633 0.019436
Si Si3 0.312074 0.203107 0.081922
Si Si4 0.862808 0.213668 0.623039
Si Si5 0.046435 0.210609 0.140610
Si Si6 0.637300 0.712280 0.379067
Si Si7 0.383092 0.287262 0.427628
Si Si8 0.988238 0.296889 0.670600
O O1 0.672237 0.722358 0.141082
O O2 0.331239 0.723605 0.291109
O O3 0.399433 0.761409 0.357207
O O4 0.477619 0.000000 0.246876
O O5 0.878674 0.000000 0.018639
O O6 0.000000 0.725041 0.000000
O O7 0.944599 0.724227 0.924576
O O8 0.160276 0.204573 0.211329
O O9 0.207127 0.282467 0.089171
O O10 0.356809 0.000000 0.043137
O O11 0.500000 0.282952 0.000000
O O12 0.923511 0.289448 0.645424
O O13 0.000000 0.257272 0.500000
O O14 0.863049 0.000000 0.628462
O O15 0.845188 0.240129 0.273370
O O16 0.071715 0.000000 0.125004
O O17 0.500000 0.775214 0.500000
O O18 0.630719 0.500000 0.382887
O O19 0.553591 0.773072 0.368865
O O20 0.376892 0.500000 0.433111
O O21 0.192992 0.224217 0.557221
O O22 0.995542 0.500000 0.684670
#
# Coordination Sequence:
#
# PCOD9149471 Si02
#       8
#     4   4   4   4   4   4   4   4
#     4  10  20  34  57  83 110 149 190 232 283 343
#     4   9  18  33  55  84 115 145 182 231 283 335
#     4  10  23  41  62  85 113 152 196 245 293 342
#     4  10  20  35  56  85 117 151 191 237 289 344
#     4  10  21  38  60  87 115 147 191 240 287 339
#     4  10  21  38  59  81 111 150 188 229 287 347
#     4  10  21  36  55  82 115 150 186 234 288 343
#     4  11  23  38  59  84 116 154 194 241 290 344
#
# _framework density 22.636199000000001
#
# number of rings (size 3 to 8) (size 9 to 14) (size 15 to 20)
#    0.000    2.000    1.250    1.875    1.750    4.750 
#    0.000    0.625    0.000    2.250    0.000    0.000 
#    0.000    0.000    0.000    0.000    0.000    0.000 
#
# Total GULP energy -178853.723574 kJ/mol
# GULP energy per Si atom -5589.178862 kJ/mol
# Density = 2.258468 g / cm^3
# Si number density = 22.636199 Si / 1000 Ang^3
#
#
#
# Elastic Constant Matrix: (Units=GPa)
#
#
# Indices 1 2 3 4 5 6 
#
# 1 148.0819 1.9518 46.6054 0.0000 -24.7222 0.0000
# 2 1.9518 49.1172 -2.2610 0.0000 -5.3657 0.0000
# 3 46.6054 -2.2610 117.0200 0.0000 -23.2492 0.0000
# 4 0.0000 0.0000 0.0000 -81.6573 0.0000 -94.7658
# 5 -24.7222 -5.3657 -23.2492 0.0000 46.2370 0.0000
# 6 0.0000 0.0000 0.0000 -94.7658 0.0000 -87.8422
#
#
#
# Elastic Compliance Matrix: (Units=1/GPa)
#
#
# Indices 1 2 3 4 5 6 
#
# 1 0.008080 -0.000116 -0.002627 0.000000 0.002986 0.000000
# 2 -0.000116 0.020722 0.001013 0.000000 0.002852 0.000000
# 3 -0.002627 0.001013 0.010394 0.000000 0.003939 0.000000
# 4 0.000000 0.000000 0.000000 0.048596 0.000000 -0.052427
# 5 0.002986 0.002852 0.003939 0.000000 0.025536 0.000000
# 6 0.000000 0.000000 0.000000 -0.052427 0.000000 0.045175
#
#
# Mechanical properties :
#
#
# Convention : Reuss Voigt Hill
#
# Bulk Modulus (GPa) = 27.98219 45.20125 36.59172
# Shear Modulus (GPa) = 28.75632 -6.79098 10.98267
#
# Velocity S-wave (km/s) = 3.56809 -1.73395 2.20507
# Velocity P-wave (km/s) = 5.41882 4.00040 4.76271
#
# Compressibility (1/GPa) = 0.03573702
#
# Stress axis : x y z
#
# Youngs Moduli (GPa) = 123.76547 48.25714 96.20908
#
# Poissons Ratio (x) = 0.00559 0.25274
# Poissons Ratio (y) = 0.01433 -0.09748
# Poissons Ratio (z) = 0.32513 -0.04889
#
# Static dielectric constant tensor:
#      x y z
#    x 1.835350 0.000000 -0.020910 
#    y 0.000000 1.844230 0.000000 
#    z -0.020910 0.000000 1.806240 
# 
# From -- ./inp_files/71688.got.cif
#   From: 2010.05.17/outbox.cif.g08.bks.cpg/sg10_36_cif.got.tgz:71688.got - 2010.06.03 11:33:40.
