data_PCOD9149937
_publ_section_title
;
Structure prediction by ZEFSAII (Michael W. Deem and Ramdas Pophale) SiO2 
 PCOD9149937
Probable space group: P 2/M
;
_chemical_formula_sum "Si O2"
_cell_formula_units_Z 32
_cell_length_a 20.507304
_cell_length_b 8.796603
_cell_length_c 25.629661
_cell_angle_alpha 90.000000
_cell_angle_beta 21.427372
_cell_angle_gamma 90.000000
_cell_volume 1689.046866
_symmetry_space_group_name_H-M "P 2/M"
_symmetry_group_IT_number 10
_symmetry_cell_setting 'monoclinic'
loop_
_space_group_symop_operation_xyz
x,y,z
-x,y,-z
-x,-y,-z
x,-y,z
loop_
_atom_site_type_symbol
_atom_site_label
_atom_site_fract_x
_atom_site_fract_y
_atom_site_fract_z
Si Si1 0.784169 0.326530 0.468478
Si Si2 0.042200 0.180986 0.563944
Si Si3 0.088809 0.178188 0.986874
Si Si4 0.380012 0.316418 0.251578
Si Si5 0.239246 0.321072 0.727285
Si Si6 0.373370 0.816348 0.143303
Si Si7 0.592805 0.679140 0.512277
Si Si8 0.408271 0.328926 0.808547
O O1 0.854121 0.500000 0.410621
O O2 0.907943 0.230705 0.414422
O O3 0.726454 0.257205 0.455927
O O4 0.595514 0.336135 0.638926
O O5 0.188240 0.256847 0.416351
O O6 0.836042 0.223683 0.708440
O O7 0.059119 0.000000 0.545145
O O8 0.269365 0.244365 0.875473
O O9 0.112716 0.000000 0.961588
O O10 0.000000 0.244400 0.000000
O O11 0.934328 0.219377 0.142566
O O12 0.374773 0.500000 0.256922
O O13 0.421684 0.257110 0.162882
O O14 0.532903 0.264813 0.178982
O O15 0.201529 0.500000 0.766270
O O16 0.322562 0.314477 0.607793
O O17 0.390473 0.263394 0.655518
O O18 0.384711 0.000000 0.138987
O O19 0.500000 0.771249 0.000000
O O20 0.573223 0.500000 0.540687
O O21 0.338765 0.500000 0.867995
#
# Coordination Sequence:
#
# PCOD9149937 Si02
#       8
#     4   4   4   4   4   4   4   4
#     4   9  17  32  54  80 107 133 171 224 270 309
#     4  10  20  35  57  84 112 146 188 222 266 331
#     4  11  23  35  48  73 107 140 177 222 269 313
#     4  10  21  38  61  87 112 141 185 238 282 324
#     4   9  17  32  53  73  97 133 177 217 262 322
#     4  10  22  40  59  82 116 154 187 221 269 334
#     4   8  15  30  53  77  99 131 173 218 267 316
#     4   9  19  35  55  79 105 136 177 219 265 320
#
# _framework density 18.945596999999999
#
# number of rings (size 3 to 8) (size 9 to 14) (size 15 to 20)
#    0.000    2.500    0.000    3.750    0.000    7.250 
#    2.250    2.500    0.000    0.000    0.000    0.000 
#    0.000    0.000    0.000    0.000    0.000    0.000 
#
# Total GULP energy -178282.722225 kJ/mol
# GULP energy per Si atom -5571.335070 kJ/mol
# Density = 1.890248 g / cm^3
# Si number density = 18.945597 Si / 1000 Ang^3
#
#
#
# Elastic Constant Matrix: (Units=GPa)
#
#
# Indices 1 2 3 4 5 6 
#
# 1 153.4547 35.6952 40.7196 0.0000 -7.7311 0.0000
# 2 35.6952 25.7537 21.0115 0.0000 -9.0556 0.0000
# 3 40.7196 21.0115 49.4814 0.0000 -10.6026 0.0000
# 4 0.0000 0.0000 0.0000 20.2401 0.0000 -1.3881
# 5 -7.7311 -9.0556 -10.6026 0.0000 25.6457 0.0000
# 6 0.0000 0.0000 0.0000 -1.3881 0.0000 27.7624
#
#
#
# Elastic Compliance Matrix: (Units=1/GPa)
#
#
# Indices 1 2 3 4 5 6 
#
# 1 0.010182 -0.011877 -0.003925 0.000000 -0.002747 0.000000
# 2 -0.011877 0.076571 -0.019436 0.000000 0.015422 0.000000
# 3 -0.003925 -0.019436 0.032881 0.000000 0.005548 0.000000
# 4 0.000000 0.000000 0.000000 0.049577 0.000000 0.002479
# 5 -0.002747 0.015422 0.005548 0.000000 0.045904 0.000000
# 6 0.000000 0.000000 0.000000 0.002479 0.000000 0.036144
#
#
# Mechanical properties :
#
#
# Convention : Reuss Voigt Hill
#
# Bulk Modulus (GPa) = 20.34212 47.06026 33.70119
# Shear Modulus (GPa) = 14.78761 23.48053 19.13407
#
# Velocity S-wave (km/s) = 2.79683 3.52428 3.18142
# Velocity P-wave (km/s) = 4.60327 6.43851 5.59663
#
# Compressibility (1/GPa) = 0.04915909
#
# Stress axis : x y z
#
# Youngs Moduli (GPa) = 98.21019 13.05979 30.41240
#
# Poissons Ratio (x) = 0.15511 0.11935
# Poissons Ratio (y) = 1.16642 0.59111
# Poissons Ratio (z) = 0.38543 0.25384
#
# Static dielectric constant tensor:
#      x y z
#    x 1.720160 0.000000 0.004610 
#    y 0.000000 1.663670 0.000000 
#    z 0.004610 0.000000 1.671230 
# 
# From -- ./inp_files/93682.got.cif
#   From: 2010.05.17/outbox.cif.g08.bks.cpg/sg10_47_cif.got.tgz:93682.got - 2010.06.03 11:33:40.
