data_PCOD9149683
_publ_section_title
;
Structure prediction by ZEFSAII (Michael W. Deem and Ramdas Pophale) SiO2 
 PCOD9149683
Probable space group: P 2/M
;
_chemical_formula_sum "Si O2"
_cell_formula_units_Z 28
_cell_length_a 7.956414
_cell_length_b 13.286956
_cell_length_c 13.212351
_cell_angle_alpha 90.000000
_cell_angle_beta 57.439803
_cell_angle_gamma 90.000000
_cell_volume 1177.229513
_symmetry_space_group_name_H-M "P 2/M"
_symmetry_group_IT_number 10
_symmetry_cell_setting 'monoclinic'
loop_
_space_group_symop_operation_xyz
x,y,z
-x,y,-z
-x,-y,-z
x,-y,z
loop_
_atom_site_type_symbol
_atom_site_label
_atom_site_fract_x
_atom_site_fract_y
_atom_site_fract_z
Si Si1 0.805758 0.894690 0.993836
Si Si2 0.884652 0.889382 0.732436
Si Si3 0.244406 0.387165 0.755219
Si Si4 0.716655 0.329488 0.035319
Si Si5 0.728648 0.607483 0.592592
Si Si6 0.737667 0.772738 0.426201
Si Si7 0.739197 0.332582 0.802308
O O1 0.692939 0.791579 0.046471
O O2 0.693728 0.000000 0.050002
O O3 0.879840 0.896934 0.855340
O O4 0.000000 0.891146 0.000000
O O5 0.761045 0.785103 0.760724
O O6 0.109443 0.864891 0.624276
O O7 0.818815 0.000000 0.714486
O O8 0.178331 0.500000 0.748088
O O9 0.188807 0.363715 0.889734
O O10 0.487472 0.389652 0.676444
O O11 0.203571 0.298033 0.688877
O O12 0.490134 0.366672 0.111408
O O13 0.814721 0.350222 0.893292
O O14 0.779330 0.500000 0.528316
O O15 0.779430 0.703643 0.509787
O O16 0.814225 0.612113 0.678184
O O17 0.500000 0.795833 0.500000
#
# Coordination Sequence:
#
# PCOD9149683 Si02
#       7
#     4   4   4   4   4   4   4
#     4   9  17  30  51  77 103 134 170 210 258 307
#     4  10  21  36  53  74 104 138 171 215 263 303
#     4   9  17  31  54  81 105 132 168 210 258 306
#     4   9  17  31  53  78 106 138 168 205 250 304
#     4   9  18  34  55  76 101 136 174 211 252 301
#     4  10  20  35  55  77 101 132 174 218 258 304
#     4   9  19  34  51  76 107 138 173 206 246 304
#
# _framework density 23.784656999999999
#
# number of rings (size 3 to 8) (size 9 to 14) (size 15 to 20)
#    0.000    2.714    0.000    1.286    0.000    3.714 
#    0.000    9.286    0.000   14.143    0.000    0.000 
#    0.000    0.000    0.000    0.000    0.000    0.000 
#
# Total GULP energy -156198.433985 kJ/mol
# GULP energy per Si atom -5578.515499 kJ/mol
# Density = 2.373052 g / cm^3
# Si number density = 23.784657 Si / 1000 Ang^3
#
#
#
# Elastic Constant Matrix: (Units=GPa)
#
#
# Indices 1 2 3 4 5 6 
#
# 1 51.0157 -1.3231 33.6527 0.0000 -0.7668 0.0000
# 2 -1.3231 93.1837 11.1877 0.0000 5.3193 0.0000
# 3 33.6527 11.1877 73.8998 0.0000 -0.4104 0.0000
# 4 0.0000 0.0000 0.0000 -233.8792 0.0000 425.2731
# 5 -0.7668 5.3193 -0.4104 0.0000 47.8109 0.0000
# 6 0.0000 0.0000 0.0000 425.2731 0.0000 -674.5179
#
#
#
# Elastic Compliance Matrix: (Units=1/GPa)
#
#
# Indices 1 2 3 4 5 6 
#
# 1 0.028377 0.001983 -0.013222 0.000000 0.000121 0.000000
# 2 0.001983 0.011142 -0.002597 0.000000 -0.001230 0.000000
# 3 -0.013222 -0.002597 0.019947 0.000000 0.000248 0.000000
# 4 0.000000 0.000000 0.000000 0.029198 0.000000 0.018409
# 5 0.000121 -0.001230 0.000248 0.000000 0.021057 0.000000
# 6 0.000000 0.000000 0.000000 0.018409 0.000000 0.010124
#
#
# Mechanical properties :
#
#
# Convention : Reuss Voigt Hill
#
# Bulk Modulus (GPa) = 31.45113 33.90378 32.67745
# Shear Modulus (GPa) = 31.62279 -160.47843 -64.42782
#
# Velocity S-wave (km/s) = 3.65025 -8.22301 -5.21026
# Velocity P-wave (km/s) = 5.56936 8.71044 4.73572
#
# Compressibility (1/GPa) = 0.03179536
#
# Stress axis : x y z
#
# Youngs Moduli (GPa) = 35.23980 89.75334 50.13178
#
# Poissons Ratio (x) = -0.17802 0.66284
# Poissons Ratio (y) = -0.06990 0.13018
# Poissons Ratio (z) = 0.46594 0.23307
#
# Static dielectric constant tensor:
#      x y z
#    x 1.943350 0.000000 -0.016320 
#    y 0.000000 1.926250 0.000000 
#    z -0.016320 0.000000 1.891810 
# 
# From -- ./inp_files/42887.got.cif
#   From: 2010.05.17/outbox.cif.g08.bks.cpg/sg10_22_cif.got.tgz:42887.got - 2010.06.03 11:33:40.
