data_PCOD9150035
_publ_section_title
;
Structure prediction by ZEFSAII (Michael W. Deem and Ramdas Pophale) SiO2 
 PCOD9150035
Probable space group: P 2/M
;
_chemical_formula_sum "Si O2"
_cell_formula_units_Z 32
_cell_length_a 11.877565
_cell_length_b 7.554031
_cell_length_c 15.884151
_cell_angle_alpha 90.000000
_cell_angle_beta 96.176694
_cell_angle_gamma 90.000000
_cell_volume 1416.908084
_symmetry_space_group_name_H-M "P 2/M"
_symmetry_group_IT_number 10
_symmetry_cell_setting 'monoclinic'
loop_
_space_group_symop_operation_xyz
x,y,z
-x,y,-z
-x,-y,-z
x,-y,z
loop_
_atom_site_type_symbol
_atom_site_label
_atom_site_fract_x
_atom_site_fract_y
_atom_site_fract_z
Si Si1 0.829795 0.204735 0.040694
Si Si2 0.994229 0.703767 0.199883
Si Si3 0.582376 0.715584 0.083284
Si Si4 0.460556 0.297715 0.239023
Si Si5 0.224337 0.202518 0.147609
Si Si6 0.585766 0.716956 0.580853
Si Si7 0.929771 0.714784 0.371046
Si Si8 0.826851 0.715611 0.531937
O O1 0.922389 0.287032 0.109041
O O2 0.708054 0.220699 0.074610
O O3 0.863345 0.000000 0.033770
O O4 0.813616 0.279754 0.945641
O O5 0.022381 0.500000 0.220046
O O6 0.921985 0.772210 0.273628
O O7 0.114298 0.795725 0.197079
O O8 0.583109 0.500000 0.083890
O O9 0.534304 0.779374 0.168887
O O10 0.500000 0.769666 0.000000
O O11 0.500833 0.500000 0.252204
O O12 0.331302 0.298443 0.195664
O O13 0.456140 0.217884 0.331633
O O14 0.261020 0.000000 0.135886
O O15 0.500000 0.765668 0.500000
O O16 0.588774 0.500000 0.585082
O O17 0.712585 0.776248 0.567491
O O18 0.921151 0.500000 0.371971
O O19 0.843138 0.775578 0.436244
O O20 0.056706 0.763035 0.411565
O O21 0.823281 0.500000 0.531578
#
# Coordination Sequence:
#
# PCOD9150035 Si02
#       8
#     4   4   4   4   4   4   4   4
#     4  11  24  39  55  77 109 148 186 224 271 329
#     4  11  22  35  55  83 113 142 179 226 278 327
#     4  10  20  36  58  83 110 139 179 231 278 319
#     4  10  20  35  58  85 111 142 184 230 276 324
#     4  11  23  38  56  78 108 145 186 227 271 329
#     4   9  17  28  46  77 112 140 169 216 273 321
#     4   8  15  27  46  74 103 134 170 214 265 316
#     4   8  13  25  45  70 104 137 168 209 262 319
#
# _framework density 22.584387
#
# number of rings (size 3 to 8) (size 9 to 14) (size 15 to 20)
#    0.000    2.250    1.250    3.000    0.000    6.750 
#    0.000    3.750    0.000    0.375    0.000   20.125 
#    0.000    0.000    0.000    0.000    0.000    0.000 
#
# Total GULP energy -178764.371978 kJ/mol
# GULP energy per Si atom -5586.386624 kJ/mol
# Density = 2.253298 g / cm^3
# Si number density = 22.584387 Si / 1000 Ang^3
#
#
#
# Elastic Constant Matrix: (Units=GPa)
#
#
# Indices 1 2 3 4 5 6 
#
# 1 56.9949 -4.8335 13.4725 0.0000 -22.3182 0.0000
# 2 -4.8335 54.8431 4.3166 0.0000 -2.9793 0.0000
# 3 13.4725 4.3166 151.6439 0.0000 -24.8047 0.0000
# 4 0.0000 0.0000 0.0000 -46.8133 0.0000 -44.7569
# 5 -22.3182 -2.9793 -24.8047 0.0000 31.3770 0.0000
# 6 0.0000 0.0000 0.0000 -44.7569 0.0000 -20.9654
#
#
#
# Elastic Compliance Matrix: (Units=1/GPa)
#
#
# Indices 1 2 3 4 5 6 
#
# 1 0.024927 0.003150 0.000741 0.000000 0.018615 0.000000
# 2 0.003150 0.018736 -0.000179 0.000000 0.003878 0.000000
# 3 0.000741 -0.000179 0.007600 0.000000 0.006518 0.000000
# 4 0.000000 0.000000 0.000000 0.020520 0.000000 -0.043805
# 5 0.018615 0.003878 0.006518 0.000000 0.050632 0.000000
# 6 0.000000 0.000000 0.000000 -0.043805 0.000000 0.045818
#
#
# Mechanical properties :
#
#
# Convention : Reuss Voigt Hill
#
# Bulk Modulus (GPa) = 17.03990 32.15482 24.59736
# Shear Modulus (GPa) = 27.72062 9.42139 18.57101
#
# Velocity S-wave (km/s) = 3.50726 2.04468 2.87068
# Velocity P-wave (km/s) = 4.89516 4.45453 4.68003
#
# Compressibility (1/GPa) = 0.05868580
#
# Stress axis : x y z
#
# Youngs Moduli (GPa) = 40.11767 53.37271 131.58218
#
# Poissons Ratio (x) = -0.16811 -0.09745
# Poissons Ratio (y) = -0.12636 0.02353
# Poissons Ratio (z) = -0.02971 0.00954
#
# Static dielectric constant tensor:
#      x y z
#    x 1.768910 0.000000 -0.028740 
#    y 0.000000 1.858960 0.000000 
#    z -0.028740 0.000000 1.864670 
# 
# From -- ./inp_files/58184.got.cif
#   From: 2010.05.17/outbox.cif.g08.bks.cpg/sg10_30_cif.got.tgz:58184.got - 2010.06.03 11:33:40.
