data_PCOD9150979
_publ_section_title
;
Structure prediction by ZEFSAII (Michael W. Deem and Ramdas Pophale) SiO2 
 PCOD9150979
Probable space group: P 2/M
;
_chemical_formula_sum "Si O2"
_cell_formula_units_Z 20
_cell_length_a 12.595129
_cell_length_b 7.567035
_cell_length_c 12.429946
_cell_angle_alpha 90.000000
_cell_angle_beta 47.351847
_cell_angle_gamma 90.000000
_cell_volume 871.358339
_symmetry_space_group_name_H-M "P 2/M"
_symmetry_group_IT_number 10
_symmetry_cell_setting 'monoclinic'
loop_
_space_group_symop_operation_xyz
x,y,z
-x,y,-z
-x,-y,-z
x,-y,z
loop_
_atom_site_type_symbol
_atom_site_label
_atom_site_fract_x
_atom_site_fract_y
_atom_site_fract_z
Si Si1 0.371632 0.702063 0.247348
Si Si2 0.861803 0.207050 0.158242
Si Si3 0.869769 0.285718 0.749608
Si Si4 0.313704 0.286235 0.921554
Si Si5 0.810239 0.204878 0.431701
O O1 0.390589 0.500000 0.196207
O O2 0.249866 0.779624 0.252762
O O3 0.531460 0.780029 0.143245
O O4 0.303855 0.703544 0.412576
O O5 0.729793 0.222749 0.166398
O O6 0.827452 0.281032 0.299527
O O7 0.894565 0.000000 0.154536
O O8 0.000000 0.284942 0.000000
O O9 0.878356 0.500000 0.735998
O O10 0.030900 0.217450 0.624946
O O11 0.810008 0.236681 0.908417
O O12 0.319512 0.500000 0.914321
O O13 0.766660 0.000000 0.454614
#
# Coordination Sequence:
#
# PCOD9150979 Si02
#       5
#     4   4   4   4   4
#     4  10  22  39  57  84 120 150 181 229 286 335
#     4  10  21  39  59  80 112 150 188 233 282 330
#     4  10  20  37  61  85 113 150 188 229 279 333
#     4  10  21  37  61  88 112 145 190 234 276 332
#     4  11  23  38  58  84 114 150 191 233 277 331
#
# _framework density 22.952670999999999
#
# number of rings (size 3 to 8) (size 9 to 14) (size 15 to 20)
#    0.000    1.800    2.000    1.800    0.000    9.200 
#    0.000    4.000    0.000    3.600    0.000    0.000 
#    0.000    0.000    0.000    0.000    0.000    0.000 
#
# Total GULP energy -111806.543836 kJ/mol
# GULP energy per Si atom -5590.327192 kJ/mol
# Density = 2.290043 g / cm^3
# Si number density = 22.952671 Si / 1000 Ang^3
#
#
#
# Elastic Constant Matrix: (Units=GPa)
#
#
# Indices 1 2 3 4 5 6 
#
# 1 52.8205 -9.7649 -10.9825 0.0000 8.3293 0.0000
# 2 -9.7649 58.5618 -3.8274 0.0000 2.1848 0.0000
# 3 -10.9825 -3.8274 58.1211 0.0000 -0.2766 0.0000
# 4 0.0000 0.0000 0.0000 -4.3531 0.0000 10.0379
# 5 8.3293 2.1848 -0.2766 0.0000 41.2630 0.0000
# 6 0.0000 0.0000 0.0000 10.0379 0.0000 22.1871
#
#
#
# Elastic Compliance Matrix: (Units=1/GPa)
#
#
# Indices 1 2 3 4 5 6 
#
# 1 0.021261 0.003990 0.004259 0.000000 -0.004474 0.000000
# 2 0.003990 0.017932 0.001927 0.000000 -0.001742 0.000000
# 3 0.004259 0.001927 0.018133 0.000000 -0.000840 0.000000
# 4 0.000000 0.000000 0.000000 -0.112430 0.000000 0.050866
# 5 -0.004474 -0.001742 -0.000840 0.000000 0.025225 0.000000
# 6 0.000000 0.000000 0.000000 0.050866 0.000000 0.022058
#
#
# Mechanical properties :
#
#
# Convention : Reuss Voigt Hill
#
# Bulk Modulus (GPa) = 12.87363 13.37263 13.12313
# Shear Modulus (GPa) = -2193.35894 24.75796 -1084.30049
#
# Velocity S-wave (km/s) = -30.94633 3.28785 -21.75851
# Velocity P-wave (km/s) = 35.65501 4.50023 25.01027
#
# Compressibility (1/GPa) = 0.07767817
#
# Stress axis : x y z
#
# Youngs Moduli (GPa) = 47.03478 55.76536 55.14783
#
# Poissons Ratio (x) = -0.22253 -0.23487
# Poissons Ratio (y) = -0.18769 -0.10625
# Poissons Ratio (z) = -0.20032 -0.10744
#
# Static dielectric constant tensor:
#      x y z
#    x 1.852120 0.000000 0.022050 
#    y 0.000000 1.835060 0.000000 
#    z 0.022050 0.000000 1.827270 
# 
# From -- ./inp_files/22144.got.cif
#   From: 2010.05.17/outbox.cif.g08.bks.cpg/sg10_12_cif.got.tgz:22144.got - 2010.06.03 11:33:40.
