data_PCOD9150565
_publ_section_title
;
Structure prediction by ZEFSAII (Michael W. Deem and Ramdas Pophale) SiO2 
 PCOD9150565
Probable space group: P 2/M
;
_chemical_formula_sum "Si O2"
_cell_formula_units_Z 24
_cell_length_a 12.343177
_cell_length_b 7.644593
_cell_length_c 12.143456
_cell_angle_alpha 90.000000
_cell_angle_beta 89.086643
_cell_angle_gamma 90.000000
_cell_volume 1145.693490
_symmetry_space_group_name_H-M "P 2/M"
_symmetry_group_IT_number 10
_symmetry_cell_setting 'monoclinic'
loop_
_space_group_symop_operation_xyz
x,y,z
-x,y,-z
-x,-y,-z
x,-y,z
loop_
_atom_site_type_symbol
_atom_site_label
_atom_site_fract_x
_atom_site_fract_y
_atom_site_fract_z
Si Si1 0.903776 0.285750 0.083122
Si Si2 0.507872 0.800661 0.825057
Si Si3 0.169602 0.286238 0.453756
Si Si4 0.587463 0.293516 0.584145
Si Si5 0.328617 0.299022 0.993820
Si Si6 0.959503 0.713318 0.327877
O O1 0.900663 0.500000 0.085432
O O2 0.787662 0.227537 0.039019
O O3 0.926924 0.226996 0.207220
O O4 0.000000 0.234224 0.000000
O O5 0.543479 0.726061 0.708030
O O6 0.409208 0.705670 0.887994
O O7 0.473984 0.000000 0.810263
O O8 0.608324 0.793595 0.908404
O O9 0.170068 0.500000 0.451050
O O10 0.290698 0.222124 0.429390
O O11 0.124026 0.234998 0.574480
O O12 0.079165 0.231578 0.366097
O O13 0.500000 0.218785 0.500000
O O14 0.597003 0.500000 0.559195
O O15 0.314874 0.500000 0.029776
O O16 0.959739 0.500000 0.326092
#
# Coordination Sequence:
#
# PCOD9150565 Si02
#       6
#     4   4   4   4   4   4
#     4   9  18  28  47  82 116 139 167 221 280 328
#     4  11  23  39  57  77 110 151 189 225 277 335
#     4   8  15  27  46  73 106 141 170 213 269 322
#     4  10  21  34  55  85 112 138 181 234 278 320
#     4  10  20  36  60  85 110 141 185 233 278 322
#     4   8  14  26  44  71 108 142 170 205 268 330
#
# _framework density 20.948011999999999
#
# number of rings (size 3 to 8) (size 9 to 14) (size 15 to 20)
#    0.000    2.667    0.000    4.000    4.667    0.333 
#    0.000    0.000    0.000    2.000    0.000    2.333 
#    0.000    0.000    0.000    0.000    0.000    0.000 
#
# Total GULP energy -133989.346456 kJ/mol
# GULP energy per Si atom -5582.889436 kJ/mol
# Density = 2.090033 g / cm^3
# Si number density = 20.948012 Si / 1000 Ang^3
#
#
#
# Elastic Constant Matrix: (Units=GPa)
#
#
# Indices 1 2 3 4 5 6 
#
# 1 164.6839 -5.5456 86.4557 0.0000 6.7341 0.0000
# 2 -5.5456 37.4335 -26.0842 0.0000 3.9899 0.0000
# 3 86.4557 -26.0842 105.9833 0.0000 5.2392 0.0000
# 4 0.0000 0.0000 0.0000 14.2274 0.0000 40.1187
# 5 6.7341 3.9899 5.2392 0.0000 14.7103 0.0000
# 6 0.0000 0.0000 0.0000 40.1187 0.0000 -11.6820
#
#
#
# Elastic Compliance Matrix: (Units=1/GPa)
#
#
# Indices 1 2 3 4 5 6 
#
# 1 0.011604 -0.005918 -0.010932 0.000000 0.000186 0.000000
# 2 -0.005918 0.037400 0.014658 0.000000 -0.012656 0.000000
# 3 -0.010932 0.014658 0.022303 0.000000 -0.006915 0.000000
# 4 0.000000 0.000000 0.000000 0.006579 0.000000 0.022593
# 5 0.000186 -0.012656 -0.006915 0.000000 0.073789 0.000000
# 6 0.000000 0.000000 0.000000 0.022593 0.000000 -0.008012
#
#
# Mechanical properties :
#
#
# Convention : Reuss Voigt Hill
#
# Bulk Modulus (GPa) = 14.94251 46.41695 30.67973
# Shear Modulus (GPa) = 29.35033 20.33613 24.84323
#
# Velocity S-wave (km/s) = 3.74719 3.11913 3.44749
# Velocity P-wave (km/s) = 5.08631 5.93112 5.52489
#
# Compressibility (1/GPa) = 0.06692316
#
# Stress axis : x y z
#
# Youngs Moduli (GPa) = 86.17355 26.73775 44.83735
#
# Poissons Ratio (x) = 0.15825 0.49017
# Poissons Ratio (y) = 0.51001 -0.65724
# Poissons Ratio (z) = 0.94206 -0.39193
#
# Static dielectric constant tensor:
#      x y z
#    x 1.736650 0.000000 0.010220 
#    y 0.000000 1.766310 0.000000 
#    z 0.010220 0.000000 1.705000 
# 
# From -- ./inp_files/45164.got.cif
#   From: 2010.05.17/outbox.cif.g08.bks.cpg/sg10_23_cif.got.tgz:45164.got - 2010.06.03 11:33:40.
