data_PCOD9150633
_publ_section_title
;
Structure prediction by ZEFSAII (Michael W. Deem and Ramdas Pophale) SiO2 
 PCOD9150633
Probable space group: P 2/M
;
_chemical_formula_sum "Si O2"
_cell_formula_units_Z 32
_cell_length_a 12.495061
_cell_length_b 14.100103
_cell_length_c 18.742689
_cell_angle_alpha 90.000000
_cell_angle_beta 26.870790
_cell_angle_gamma 90.000000
_cell_volume 1492.491221
_symmetry_space_group_name_H-M "P 2/M"
_symmetry_group_IT_number 10
_symmetry_cell_setting 'monoclinic'
loop_
_space_group_symop_operation_xyz
x,y,z
-x,y,-z
-x,-y,-z
x,-y,z
loop_
_atom_site_type_symbol
_atom_site_label
_atom_site_fract_x
_atom_site_fract_y
_atom_site_fract_z
Si Si1 0.784478 0.114970 0.177637
Si Si2 0.989926 0.710310 0.612131
Si Si3 0.969828 0.890048 0.224260
Si Si4 0.440504 0.387961 0.191879
Si Si5 0.500118 0.386462 0.312644
Si Si6 0.259741 0.611283 0.688855
Si Si7 0.751020 0.111424 0.510339
Si Si8 0.179645 0.293351 0.127615
O O1 0.518361 0.144455 0.315628
O O2 0.834717 0.132510 0.231218
O O3 0.781043 0.000000 0.172467
O O4 0.000000 0.150390 0.000000
O O5 0.805313 0.668619 0.665718
O O6 0.856651 0.699748 0.766950
O O7 0.235090 0.653627 0.475970
O O8 0.067905 0.819392 0.557449
O O9 0.186946 0.817739 0.103216
O O10 0.808390 0.877856 0.391201
O O11 0.041789 0.000000 0.178614
O O12 0.391984 0.500000 0.216505
O O13 0.573027 0.368355 0.187862
O O14 0.606511 0.353042 0.030120
O O15 0.484484 0.500000 0.331844
O O16 0.674732 0.352898 0.270947
O O17 0.500000 0.617493 0.500000
O O18 0.190237 0.500000 0.733729
O O19 0.055874 0.667675 0.770667
O O20 0.775827 0.000000 0.512427
#
# Coordination Sequence:
#
# PCOD9150633 Si02
#       8
#     4   4   4   4   4   4   4   4
#     4   9  17  30  51  82 120 159 197 244 301 356
#     4  11  22  38  64  87 118 161 212 250 293 356
#     4   9  19  35  54  80 119 162 204 245 295 360
#     4  11  25  43  62  89 121 157 205 257 307 364
#     4  10  22  40  62  87 118 158 199 242 301 372
#     4  10  20  36  60  90 123 154 192 244 308 375
#     4   9  19  35  57  86 119 159 208 253 294 351
#     4  11  23  37  61  92 123 156 201 253 314 359
#
# _framework density 21.440663000000001
#
# number of rings (size 3 to 8) (size 9 to 14) (size 15 to 20)
#    0.000    2.000    1.250    1.875    1.750    6.000 
#    0.000    2.500    0.000    4.500    0.000    0.000 
#    0.000    0.000    0.000    0.000    0.000    0.000 
#
# Total GULP energy -178828.638925 kJ/mol
# GULP energy per Si atom -5588.394966 kJ/mol
# Density = 2.139186 g / cm^3
# Si number density = 21.440663 Si / 1000 Ang^3
#
#
#
# Elastic Constant Matrix: (Units=GPa)
#
#
# Indices 1 2 3 4 5 6 
#
# 1 83.9386 35.9904 12.7831 0.0000 -7.8069 0.0000
# 2 35.9904 74.5764 28.6458 0.0000 -1.3546 0.0000
# 3 12.7831 28.6458 56.4676 0.0000 3.3774 0.0000
# 4 0.0000 0.0000 0.0000 21.5044 0.0000 -4.0073
# 5 -7.8069 -1.3546 3.3774 0.0000 19.0529 0.0000
# 6 0.0000 0.0000 0.0000 -4.0073 0.0000 27.0815
#
#
#
# Elastic Compliance Matrix: (Units=1/GPa)
#
#
# Indices 1 2 3 4 5 6 
#
# 1 0.015655 -0.007391 -0.000149 0.000000 0.005916 0.000000
# 2 -0.007391 0.020283 -0.008613 0.000000 -0.000059 0.000000
# 3 -0.000149 -0.008613 0.022390 0.000000 -0.004642 0.000000
# 4 0.000000 0.000000 0.000000 0.047821 0.000000 0.007076
# 5 0.005916 -0.000059 -0.004642 0.000000 0.055728 0.000000
# 6 0.000000 0.000000 0.000000 0.007076 0.000000 0.037973
#
#
# Mechanical properties :
#
#
# Convention : Reuss Voigt Hill
#
# Bulk Modulus (GPa) = 38.42624 41.09122 39.75873
# Shear Modulus (GPa) = 20.76171 22.69866 21.73018
#
# Velocity S-wave (km/s) = 3.11518 3.25726 3.18701
# Velocity P-wave (km/s) = 5.55879 5.77520 5.66803
#
# Compressibility (1/GPa) = 0.02602388
#
# Stress axis : x y z
#
# Youngs Moduli (GPa) = 63.87663 49.30237 44.66319
#
# Poissons Ratio (x) = 0.36438 0.00664
# Poissons Ratio (y) = 0.47209 0.38468
# Poissons Ratio (z) = 0.00949 0.42463
#
# Static dielectric constant tensor:
#      x y z
#    x 1.774650 0.000000 0.031960 
#    y 0.000000 1.800330 0.000000 
#    z 0.031960 0.000000 1.765260 
# 
# From -- ./inp_files/77004.got.cif
#   From: 2010.05.17/outbox.cif.g08.bks.cpg/sg10_39_cif.got.tgz:77004.got - 2010.06.03 11:33:40.
