data_PCOD9150055
_publ_section_title
;
Structure prediction by ZEFSAII (Michael W. Deem and Ramdas Pophale) SiO2 
 PCOD9150055
Probable space group: P 2/M
;
_chemical_formula_sum "Si O2"
_cell_formula_units_Z 32
_cell_length_a 25.684677
_cell_length_b 9.256079
_cell_length_c 10.705540
_cell_angle_alpha 90.000000
_cell_angle_beta 39.094199
_cell_angle_gamma 90.000000
_cell_volume 1604.951082
_symmetry_space_group_name_H-M "P 2/M"
_symmetry_group_IT_number 10
_symmetry_cell_setting 'monoclinic'
loop_
_space_group_symop_operation_xyz
x,y,z
-x,y,-z
-x,-y,-z
x,-y,z
loop_
_atom_site_type_symbol
_atom_site_label
_atom_site_fract_x
_atom_site_fract_y
_atom_site_fract_z
Si Si1 0.736225 0.667958 0.695628
Si Si2 0.460574 0.827666 0.441511
Si Si3 0.817154 0.668556 0.272873
Si Si4 0.983435 0.334842 0.847098
Si Si5 0.458196 0.673461 0.946702
Si Si6 0.265089 0.829050 0.801044
Si Si7 0.881428 0.829473 0.540260
Si Si8 0.872602 0.333203 0.801733
O O1 0.744506 0.500000 0.719872
O O2 0.776884 0.679653 0.482913
O O3 0.789812 0.771058 0.682895
O O4 0.639661 0.704110 0.869566
O O5 0.500000 0.781178 0.500000
O O6 0.499854 0.748001 0.250038
O O7 0.362424 0.803319 0.628047
O O8 0.474694 0.000000 0.402118
O O9 0.808694 0.500000 0.247013
O O10 0.769127 0.771857 0.267486
O O11 0.915250 0.699300 0.079556
O O12 0.013596 0.500000 0.807625
O O13 0.928916 0.329360 0.820831
O O14 0.058402 0.229040 0.680270
O O15 0.468457 0.500000 0.917751
O O16 0.500000 0.718772 0.000000
O O17 0.248968 0.000000 0.845073
O O18 0.213622 0.739422 0.998361
O O19 0.907748 0.755881 0.620838
O O20 0.884369 0.000000 0.542827
O O21 0.863637 0.500000 0.781686
#
# Coordination Sequence:
#
# PCOD9150055 Si02
#       8
#     4   4   4   4   4   4   4   4
#     4  10  22  40  61  86 117 154 196 243 296 353
#     4  10  23  40  58  86 126 165 200 244 302 369
#     4   9  19  38  63  86 112 151 197 244 291 346
#     4   9  19  37  60  85 112 150 195 239 291 350
#     4  10  22  41  66  94 121 154 205 262 307 358
#     4  10  20  35  58  87 118 153 192 239 293 350
#     4  12  25  37  54  83 120 157 192 241 296 347
#     4  10  21  38  61  85 114 153 197 242 289 350
#
# _framework density 19.938302
#
# number of rings (size 3 to 8) (size 9 to 14) (size 15 to 20)
#    0.000    2.000    0.000    3.750    1.750    8.000 
#    0.000    2.500    0.000    0.000    0.000    0.000 
#    0.000    0.000    0.000    0.000    0.000    0.000 
#
# Total GULP energy -178857.641631 kJ/mol
# GULP energy per Si atom -5589.301301 kJ/mol
# Density = 1.989292 g / cm^3
# Si number density = 19.938302 Si / 1000 Ang^3
#
#
#
# Elastic Constant Matrix: (Units=GPa)
#
#
# Indices 1 2 3 4 5 6 
#
# 1 82.2839 46.9816 43.8802 0.0000 -2.8677 0.0000
# 2 46.9816 98.6913 59.6919 0.0000 -8.7901 0.0000
# 3 43.8802 59.6919 116.6433 0.0000 -1.7891 0.0000
# 4 0.0000 0.0000 0.0000 12.6837 0.0000 -0.3589
# 5 -2.8677 -8.7901 -1.7891 0.0000 32.1471 0.0000
# 6 0.0000 0.0000 0.0000 -0.3589 0.0000 8.8406
#
#
#
# Elastic Compliance Matrix: (Units=1/GPa)
#
#
# Indices 1 2 3 4 5 6 
#
# 1 0.017564 -0.006363 -0.003357 0.000000 -0.000360 0.000000
# 2 -0.006363 0.017408 -0.006456 0.000000 0.003833 0.000000
# 3 -0.003357 -0.006456 0.013119 0.000000 -0.001335 0.000000
# 4 0.000000 0.000000 0.000000 0.078932 0.000000 0.003204
# 5 -0.000360 0.003833 -0.001335 0.000000 0.032049 0.000000
# 6 0.000000 0.000000 0.000000 0.003204 0.000000 0.113244
#
#
# Mechanical properties :
#
#
# Convention : Reuss Voigt Hill
#
# Bulk Modulus (GPa) = 63.53366 66.52510 65.02938
# Shear Modulus (GPa) = 16.13358 20.53862 18.33610
#
# Velocity S-wave (km/s) = 2.84769 3.21301 3.03585
# Velocity P-wave (km/s) = 6.53810 6.87041 6.70631
#
# Compressibility (1/GPa) = 0.01573969
#
# Stress axis : x y z
#
# Youngs Moduli (GPa) = 56.93624 57.44552 76.22430
#
# Poissons Ratio (x) = 0.36552 0.25585
# Poissons Ratio (y) = 0.36228 0.49210
# Poissons Ratio (z) = 0.19111 0.37086
#
# Static dielectric constant tensor:
#      x y z
#    x 1.723680 0.000000 0.006710 
#    y 0.000000 1.663970 0.000000 
#    z 0.006710 0.000000 1.700730 
# 
# From -- ./inp_files/58166.got.cif
#   From: 2010.05.17/outbox.cif.g08.bks.cpg/sg10_30_cif.got.tgz:58166.got - 2010.06.03 11:33:40.
