data_PCOD9150409
_publ_section_title
;
Structure prediction by ZEFSAII (Michael W. Deem and Ramdas Pophale) SiO2 
 PCOD9150409
Probable space group: P 2/M
;
_chemical_formula_sum "Si O2"
_cell_formula_units_Z 28
_cell_length_a 26.366058
_cell_length_b 7.708895
_cell_length_c 10.268810
_cell_angle_alpha 90.000000
_cell_angle_beta 140.429194
_cell_angle_gamma 90.000000
_cell_volume 1329.591493
_symmetry_space_group_name_H-M "P 2/M"
_symmetry_group_IT_number 10
_symmetry_cell_setting 'monoclinic'
loop_
_space_group_symop_operation_xyz
x,y,z
-x,y,-z
-x,-y,-z
x,-y,z
loop_
_atom_site_type_symbol
_atom_site_label
_atom_site_fract_x
_atom_site_fract_y
_atom_site_fract_z
Si Si1 0.809774 0.706853 0.874902
Si Si2 0.859335 0.205729 0.489364
Si Si3 0.567088 0.707597 0.731179
Si Si4 0.435269 0.209381 0.975908
Si Si5 0.263471 0.209523 0.538294
Si Si6 0.745437 0.709991 0.023724
Si Si7 0.975149 0.703072 0.091481
O O1 0.818502 0.500000 0.910174
O O2 0.750523 0.737766 0.637615
O O3 0.776558 0.774730 0.945681
O O4 0.895648 0.778394 0.998881
O O5 0.809031 0.272384 0.514341
O O6 0.806689 0.241400 0.258494
O O7 0.947399 0.282967 0.664874
O O8 0.868602 0.000000 0.521591
O O9 0.500000 0.776213 0.500000
O O10 0.570268 0.500000 0.719643
O O11 0.546029 0.741920 0.839280
O O12 0.656320 0.774478 0.879255
O O13 0.347125 0.271530 0.762087
O O14 0.434055 0.000000 0.967040
O O15 0.500000 0.272132 0.000000
O O16 0.263308 0.000000 0.544119
O O17 0.741975 0.500000 0.013521
O O18 0.957661 0.500000 0.033731
O O19 0.000000 0.779739 0.000000
#
# Coordination Sequence:
#
# PCOD9150409 Si02
#       7
#     4   4   4   4   4   4   4
#     4  10  22  38  59  86 114 150 194 237 283 340
#     4  11  22  37  60  85 114 152 192 235 283 338
#     4  10  22  39  59  86 118 150 189 237 286 337
#     4  10  22  40  60  86 118 152 192 233 280 340
#     4  10  21  37  57  84 116 149 189 236 282 333
#     4  10  22  40  59  82 116 155 191 232 285 341
#     4  10  20  36  58  85 115 148 191 237 285 340
#
# _framework density 21.059099
#
# number of rings (size 3 to 8) (size 9 to 14) (size 15 to 20)
#    0.000    1.857    2.857    0.429    2.000    3.714 
#    0.000    2.857    0.000    0.000    0.000    0.000 
#    0.000    0.000    0.000    0.000    0.000    0.000 
#
# Total GULP energy -156451.766305 kJ/mol
# GULP energy per Si atom -5587.563082 kJ/mol
# Density = 2.101117 g / cm^3
# Si number density = 21.059099 Si / 1000 Ang^3
#
#
#
# Elastic Constant Matrix: (Units=GPa)
#
#
# Indices 1 2 3 4 5 6 
#
# 1 120.7522 3.6859 62.1900 0.0000 -15.4441 0.0000
# 2 3.6859 33.0535 -15.7983 0.0000 4.0862 0.0000
# 3 62.1900 -15.7983 146.2786 0.0000 -6.0905 0.0000
# 4 0.0000 0.0000 0.0000 18.4459 0.0000 -5.0214
# 5 -15.4441 4.0862 -6.0905 0.0000 38.4101 0.0000
# 6 0.0000 0.0000 0.0000 -5.0214 0.0000 4.4700
#
#
#
# Elastic Compliance Matrix: (Units=1/GPa)
#
#
# Indices 1 2 3 4 5 6 
#
# 1 0.011672 -0.004346 -0.005252 0.000000 0.004323 0.000000
# 2 -0.004346 0.033836 0.005314 0.000000 -0.004504 0.000000
# 3 -0.005252 0.005314 0.009595 0.000000 -0.001156 0.000000
# 4 0.000000 0.000000 0.000000 0.078093 0.000000 0.087725
# 5 0.004323 -0.004504 -0.001156 0.000000 0.028069 0.000000
# 6 0.000000 0.000000 0.000000 0.087725 0.000000 0.322256
#
#
# Mechanical properties :
#
#
# Convention : Reuss Voigt Hill
#
# Bulk Modulus (GPa) = 21.48885 44.47107 32.97996
# Shear Modulus (GPa) = 9.85031 28.93232 19.39132
#
# Velocity S-wave (km/s) = 2.16509 3.71059 3.03777
# Velocity P-wave (km/s) = 4.05911 6.28658 5.29138
#
# Compressibility (1/GPa) = 0.04653575
#
# Stress axis : x y z
#
# Youngs Moduli (GPa) = 85.67815 29.55473 104.22316
#
# Poissons Ratio (x) = 0.12844 0.54733
# Poissons Ratio (y) = 0.37235 -0.55388
# Poissons Ratio (z) = 0.44994 -0.15707
#
# Static dielectric constant tensor:
#      x y z
#    x 1.759330 0.000000 0.016350 
#    y 0.000000 1.773550 0.000000 
#    z 0.016350 0.000000 1.720090 
# 
# From -- ./inp_files/37005.got.cif
#   From: 2010.05.17/outbox.cif.g08.bks.cpg/sg10_19_cif.got.tgz:37005.got - 2010.06.03 11:33:40.
