data_PCOD9150104
_publ_section_title
;
Structure prediction by ZEFSAII (Michael W. Deem and Ramdas Pophale) SiO2 
 PCOD9150104
Probable space group: P 2/M
;
_chemical_formula_sum "Si O2"
_cell_formula_units_Z 22
_cell_length_a 5.455424
_cell_length_b 25.378039
_cell_length_c 7.112365
_cell_angle_alpha 90.000000
_cell_angle_beta 75.730455
_cell_angle_gamma 90.000000
_cell_volume 954.311617
_symmetry_space_group_name_H-M "P 2/M"
_symmetry_group_IT_number 10
_symmetry_cell_setting 'monoclinic'
loop_
_space_group_symop_operation_xyz
x,y,z
-x,y,-z
-x,-y,-z
x,-y,z
loop_
_atom_site_type_symbol
_atom_site_label
_atom_site_fract_x
_atom_site_fract_y
_atom_site_fract_z
Si Si1 0.790954 0.557831 0.874146
Si Si2 0.071489 0.671930 0.273351
Si Si3 0.000000 0.891578 0.500000
Si Si4 0.427693 0.274056 0.738878
Si Si5 0.459565 0.158185 0.282557
Si Si6 0.234352 0.057921 0.812647
O O1 0.799857 0.500000 0.776422
O O2 0.873450 0.609803 0.749070
O O3 0.500000 0.564174 0.000000
O O4 0.000000 0.555791 0.000000
O O5 0.337783 0.700518 0.195709
O O6 0.000000 0.684720 0.500000
O O7 0.832112 0.692933 0.199802
O O8 0.160372 0.852582 0.333741
O O9 0.146716 0.929491 0.615899
O O10 0.500000 0.274258 0.500000
O O11 0.421513 0.213130 0.801359
O O12 0.500000 0.157055 0.500000
O O13 0.589484 0.107020 0.174621
O O14 0.355864 0.000000 0.799110
O O15 0.000000 0.057964 0.000000
#
# Coordination Sequence:
#
# PCOD9150104 Si02
#       6
#     4   4   2   4   4   4
#     4  10  21  38  59  82 117 160 198 241 297 354
#     4  10  20  35  59  88 116 152 197 245 294 351
#     4  10  21  36  64  84 110 158 199 242 310 378
#     4   9  19  33  58  86 118 153 194 240 300 356
#     4   9  20  35  58  83 112 152 196 240 294 370
#     4  10  22  39  58  85 119 151 196 255 307 368
#
# _framework density 23.053265
#
# number of rings (size 3 to 8) (size 9 to 14) (size 15 to 20)
#    0.000    2.364    0.000    1.364    8.909    5.091 
#    0.000    4.545    4.000    6.545    0.000    0.000 
#    0.000    0.000    0.000    0.000    0.000    0.000 
#
# Total GULP energy -122792.439098 kJ/mol
# GULP energy per Si atom -5581.474504 kJ/mol
# Density = 2.300079 g / cm^3
# Si number density = 23.053265 Si / 1000 Ang^3
#
#
#
# Elastic Constant Matrix: (Units=GPa)
#
#
# Indices 1 2 3 4 5 6 
#
# 1 151.5601 80.9240 26.7239 0.0000 -10.6806 0.0000
# 2 80.9240 195.8595 11.0314 0.0000 -21.2487 0.0000
# 3 26.7239 11.0314 60.4102 0.0000 -1.2969 0.0000
# 4 0.0000 0.0000 0.0000 39.8341 0.0000 28.3206
# 5 -10.6806 -21.2487 -1.2969 0.0000 36.6085 0.0000
# 6 0.0000 0.0000 0.0000 28.3206 0.0000 21.1878
#
#
#
# Elastic Compliance Matrix: (Units=1/GPa)
#
#
# Indices 1 2 3 4 5 6 
#
# 1 0.009107 -0.003519 -0.003375 0.000000 0.000495 0.000000
# 2 -0.003519 0.006861 0.000368 0.000000 0.002969 0.000000
# 3 -0.003375 0.000368 0.017977 0.000000 -0.000135 0.000000
# 4 0.000000 0.000000 0.000000 0.505183 0.000000 -0.675250
# 5 0.000495 0.002969 -0.000135 0.000000 0.029179 0.000000
# 6 0.000000 0.000000 0.000000 -0.675250 0.000000 0.949767
#
#
# Mechanical properties :
#
#
# Convention : Reuss Voigt Hill
#
# Bulk Modulus (GPa) = 47.86764 71.68758 59.77761
# Shear Modulus (GPa) = 3.25078 38.80278 21.02678
#
# Velocity S-wave (km/s) = 1.18877 4.10711 3.02337
# Velocity P-wave (km/s) = 4.76374 7.32497 6.17853
#
# Compressibility (1/GPa) = 0.02089094
#
# Stress axis : x y z
#
# Youngs Moduli (GPa) = 109.80538 145.75090 55.62758
#
# Poissons Ratio (x) = 0.51289 0.18777
# Poissons Ratio (y) = 0.38640 -0.02045
# Poissons Ratio (z) = 0.37065 -0.05357
#
# Static dielectric constant tensor:
#      x y z
#    x 1.999940 0.000000 -0.038130 
#    y 0.000000 1.861380 0.000000 
#    z -0.038130 0.000000 1.919270 
# 
# From -- ./inp_files/15221.got.cif
#   From: 2010.05.17/outbox.cif.g08.bks.cpg/sg10_8_cif.got.tgz:15221.got - 2010.06.03 11:33:40.
