data_PCOD9150149
_publ_section_title
;
Structure prediction by ZEFSAII (Michael W. Deem and Ramdas Pophale) SiO2 
 PCOD9150149
Probable space group: P 2/M
;
_chemical_formula_sum "Si O2"
_cell_formula_units_Z 32
_cell_length_a 19.346329
_cell_length_b 14.805048
_cell_length_c 13.170357
_cell_angle_alpha 90.000000
_cell_angle_beta 26.345671
_cell_angle_gamma 90.000000
_cell_volume 1674.091490
_symmetry_space_group_name_H-M "P 2/M"
_symmetry_group_IT_number 10
_symmetry_cell_setting 'monoclinic'
loop_
_space_group_symop_operation_xyz
x,y,z
-x,y,-z
-x,-y,-z
x,-y,z
loop_
_atom_site_type_symbol
_atom_site_label
_atom_site_fract_x
_atom_site_fract_y
_atom_site_fract_z
Si Si1 0.633115 0.107402 0.906246
Si Si2 0.608857 0.400239 0.623086
Si Si3 0.538750 0.783807 0.227766
Si Si4 0.686173 0.396878 0.743144
Si Si5 0.907827 0.237187 0.514941
Si Si6 0.174188 0.234166 0.997053
Si Si7 0.853051 0.603102 0.122092
Si Si8 0.344327 0.896125 0.633795
O O1 0.795829 0.150749 0.660117
O O2 0.641311 0.000000 0.902265
O O3 0.500000 0.132101 0.000000
O O4 0.591290 0.150073 0.069572
O O5 0.533215 0.500000 0.728692
O O6 0.500293 0.313691 0.766216
O O7 0.715306 0.393261 0.583284
O O8 0.706589 0.395988 0.391141
O O9 0.675423 0.768084 0.128332
O O10 0.393717 0.830967 0.476200
O O11 0.714470 0.500000 0.740035
O O12 0.794685 0.323912 0.653329
O O13 0.500000 0.379430 0.000000
O O14 0.000000 0.240614 0.500000
O O15 0.026089 0.231254 0.265280
O O16 0.167975 0.324582 0.938215
O O17 0.205127 0.150271 0.880077
O O18 0.873246 0.500000 0.057680
O O19 0.000000 0.625320 0.000000
O O20 0.500000 0.898065 0.500000
O O21 0.312420 0.000000 0.646643
#
# Coordination Sequence:
#
# PCOD9150149 Si02
#       8
#     4   4   4   4   4   4   4   4
#     4  11  25  45  69  94 123 169 218 264 319 385
#     4  10  20  35  61  90 123 165 207 257 311 370
#     4  11  20  39  63  93 127 160 212 265 313 379
#     4  10  22  41  65  92 124 170 220 261 310 380
#     4  12  24  41  62  95 130 165 206 262 330 385
#     4  11  23  38  60  92 126 164 204 260 325 379
#     4  10  21  38  59  87 122 166 212 254 310 379
#     4   9  19  36  59  86 116 158 203 249 308 372
#
# _framework density 19.114846
#
# number of rings (size 3 to 8) (size 9 to 14) (size 15 to 20)
#    0.000    1.500    2.500    3.000    0.000    3.500 
#    0.000    1.250    0.000    0.375    0.000    0.000 
#    0.000    0.000    0.000    0.000    0.000    0.000 
#
# Total GULP energy -178703.003354 kJ/mol
# GULP energy per Si atom -5584.468855 kJ/mol
# Density = 1.907134 g / cm^3
# Si number density = 19.114846 Si / 1000 Ang^3
#
#
#
# Elastic Constant Matrix: (Units=GPa)
#
#
# Indices 1 2 3 4 5 6 
#
# 1 95.8398 69.5368 38.3393 0.0000 5.9360 0.0000
# 2 69.5368 137.2735 47.9755 0.0000 -3.6938 0.0000
# 3 38.3393 47.9755 105.3893 0.0000 13.5499 0.0000
# 4 0.0000 0.0000 0.0000 39.8874 0.0000 -6.6948
# 5 5.9360 -3.6938 13.5499 0.0000 29.1401 0.0000
# 6 0.0000 0.0000 0.0000 -6.6948 0.0000 32.0833
#
#
#
# Elastic Compliance Matrix: (Units=1/GPa)
#
#
# Indices 1 2 3 4 5 6 
#
# 1 0.017461 -0.008185 -0.002165 0.000000 -0.003588 0.000000
# 2 -0.008185 0.012775 -0.003468 0.000000 0.004899 0.000000
# 3 -0.002165 -0.003468 0.012608 0.000000 -0.005861 0.000000
# 4 0.000000 0.000000 0.000000 0.025981 0.000000 0.005421
# 5 -0.003588 0.004899 -0.005861 0.000000 0.038394 0.000000
# 6 0.000000 0.000000 0.000000 0.005421 0.000000 0.032300
#
#
# Mechanical properties :
#
#
# Convention : Reuss Voigt Hill
#
# Bulk Modulus (GPa) = 65.74993 72.24506 68.99750
# Shear Modulus (GPa) = 29.03215 32.39887 30.71551
#
# Velocity S-wave (km/s) = 3.90144 4.12145 4.01296
# Velocity P-wave (km/s) = 7.40047 7.77983 7.59252
#
# Compressibility (1/GPa) = 0.01520914
#
# Stress axis : x y z
#
# Youngs Moduli (GPa) = 57.27097 78.28086 79.31311
#
# Poissons Ratio (x) = 0.64072 0.17170
# Poissons Ratio (y) = 0.46876 0.27502
# Poissons Ratio (z) = 0.12398 0.27144
#
# Static dielectric constant tensor:
#      x y z
#    x 1.642740 0.000000 0.016270 
#    y 0.000000 1.655180 0.000000 
#    z 0.016270 0.000000 1.689450 
# 
# From -- ./inp_files/53978.got.cif
#   From: 2010.05.17/outbox.cif.g08.bks.cpg/sg10_27_cif.got.tgz:53978.got - 2010.06.03 11:33:40.
