data_PCOD9150597
_publ_section_title
;
Structure prediction by ZEFSAII (Michael W. Deem and Ramdas Pophale) SiO2 
 PCOD9150597
Probable space group: P 2/M
;
_chemical_formula_sum "Si O2"
_cell_formula_units_Z 32
_cell_length_a 25.407765
_cell_length_b 8.375310
_cell_length_c 16.672615
_cell_angle_alpha 90.000000
_cell_angle_beta 26.443717
_cell_angle_gamma 90.000000
_cell_volume 1579.944375
_symmetry_space_group_name_H-M "P 2/M"
_symmetry_group_IT_number 10
_symmetry_cell_setting 'monoclinic'
loop_
_space_group_symop_operation_xyz
x,y,z
-x,y,-z
-x,-y,-z
x,-y,z
loop_
_atom_site_type_symbol
_atom_site_label
_atom_site_fract_x
_atom_site_fract_y
_atom_site_fract_z
Si Si1 0.047698 0.189903 0.351250
Si Si2 0.499541 0.805479 0.753340
Si Si3 0.829711 0.688283 0.066085
Si Si4 0.168213 0.687045 0.451233
Si Si5 0.095957 0.810223 0.712154
Si Si6 0.588321 0.193282 0.951290
Si Si7 0.280954 0.806409 0.944631
Si Si8 0.755792 0.193257 0.339377
O O1 0.946125 0.220854 0.425461
O O2 0.000000 0.258408 0.500000
O O3 0.172591 0.251080 0.148756
O O4 0.063276 0.000000 0.340758
O O5 0.630968 0.757990 0.548674
O O6 0.498960 0.000000 0.756097
O O7 0.459498 0.753318 0.896760
O O8 0.403276 0.755421 0.818428
O O9 0.845892 0.500000 0.036259
O O10 0.775249 0.732088 0.226204
O O11 0.747847 0.748063 0.105129
O O12 0.959402 0.767522 0.885226
O O13 0.148948 0.500000 0.467503
O O14 0.175341 0.729302 0.535329
O O15 0.282972 0.741275 0.245996
O O16 0.141024 0.762990 0.738777
O O17 0.111539 0.000000 0.683501
O O18 0.595626 0.000000 0.942555
O O19 0.500000 0.239324 0.000000
O O20 0.279443 0.000000 0.945302
O O21 0.756695 0.000000 0.329358
#
# Coordination Sequence:
#
# PCOD9150597 Si02
#       8
#     4   4   4   4   4   4   4   4
#     4  10  20  36  60  87 115 155 206 252 295 350
#     4   9  19  38  64  93 119 154 207 258 302 352
#     4  12  25  40  60  89 125 160 199 251 313 371
#     4  12  24  36  56  89 127 163 196 242 308 370
#     4  11  22  40  65  91 120 158 206 256 306 363
#     4  10  20  38  64  91 121 161 210 258 302 357
#     4  10  20  37  62  87 119 160 203 252 299 355
#     4  10  22  41  66  92 118 153 203 257 307 365
#
# _framework density 20.253878
#
# number of rings (size 3 to 8) (size 9 to 14) (size 15 to 20)
#    0.000    1.500    1.250    4.500    0.000    7.500 
#    0.000    5.625    0.000    0.000    0.000    0.000 
#    0.000    0.000    0.000    0.000    0.000    0.000 
#
# Total GULP energy -178881.486600 kJ/mol
# GULP energy per Si atom -5590.046456 kJ/mol
# Density = 2.020778 g / cm^3
# Si number density = 20.253878 Si / 1000 Ang^3
#
#
#
# Elastic Constant Matrix: (Units=GPa)
#
#
# Indices 1 2 3 4 5 6 
#
# 1 105.5669 -22.7876 20.0992 0.0000 16.0481 0.0000
# 2 -22.7876 -28.4759 -13.5046 0.0000 9.0156 0.0000
# 3 20.0992 -13.5046 82.3988 0.0000 14.6347 0.0000
# 4 0.0000 0.0000 0.0000 -16.6578 0.0000 5.8172
# 5 16.0481 9.0156 14.6347 0.0000 37.7771 0.0000
# 6 0.0000 0.0000 0.0000 5.8172 0.0000 -21.0761
#
#
#
# Elastic Compliance Matrix: (Units=1/GPa)
#
#
# Indices 1 2 3 4 5 6 
#
# 1 0.008901 -0.006093 -0.002960 0.000000 -0.001180 0.000000
# 2 -0.006093 -0.024905 -0.004415 0.000000 0.010242 0.000000
# 3 -0.002960 -0.004415 0.012590 0.000000 -0.002566 0.000000
# 4 0.000000 0.000000 0.000000 -0.066435 0.000000 -0.018337
# 5 -0.001180 0.010242 -0.002566 0.000000 0.025522 0.000000
# 6 0.000000 0.000000 0.000000 -0.018337 0.000000 -0.052508
#
#
# Mechanical properties :
#
#
# Convention : Reuss Voigt Hill
#
# Bulk Modulus (GPa) = -32.94986 14.12264 -9.41361
# Shear Modulus (GPa) = -62.48621 11.72081 -25.38270
#
# Velocity S-wave (km/s) = -5.56044 2.40822 -3.54393
# Velocity P-wave (km/s) = 7.58474 3.83675 4.62643
#
# Compressibility (1/GPa) = -0.03034914
#
# Stress axis : x y z
#
# Youngs Moduli (GPa) = 112.35287 -40.15180 79.42580
#
# Poissons Ratio (x) = -0.24463 0.23510
# Poissons Ratio (y) = 0.68451 0.35065
# Poissons Ratio (z) = 0.33256 -0.17726
#
# Static dielectric constant tensor:
#      x y z
#    x 1.719280 0.000000 0.012190 
#    y 0.000000 1.698550 0.000000 
#    z 0.012190 0.000000 1.699650 
# 
# From -- ./inp_files/71539.got.cif
#   From: 2010.05.17/outbox.cif.g08.bks.cpg/sg10_36_cif.got.tgz:71539.got - 2010.06.03 11:33:40.
