data_PCOD9150188
_publ_section_title
;
Structure prediction by ZEFSAII (Michael W. Deem and Ramdas Pophale) SiO2 
 PCOD9150188
Probable space group: P 2/M
;
_chemical_formula_sum "Si O2"
_cell_formula_units_Z 28
_cell_length_a 9.902960
_cell_length_b 15.368703
_cell_length_c 19.106144
_cell_angle_alpha 90.000000
_cell_angle_beta 32.849415
_cell_angle_gamma 90.000000
_cell_volume 1577.325627
_symmetry_space_group_name_H-M "P 2/M"
_symmetry_group_IT_number 10
_symmetry_cell_setting 'monoclinic'
loop_
_space_group_symop_operation_xyz
x,y,z
-x,y,-z
-x,-y,-z
x,-y,z
loop_
_atom_site_type_symbol
_atom_site_label
_atom_site_fract_x
_atom_site_fract_y
_atom_site_fract_z
Si Si1 0.967065 0.100972 0.398749
Si Si2 0.273306 0.752670 0.052409
Si Si3 0.451553 0.216972 0.212358
Si Si4 0.997559 0.595965 0.884744
Si Si5 0.460118 0.102108 0.698662
Si Si6 0.930431 0.100619 0.254699
Si Si7 0.424396 0.596362 0.809574
O O1 0.197134 0.165405 0.308581
O O2 0.744520 0.115306 0.550016
O O3 0.858782 0.110497 0.367211
O O4 0.050832 0.000000 0.369588
O O5 0.067455 0.677665 0.134356
O O6 0.156913 0.835723 0.140460
O O7 0.500000 0.717709 0.000000
O O8 0.379446 0.780351 0.930659
O O9 0.588563 0.165602 0.215395
O O10 0.412358 0.317771 0.251064
O O11 0.992194 0.500000 0.853507
O O12 0.256646 0.605617 0.813009
O O13 0.779260 0.596275 0.038812
O O14 0.283634 0.119085 0.708879
O O15 0.430208 0.000000 0.730742
O O16 0.003362 0.000000 0.213473
O O17 0.542958 0.500000 0.757833
#
# Coordination Sequence:
#
# PCOD9150188 Si02
#       7
#     4   4   4   4   4   4   4
#     4  10  20  36  55  74 101 136 175 216 255 293
#     4  11  21  33  48  76 111 138 165 201 261 322
#     4  11  20  32  53  80 106 135 164 209 262 304
#     4   8  15  29  49  71 100 136 170 204 243 294
#     4  10  21  36  55  77  97 129 183 227 246 281
#     4  10  21  36  53  73 103 142 173 204 253 309
#     4   8  15  29  49  74 102 133 166 202 249 303
#
# _framework density 17.751566
#
# number of rings (size 3 to 8) (size 9 to 14) (size 15 to 20)
#    0.000    2.286    1.429    3.000    0.000    6.286 
#    0.000    1.429    0.000    1.714    0.000    0.000 
#    0.000    5.714    0.000    0.000    0.000    0.000 
#
# Total GULP energy -156116.851487 kJ/mol
# GULP energy per Si atom -5575.601839 kJ/mol
# Density = 1.771116 g / cm^3
# Si number density = 17.751566 Si / 1000 Ang^3
#
#
#
# Elastic Constant Matrix: (Units=GPa)
#
#
# Indices 1 2 3 4 5 6 
#
# 1 54.9851 29.1301 1.2911 0.0000 11.8970 0.0000
# 2 29.1301 82.6180 19.7907 0.0000 7.3294 0.0000
# 3 1.2911 19.7907 23.3052 0.0000 10.1808 0.0000
# 4 0.0000 0.0000 0.0000 -2.3511 0.0000 -11.8785
# 5 11.8970 7.3294 10.1808 0.0000 22.6078 0.0000
# 6 0.0000 0.0000 0.0000 -11.8785 0.0000 25.1486
#
#
#
# Elastic Compliance Matrix: (Units=1/GPa)
#
#
# Indices 1 2 3 4 5 6 
#
# 1 0.028432 -0.012484 0.017172 0.000000 -0.018648 0.000000
# 2 -0.012484 0.020698 -0.020944 0.000000 0.009291 0.000000
# 3 0.017172 -0.020944 0.075596 0.000000 -0.036289 0.000000
# 4 0.000000 0.000000 0.000000 -0.125600 0.000000 -0.059325
# 5 -0.018648 0.009291 -0.036289 0.000000 0.067375 0.000000
# 6 0.000000 0.000000 0.000000 -0.059325 0.000000 0.011742
#
#
# Mechanical properties :
#
#
# Convention : Reuss Voigt Hill
#
# Bulk Modulus (GPa) = 10.84421 29.03691 19.94056
# Shear Modulus (GPa) = 35.33731 16.46081 25.89906
#
# Velocity S-wave (km/s) = 4.46652 3.04844 3.82379
# Velocity P-wave (km/s) = 5.72030 5.36503 5.54551
#
# Compressibility (1/GPa) = 0.09221513
#
# Stress axis : x y z
#
# Youngs Moduli (GPa) = 35.17150 48.31286 13.22824
#
# Poissons Ratio (x) = 0.60314 -0.22716
# Poissons Ratio (y) = 0.43908 0.27705
# Poissons Ratio (z) = -0.60398 1.01186
#
# Static dielectric constant tensor:
#      x y z
#    x 1.637280 0.000000 0.004220 
#    y 0.000000 1.617940 0.000000 
#    z 0.004220 0.000000 1.572200 
# 
# From -- ./inp_files/24938.got.cif
#   From: 2010.05.17/outbox.cif.g08.bks.cpg/sg10_13_cif.got.tgz:24938.got - 2010.06.03 11:33:40.
