data_PCOD9150137
_publ_section_title
;
Structure prediction by ZEFSAII (Michael W. Deem and Ramdas Pophale) SiO2 
 PCOD9150137
Probable space group: P 2/M
;
_chemical_formula_sum "Si O2"
_cell_formula_units_Z 28
_cell_length_a 9.303598
_cell_length_b 14.160197
_cell_length_c 11.174716
_cell_angle_alpha 90.000000
_cell_angle_beta 63.317216
_cell_angle_gamma 90.000000
_cell_volume 1315.389508
_symmetry_space_group_name_H-M "P 2/M"
_symmetry_group_IT_number 10
_symmetry_cell_setting 'monoclinic'
loop_
_space_group_symop_operation_xyz
x,y,z
-x,y,-z
-x,-y,-z
x,-y,z
loop_
_atom_site_type_symbol
_atom_site_label
_atom_site_fract_x
_atom_site_fract_y
_atom_site_fract_z
Si Si1 0.624436 0.395714 0.562467
Si Si2 0.347253 0.887431 0.486254
Si Si3 0.083123 0.387465 0.713224
Si Si4 0.212940 0.726508 0.158602
Si Si5 0.172521 0.747255 0.904714
Si Si6 0.004317 0.111999 0.353998
Si Si7 0.474677 0.773507 0.236207
O O1 0.500000 0.401602 0.500000
O O2 0.642061 0.500000 0.609149
O O3 0.793596 0.366086 0.440593
O O4 0.550400 0.321638 0.679608
O O5 0.500000 0.848116 0.500000
O O6 0.179978 0.864069 0.611379
O O7 0.365214 0.849838 0.345624
O O8 0.355310 0.000000 0.479772
O O9 0.092207 0.500000 0.733565
O O10 0.137904 0.326646 0.810116
O O11 0.903483 0.354638 0.744574
O O12 0.387799 0.746932 0.145791
O O13 0.116060 0.821729 0.232663
O O14 0.215517 0.701889 0.017572
O O15 0.338872 0.803549 0.823772
O O16 0.000000 0.795890 0.000000
O O17 0.000000 0.128829 0.500000
O O18 0.035725 0.000000 0.325771
#
# Coordination Sequence:
#
# PCOD9150137 Si02
#       7
#     4   4   4   4   4   4   4
#     4  10  20  35  60  92 116 149 198 248 305 358
#     4  10  22  36  60  96 124 154 199 249 304 363
#     4  10  22  42  65  90 124 162 204 251 303 368
#     4  11  24  38  60  93 123 162 205 244 302 365
#     4  10  24  41  60  83 116 165 211 244 292 362
#     4  10  20  39  64  92 126 159 196 246 308 372
#     4  12  22  38  63  87 126 158 195 259 308 354
#
# _framework density 21.286470000000001
#
# number of rings (size 3 to 8) (size 9 to 14) (size 15 to 20)
#    0.000    1.571    2.857    1.714    4.000    3.143 
#    0.000    2.143    0.000   11.143    0.000    0.000 
#    0.000    0.000    0.000    0.000    0.000    0.000 
#
# Total GULP energy -156092.710988 kJ/mol
# GULP energy per Si atom -5574.739678 kJ/mol
# Density = 2.123802 g / cm^3
# Si number density = 21.286470 Si / 1000 Ang^3
#
#
#
# Elastic Constant Matrix: (Units=GPa)
#
#
# Indices 1 2 3 4 5 6 
#
# 1 107.1049 5.2758 22.0153 0.0000 -11.5183 0.0000
# 2 5.2758 61.5959 11.2375 0.0000 -4.8956 0.0000
# 3 22.0153 11.2375 59.5928 0.0000 -18.5292 0.0000
# 4 0.0000 0.0000 0.0000 10.0379 0.0000 2.3111
# 5 -11.5183 -4.8956 -18.5292 0.0000 36.6680 0.0000
# 6 0.0000 0.0000 0.0000 2.3111 0.0000 25.9375
#
#
#
# Elastic Compliance Matrix: (Units=1/GPa)
#
#
# Indices 1 2 3 4 5 6 
#
# 1 0.010178 -0.000156 -0.003254 0.000000 0.001532 0.000000
# 2 -0.000156 0.016834 -0.002887 0.000000 0.000740 0.000000
# 3 -0.003254 -0.002887 0.021461 0.000000 0.009437 0.000000
# 4 0.000000 0.000000 0.000000 0.101709 0.000000 -0.009062
# 5 0.001532 0.000740 0.009437 0.000000 0.032621 0.000000
# 6 0.000000 0.000000 0.000000 -0.009062 0.000000 0.039362
#
#
# Mechanical properties :
#
#
# Convention : Reuss Voigt Hill
#
# Bulk Modulus (GPa) = 27.87168 33.92788 30.89978
# Shear Modulus (GPa) = 20.26603 27.17967 23.72285
#
# Velocity S-wave (km/s) = 3.08890 3.57718 3.34197
# Velocity P-wave (km/s) = 5.08367 5.74760 5.42580
#
# Compressibility (1/GPa) = 0.03587871
#
# Stress axis : x y z
#
# Youngs Moduli (GPa) = 98.25120 59.40475 46.59520
#
# Poissons Ratio (x) = 0.00929 0.15163
# Poissons Ratio (y) = 0.01536 0.13450
# Poissons Ratio (z) = 0.31974 0.17148
#
# Static dielectric constant tensor:
#      x y z
#    x 1.895360 0.000000 -0.006650 
#    y 0.000000 1.737320 0.000000 
#    z -0.006650 0.000000 1.818520 
# 
# From -- ./inp_files/42865.got.cif
#   From: 2010.05.17/outbox.cif.g08.bks.cpg/sg10_22_cif.got.tgz:42865.got - 2010.06.03 11:33:40.
