data_PCOD9150615
_publ_section_title
;
Structure prediction by ZEFSAII (Michael W. Deem and Ramdas Pophale) SiO2 
 PCOD9150615
Probable space group: P 2/M
;
_chemical_formula_sum "Si O2"
_cell_formula_units_Z 30
_cell_length_a 9.973783
_cell_length_b 13.399296
_cell_length_c 10.941775
_cell_angle_alpha 90.000000
_cell_angle_beta 107.243576
_cell_angle_gamma 90.000000
_cell_volume 1396.552396
_symmetry_space_group_name_H-M "P 2/M"
_symmetry_group_IT_number 10
_symmetry_cell_setting 'monoclinic'
loop_
_space_group_symop_operation_xyz
x,y,z
-x,y,-z
-x,-y,-z
x,-y,z
loop_
_atom_site_type_symbol
_atom_site_label
_atom_site_fract_x
_atom_site_fract_y
_atom_site_fract_z
Si Si1 0.659250 0.618694 0.192599
Si Si2 0.112542 0.238669 0.618566
Si Si3 0.272330 0.738311 0.030504
Si Si4 0.312983 0.886488 0.515775
Si Si5 0.640453 0.614315 0.746901
Si Si6 0.500000 0.727341 0.500000
Si Si7 0.281227 0.890080 0.214518
Si Si8 0.046827 0.118471 0.839067
O O1 0.692776 0.500000 0.187380
O O2 0.775297 0.680742 0.301250
O O3 0.507759 0.621849 0.218616
O O4 0.661349 0.675004 0.061873
O O5 0.182207 0.151954 0.555254
O O6 0.043513 0.175815 0.709189
O O7 0.000000 0.290197 0.500000
O O8 0.240620 0.661462 0.133055
O O9 0.356076 0.816315 0.139957
O O10 0.153769 0.808703 0.939347
O O11 0.427170 0.802591 0.574770
O O12 0.296262 0.879329 0.364656
O O13 0.351527 0.000000 0.555371
O O14 0.672595 0.500000 0.735261
O O15 0.610966 0.663940 0.607380
O O16 0.111823 0.883201 0.153750
O O17 0.328716 0.000000 0.195329
O O18 0.090023 0.000000 0.844333
#
# Coordination Sequence:
#
# PCOD9150615 Si02
#       8
#     4   4   4   4   4   2   4   4
#     4  10  23  42  63  85 116 159 206 255 305 356
#     4  11  21  37  65  93 124 159 202 251 299 357
#     4  11  21  36  60  85 116 152 204 247 300 351
#     4  11  22  37  61  93 128 165 195 235 301 367
#     4  11  23  41  65  87 112 152 206 258 305 360
#     4  12  22  42  64  92 124 156 198 250 306 360
#     4  10  20  36  60  88 123 164 200 238 295 364
#     4  10  21  36  59  90 123 161 203 243 292 362
#
# _framework density 21.481469000000001
#
# number of rings (size 3 to 8) (size 9 to 14) (size 15 to 20)
#    0.000    1.333    4.000    2.400    0.000    2.933 
#    0.000    0.000    0.000   20.800    0.000    0.000 
#    0.000    0.000    0.000    0.000    0.000    0.000 
#
# Total GULP energy -167136.909010 kJ/mol
# GULP energy per Si atom -5571.230300 kJ/mol
# Density = 2.143258 g / cm^3
# Si number density = 21.481469 Si / 1000 Ang^3
#
#
#
# Elastic Constant Matrix: (Units=GPa)
#
#
# Indices 1 2 3 4 5 6 
#
# 1 22.7645 16.3915 15.3757 0.0000 1.1810 0.0000
# 2 16.3915 173.0901 51.8319 0.0000 1.5856 0.0000
# 3 15.3757 51.8319 117.3531 0.0000 4.0185 0.0000
# 4 0.0000 0.0000 0.0000 29.3513 0.0000 -1.8187
# 5 1.1810 1.5856 4.0185 0.0000 30.2636 0.0000
# 6 0.0000 0.0000 0.0000 -1.8187 0.0000 -1.9005
#
#
#
# Elastic Compliance Matrix: (Units=1/GPa)
#
#
# Indices 1 2 3 4 5 6 
#
# 1 0.049698 -0.003178 -0.005070 0.000000 -0.001100 0.000000
# 2 -0.003178 0.006861 -0.002618 0.000000 0.000112 0.000000
# 3 -0.005070 -0.002618 0.010378 0.000000 -0.001043 0.000000
# 4 0.000000 0.000000 0.000000 0.032163 0.000000 -0.030780
# 5 -0.001100 0.000112 -0.001043 0.000000 0.033218 0.000000
# 6 0.000000 0.000000 0.000000 -0.030780 0.000000 -0.496732
#
#
# Mechanical properties :
#
#
# Convention : Reuss Voigt Hill
#
# Bulk Modulus (GPa) = 22.12170 53.37843 37.75007
# Shear Modulus (GPa) = -15.26188 26.85015 5.79413
#
# Velocity S-wave (km/s) = -2.66835 3.53926 1.64412
# Velocity P-wave (km/s) = 0.90936 6.45014 4.60604
#
# Compressibility (1/GPa) = 0.04520448
#
# Stress axis : x y z
#
# Youngs Moduli (GPa) = 20.12161 145.74745 96.36192
#
# Poissons Ratio (x) = 0.46319 0.48857
# Poissons Ratio (y) = 0.06395 0.25226
# Poissons Ratio (z) = 0.10202 0.38155
#
# Static dielectric constant tensor:
#      x y z
#    x 1.844790 0.000000 0.042620 
#    y 0.000000 1.806930 0.000000 
#    z 0.042620 0.000000 1.866720 
# 
# From -- ./inp_files/46761.got.cif
#   From: 2010.05.17/outbox.cif.g08.bks.cpg/sg10_24_cif.got.tgz:46761.got - 2010.06.03 11:33:40.
