data_PCOD9150735
_publ_section_title
;
Structure prediction by ZEFSAII (Michael W. Deem and Ramdas Pophale) SiO2 
 PCOD9150735
Probable space group: P 2/M
;
_chemical_formula_sum "Si O2"
_cell_formula_units_Z 32
_cell_length_a 18.152935
_cell_length_b 15.629967
_cell_length_c 11.808482
_cell_angle_alpha 90.000000
_cell_angle_beta 27.996998
_cell_angle_gamma 90.000000
_cell_volume 1572.770948
_symmetry_space_group_name_H-M "P 2/M"
_symmetry_group_IT_number 10
_symmetry_cell_setting 'monoclinic'
loop_
_space_group_symop_operation_xyz
x,y,z
-x,y,-z
-x,-y,-z
x,-y,z
loop_
_atom_site_type_symbol
_atom_site_label
_atom_site_fract_x
_atom_site_fract_y
_atom_site_fract_z
Si Si1 0.328177 0.138807 0.271470
Si Si2 0.592577 0.094982 0.596740
Si Si3 0.773501 0.903378 0.831068
Si Si4 0.128886 0.253214 0.154915
Si Si5 0.218397 0.325022 0.421480
Si Si6 0.809708 0.594832 0.773136
Si Si7 0.816768 0.598829 0.283642
Si Si8 0.660927 0.255550 0.345441
O O1 0.303857 0.102276 0.429377
O O2 0.220969 0.111811 0.311677
O O3 0.325656 0.241433 0.286976
O O4 0.500000 0.109098 0.000000
O O5 0.635104 0.171518 0.456180
O O6 0.611014 0.000000 0.522221
O O7 0.409883 0.104928 0.881829
O O8 0.862290 0.829519 0.777768
O O9 0.823612 0.000000 0.789426
O O10 0.219009 0.329842 0.098710
O O11 0.953882 0.285841 0.370017
O O12 0.211034 0.236661 0.924526
O O13 0.259733 0.380177 0.254680
O O14 0.207656 0.378241 0.551202
O O15 0.759662 0.500000 0.877158
O O16 0.000000 0.592494 0.500000
O O17 0.774227 0.500000 0.320543
O O18 0.718423 0.665873 0.343732
O O19 0.000000 0.609009 0.000000
O O20 0.500000 0.276128 0.500000
#
# Coordination Sequence:
#
# PCOD9150735 Si02
#       8
#     4   4   4   4   4   4   4   4
#     4  10  20  36  63  88 118 158 204 254 303 358
#     4  10  21  38  63  89 115 161 212 249 297 366
#     4  10  20  37  60  89 123 160 202 248 302 367
#     4  11  22  36  59  92 123 160 201 249 309 365
#     4  11  20  38  66  87 119 158 206 249 305 364
#     4   9  19  35  59  87 114 149 196 245 293 358
#     4  11  24  43  67  91 120 166 212 251 302 370
#     4  12  24  40  64  90 127 163 202 259 311 358
#
# _framework density 20.346256
#
# number of rings (size 3 to 8) (size 9 to 14) (size 15 to 20)
#    0.000    1.500    5.000    0.750    0.000    3.500 
#    0.000    1.875    0.000    1.875    0.000    0.000 
#    0.000    0.000    0.000    0.000    0.000    0.000 
#
# Total GULP energy -178803.489776 kJ/mol
# GULP energy per Si atom -5587.609055 kJ/mol
# Density = 2.029995 g / cm^3
# Si number density = 20.346256 Si / 1000 Ang^3
#
#
#
# Elastic Constant Matrix: (Units=GPa)
#
#
# Indices 1 2 3 4 5 6 
#
# 1 121.1262 74.8378 30.1757 0.0000 14.5358 0.0000
# 2 74.8378 178.4348 37.0694 0.0000 7.8251 0.0000
# 3 30.1757 37.0694 46.7097 0.0000 13.3440 0.0000
# 4 0.0000 0.0000 0.0000 24.0744 0.0000 -5.1544
# 5 14.5358 7.8251 13.3440 0.0000 23.0743 0.0000
# 6 0.0000 0.0000 0.0000 -5.1544 0.0000 -14.6838
#
#
#
# Elastic Compliance Matrix: (Units=1/GPa)
#
#
# Indices 1 2 3 4 5 6 
#
# 1 0.012224 -0.004256 -0.003273 0.000000 -0.004365 0.000000
# 2 -0.004256 0.008210 -0.004476 0.000000 0.002485 0.000000
# 3 -0.003273 -0.004476 0.031209 0.000000 -0.014468 0.000000
# 4 0.000000 0.000000 0.000000 0.038634 0.000000 -0.013562
# 5 -0.004365 0.002485 -0.014468 0.000000 0.053612 0.000000
# 6 0.000000 0.000000 0.000000 -0.013562 0.000000 -0.063342
#
#
# Mechanical properties :
#
#
# Convention : Reuss Voigt Hill
#
# Bulk Modulus (GPa) = 36.18793 70.04851 53.11822
# Shear Modulus (GPa) = 43.94844 20.10551 32.02698
#
# Velocity S-wave (km/s) = 4.65265 3.14692 3.97179
# Velocity P-wave (km/s) = 6.83283 6.90703 6.87003
#
# Compressibility (1/GPa) = 0.02763352
#
# Stress axis : x y z
#
# Youngs Moduli (GPa) = 81.80341 121.80041 32.04197
#
# Poissons Ratio (x) = 0.51835 0.10487
# Poissons Ratio (y) = 0.34813 0.14343
# Poissons Ratio (z) = 0.26774 0.54523
#
# Static dielectric constant tensor:
#      x y z
#    x 1.727080 0.000000 -0.023250 
#    y 0.000000 1.716100 0.000000 
#    z -0.023250 0.000000 1.741630 
# 
# From -- ./inp_files/54004.got.cif
#   From: 2010.05.17/outbox.cif.g08.bks.cpg/sg10_28_cif.got.tgz:54004.got - 2010.06.03 11:33:40.
