data_PCOD9150604
_publ_section_title
;
Structure prediction by ZEFSAII (Michael W. Deem and Ramdas Pophale) SiO2 
 PCOD9150604
Probable space group: P 2/M
;
_chemical_formula_sum "Si O2"
_cell_formula_units_Z 32
_cell_length_a 12.529936
_cell_length_b 13.893556
_cell_length_c 19.634647
_cell_angle_alpha 90.000000
_cell_angle_beta 157.709833
_cell_angle_gamma 90.000000
_cell_volume 1296.478141
_symmetry_space_group_name_H-M "P 2/M"
_symmetry_group_IT_number 10
_symmetry_cell_setting 'monoclinic'
loop_
_space_group_symop_operation_xyz
x,y,z
-x,y,-z
-x,-y,-z
x,-y,z
loop_
_atom_site_type_symbol
_atom_site_label
_atom_site_fract_x
_atom_site_fract_y
_atom_site_fract_z
Si Si1 0.687161 0.235944 0.780844
Si Si2 0.470540 0.109893 0.191523
Si Si3 0.129528 0.108037 0.226841
Si Si4 0.331877 0.385470 0.331311
Si Si5 0.177813 0.114720 0.819724
Si Si6 0.083883 0.810025 0.624104
Si Si7 0.182804 0.614117 0.891709
Si Si8 0.146334 0.613302 0.715299
O O1 0.504694 0.179138 0.728721
O O2 0.585089 0.337509 0.690932
O O3 0.676470 0.174449 0.704432
O O4 0.000000 0.246708 0.000000
O O5 0.586713 0.164325 0.193933
O O6 0.574820 0.000000 0.261542
O O7 0.141551 0.099588 0.982032
O O8 0.010281 0.148095 0.227627
O O9 0.242724 0.000000 0.303242
O O10 0.500000 0.361431 0.500000
O O11 0.352007 0.500000 0.335119
O O12 0.011793 0.352637 0.161201
O O13 0.020465 0.135887 0.656191
O O14 0.205711 0.000000 0.847665
O O15 0.500000 0.152358 0.000000
O O16 0.023352 0.697239 0.596000
O O17 0.000000 0.848275 0.500000
O O18 0.125009 0.500000 0.854233
O O19 0.099769 0.645819 0.766396
O O20 0.516150 0.621960 0.096597
O O21 0.070661 0.500000 0.661518
#
# Coordination Sequence:
#
# PCOD9150604 Si02
#       8
#     4   4   4   4   4   4   4   4
#     4  10  22  37  62  89 117 161 206 246 298 359
#     4  10  21  40  60  84 124 162 198 246 305 369
#     4   9  18  35  62  91 112 145 202 256 298 349
#     4  10  22  39  61  90 126 163 201 254 314 367
#     4  10  20  36  60  88 114 151 201 254 302 360
#     4  12  26  37  58  92 126 166 201 247 321 372
#     4   8  17  35  62  89 114 153 204 258 307 351
#     4   9  20  37  60  91 121 157 208 255 302 361
#
# _framework density 24.682251999999998
#
# number of rings (size 3 to 8) (size 9 to 14) (size 15 to 20)
#    0.000    2.250    1.250    1.500    7.000    4.000 
#    0.000    0.625    0.000    0.750    0.000    0.000 
#    0.000    0.000    0.000    0.000    0.000    0.000 
#
# Total GULP energy -178622.159607 kJ/mol
# GULP energy per Si atom -5581.942488 kJ/mol
# Density = 2.462607 g / cm^3
# Si number density = 24.682252 Si / 1000 Ang^3
#
#
#
# Elastic Constant Matrix: (Units=GPa)
#
#
# Indices 1 2 3 4 5 6 
#
# 1 158.9073 48.0308 15.3634 0.0000 -28.2531 0.0000
# 2 48.0308 114.0568 8.3168 0.0000 -12.3182 0.0000
# 3 15.3634 8.3168 52.0729 0.0000 -17.2365 0.0000
# 4 0.0000 0.0000 0.0000 17.1389 0.0000 -11.1951
# 5 -28.2531 -12.3182 -17.2365 0.0000 29.1075 0.0000
# 6 0.0000 0.0000 0.0000 -11.1951 0.0000 34.5452
#
#
#
# Elastic Compliance Matrix: (Units=1/GPa)
#
#
# Indices 1 2 3 4 5 6 
#
# 1 0.008371 -0.002778 0.000341 0.000000 0.007152 0.000000
# 2 -0.002778 0.010111 -0.000338 0.000000 0.001383 0.000000
# 3 0.000341 -0.000338 0.023905 0.000000 0.014344 0.000000
# 4 0.000000 0.000000 0.000000 0.074014 0.000000 0.023986
# 5 0.007152 0.001383 0.014344 0.000000 0.050377 0.000000
# 6 0.000000 0.000000 0.000000 0.023986 0.000000 0.036721
#
#
# Mechanical properties :
#
#
# Convention : Reuss Voigt Hill
#
# Bulk Modulus (GPa) = 27.14488 52.05100 39.59794
# Shear Modulus (GPa) = 22.59097 33.04671 27.81884
#
# Velocity S-wave (km/s) = 3.02863 3.66305 3.36084
# Velocity P-wave (km/s) = 4.82200 6.24698 5.58017
#
# Compressibility (1/GPa) = 0.03683936
#
# Stress axis : x y z
#
# Youngs Moduli (GPa) = 119.45790 98.89974 41.83200
#
# Poissons Ratio (x) = 0.27471 -0.01427
# Poissons Ratio (y) = 0.33181 0.01412
# Poissons Ratio (z) = -0.04076 0.03339
#
# Static dielectric constant tensor:
#      x y z
#    x 2.001420 0.000000 0.164800 
#    y 0.000000 1.987470 0.000000 
#    z 0.164800 0.000000 2.243830 
# 
# From -- ./inp_files/77026.got.cif
#   From: 2010.05.17/outbox.cif.g08.bks.cpg/sg10_39_cif.got.tgz:77026.got - 2010.06.03 11:33:40.
