data_PCOD9150914
_publ_section_title
;
Structure prediction by ZEFSAII (Michael W. Deem and Ramdas Pophale) SiO2 
 PCOD9150914
Probable space group: P 2/M
;
_chemical_formula_sum "Si O2"
_cell_formula_units_Z 28
_cell_length_a 15.074267
_cell_length_b 22.564475
_cell_length_c 8.683801
_cell_angle_alpha 90.000000
_cell_angle_beta 30.219683
_cell_angle_gamma 90.000000
_cell_volume 1486.663732
_symmetry_space_group_name_H-M "P 2/M"
_symmetry_group_IT_number 10
_symmetry_cell_setting 'monoclinic'
loop_
_space_group_symop_operation_xyz
x,y,z
-x,y,-z
-x,-y,-z
x,-y,z
loop_
_atom_site_type_symbol
_atom_site_label
_atom_site_fract_x
_atom_site_fract_y
_atom_site_fract_z
Si Si1 0.304767 0.567831 0.227272
Si Si2 0.000000 0.213337 0.184868
Si Si3 0.304767 0.567831 0.858428
Si Si4 0.300976 0.130381 0.234163
Si Si5 0.697911 0.000000 0.138376
Si Si6 0.300976 0.869619 0.862910
Si Si7 0.000000 0.649161 0.815562
Si Si8 0.302089 0.000000 0.232109
O O1 0.251985 0.500000 0.346644
O O2 0.169304 0.614544 0.498615
O O3 0.500000 0.577323 0.000000
O O4 0.307440 0.572233 0.038841
O O5 0.828656 0.179641 0.505758
O O6 0.000000 0.282134 0.232031
O O7 0.000000 0.210362 0.000000
O O8 0.171345 0.179640 0.991725
O O9 0.500000 0.577325 0.500000
O O10 0.251989 0.500000 0.897395
O O11 0.169303 0.614543 0.993475
O O12 0.229274 0.064388 0.386725
O O13 0.500000 0.136154 0.000000
O O14 0.305849 0.133691 0.041227
O O15 0.500000 0.000000 0.500000
O O16 0.770726 0.935612 0.074548
O O17 0.694013 0.000000 0.958980
O O18 0.500000 0.863846 0.500000
O O19 0.000000 0.646857 0.000000
O O20 0.500000 0.000000 0.000000
#
# Coordination Sequence:
#
# PCOD9150914 Si02
#       8
#     4   4   4   4   2   4   4   2
#     4  10  21  38  62  91 119 147 183 228 278 332
#     4  11  25  41  55  79 113 152 197 234 273 331
#     4  10  21  38  62  91 119 147 183 228 278 332
#     4  10  20  37  60  84 112 146 184 232 286 338
#     4   8  16  31  54  83 110 138 178 227 282 339
#     4  10  20  37  60  84 112 146 184 232 286 338
#     4  11  24  40  58  81 114 154 193 234 277 326
#     4   8  16  31  54  83 110 138 178 227 282 339
#
# _framework density 18.834119000000001
#
# number of rings (size 3 to 8) (size 9 to 14) (size 15 to 20)
#    0.000    2.000    0.000    3.000    0.000    8.571 
#    0.000    2.857    0.000    0.000    0.000    0.000 
#    0.000    0.000    0.000    0.000    0.000    0.000 
#
# Total GULP energy -156331.759615 kJ/mol
# GULP energy per Si atom -5583.277129 kJ/mol
# Density = 1.879125 g / cm^3
# Si number density = 18.834119 Si / 1000 Ang^3
#
#
#
# Elastic Constant Matrix: (Units=GPa)
#
#
# Indices 1 2 3 4 5 6 
#
# 1 78.5481 80.0291 34.2195 0.0000 -18.1391 0.0000
# 2 80.0291 219.1036 104.0868 0.0000 -17.9696 0.0000
# 3 34.2195 104.0868 112.2039 0.0000 -6.9990 0.0000
# 4 0.0000 0.0000 0.0000 275.6954 0.0000 -131.4468
# 5 -18.1391 -17.9696 -6.9990 0.0000 25.9864 0.0000
# 6 0.0000 0.0000 0.0000 -131.4468 0.0000 99.7126
#
#
#
# Elastic Compliance Matrix: (Units=1/GPa)
#
#
# Indices 1 2 3 4 5 6 
#
# 1 0.022883 -0.008011 0.001122 0.000000 0.010736 0.000000
# 2 -0.008011 0.011323 -0.008056 0.000000 0.000068 0.000000
# 3 0.001122 -0.008056 0.016014 0.000000 -0.000475 0.000000
# 4 0.000000 0.000000 0.000000 0.009764 0.000000 0.012872
# 5 0.010736 0.000068 -0.000475 0.000000 0.045895 0.000000
# 6 0.000000 0.000000 0.000000 0.012872 0.000000 0.026997
#
#
# Mechanical properties :
#
#
# Convention : Reuss Voigt Hill
#
# Bulk Modulus (GPa) = 49.18812 94.05850 71.62331
# Shear Modulus (GPa) = 29.49093 93.04689 61.26891
#
# Velocity S-wave (km/s) = 3.96134 7.03638 5.70977
# Velocity P-wave (km/s) = 6.86267 10.77326 9.03214
#
# Compressibility (1/GPa) = 0.02033011
#
# Stress axis : x y z
#
# Youngs Moduli (GPa) = 43.69986 88.31607 62.44490
#
# Poissons Ratio (x) = 0.70749 -0.07008
# Poissons Ratio (y) = 0.35008 0.50308
# Poissons Ratio (z) = -0.04904 0.71151
#
# Static dielectric constant tensor:
#      x y z
#    x 1.626830 0.000000 0.005150 
#    y 0.000000 1.664610 0.000000 
#    z 0.005150 0.000000 1.619940 
# 
# From -- ./inp_files/20455.got.cif
#   From: 2010.05.17/outbox.cif.g08.bks.cpg/sg10_11_cif.got.tgz:20455.got - 2010.06.03 11:33:40.
