data_PCOD9150311
_publ_section_title
;
Structure prediction by ZEFSAII (Michael W. Deem and Ramdas Pophale) SiO2 
 PCOD9150311
Probable space group: P 2/M
;
_chemical_formula_sum "Si O2"
_cell_formula_units_Z 32
_cell_length_a 23.090431
_cell_length_b 7.665496
_cell_length_c 15.036354
_cell_angle_alpha 90.000000
_cell_angle_beta 151.904627
_cell_angle_gamma 90.000000
_cell_volume 1253.374961
_symmetry_space_group_name_H-M "P 2/M"
_symmetry_group_IT_number 10
_symmetry_cell_setting 'monoclinic'
loop_
_space_group_symop_operation_xyz
x,y,z
-x,y,-z
-x,-y,-z
x,-y,z
loop_
_atom_site_type_symbol
_atom_site_label
_atom_site_fract_x
_atom_site_fract_y
_atom_site_fract_z
Si Si1 0.205673 0.705578 0.525870
Si Si2 0.105000 0.214300 0.709957
Si Si3 0.812395 0.800645 0.997749
Si Si4 0.704943 0.211874 0.674124
Si Si5 0.105411 0.790206 0.210176
Si Si6 0.458911 0.701688 0.788758
Si Si7 0.443925 0.295253 0.268070
Si Si8 0.707467 0.202004 0.176131
O O1 0.217199 0.500000 0.555361
O O2 0.106466 0.735798 0.314224
O O3 0.335092 0.779387 0.661670
O O4 0.198297 0.783241 0.614140
O O5 0.228514 0.270745 0.826233
O O6 0.000000 0.269830 0.500000
O O7 0.104383 0.000000 0.711775
O O8 0.105540 0.277860 0.812029
O O9 0.790860 0.723726 0.871312
O O10 0.674375 0.799690 0.852556
O O11 0.854716 0.000000 0.041740
O O12 0.767903 0.264480 0.666641
O O13 0.566556 0.277037 0.493391
O O14 0.702873 0.000000 0.675319
O O15 0.100019 0.000000 0.203005
O O16 0.000000 0.728309 0.000000
O O17 0.430409 0.500000 0.731325
O O18 0.509204 0.776949 0.763819
O O19 0.576627 0.708969 0.013031
O O20 0.412502 0.500000 0.218101
O O21 0.680556 0.000000 0.127513
#
# Coordination Sequence:
#
# PCOD9150311 Si02
#       8
#     4   4   4   4   4   4   4   4
#     4  11  23  40  60  84 117 157 191 229 286 349
#     4   9  19  36  58  83 112 148 189 233 280 333
#     4  10  20  36  57  84 114 148 188 230 284 342
#     4  10  21  36  58  85 116 150 185 234 287 338
#     4  10  22  40  61  87 115 148 194 245 287 329
#     4  10  21  37  57  82 115 154 189 230 287 346
#     4  11  21  35  57  84 115 150 187 232 282 339
#     4  11  22  36  60  91 116 147 191 240 286 336
#
# _framework density 25.531065000000002
#
# number of rings (size 3 to 8) (size 9 to 14) (size 15 to 20)
#    0.000    1.750    2.500    1.875    0.000    6.250 
#    0.000    3.750    0.000    4.875    0.000    0.000 
#    0.000    0.000    0.000    0.000    0.000    0.000 
#
# Total GULP energy -178978.958328 kJ/mol
# GULP energy per Si atom -5593.092448 kJ/mol
# Density = 2.547296 g / cm^3
# Si number density = 25.531065 Si / 1000 Ang^3
#
#
#
# Elastic Constant Matrix: (Units=GPa)
#
#
# Indices 1 2 3 4 5 6 
#
# 1 83.3204 -0.6422 8.6935 0.0000 -29.3810 0.0000
# 2 -0.6422 70.5500 -4.4649 0.0000 -1.5912 0.0000
# 3 8.6935 -4.4649 135.2702 0.0000 -31.0608 0.0000
# 4 0.0000 0.0000 0.0000 25.7327 0.0000 -3.4750
# 5 -29.3810 -1.5912 -31.0608 0.0000 51.9176 0.0000
# 6 0.0000 0.0000 0.0000 -3.4750 0.0000 7.6660
#
#
#
# Elastic Compliance Matrix: (Units=1/GPa)
#
#
# Indices 1 2 3 4 5 6 
#
# 1 0.015160 0.000422 0.001174 0.000000 0.009295 0.000000
# 2 0.000422 0.014247 0.000693 0.000000 0.001090 0.000000
# 3 0.001174 0.000693 0.008691 0.000000 0.005885 0.000000
# 4 0.000000 0.000000 0.000000 0.041395 0.000000 0.018765
# 5 0.009295 0.001090 0.005885 0.000000 0.028076 0.000000
# 6 0.000000 0.000000 0.000000 0.018765 0.000000 0.138953
#
#
# Mechanical properties :
#
#
# Convention : Reuss Voigt Hill
#
# Bulk Modulus (GPa) = 23.43195 32.92373 28.17784
# Shear Modulus (GPa) = 19.51836 36.10020 27.80928
#
# Velocity S-wave (km/s) = 2.76795 3.76436 3.30393
# Velocity P-wave (km/s) = 4.40603 5.64069 5.06115
#
# Compressibility (1/GPa) = 0.04267678
#
# Stress axis : x y z
#
# Youngs Moduli (GPa) = 65.96238 70.19187 115.05538
#
# Poissons Ratio (x) = -0.02962 -0.13506
# Poissons Ratio (y) = -0.02783 -0.07979
# Poissons Ratio (z) = -0.07743 -0.04868
#
# Static dielectric constant tensor:
#      x y z
#    x 2.013990 0.000000 -0.012390 
#    y 0.000000 1.924840 0.000000 
#    z -0.012390 0.000000 2.079940 
# 
# From -- ./inp_files/71512.got.cif
#   From: 2010.05.17/outbox.cif.g08.bks.cpg/sg10_36_cif.got.tgz:71512.got - 2010.06.03 11:33:40.
