data_PCOD9150612
_publ_section_title
;
Structure prediction by ZEFSAII (Michael W. Deem and Ramdas Pophale) SiO2 
 PCOD9150612
Probable space group: P 2/M
;
_chemical_formula_sum "Si O2"
_cell_formula_units_Z 28
_cell_length_a 15.059971
_cell_length_b 21.206553
_cell_length_c 8.844803
_cell_angle_alpha 90.000000
_cell_angle_beta 151.251903
_cell_angle_gamma 90.000000
_cell_volume 1358.598167
_symmetry_space_group_name_H-M "P 2/M"
_symmetry_group_IT_number 10
_symmetry_cell_setting 'monoclinic'
loop_
_space_group_symop_operation_xyz
x,y,z
-x,y,-z
-x,-y,-z
x,-y,z
loop_
_atom_site_type_symbol
_atom_site_label
_atom_site_fract_x
_atom_site_fract_y
_atom_site_fract_z
Si Si1 0.456950 0.665636 0.114698
Si Si2 0.166672 0.677628 0.127691
Si Si3 0.202718 0.075160 0.369495
Si Si4 0.454772 0.888040 0.273378
Si Si5 0.153563 0.930035 0.621760
Si Si6 0.805053 0.234136 0.121526
Si Si7 0.303890 0.571405 0.119123
O O1 0.644736 0.676821 0.491855
O O2 0.353521 0.604978 0.034252
O O3 0.500000 0.661339 0.000000
O O4 0.319742 0.722057 0.955620
O O5 0.174157 0.615191 0.030955
O O6 0.166859 0.733026 0.001043
O O7 0.000000 0.679736 0.000000
O O8 0.345105 0.120013 0.498368
O O9 0.188777 0.101782 0.517293
O O10 0.261019 0.000000 0.454551
O O11 0.000000 0.076614 0.000000
O O12 0.500000 0.918667 0.500000
O O13 0.341303 0.931834 0.992196
O O14 0.323087 0.827646 0.094893
O O15 0.000000 0.902365 0.500000
O O16 0.083526 0.000000 0.477457
O O17 0.000000 0.227173 0.500000
O O18 0.500000 0.569645 0.500000
O O19 0.236250 0.500000 0.000670
#
# Coordination Sequence:
#
# PCOD9150612 Si02
#       7
#     4   4   4   4   4   4   4
#     4  10  20  36  60  88 118 159 204 244 297 358
#     4  10  20  38  63  87 118 158 203 249 298 357
#     4  10  22  41  65  92 122 157 195 237 291 355
#     4  12  24  39  60  88 120 153 194 242 295 351
#     4  10  21  39  62  88 119 153 190 234 287 346
#     4  11  24  43  62  83 114 152 200 252 303 355
#     4   8  16  32  55  86 125 162 198 246 297 349
#
# _framework density 20.609479
#
# number of rings (size 3 to 8) (size 9 to 14) (size 15 to 20)
#    0.000    1.857    0.000    5.143    0.000    5.143 
#    0.000    8.571    0.000   14.571    0.000    0.000 
#    0.000    0.000    0.000    0.000    0.000    0.000 
#
# Total GULP energy -156110.480580 kJ/mol
# GULP energy per Si atom -5575.374306 kJ/mol
# Density = 2.056257 g / cm^3
# Si number density = 20.609479 Si / 1000 Ang^3
#
#
#
# Elastic Constant Matrix: (Units=GPa)
#
#
# Indices 1 2 3 4 5 6 
#
# 1 198.8958 41.7470 63.3496 0.0000 -4.9016 0.0000
# 2 41.7470 90.7888 29.2016 0.0000 8.5907 0.0000
# 3 63.3496 29.2016 115.9126 0.0000 -0.5806 0.0000
# 4 0.0000 0.0000 0.0000 16.4274 0.0000 3.4036
# 5 -4.9016 8.5907 -0.5806 0.0000 44.8698 0.0000
# 6 0.0000 0.0000 0.0000 3.4036 0.0000 13.4003
#
#
#
# Elastic Compliance Matrix: (Units=1/GPa)
#
#
# Indices 1 2 3 4 5 6 
#
# 1 0.006448 -0.002105 -0.002988 0.000000 0.001069 0.000000
# 2 -0.002105 0.012922 -0.002119 0.000000 -0.002731 0.000000
# 3 -0.002988 -0.002119 0.010795 0.000000 0.000219 0.000000
# 4 0.000000 0.000000 0.000000 0.064255 0.000000 -0.016321
# 5 0.001069 -0.002731 0.000219 0.000000 0.022929 0.000000
# 6 0.000000 0.000000 0.000000 -0.016321 0.000000 0.078771
#
#
# Mechanical properties :
#
#
# Convention : Reuss Voigt Hill
#
# Bulk Modulus (GPa) = 63.52622 74.91043 69.21833
# Shear Modulus (GPa) = 23.17053 33.02609 28.09831
#
# Velocity S-wave (km/s) = 3.35664 4.00743 3.69639
# Velocity P-wave (km/s) = 6.77595 7.60520 7.20252
#
# Compressibility (1/GPa) = 0.01574153
#
# Stress axis : x y z
#
# Youngs Moduli (GPa) = 155.09547 77.38513 92.63341
#
# Poissons Ratio (x) = 0.16288 0.27681
# Poissons Ratio (y) = 0.32644 0.19628
# Poissons Ratio (z) = 0.46346 0.16397
#
# Static dielectric constant tensor:
#      x y z
#    x 1.740270 0.000000 0.016950 
#    y 0.000000 1.772980 0.000000 
#    z 0.016950 0.000000 1.740190 
# 
# From -- ./inp_files/30467.got.cif
#   From: 2010.05.17/outbox.cif.g08.bks.cpg/sg10_16_cif.got.tgz:30467.got - 2010.06.03 11:33:40.
