data_PCOD9150100
_publ_section_title
;
Structure prediction by ZEFSAII (Michael W. Deem and Ramdas Pophale) SiO2 
 PCOD9150100
Probable space group: P 2/M
;
_chemical_formula_sum "Si O2"
_cell_formula_units_Z 28
_cell_length_a 14.553837
_cell_length_b 8.992308
_cell_length_c 19.310350
_cell_angle_alpha 90.000000
_cell_angle_beta 144.468579
_cell_angle_gamma 90.000000
_cell_volume 1468.677923
_symmetry_space_group_name_H-M "P 2/M"
_symmetry_group_IT_number 10
_symmetry_cell_setting 'monoclinic'
loop_
_space_group_symop_operation_xyz
x,y,z
-x,y,-z
-x,-y,-z
x,-y,z
loop_
_atom_site_type_symbol
_atom_site_label
_atom_site_fract_x
_atom_site_fract_y
_atom_site_fract_z
Si Si1 0.995669 0.676507 0.697875
Si Si2 0.438624 0.172059 0.751246
Si Si3 0.142702 0.321345 0.640226
Si Si4 0.244479 0.676993 0.092419
Si Si5 0.336112 0.828074 0.526792
Si Si6 0.681527 0.178085 0.715037
Si Si7 0.000089 0.823624 0.841956
O O1 0.005789 0.500000 0.713474
O O2 0.088154 0.716381 0.684376
O O3 0.814036 0.725848 0.576882
O O4 0.055329 0.758839 0.802839
O O5 0.300441 0.238767 0.713376
O O6 0.598290 0.267451 0.850972
O O7 0.378693 0.176273 0.634654
O O8 0.471710 0.000000 0.788337
O O9 0.165557 0.500000 0.649740
O O10 0.000000 0.282882 0.500000
O O11 0.234838 0.500000 0.087637
O O12 0.262981 0.740256 0.181237
O O13 0.095013 0.746835 0.962087
O O14 0.499107 0.782554 0.589076
O O15 0.297873 0.000000 0.484625
O O16 0.812748 0.206793 0.737613
O O17 0.680664 0.000000 0.728294
O O18 0.023356 0.000000 0.859493
#
# Coordination Sequence:
#
# PCOD9150100 Si02
#       7
#     4   4   4   4   4   4   4
#     4  11  23  37  55  82 118 152 188 232 284 342
#     4  10  20  35  59  88 115 146 190 236 279 332
#     4  10  20  36  58  85 117 150 185 230 288 341
#     4  11  22  37  60  87 116 147 187 236 285 335
#     4   9  18  34  55  82 113 146 187 230 279 334
#     4   9  20  38  60  85 112 149 193 236 280 331
#     4  11  23  40  59  79 113 155 194 235 281 334
#
# _framework density 19.064765999999999
#
# number of rings (size 3 to 8) (size 9 to 14) (size 15 to 20)
#    0.000    1.857    1.429    3.857    0.000    7.143 
#    0.000    3.571    0.000    4.286    0.000    0.000 
#    0.000    0.000    0.000    0.000    0.000    0.000 
#
# Total GULP energy -156442.040782 kJ/mol
# GULP energy per Si atom -5587.215742 kJ/mol
# Density = 1.902137 g / cm^3
# Si number density = 19.064766 Si / 1000 Ang^3
#
#
#
# Elastic Constant Matrix: (Units=GPa)
#
#
# Indices 1 2 3 4 5 6 
#
# 1 107.2711 37.2606 10.9323 0.0000 11.5834 0.0000
# 2 37.2606 47.0257 6.6854 0.0000 6.5346 0.0000
# 3 10.9323 6.6854 19.3111 0.0000 11.7610 0.0000
# 4 0.0000 0.0000 0.0000 30.3607 0.0000 -4.4622
# 5 11.5834 6.5346 11.7610 0.0000 23.5045 0.0000
# 6 0.0000 0.0000 0.0000 -4.4622 0.0000 126.3900
#
#
#
# Elastic Compliance Matrix: (Units=1/GPa)
#
#
# Indices 1 2 3 4 5 6 
#
# 1 0.013257 -0.009787 -0.002582 0.000000 -0.002520 0.000000
# 2 -0.009787 0.029778 -0.003832 0.000000 -0.001538 0.000000
# 3 -0.002582 -0.003832 0.076444 0.000000 -0.035913 0.000000
# 4 0.000000 0.000000 0.000000 0.033109 0.000000 0.001169
# 5 -0.002520 -0.001538 -0.035913 0.000000 0.062185 0.000000
# 6 0.000000 0.000000 0.000000 0.001169 0.000000 0.007953
#
#
# Mechanical properties :
#
#
# Convention : Reuss Voigt Hill
#
# Bulk Modulus (GPa) = 11.48391 31.48495 21.48443
# Shear Modulus (GPa) = 17.59621 43.96633 30.78127
#
# Velocity S-wave (km/s) = 3.04134 4.80746 4.02252
# Velocity P-wave (km/s) = 4.28599 6.88230 5.73305
#
# Compressibility (1/GPa) = 0.08707836
#
# Stress axis : x y z
#
# Youngs Moduli (GPa) = 75.43245 33.58184 13.08151
#
# Poissons Ratio (x) = 0.32866 0.03377
# Poissons Ratio (y) = 0.73824 0.05012
# Poissons Ratio (z) = 0.19475 0.12867
#
# Static dielectric constant tensor:
#      x y z
#    x 1.663170 0.000000 0.002330 
#    y 0.000000 1.631430 0.000000 
#    z 0.002330 0.000000 1.659720 
# 
# From -- ./inp_files/77730.got.cif
#   From: 2010.05.17/outbox.cif.g08.bks.cpg/sg10_39_cif.got.tgz:77730.got - 2010.06.03 11:33:40.
