data_PCOD9150768
_publ_section_title
;
Structure prediction by ZEFSAII (Michael W. Deem and Ramdas Pophale) SiO2 
 PCOD9150768
Probable space group: P 2/M
;
_chemical_formula_sum "Si O2"
_cell_formula_units_Z 24
_cell_length_a 19.636879
_cell_length_b 8.844345
_cell_length_c 10.400850
_cell_angle_alpha 90.000000
_cell_angle_beta 130.324840
_cell_angle_gamma 90.000000
_cell_volume 1377.155364
_symmetry_space_group_name_H-M "P 2/M"
_symmetry_group_IT_number 10
_symmetry_cell_setting 'monoclinic'
loop_
_space_group_symop_operation_xyz
x,y,z
-x,y,-z
-x,-y,-z
x,-y,z
loop_
_atom_site_type_symbol
_atom_site_label
_atom_site_fract_x
_atom_site_fract_y
_atom_site_fract_z
Si Si1 0.989896 0.679583 0.641073
Si Si2 0.200523 0.180516 0.523162
Si Si3 0.172093 0.180497 0.966302
Si Si4 0.574982 0.500000 0.483079
Si Si5 0.543272 0.500000 0.912528
Si Si6 0.251541 0.327797 0.317348
Si Si7 0.717645 0.328140 0.127112
O O1 0.985102 0.500000 0.658581
O O2 0.899785 0.759407 0.577453
O O3 0.000000 0.703327 0.500000
O O4 0.075816 0.749925 0.815054
O O5 0.235741 0.242709 0.430866
O O6 0.258512 0.248502 0.710741
O O7 0.202236 0.000000 0.528694
O O8 0.239138 0.238969 0.937408
O O9 0.167603 0.000000 0.960337
O O10 0.206993 0.242310 0.144700
O O11 0.500000 0.500000 0.500000
O O12 0.528974 0.500000 0.287815
O O13 0.643115 0.358703 0.578382
O O14 0.500000 0.500000 0.000000
O O15 0.612082 0.359118 0.983406
O O16 0.214353 0.500000 0.281731
O O17 0.757279 0.500000 0.177269
#
# Coordination Sequence:
#
# PCOD9150768 Si02
#       7
#     4   4   4   2   2   4   4
#     4  11  23  38  63  90 126 165 220 254 284 351
#     4  12  23  39  60  92 132 169 202 251 315 361
#     4  12  23  39  60  92 128 163 204 254 308 360
#     4  10  20  40  70  93 112 156 210 263 298 372
#     4  10  20  36  66  93 114 148 212 259 300 368
#     4  10  23  40  65  89 121 159 212 250 310 362
#     4  10  21  36  63  89 119 155 212 250 305 357
#
# _framework density 17.427227999999999
#
# number of rings (size 3 to 8) (size 9 to 14) (size 15 to 20)
#    1.000    0.167    1.667    6.500    0.000    1.333 
#    0.000    3.333    0.000   20.000    0.000    0.000 
#    0.000    0.000    0.000    0.000    0.000    0.000 
#
# Total GULP energy -133972.807765 kJ/mol
# GULP energy per Si atom -5582.200324 kJ/mol
# Density = 1.738756 g / cm^3
# Si number density = 17.427228 Si / 1000 Ang^3
#
#
#
# Elastic Constant Matrix: (Units=GPa)
#
#
# Indices 1 2 3 4 5 6 
#
# 1 51.5969 21.8009 9.0396 0.0000 3.5156 0.0000
# 2 21.8009 128.3582 38.7286 0.0000 -5.1566 0.0000
# 3 9.0396 38.7286 90.8664 0.0000 -4.5356 0.0000
# 4 0.0000 0.0000 0.0000 -47.7290 0.0000 35.2644
# 5 3.5156 -5.1566 -4.5356 0.0000 36.5257 0.0000
# 6 0.0000 0.0000 0.0000 35.2644 0.0000 -42.3401
#
#
#
# Elastic Compliance Matrix: (Units=1/GPa)
#
#
# Indices 1 2 3 4 5 6 
#
# 1 0.021159 -0.003471 -0.000756 0.000000 -0.002620 0.000000
# 2 -0.003471 0.009533 -0.003657 0.000000 0.001226 0.000000
# 3 -0.000756 -0.003657 0.012695 0.000000 0.001133 0.000000
# 4 0.000000 0.000000 0.000000 -0.054473 0.000000 -0.045369
# 5 -0.002620 0.001226 0.001133 0.000000 0.027944 0.000000
# 6 0.000000 0.000000 0.000000 -0.045369 0.000000 -0.061406
#
#
# Mechanical properties :
#
#
# Convention : Reuss Voigt Hill
#
# Bulk Modulus (GPa) = 36.20650 45.55109 40.87879
# Shear Modulus (GPa) = -255.44048 2.70815 -126.36617
#
# Velocity S-wave (km/s) = -12.11997 1.24794 -8.52456
# Velocity P-wave (km/s) = 13.23017 5.31706 8.56640
#
# Compressibility (1/GPa) = 0.02761935
#
# Stress axis : x y z
#
# Youngs Moduli (GPa) = 47.26230 104.90239 78.76853
#
# Poissons Ratio (x) = 0.36408 0.05958
# Poissons Ratio (y) = 0.16403 0.28802
# Poissons Ratio (z) = 0.03575 0.38358
#
# Static dielectric constant tensor:
#      x y z
#    x 1.579910 0.000000 0.009930 
#    y 0.000000 1.575640 0.000000 
#    z 0.009930 0.000000 1.565730 
# 
# From -- ./inp_files/33991.got.cif
#   From: 2010.05.17/outbox.cif.g08.bks.cpg/sg10_17_cif.got.tgz:33991.got - 2010.06.03 11:33:40.
