data_PCOD9150353
_publ_section_title
;
Structure prediction by ZEFSAII (Michael W. Deem and Ramdas Pophale) SiO2 
 PCOD9150353
Probable space group: P 2/M
;
_chemical_formula_sum "Si O2"
_cell_formula_units_Z 24
_cell_length_a 9.390491
_cell_length_b 8.900260
_cell_length_c 32.315558
_cell_angle_alpha 90.000000
_cell_angle_beta 150.515047
_cell_angle_gamma 90.000000
_cell_volume 1329.351486
_symmetry_space_group_name_H-M "P 2/M"
_symmetry_group_IT_number 10
_symmetry_cell_setting 'monoclinic'
loop_
_space_group_symop_operation_xyz
x,y,z
-x,y,-z
-x,-y,-z
x,-y,z
loop_
_atom_site_type_symbol
_atom_site_label
_atom_site_fract_x
_atom_site_fract_y
_atom_site_fract_z
Si Si1 0.834870 0.320949 0.417507
Si Si2 0.309934 0.819473 0.241064
Si Si3 0.632736 0.819897 0.237916
Si Si4 0.166444 0.320686 0.415644
Si Si5 0.643653 0.181322 0.080364
Si Si6 0.660927 0.680028 0.916950
O O1 0.791054 0.500000 0.410550
O O2 0.528884 0.245615 0.330306
O O3 0.000000 0.266054 0.500000
O O4 0.033444 0.294900 0.427493
O O5 0.432781 0.775021 0.226848
O O6 0.980047 0.772424 0.164300
O O7 0.320278 0.000000 0.245204
O O8 0.507059 0.748158 0.164721
O O9 0.954309 0.762563 0.330222
O O10 0.630068 0.000000 0.234027
O O11 0.500000 0.272677 0.500000
O O12 0.156322 0.500000 0.404720
O O13 0.475835 0.256570 0.075607
O O14 0.630700 0.000000 0.081873
O O15 0.500000 0.218620 0.000000
O O16 0.638504 0.500000 0.910506
O O17 0.000000 0.721338 0.000000
#
# Coordination Sequence:
#
# PCOD9150353 Si02
#       6
#     4   4   4   4   4   4
#     4   9  18  32  50  73 102 139 179 216 260 313
#     4   9  19  35  55  80 107 138 177 220 266 314
#     4  10  20  36  58  81 108 143 182 224 270 320
#     4   9  18  33  52  75 107 144 180 221 267 315
#     4  10  21  38  59  82 109 141 177 217 265 322
#     4  11  24  39  56  81 111 142 179 222 268 321
#
# _framework density 18.053917999999999
#
# number of rings (size 3 to 8) (size 9 to 14) (size 15 to 20)
#    0.000    2.333    0.000    2.000    0.000    6.333 
#    0.000    1.667    0.000    0.000    0.000    0.000 
#    0.000    0.000    0.000    0.000    0.000    0.000 
#
# Total GULP energy -133980.170503 kJ/mol
# GULP energy per Si atom -5582.507104 kJ/mol
# Density = 1.801283 g / cm^3
# Si number density = 18.053918 Si / 1000 Ang^3
#
#
#
# Elastic Constant Matrix: (Units=GPa)
#
#
# Indices 1 2 3 4 5 6 
#
# 1 110.6487 46.8002 110.4870 0.0000 3.7653 0.0000
# 2 46.8002 31.1164 62.4018 -0.0001 -0.4929 0.0000
# 3 110.4870 62.4018 207.4751 -0.0018 2.1039 0.0006
# 4 0.0000 -0.0001 -0.0018 229.7873 0.0001 -58.6633
# 5 3.7653 -0.4929 2.1039 0.0001 41.2098 0.0000
# 6 0.0000 0.0000 0.0006 -58.6633 0.0000 42.5963
#
#
#
# Elastic Compliance Matrix: (Units=1/GPa)
#
#
# Indices 1 2 3 4 5 6 
#
# 1 0.027373 -0.030316 -0.005433 0.000000 -0.002586 0.000000
# 2 -0.030316 0.114763 -0.018424 0.000000 0.005083 0.000000
# 3 -0.005433 -0.018424 0.013258 0.000000 -0.000401 0.000000
# 4 0.000000 0.000000 0.000000 0.006712 0.000000 0.009243
# 5 -0.002586 0.005083 -0.000401 0.000000 0.024584 0.000000
# 6 0.000000 0.000000 0.000000 0.009243 0.000000 0.036206
#
#
# Mechanical properties :
#
#
# Convention : Reuss Voigt Hill
#
# Bulk Modulus (GPa) = 21.25474 87.62424 54.43949
# Shear Modulus (GPa) = 14.41244 71.35543 42.88394
#
# Velocity S-wave (km/s) = 2.82849 6.29359 4.87902
# Velocity P-wave (km/s) = 4.73979 10.07237 7.87141
#
# Compressibility (1/GPa) = 0.04704832
#
# Stress axis : x y z
#
# Youngs Moduli (GPa) = 36.53287 8.71364 75.42383
#
# Poissons Ratio (x) = 0.26416 0.40975
# Poissons Ratio (y) = 1.10752 1.38964
# Poissons Ratio (z) = 0.19847 0.16054
#
# Static dielectric constant tensor:
#      x y z
#    x 1.599980 0.000000 0.007690 
#    y 0.000000 1.605810 0.000000 
#    z 0.007690 0.000000 1.596250 
# 
# From -- ./inp_files/27199.got.cif
#   From: 2010.05.17/outbox.cif.g08.bks.cpg/sg10_14_cif.got.tgz:27199.got - 2010.06.03 11:33:40.
