data_PCOD9151762
_publ_section_title
;
Structure prediction by ZEFSAII (Michael W. Deem and Ramdas Pophale) SiO2 
 PCOD9151762
Probable space group: P 2/M
;
_chemical_formula_sum "Si O2"
_cell_formula_units_Z 32
_cell_length_a 19.813635
_cell_length_b 8.557268
_cell_length_c 12.823964
_cell_angle_alpha 90.000000
_cell_angle_beta 64.253500
_cell_angle_gamma 90.000000
_cell_volume 1958.455424
_symmetry_space_group_name_H-M "P 2/M"
_symmetry_group_IT_number 10
_symmetry_cell_setting 'monoclinic'
loop_
_space_group_symop_operation_xyz
x,y,z
-x,y,-z
-x,-y,-z
x,-y,z
loop_
_atom_site_type_symbol
_atom_site_label
_atom_site_fract_x
_atom_site_fract_y
_atom_site_fract_z
Si Si1 0.317305 0.312854 0.087034
Si Si2 0.579642 0.188709 0.397635
Si Si3 0.836164 0.189395 0.731069
Si Si4 0.410985 0.688817 0.228372
Si Si5 0.684111 0.313023 0.504673
Si Si6 0.836575 0.189398 0.487510
Si Si7 0.575164 0.187275 0.160119
Si Si8 0.000216 0.818344 0.373115
O O1 0.316323 0.500000 0.086951
O O2 0.233319 0.250662 0.156861
O O3 0.364794 0.261568 0.157306
O O4 0.359842 0.251592 0.957153
O O5 0.500000 0.239478 0.500000
O O6 0.645350 0.252727 0.426061
O O7 0.584024 0.238560 0.274450
O O8 0.581572 0.000000 0.399411
O O9 0.825428 0.235698 0.616572
O O10 0.918578 0.247751 0.711329
O O11 0.837355 0.000000 0.732496
O O12 0.414766 0.500000 0.225726
O O13 0.366864 0.739330 0.362315
O O14 0.494660 0.754143 0.173802
O O15 0.685266 0.500000 0.504287
O O16 0.767469 0.250467 0.467589
O O17 0.919112 0.247767 0.397071
O O18 0.837739 0.000000 0.484516
O O19 0.575876 0.000000 0.157167
O O20 0.000000 0.818273 0.500000
O O21 0.000254 0.000000 0.340072
#
# Coordination Sequence:
#
# PCOD9151762 Si02
#       8
#     4   4   4   4   4   4   4   4
#     4  11  22  35  49  70 105 138 166 199 243 296
#     4  10  21  38  55  72  94 122 163 214 258 292
#     4   9  16  28  48  72  99 132 170 203 237 286
#     4  10  21  35  49  69 101 136 164 198 244 293
#     4  11  21  32  50  75 102 132 167 201 242 297
#     4   9  16  28  48  72 101 133 165 203 245 286
#     4  11  23  37  54  73  93 123 170 216 250 291
#     4   7  12  24  43  69  98 129 163 200 240 284
#
# _framework density 16.339407999999999
#
# number of rings (size 3 to 8) (size 9 to 14) (size 15 to 20)
#    0.000    2.250    2.500    3.000    0.000    4.250 
#    0.000    0.625    0.000    2.250    0.000    0.875 
#    0.000    7.000    0.000    0.000    0.000    0.000 
#
# Total GULP energy -178446.433424 kJ/mol
# GULP energy per Si atom -5576.451044 kJ/mol
# Density = 1.630222 g / cm^3
# Si number density = 16.339408 Si / 1000 Ang^3
#
#
#
# Elastic Constant Matrix: (Units=GPa)
#
#
# Indices 1 2 3 4 5 6 
#
# 1 138.1228 19.8576 67.6898 0.0000 -35.7766 0.0000
# 2 19.8576 12.7295 20.5494 0.0000 -5.3812 0.0000
# 3 67.6898 20.5494 105.5999 0.0000 -19.8884 0.0000
# 4 0.0000 0.0000 0.0000 109.7040 0.0000 -135.6783
# 5 -35.7766 -5.3812 -19.8884 0.0000 24.1884 0.0000
# 6 0.0000 0.0000 0.0000 -135.6783 0.0000 212.6521
#
#
#
# Elastic Compliance Matrix: (Units=1/GPa)
#
#
# Indices 1 2 3 4 5 6 
#
# 1 0.015172 -0.008772 -0.004921 0.000000 0.016442 0.000000
# 2 -0.008772 0.121095 -0.018117 0.000000 -0.000931 0.000000
# 3 -0.004921 -0.018117 0.016589 0.000000 0.002330 0.000000
# 4 0.000000 0.000000 0.000000 0.043220 0.000000 0.027576
# 5 0.016442 -0.000931 0.002330 0.000000 0.067370 0.000000
# 6 0.000000 0.000000 0.000000 0.027576 0.000000 0.022297
#
#
# Mechanical properties :
#
#
# Convention : Reuss Voigt Hill
#
# Bulk Modulus (GPa) = 11.20642 52.51620 31.86131
# Shear Modulus (GPa) = 13.18881 79.19927 46.19404
#
# Velocity S-wave (km/s) = 2.84417 6.96969 5.32287
# Velocity P-wave (km/s) = 4.20228 9.84781 7.57095
#
# Compressibility (1/GPa) = 0.08923456
#
# Stress axis : x y z
#
# Youngs Moduli (GPa) = 65.91191 8.25795 60.28180
#
# Poissons Ratio (x) = 0.07244 0.29667
# Poissons Ratio (y) = 0.57818 1.09214
# Poissons Ratio (z) = 0.32438 0.14961
#
# Static dielectric constant tensor:
#      x y z
#    x 1.551520 0.000000 -0.016500 
#    y 0.000000 1.554410 0.000000 
#    z -0.016500 0.000000 1.534820 
# 
# From -- ./inp_files/52731.got.cif
#   From: 2010.05.17/outbox.cif.g08.bks.cpg/sg10_27_cif.got.tgz:52731.got - 2010.06.03 11:33:40.
