data_PCOD9151013
_publ_section_title
;
Structure prediction by ZEFSAII (Michael W. Deem and Ramdas Pophale) SiO2 
 PCOD9151013
Probable space group: P 2/M
;
_chemical_formula_sum "Si O2"
_cell_formula_units_Z 28
_cell_length_a 18.924095
_cell_length_b 8.076857
_cell_length_c 14.013168
_cell_angle_alpha 90.000000
_cell_angle_beta 143.126232
_cell_angle_gamma 90.000000
_cell_volume 1285.239917
_symmetry_space_group_name_H-M "P 2/M"
_symmetry_group_IT_number 10
_symmetry_cell_setting 'monoclinic'
loop_
_space_group_symop_operation_xyz
x,y,z
-x,y,-z
-x,-y,-z
x,-y,z
loop_
_atom_site_type_symbol
_atom_site_label
_atom_site_fract_x
_atom_site_fract_y
_atom_site_fract_z
Si Si1 0.105994 0.307406 0.547181
Si Si2 0.291281 0.804979 0.892038
Si Si3 0.437382 0.699423 0.337258
Si Si4 0.968666 0.202886 0.859186
Si Si5 0.218168 0.192324 0.484429
Si Si6 0.801962 0.199125 0.002274
Si Si7 0.475827 0.694032 0.775334
O O1 0.083444 0.500000 0.501469
O O2 0.225732 0.288138 0.736896
O O3 0.124914 0.211667 0.469408
O O4 0.000000 0.245092 0.500000
O O5 0.267375 0.000000 0.854779
O O6 0.234675 0.744399 0.931421
O O7 0.431033 0.779166 0.053763
O O8 0.500000 0.763367 0.500000
O O9 0.445213 0.500000 0.346708
O O10 0.301692 0.749200 0.181348
O O11 0.497391 0.757401 0.303380
O O12 0.844962 0.256855 0.679695
O O13 0.966592 0.000000 0.856484
O O14 0.000000 0.255386 0.000000
O O15 0.073871 0.258085 0.903341
O O16 0.338344 0.280534 0.643377
O O17 0.246800 0.000000 0.502723
O O18 0.804597 0.000000 0.008789
O O19 0.503448 0.500000 0.808563
#
# Coordination Sequence:
#
# PCOD9151013 Si02
#       7
#     4   4   4   4   4   4   4
#     4  11  24  41  63  90 120 156 196 239 293 354
#     4  10  20  37  61  89 118 151 198 246 294 349
#     4   9  19  34  53  78 111 152 192 236 287 340
#     4   9  19  35  55  82 116 152 189 236 292 345
#     4  11  23  39  61  88 119 155 197 246 296 348
#     4   9  18  33  55  82 110 144 188 238 286 337
#     4  10  21  38  58  83 121 159 196 243 296 353
#
# _framework density 21.785816000000001
#
# number of rings (size 3 to 8) (size 9 to 14) (size 15 to 20)
#    0.000    2.143    0.000    2.571    2.000    4.286 
#    0.000    4.286    0.000    2.143    0.000    0.000 
#    0.000    0.000    0.000    0.000    0.000    0.000 
#
# Total GULP energy -156441.525964 kJ/mol
# GULP energy per Si atom -5587.197356 kJ/mol
# Density = 2.173623 g / cm^3
# Si number density = 21.785816 Si / 1000 Ang^3
#
#
#
# Elastic Constant Matrix: (Units=GPa)
#
#
# Indices 1 2 3 4 5 6 
#
# 1 47.2741 -2.7677 30.1299 0.0000 8.1818 0.0000
# 2 -2.7677 20.9710 -5.5339 0.0000 -1.8535 0.0000
# 3 30.1299 -5.5339 107.7086 0.0000 -8.3215 0.0000
# 4 0.0000 0.0000 0.0000 20.4957 0.0000 4.8647
# 5 8.1818 -1.8535 -8.3215 0.0000 32.8773 0.0000
# 6 0.0000 0.0000 0.0000 4.8647 0.0000 17.6655
#
#
#
# Elastic Compliance Matrix: (Units=1/GPa)
#
#
# Indices 1 2 3 4 5 6 
#
# 1 0.028242 0.000655 -0.008574 0.000000 -0.009162 0.000000
# 2 0.000655 0.048736 0.002571 0.000000 0.003235 0.000000
# 3 -0.008574 0.002571 0.012230 0.000000 0.005374 0.000000
# 4 0.000000 0.000000 0.000000 0.052203 0.000000 -0.014376
# 5 -0.009162 0.003235 0.005374 0.000000 0.034239 0.000000
# 6 0.000000 0.000000 0.000000 -0.014376 0.000000 0.060566
#
#
# Mechanical properties :
#
#
# Convention : Reuss Voigt Hill
#
# Bulk Modulus (GPa) = 12.73717 24.40113 18.56915
# Shear Modulus (GPa) = 18.30940 24.48272 21.39606
#
# Velocity S-wave (km/s) = 2.90216 3.35594 3.13726
# Velocity P-wave (km/s) = 4.13392 5.12262 4.65459
#
# Compressibility (1/GPa) = 0.07851036
#
# Stress axis : x y z
#
# Youngs Moduli (GPa) = 35.40814 20.51882 81.76486
#
# Poissons Ratio (x) = -0.01344 0.70109
# Poissons Ratio (y) = -0.02319 -0.21019
# Poissons Ratio (z) = 0.30361 -0.05275
#
# Static dielectric constant tensor:
#      x y z
#    x 1.808130 0.000000 -0.000430 
#    y 0.000000 1.746530 0.000000 
#    z -0.000430 0.000000 1.791560 
# 
# From -- ./inp_files/69887.got.cif
#   From: 2010.05.17/outbox.cif.g08.bks.cpg/sg10_35_cif.got.tgz:69887.got - 2010.06.03 11:33:40.
