data_PCOD9151604
_publ_section_title
;
Structure prediction by ZEFSAII (Michael W. Deem and Ramdas Pophale) SiO2 
 PCOD9151604
Probable space group: P 2/M
;
_chemical_formula_sum "Si O2"
_cell_formula_units_Z 32
_cell_length_a 14.269297
_cell_length_b 14.131759
_cell_length_c 18.347694
_cell_angle_alpha 90.000000
_cell_angle_beta 26.654839
_cell_angle_gamma 90.000000
_cell_volume 1659.792452
_symmetry_space_group_name_H-M "P 2/M"
_symmetry_group_IT_number 10
_symmetry_cell_setting 'monoclinic'
loop_
_space_group_symop_operation_xyz
x,y,z
-x,y,-z
-x,-y,-z
x,-y,z
loop_
_atom_site_type_symbol
_atom_site_label
_atom_site_fract_x
_atom_site_fract_y
_atom_site_fract_z
Si Si1 0.734883 0.713689 0.809710
Si Si2 0.347148 0.243540 0.397148
Si Si3 0.022186 0.890605 0.396954
Si Si4 0.123801 0.387461 0.147101
Si Si5 0.601517 0.388182 0.761762
Si Si6 0.701567 0.292701 0.401062
Si Si7 0.178016 0.104503 0.766971
Si Si8 0.295246 0.104472 0.855890
O O1 0.872021 0.668435 0.778820
O O2 0.736629 0.653997 0.734371
O O3 0.788265 0.822338 0.756707
O O4 0.500000 0.705751 0.000000
O O5 0.170865 0.164798 0.505073
O O6 0.325380 0.333500 0.360574
O O7 0.352473 0.274710 0.477057
O O8 0.557669 0.190176 0.226908
O O9 0.000000 0.888466 0.500000
O O10 0.038410 0.000000 0.362895
O O11 0.108233 0.500000 0.170262
O O12 0.919197 0.350652 0.246533
O O13 0.351890 0.370989 0.951211
O O14 0.629146 0.500000 0.737494
O O15 0.500000 0.335839 0.500000
O O16 0.741083 0.190759 0.336377
O O17 0.260677 0.108666 0.792579
O O18 0.230161 0.000000 0.700788
O O19 0.927940 0.111052 0.950070
O O20 0.384762 0.000000 0.810559
#
# Coordination Sequence:
#
# PCOD9151604 Si02
#       8
#     4   4   4   4   4   4   4   4
#     4  10  20  41  68  93 120 153 195 245 302 359
#     4  12  22  38  60  85 122 161 201 247 298 353
#     4  11  23  40  59  88 128 164 193 232 297 365
#     4  10  22  42  65  90 120 154 196 250 309 366
#     4  10  22  41  67  93 116 150 202 253 302 366
#     4  12  24  38  57  87 122 163 201 250 305 351
#     4   9  19  36  57  82 113 150 202 253 295 345
#     4   9  18  35  59  83 110 154 201 247 297 350
#
# _framework density 19.279519000000001
#
# number of rings (size 3 to 8) (size 9 to 14) (size 15 to 20)
#    0.000    1.625    3.750    2.250    0.000    3.750 
#    0.000    0.625    0.000    1.500    0.000    0.000 
#    0.000    0.000    0.000    0.000    0.000    0.000 
#
# Total GULP energy -178643.314439 kJ/mol
# GULP energy per Si atom -5582.603576 kJ/mol
# Density = 1.923564 g / cm^3
# Si number density = 19.279519 Si / 1000 Ang^3
#
#
#
# Elastic Constant Matrix: (Units=GPa)
#
#
# Indices 1 2 3 4 5 6 
#
# 1 82.1685 31.1044 17.4513 0.0000 -1.4330 0.0000
# 2 31.1044 112.5450 26.1447 0.0000 9.5505 0.0000
# 3 17.4513 26.1447 25.4009 0.0000 9.0804 0.0000
# 4 0.0000 0.0000 0.0000 28.7489 0.0000 -3.4158
# 5 -1.4330 9.5505 9.0804 0.0000 32.6325 0.0000
# 6 0.0000 0.0000 0.0000 -3.4158 0.0000 26.4367
#
#
#
# Elastic Compliance Matrix: (Units=1/GPa)
#
#
# Indices 1 2 3 4 5 6 
#
# 1 0.015119 -0.002330 -0.009406 0.000000 0.003963 0.000000
# 2 -0.002330 0.012037 -0.010541 0.000000 -0.000692 0.000000
# 3 -0.009406 -0.010541 0.061881 0.000000 -0.014547 0.000000
# 4 0.000000 0.000000 0.000000 0.035326 0.000000 0.004564
# 5 0.003963 -0.000692 -0.014547 0.000000 0.035069 0.000000
# 6 0.000000 0.000000 0.000000 0.004564 0.000000 0.038416
#
#
# Mechanical properties :
#
#
# Convention : Reuss Voigt Hill
#
# Bulk Modulus (GPa) = 22.48058 41.05724 31.76891
# Shear Modulus (GPa) = 19.43794 27.25789 23.34792
#
# Velocity S-wave (km/s) = 3.17869 3.76417 3.48375
# Velocity P-wave (km/s) = 5.01575 6.34302 5.71803
#
# Compressibility (1/GPa) = 0.04448283
#
# Stress axis : x y z
#
# Youngs Moduli (GPa) = 66.14283 83.07944 16.16002
#
# Poissons Ratio (x) = 0.19355 0.15200
# Poissons Ratio (y) = 0.15409 0.17035
# Poissons Ratio (z) = 0.62214 0.87576
#
# Static dielectric constant tensor:
#      x y z
#    x 1.688480 0.000000 -0.039680 
#    y 0.000000 1.641940 0.000000 
#    z -0.039680 0.000000 1.694640 
# 
# From -- ./inp_files/78175.got.cif
#   From: 2010.05.17/outbox.cif.g08.bks.cpg/sg10_40_cif.got.tgz:78175.got - 2010.06.03 11:33:40.
