data_PCOD9151491
_publ_section_title
;
Structure prediction by ZEFSAII (Michael W. Deem and Ramdas Pophale) SiO2 
 PCOD9151491
Probable space group: P 2/M
;
_chemical_formula_sum "Si O2"
_cell_formula_units_Z 32
_cell_length_a 10.881058
_cell_length_b 8.755874
_cell_length_c 19.264302
_cell_angle_alpha 90.000000
_cell_angle_beta 58.951516
_cell_angle_gamma 90.000000
_cell_volume 1572.419686
_symmetry_space_group_name_H-M "P 2/M"
_symmetry_group_IT_number 10
_symmetry_cell_setting 'monoclinic'
loop_
_space_group_symop_operation_xyz
x,y,z
-x,y,-z
-x,-y,-z
x,-y,z
loop_
_atom_site_type_symbol
_atom_site_label
_atom_site_fract_x
_atom_site_fract_y
_atom_site_fract_z
Si Si1 0.456581 0.821404 0.223854
Si Si2 0.918921 0.179078 0.223515
Si Si3 0.318985 0.683908 0.467429
Si Si4 0.839298 0.822851 0.618608
Si Si5 0.605103 0.319072 0.314105
Si Si6 0.915872 0.315978 0.955106
Si Si7 0.923495 0.321014 0.364435
Si Si8 0.580645 0.684547 0.048191
O O1 0.287312 0.808855 0.287729
O O2 0.533410 0.722354 0.261137
O O3 0.502283 0.761532 0.135862
O O4 0.495731 0.000000 0.221360
O O5 0.753704 0.231327 0.273438
O O6 0.974049 0.228167 0.283071
O O7 0.001590 0.260444 0.137043
O O8 0.930432 0.000000 0.210411
O O9 0.307024 0.500000 0.460998
O O10 0.232792 0.768578 0.431630
O O11 0.485617 0.722127 0.406861
O O12 0.236939 0.718975 0.562650
O O13 0.970368 0.718677 0.603722
O O14 0.883088 0.000000 0.601263
O O15 0.632737 0.500000 0.310819
O O16 0.918123 0.500000 0.955314
O O17 0.748631 0.269509 0.000954
O O18 0.000000 0.262889 0.000000
O O19 0.926960 0.500000 0.347201
O O20 0.574592 0.500000 0.057350
O O21 0.500000 0.723997 0.000000
#
# Coordination Sequence:
#
# PCOD9151491 Si02
#       8
#     4   4   4   4   4   4   4   4
#     4  10  21  37  59  88 121 156 194 240 299 358
#     4  12  26  41  60  89 123 156 196 245 304 362
#     4   9  20  38  61  88 115 155 206 250 294 352
#     4  10  21  36  57  88 124 160 198 244 299 359
#     4  10  20  39  64  87 115 153 200 247 294 352
#     4  10  22  42  66  90 119 160 207 252 302 368
#     4  11  23  39  59  84 119 160 204 250 297 352
#     4  10  22  38  59  90 122 156 202 254 307 363
#
# _framework density 20.3508
#
# number of rings (size 3 to 8) (size 9 to 14) (size 15 to 20)
#    0.000    1.750    0.000    3.750    1.750    7.000 
#    0.000    2.500    0.000    0.000    0.000    0.000 
#    0.000    0.000    0.000    0.000    0.000    0.000 
#
# Total GULP energy -178851.538266 kJ/mol
# GULP energy per Si atom -5589.110571 kJ/mol
# Density = 2.030448 g / cm^3
# Si number density = 20.350800 Si / 1000 Ang^3
#
#
#
# Elastic Constant Matrix: (Units=GPa)
#
#
# Indices 1 2 3 4 5 6 
#
# 1 79.2305 13.8791 28.1465 0.0000 -7.7982 0.0000
# 2 13.8791 16.8924 21.9427 0.0000 -4.7151 0.0000
# 3 28.1465 21.9427 129.9193 0.0000 -4.1323 0.0000
# 4 0.0000 0.0000 0.0000 12.7891 0.0000 -4.4072
# 5 -7.7982 -4.7151 -4.1323 0.0000 19.1411 0.0000
# 6 0.0000 0.0000 0.0000 -4.4072 0.0000 22.8506
#
#
#
# Elastic Compliance Matrix: (Units=1/GPa)
#
#
# Indices 1 2 3 4 5 6 
#
# 1 0.015183 -0.009435 -0.001584 0.000000 0.003520 0.000000
# 2 -0.009435 0.086917 -0.012161 0.000000 0.014941 0.000000
# 3 -0.001584 -0.012161 0.010047 0.000000 -0.001472 0.000000
# 4 0.000000 0.000000 0.000000 0.083758 0.000000 0.016154
# 5 0.003520 0.014941 -0.001472 0.000000 0.057040 0.000000
# 6 0.000000 0.000000 0.000000 0.016154 0.000000 0.046878
#
#
# Mechanical properties :
#
#
# Convention : Reuss Voigt Hill
#
# Bulk Modulus (GPa) = 15.20017 39.33098 27.26557
# Shear Modulus (GPa) = 13.58279 21.76109 17.67194
#
# Velocity S-wave (km/s) = 2.58627 3.27356 2.95000
# Velocity P-wave (km/s) = 4.05015 5.80144 5.00302
#
# Compressibility (1/GPa) = 0.06578873
#
# Stress axis : x y z
#
# Youngs Moduli (GPa) = 65.86204 11.50522 99.52931
#
# Poissons Ratio (x) = 0.10855 0.15765
# Poissons Ratio (y) = 0.62140 1.21033
# Poissons Ratio (z) = 0.10432 0.13991
#
# Static dielectric constant tensor:
#      x y z
#    x 1.739230 0.000000 -0.006010 
#    y 0.000000 1.676970 0.000000 
#    z -0.006010 0.000000 1.707570 
# 
# From -- ./inp_files/83575.got.cif
#   From: 2010.05.17/outbox.cif.g08.bks.cpg/sg10_42_cif.got.tgz:83575.got - 2010.06.03 11:33:40.
