data_PCOD9151561
_publ_section_title
;
Structure prediction by ZEFSAII (Michael W. Deem and Ramdas Pophale) SiO2 
 PCOD9151561
Probable space group: P 2/M
;
_chemical_formula_sum "Si O2"
_cell_formula_units_Z 32
_cell_length_a 12.399327
_cell_length_b 8.968091
_cell_length_c 29.289944
_cell_angle_alpha 90.000000
_cell_angle_beta 147.638828
_cell_angle_gamma 90.000000
_cell_volume 1743.319472
_symmetry_space_group_name_H-M "P 2/M"
_symmetry_group_IT_number 10
_symmetry_cell_setting 'monoclinic'
loop_
_space_group_symop_operation_xyz
x,y,z
-x,y,-z
-x,-y,-z
x,-y,z
loop_
_atom_site_type_symbol
_atom_site_label
_atom_site_fract_x
_atom_site_fract_y
_atom_site_fract_z
Si Si1 0.587511 0.679756 0.653692
Si Si2 0.450278 0.179881 0.839761
Si Si3 0.961963 0.678663 0.342394
Si Si4 0.707363 0.829988 0.602015
Si Si5 0.367084 0.819899 0.996561
Si Si6 0.122726 0.318535 0.499287
Si Si7 0.071209 0.322855 0.150537
Si Si8 0.194107 0.828444 0.101843
O O1 0.585129 0.500000 0.646988
O O2 0.659192 0.756445 0.633057
O O3 0.358146 0.726105 0.583567
O O4 0.751246 0.716700 0.750726
O O5 0.244448 0.253638 0.750135
O O6 0.619608 0.218745 0.862914
O O7 0.430010 0.000000 0.832960
O O8 0.525417 0.224557 0.917291
O O9 0.951648 0.500000 0.338557
O O10 0.135856 0.734632 0.370913
O O11 0.018716 0.727410 0.414394
O O12 0.500000 0.833571 0.500000
O O13 0.781530 0.000000 0.633964
O O14 0.141998 0.754556 0.914880
O O15 0.351838 0.000000 0.991327
O O16 0.500000 0.776124 0.000000
O O17 0.120267 0.500000 0.499124
O O18 0.000000 0.267086 0.500000
O O19 0.041751 0.500000 0.141494
O O20 0.147638 0.272487 0.128352
O O21 0.226566 0.000000 0.128697
O O22 0.000000 0.828028 0.000000
#
# Coordination Sequence:
#
# PCOD9151561 Si02
#       8
#     4   4   4   4   4   4   4   4
#     4  10  22  40  61  88 122 157 198 244 297 356
#     4  10  22  40  61  88 121 157 200 248 294 350
#     4  11  23  38  63  91 120 158 198 245 300 357
#     4  11  23  40  63  88 119 155 201 254 296 347
#     4  10  22  42  64  84 116 163 204 240 294 364
#     4   9  19  37  60  84 117 160 197 233 286 355
#     4  11  24  38  60  93 124 153 195 255 302 347
#     4  10  20  40  65  85 116 161 204 244 294 361
#
# _framework density 18.355785999999998
#
# number of rings (size 3 to 8) (size 9 to 14) (size 15 to 20)
#    0.000    1.750    2.500    1.125    3.500    3.000 
#    0.000    0.000    0.000    1.875    0.000    0.000 
#    0.000    0.000    0.000    0.000    0.000    0.000 
#
# Total GULP energy -178697.101270 kJ/mol
# GULP energy per Si atom -5584.284415 kJ/mol
# Density = 1.831401 g / cm^3
# Si number density = 18.355786 Si / 1000 Ang^3
#
#
#
# Elastic Constant Matrix: (Units=GPa)
#
#
# Indices 1 2 3 4 5 6 
#
# 1 178.0107 43.4181 92.3455 0.0000 0.5608 0.0000
# 2 43.4181 20.6477 43.2728 0.0000 -3.1147 0.0000
# 3 92.3455 43.2728 152.6059 0.0000 0.3594 0.0000
# 4 0.0000 0.0000 0.0000 23.7379 0.0000 7.7284
# 5 0.5608 -3.1147 0.3594 0.0000 32.1252 0.0000
# 6 0.0000 0.0000 0.0000 7.7284 0.0000 4.2267
#
#
#
# Elastic Compliance Matrix: (Units=1/GPa)
#
#
# Indices 1 2 3 4 5 6 
#
# 1 0.011749 -0.025185 0.000038 0.000000 -0.002647 0.000000
# 2 -0.025185 0.178130 -0.035313 0.000000 0.018105 0.000000
# 3 0.000038 -0.035313 0.016552 0.000000 -0.003610 0.000000
# 4 0.000000 0.000000 0.000000 0.104094 0.000000 -0.190334
# 5 -0.002647 0.018105 -0.003610 0.000000 0.032970 0.000000
# 6 0.000000 0.000000 0.000000 -0.190334 0.000000 0.584614
#
#
# Mechanical properties :
#
#
# Convention : Reuss Voigt Hill
#
# Bulk Modulus (GPa) = 11.69444 78.81524 45.25484
# Shear Modulus (GPa) = 4.64023 23.49981 14.07002
#
# Velocity S-wave (km/s) = 1.59167 3.58193 2.77161
# Velocity P-wave (km/s) = 3.12453 7.75485 5.91187
#
# Compressibility (1/GPa) = 0.08551071
#
# Stress axis : x y z
#
# Youngs Moduli (GPa) = 85.11305 5.61387 60.41708
#
# Poissons Ratio (x) = 0.14139 -0.00230
# Poissons Ratio (y) = 2.14359 2.13351
# Poissons Ratio (z) = -0.00324 0.19824
#
# Static dielectric constant tensor:
#      x y z
#    x 1.597380 0.000000 0.000830 
#    y 0.000000 1.621330 0.000000 
#    z 0.000830 0.000000 1.630600 
# 
# From -- ./inp_files/49962.got.cif
#   From: 2010.05.17/outbox.cif.g08.bks.cpg/sg10_25_cif.got.tgz:49962.got - 2010.06.03 11:33:40.
