data_PCOD9151866
_publ_section_title
;
Structure prediction by ZEFSAII (Michael W. Deem and Ramdas Pophale) SiO2 
 PCOD9151866
Probable space group: P 2/M
;
_chemical_formula_sum "Si O2"
_cell_formula_units_Z 28
_cell_length_a 9.593589
_cell_length_b 8.777273
_cell_length_c 27.958080
_cell_angle_alpha 90.000000
_cell_angle_beta 139.304377
_cell_angle_gamma 90.000000
_cell_volume 1535.050335
_symmetry_space_group_name_H-M "P 2/M"
_symmetry_group_IT_number 10
_symmetry_cell_setting 'monoclinic'
loop_
_space_group_symop_operation_xyz
x,y,z
-x,y,-z
-x,-y,-z
x,-y,z
loop_
_atom_site_type_symbol
_atom_site_label
_atom_site_fract_x
_atom_site_fract_y
_atom_site_fract_z
Si Si1 0.647028 0.180719 0.707374
Si Si2 0.746346 0.676444 0.934727
Si Si3 0.850919 0.816694 0.417819
Si Si4 0.054905 0.317182 0.765846
Si Si5 0.560590 0.818067 0.069888
Si Si6 0.126298 0.672018 0.675583
Si Si7 0.636297 0.326425 0.802608
O O1 0.397557 0.228805 0.637766
O O2 0.817888 0.266720 0.719334
O O3 0.709285 0.224159 0.777870
O O4 0.661178 0.000000 0.703303
O O5 0.667570 0.500000 0.917114
O O6 0.637504 0.769806 0.948251
O O7 0.686628 0.739118 0.867360
O O8 0.000000 0.673682 0.000000
O O9 0.000000 0.763436 0.500000
O O10 0.937959 0.761587 0.388964
O O11 0.850670 0.000000 0.416911
O O12 0.076652 0.500000 0.772134
O O13 0.089901 0.265527 0.719697
O O14 0.230254 0.251170 0.848890
O O15 0.587832 0.000000 0.075839
O O16 0.500000 0.766869 0.000000
O O17 0.037443 0.500000 0.650955
O O18 0.381339 0.662750 0.735701
O O19 0.724102 0.500000 0.821470
#
# Coordination Sequence:
#
# PCOD9151866 Si02
#       7
#     4   4   4   4   4   4   4
#     4  10  21  35  55  85 115 145 185 230 279 332
#     4  10  21  37  57  81 107 143 191 234 279 336
#     4   9  19  37  60  86 116 149 185 224 273 336
#     4  11  22  39  60  82 112 151 192 234 280 339
#     4  11  25  41  56  81 115 150 190 239 292 338
#     4   9  18  34  57  82 108 141 186 230 272 326
#     4   9  17  34  54  77 106 140 185 232 273 326
#
# _framework density 18.240442999999999
#
# number of rings (size 3 to 8) (size 9 to 14) (size 15 to 20)
#    0.000    2.143    1.429    1.286    2.000    4.000 
#    0.000    0.714    0.000    4.286    0.000    0.000 
#    0.000    0.000    0.000    0.000    0.000    0.000 
#
# Total GULP energy -156019.530500 kJ/mol
# GULP energy per Si atom -5572.126089 kJ/mol
# Density = 1.819893 g / cm^3
# Si number density = 18.240443 Si / 1000 Ang^3
#
#
#
# Elastic Constant Matrix: (Units=GPa)
#
#
# Indices 1 2 3 4 5 6 
#
# 1 110.1552 30.3431 61.5975 0.0000 -14.4418 0.0000
# 2 30.3431 31.3265 31.9131 0.0000 -5.3723 0.0000
# 3 61.5975 31.9131 109.6986 0.0000 -28.4081 0.0000
# 4 0.0000 0.0000 0.0000 23.6155 0.0000 -4.8569
# 5 -14.4418 -5.3723 -28.4081 0.0000 27.7565 0.0000
# 6 0.0000 0.0000 0.0000 -4.8569 0.0000 18.3741
#
#
#
# Elastic Compliance Matrix: (Units=1/GPa)
#
#
# Indices 1 2 3 4 5 6 
#
# 1 0.014585 -0.008232 -0.005772 0.000000 0.000088 0.000000
# 2 -0.008232 0.050873 -0.011887 0.000000 -0.006603 0.000000
# 3 -0.005772 -0.011887 0.019650 0.000000 0.014807 0.000000
# 4 0.000000 0.000000 0.000000 0.044779 0.000000 0.011837
# 5 0.000088 -0.006603 0.014807 0.000000 0.049950 0.000000
# 6 0.000000 0.000000 0.000000 0.011837 0.000000 0.057553
#
#
# Mechanical properties :
#
#
# Convention : Reuss Voigt Hill
#
# Bulk Modulus (GPa) = 30.00771 55.43197 42.71984
# Shear Modulus (GPa) = 16.65109 22.43765 19.54437
#
# Velocity S-wave (km/s) = 3.02465 3.51109 3.27691
# Velocity P-wave (km/s) = 5.35583 6.84782 6.14725
#
# Compressibility (1/GPa) = 0.03332477
#
# Stress axis : x y z
#
# Youngs Moduli (GPa) = 68.56449 19.65691 50.89110
#
# Poissons Ratio (x) = 0.16181 0.29375
# Poissons Ratio (y) = 0.56440 0.60496
# Poissons Ratio (z) = 0.39577 0.23367
#
# Static dielectric constant tensor:
#      x y z
#    x 1.638550 0.000000 0.025280 
#    y 0.000000 1.643940 0.000000 
#    z 0.025280 0.000000 1.705540 
# 
# From -- ./inp_files/37242.got.cif
#   From: 2010.05.17/outbox.cif.g08.bks.cpg/sg10_19_cif.got.tgz:37242.got - 2010.06.03 11:33:40.
