data_PCOD9151810
_publ_section_title
;
Structure prediction by ZEFSAII (Michael W. Deem and Ramdas Pophale) SiO2 
 PCOD9151810
Probable space group: P 2/M
;
_chemical_formula_sum "Si O2"
_cell_formula_units_Z 32
_cell_length_a 10.126326
_cell_length_b 14.037125
_cell_length_c 27.506750
_cell_angle_alpha 90.000000
_cell_angle_beta 154.090716
_cell_angle_gamma 90.000000
_cell_volume 1708.435765
_symmetry_space_group_name_H-M "P 2/M"
_symmetry_group_IT_number 10
_symmetry_cell_setting 'monoclinic'
loop_
_space_group_symop_operation_xyz
x,y,z
-x,y,-z
-x,-y,-z
x,-y,z
loop_
_atom_site_type_symbol
_atom_site_label
_atom_site_fract_x
_atom_site_fract_y
_atom_site_fract_z
Si Si1 0.895970 0.388059 0.078151
Si Si2 0.834767 0.611847 0.168279
Si Si3 0.238286 0.756797 0.781159
Si Si4 0.818210 0.109446 0.577993
Si Si5 0.577646 0.110800 0.971335
Si Si6 0.306867 0.888447 0.570671
Si Si7 0.301118 0.889878 0.212560
Si Si8 0.259322 0.741869 0.122459
O O1 0.963616 0.500000 0.094817
O O2 0.948029 0.361287 0.151857
O O3 0.091333 0.328563 0.104391
O O4 0.532996 0.377855 0.951897
O O5 0.900143 0.500000 0.197277
O O6 0.943722 0.681763 0.246376
O O7 0.422512 0.824779 0.879491
O O8 0.478205 0.703203 0.825550
O O9 0.032434 0.824091 0.680437
O O10 0.500000 0.104213 0.500000
O O11 0.755127 0.150554 0.503238
O O12 0.937451 0.000000 0.613500
O O13 0.479898 0.000000 0.934107
O O14 0.500000 0.144010 0.000000
O O15 0.939639 0.113629 0.088974
O O16 0.572744 0.853043 0.694129
O O17 0.000000 0.882043 0.500000
O O18 0.379826 0.000000 0.586127
O O19 0.406921 0.825311 0.203296
O O20 0.398625 0.000000 0.239973
O O21 0.000000 0.779198 0.000000
#
# Coordination Sequence:
#
# PCOD9151810 Si02
#       8
#     4   4   4   4   4   4   4   4
#     4   9  19  36  55  78 115 156 191 226 270 338
#     4   9  19  35  57  82 111 153 193 228 277 337
#     4  12  23  35  57  83 120 147 184 236 291 343
#     4  10  23  40  58  82 110 147 196 245 286 323
#     4  10  22  34  49  77 112 152 186 220 277 338
#     4   9  18  35  55  72  97 141 194 235 265 308
#     4  10  21  35  52  74 109 151 189 224 267 331
#     4  12  22  33  49  86 120 152 181 221 285 345
#
# _framework density 18.730582999999999
#
# number of rings (size 3 to 8) (size 9 to 14) (size 15 to 20)
#    0.000    1.875    2.500    1.875    5.250    3.000 
#    0.000    0.000    0.000    0.375    0.000    0.875 
#    0.000    5.000    0.000    0.000    0.000    0.000 
#
# Total GULP energy -178569.514856 kJ/mol
# GULP energy per Si atom -5580.297339 kJ/mol
# Density = 1.868795 g / cm^3
# Si number density = 18.730583 Si / 1000 Ang^3
#
#
#
# Elastic Constant Matrix: (Units=GPa)
#
#
# Indices 1 2 3 4 5 6 
#
# 1 120.9751 45.2541 37.2229 0.0000 -30.7030 0.0000
# 2 45.2541 72.1250 35.4543 0.0000 -22.1229 0.0000
# 3 37.2229 35.4543 85.1321 0.0000 -32.3005 0.0000
# 4 0.0000 0.0000 0.0000 140.8882 0.0000 190.2862
# 5 -30.7030 -22.1229 -32.3005 0.0000 33.9408 0.0000
# 6 0.0000 0.0000 0.0000 190.2862 0.0000 322.9864
#
#
#
# Elastic Compliance Matrix: (Units=1/GPa)
#
#
# Indices 1 2 3 4 5 6 
#
# 1 0.012180 -0.005226 -0.000409 0.000000 0.007223 0.000000
# 2 -0.005226 0.020798 -0.004737 0.000000 0.004321 0.000000
# 3 -0.000409 -0.004737 0.019699 0.000000 0.015290 0.000000
# 4 0.000000 0.000000 0.000000 0.034744 0.000000 -0.020469
# 5 0.007223 0.004321 0.015290 0.000000 0.053364 0.000000
# 6 0.000000 0.000000 0.000000 -0.020469 0.000000 0.015156
#
#
# Mechanical properties :
#
#
# Convention : Reuss Voigt Hill
#
# Bulk Modulus (GPa) = 31.31536 57.12163 44.21850
# Shear Modulus (GPa) = 26.69116 110.24981 68.47049
#
# Velocity S-wave (km/s) = 3.77902 7.68041 6.05267
# Velocity P-wave (km/s) = 5.98301 10.45056 8.51500
#
# Compressibility (1/GPa) = 0.03193321
#
# Stress axis : x y z
#
# Youngs Moduli (GPa) = 82.10266 48.08256 50.76352
#
# Poissons Ratio (x) = 0.25127 0.02075
# Poissons Ratio (y) = 0.42905 0.24048
# Poissons Ratio (z) = 0.03356 0.22778
#
# Static dielectric constant tensor:
#      x y z
#    x 1.679440 0.000000 -0.005650 
#    y 0.000000 1.670350 0.000000 
#    z -0.005650 0.000000 1.649180 
# 
# From -- ./inp_files/54000.got.cif
#   From: 2010.05.17/outbox.cif.g08.bks.cpg/sg10_27_cif.got.tgz:54000.got - 2010.06.03 11:33:40.
