data_PCOD9151952
_publ_section_title
;
Structure prediction by ZEFSAII (Michael W. Deem and Ramdas Pophale) SiO2 
 PCOD9151952
Probable space group: P 2/M
;
_chemical_formula_sum "Si O2"
_cell_formula_units_Z 32
_cell_length_a 29.157147
_cell_length_b 7.372194
_cell_length_c 22.570742
_cell_angle_alpha 90.000000
_cell_angle_beta 18.440657
_cell_angle_gamma 90.000000
_cell_volume 1534.678462
_symmetry_space_group_name_H-M "P 2/M"
_symmetry_group_IT_number 10
_symmetry_cell_setting 'monoclinic'
loop_
_space_group_symop_operation_xyz
x,y,z
-x,y,-z
-x,-y,-z
x,-y,z
loop_
_atom_site_type_symbol
_atom_site_label
_atom_site_fract_x
_atom_site_fract_y
_atom_site_fract_z
Si Si1 0.660327 0.208086 0.295404
Si Si2 0.179633 0.278567 0.155195
Si Si3 0.968380 0.289008 0.973755
Si Si4 0.335886 0.721388 0.311904
Si Si5 0.101481 0.720946 0.689892
Si Si6 0.799969 0.719012 0.001119
Si Si7 0.847046 0.278732 0.578512
Si Si8 0.666629 0.278413 0.913809
O O1 0.500000 0.289600 0.500000
O O2 0.799847 0.283564 0.159778
O O3 0.700941 0.215794 0.176246
O O4 0.651784 0.000000 0.325603
O O5 0.180152 0.500000 0.154033
O O6 0.274057 0.220415 0.095206
O O7 0.013238 0.221938 0.368563
O O8 0.233177 0.220605 0.024729
O O9 0.010282 0.500000 0.925885
O O10 0.000000 0.210620 0.000000
O O11 0.061707 0.212733 0.804383
O O12 0.336273 0.500000 0.311369
O O13 0.248135 0.778810 0.478027
O O14 0.247091 0.777828 0.362687
O O15 0.501649 0.780090 0.106614
O O16 0.103171 0.500000 0.689773
O O17 0.964824 0.770181 0.815933
O O18 0.793472 0.500000 0.010626
O O19 0.848061 0.500000 0.577236
O O20 0.771021 0.220949 0.732456
O O21 0.667438 0.500000 0.912272
#
# Coordination Sequence:
#
# PCOD9151952 Si02
#       8
#     4   4   4   4   4   4   4   4
#     4  10  21  36  53  74 100 130 164 201 244 292
#     4   9  15  24  36  54  80 114 152 188 229 274
#     4   9  18  33  53  78 103 128 162 199 242 295
#     4   9  14  21  32  48  75 113 150 180 220 271
#     4   8  13  24  41  58  82 117 150 183 223 274
#     4   9  16  29  49  68  89 122 160 193 234 286
#     4   9  14  21  33  47  73 117 156 181 217 276
#     4   9  16  21  28  50  82 113 149 189 225 269
#
# _framework density 20.851271000000001
#
# number of rings (size 3 to 8) (size 9 to 14) (size 15 to 20)
#    0.000    3.000    1.250    1.875    0.000    4.250 
#    2.250    0.000    0.000    0.000    0.000    0.000 
#    0.000    2.000    0.000    5.500    0.000    5.500 
#
# Total GULP energy -178558.127694 kJ/mol
# GULP energy per Si atom -5579.941490 kJ/mol
# Density = 2.080381 g / cm^3
# Si number density = 20.851271 Si / 1000 Ang^3
#
#
#
# Elastic Constant Matrix: (Units=GPa)
#
#
# Indices 1 2 3 4 5 6 
#
# 1 129.8770 -3.8324 26.6659 0.0000 13.1954 0.0000
# 2 -3.8324 69.5639 -11.3525 0.0000 0.7160 0.0000
# 3 26.6659 -11.3525 78.2677 0.0000 7.9832 0.0000
# 4 0.0000 0.0000 0.0000 122.5769 0.0000 152.7252
# 5 13.1954 0.7160 7.9832 0.0000 29.6446 0.0000
# 6 0.0000 0.0000 0.0000 152.7252 0.0000 210.2598
#
#
#
# Elastic Compliance Matrix: (Units=1/GPa)
#
#
# Indices 1 2 3 4 5 6 
#
# 1 0.008549 0.000081 -0.002583 0.000000 -0.003111 0.000000
# 2 0.000081 0.014751 0.002213 0.000000 -0.000988 0.000000
# 3 -0.002583 0.002213 0.014258 0.000000 -0.002743 0.000000
# 4 0.000000 0.000000 0.000000 0.085889 0.000000 -0.062387
# 5 -0.003111 -0.000988 -0.002743 0.000000 0.035880 0.000000
# 6 0.000000 0.000000 0.000000 -0.062387 0.000000 0.050072
#
#
# Mechanical properties :
#
#
# Convention : Reuss Voigt Hill
#
# Bulk Modulus (GPa) = 27.04273 33.40786 30.22529
# Shear Modulus (GPa) = 22.49182 90.24479 56.36830
#
# Velocity S-wave (km/s) = 3.28789 6.58591 5.20502
# Velocity P-wave (km/s) = 5.23556 8.59587 7.11689
#
# Compressibility (1/GPa) = 0.03697851
#
# Stress axis : x y z
#
# Youngs Moduli (GPa) = 116.97938 67.79194 70.13842
#
# Poissons Ratio (x) = -0.00552 0.18119
# Poissons Ratio (y) = -0.00952 -0.15519
# Poissons Ratio (z) = 0.30220 -0.15000
#
# Static dielectric constant tensor:
#      x y z
#    x 1.720940 0.000000 0.017760 
#    y 0.000000 1.806000 0.000000 
#    z 0.017760 0.000000 1.714170 
# 
# From -- ./inp_files/86899.got.cif
#   From: 2010.05.17/outbox.cif.g08.bks.cpg/sg10_44_cif.got.tgz:86899.got - 2010.06.03 11:33:40.
