data_PCOD9151981
_publ_section_title
;
Structure prediction by ZEFSAII (Michael W. Deem and Ramdas Pophale) SiO2 
 PCOD9151981
Probable space group: P 2/M
;
_chemical_formula_sum "Si O2"
_cell_formula_units_Z 28
_cell_length_a 9.270828
_cell_length_b 7.632621
_cell_length_c 30.979257
_cell_angle_alpha 90.000000
_cell_angle_beta 41.569722
_cell_angle_gamma 90.000000
_cell_volume 1454.535755
_symmetry_space_group_name_H-M "P 2/M"
_symmetry_group_IT_number 10
_symmetry_cell_setting 'monoclinic'
loop_
_space_group_symop_operation_xyz
x,y,z
-x,y,-z
-x,-y,-z
x,-y,z
loop_
_atom_site_type_symbol
_atom_site_label
_atom_site_fract_x
_atom_site_fract_y
_atom_site_fract_z
Si Si1 0.490320 0.500000 0.573962
Si Si2 0.756960 0.290184 0.062482
Si Si3 0.930669 0.789205 0.193351
Si Si4 0.139871 0.500000 0.573963
Si Si5 0.233050 0.793403 0.675861
Si Si6 0.569376 0.709818 0.937517
Si Si7 0.112349 0.206597 0.324138
Si Si8 0.397427 0.210796 0.806651
O O1 0.322241 0.500000 0.571104
O O2 0.728971 0.500000 0.499999
O O3 0.427088 0.671420 0.615528
O O4 0.766484 0.500000 0.054839
O O5 0.586392 0.220842 0.065443
O O6 0.676146 0.257439 0.128868
O O7 0.000000 0.221105 0.000000
O O8 0.848854 0.733734 0.258864
O O9 0.773702 0.722847 0.190518
O O10 0.179508 0.742569 0.128869
O O11 0.918649 0.000000 0.196047
O O12 0.995274 0.328580 0.615529
O O13 0.035599 0.775249 0.685762
O O14 0.290750 0.000000 0.664428
O O15 0.540701 0.500000 0.945156
O O16 0.500000 0.778894 0.000000
O O17 0.356825 0.266263 0.258862
O O18 0.112887 0.000000 0.335571
O O19 0.398884 0.000000 0.803957
#
# Coordination Sequence:
#
# PCOD9151981 Si02
#       8
#     2   4   4   2   4   4   4   4
#     4   9  18  32  53  83 112 139 178 223 269 327
#     4  10  21  36  54  77 106 140 179 223 271 322
#     4  10  21  36  54  77 105 139 180 224 271 322
#     4   9  18  32  53  83 112 139 178 223 269 327
#     4   9  18  33  53  78 109 143 180 225 274 323
#     4  10  21  36  54  77 106 140 179 223 271 322
#     4   9  18  33  53  78 109 143 180 225 274 323
#     4  10  21  36  54  77 105 139 180 224 271 322
#
# _framework density 19.250129000000001
#
# number of rings (size 3 to 8) (size 9 to 14) (size 15 to 20)
#    0.000    2.429    0.000    1.714    2.000    4.571 
#    0.000    2.857    0.000    1.714    0.000    4.000 
#    0.000    0.000    0.000    0.000    0.000    0.000 
#
# Total GULP energy -156294.749717 kJ/mol
# GULP energy per Si atom -5581.955347 kJ/mol
# Density = 1.920632 g / cm^3
# Si number density = 19.250129 Si / 1000 Ang^3
#
#
#
# Elastic Constant Matrix: (Units=GPa)
#
#
# Indices 1 2 3 4 5 6 
#
# 1 115.4759 38.3213 95.8911 0.0000 0.3880 0.0000
# 2 38.3213 62.2551 54.4707 0.0000 0.1994 0.0000
# 3 95.8911 54.4707 223.0677 0.0000 0.9376 0.0000
# 4 0.0000 0.0000 0.0000 45.2573 0.0000 0.3615
# 5 0.3880 0.1994 0.9376 0.0000 25.5333 0.0000
# 6 0.0000 0.0000 0.0000 0.3615 0.0000 15.7211
#
#
#
# Elastic Compliance Matrix: (Units=1/GPa)
#
#
# Indices 1 2 3 4 5 6 
#
# 1 0.014344 -0.004367 -0.005100 0.000000 0.000003 0.000000
# 2 -0.004367 0.021757 -0.003435 0.000000 0.000023 0.000000
# 3 -0.005100 -0.003435 0.007515 0.000000 -0.000172 0.000000
# 4 0.000000 0.000000 0.000000 0.022100 0.000000 -0.000508
# 5 0.000003 0.000023 -0.000172 0.000000 0.039171 0.000000
# 6 0.000000 0.000000 0.000000 -0.000508 0.000000 0.063621
#
#
# Mechanical properties :
#
#
# Convention : Reuss Voigt Hill
#
# Bulk Modulus (GPa) = 56.14605 86.46277 71.30441
# Shear Modulus (GPa) = 24.96893 31.44339 28.20616
#
# Velocity S-wave (km/s) = 3.60540 4.04593 3.83200
# Velocity P-wave (km/s) = 6.82362 8.17551 7.52997
#
# Compressibility (1/GPa) = 0.01781069
#
# Stress axis : x y z
#
# Youngs Moduli (GPa) = 69.71622 45.96182 133.07149
#
# Poissons Ratio (x) = 0.20074 0.67861
# Poissons Ratio (y) = 0.30448 0.45717
# Poissons Ratio (z) = 0.35552 0.15790
#
# Static dielectric constant tensor:
#      x y z
#    x 1.671000 0.000000 -0.000500 
#    y 0.000000 1.704090 0.000000 
#    z -0.000500 0.000000 1.630390 
# 
# From -- ./inp_files/94517.got.cif
#   From: 2010.05.17/outbox.cif.g08.bks.cpg/sg10_48_cif.got.tgz:94517.got - 2010.06.03 11:33:40.
