data_PCOD9151763
_publ_section_title
;
Structure prediction by ZEFSAII (Michael W. Deem and Ramdas Pophale) SiO2 
 PCOD9151763
Probable space group: P 2/M
;
_chemical_formula_sum "Si O2"
_cell_formula_units_Z 32
_cell_length_a 23.675010
_cell_length_b 8.725682
_cell_length_c 15.322499
_cell_angle_alpha 90.000000
_cell_angle_beta 39.464345
_cell_angle_gamma 90.000000
_cell_volume 2011.877899
_symmetry_space_group_name_H-M "P 2/M"
_symmetry_group_IT_number 10
_symmetry_cell_setting 'monoclinic'
loop_
_space_group_symop_operation_xyz
x,y,z
-x,y,-z
-x,-y,-z
x,-y,z
loop_
_atom_site_type_symbol
_atom_site_label
_atom_site_fract_x
_atom_site_fract_y
_atom_site_fract_z
Si Si1 0.387427 0.315886 0.490808
Si Si2 0.085992 0.815809 0.782113
Si Si3 0.376247 0.817247 0.204502
Si Si4 0.885501 0.184331 0.048261
Si Si5 0.700377 0.682910 0.218185
Si Si6 0.563657 0.316915 0.043882
Si Si7 0.578084 0.818110 0.214393
Si Si8 0.746921 0.317385 0.507077
O O1 0.401803 0.500000 0.471073
O O2 0.346438 0.276412 0.633690
O O3 0.480523 0.234082 0.362903
O O4 0.317608 0.277175 0.497685
O O5 0.111502 0.777286 0.851990
O O6 0.154827 0.735290 0.636204
O O7 0.093343 0.000000 0.764923
O O8 0.982396 0.774450 0.894876
O O9 0.464187 0.747515 0.145798
O O10 0.292676 0.764950 0.361056
O O11 0.384154 0.000000 0.192726
O O12 0.378157 0.750384 0.104581
O O13 0.802349 0.265524 0.103626
O O14 0.875900 0.000000 0.053359
O O15 0.694164 0.500000 0.215409
O O16 0.648850 0.763932 0.201427
O O17 0.560960 0.500000 0.042265
O O18 0.594046 0.261584 0.102194
O O19 0.580085 0.000000 0.201382
O O20 0.743022 0.500000 0.523376
#
# Coordination Sequence:
#
# PCOD9151763 Si02
#       8
#     4   4   4   4   4   4   4   4
#     4  10  21  35  49  70 104 140 176 215 253 298
#     4   9  18  32  51  74 103 135 169 213 261 307
#     4  11  21  34  53  77 103 133 169 211 256 307
#     4   9  18  33  51  73 101 134 172 215 260 305
#     4  11  22  36  52  72 101 139 178 218 258 302
#     4  11  21  36  54  74 101 134 169 212 258 304
#     4  12  24  36  52  74 100 137 179 217 255 304
#     4  11  20  32  51  77 106 139 172 210 257 307
#
# _framework density 15.905538
#
# number of rings (size 3 to 8) (size 9 to 14) (size 15 to 20)
#    0.000    1.500    2.500    6.000    0.000    3.500 
#    0.000    1.250    0.000    0.000    0.000    0.875 
#    0.000    7.000    0.000    0.000    0.000    0.000 
#
# Total GULP energy -178765.466167 kJ/mol
# GULP energy per Si atom -5586.420818 kJ/mol
# Density = 1.586934 g / cm^3
# Si number density = 15.905538 Si / 1000 Ang^3
#
#
#
# Elastic Constant Matrix: (Units=GPa)
#
#
# Indices 1 2 3 4 5 6 
#
# 1 78.0148 44.3178 56.3376 0.0000 4.5872 0.0000
# 2 44.3178 89.9920 60.0407 0.0000 3.9696 0.0000
# 3 56.3376 60.0407 127.8270 0.0000 5.8949 0.0000
# 4 0.0000 0.0000 0.0000 30.3720 0.0000 -4.8999
# 5 4.5872 3.9696 5.8949 0.0000 19.6506 0.0000
# 6 0.0000 0.0000 0.0000 -4.8999 0.0000 23.9654
#
#
#
# Elastic Compliance Matrix: (Units=1/GPa)
#
#
# Indices 1 2 3 4 5 6 
#
# 1 0.020883 -0.006000 -0.006304 0.000000 -0.001772 0.000000
# 2 -0.006000 0.017927 -0.005753 0.000000 -0.000495 0.000000
# 3 -0.006304 -0.005753 0.013367 0.000000 -0.001376 0.000000
# 4 0.000000 0.000000 0.000000 0.034048 0.000000 0.006961
# 5 -0.001772 -0.000495 -0.001376 0.000000 0.051815 0.000000
# 6 0.000000 0.000000 0.000000 0.006961 0.000000 0.043150
#
#
# Mechanical properties :
#
#
# Convention : Reuss Voigt Hill
#
# Bulk Modulus (GPa) = 62.25490 68.58066 65.41778
# Shear Modulus (GPa) = 22.45580 23.80678 23.13129
#
# Velocity S-wave (km/s) = 3.76150 3.87300 3.81765
# Velocity P-wave (km/s) = 7.62171 7.95055 7.78787
#
# Compressibility (1/GPa) = 0.01606299
#
# Stress axis : x y z
#
# Youngs Moduli (GPa) = 47.88570 55.78129 74.81056
#
# Poissons Ratio (x) = 0.33470 0.47159
# Poissons Ratio (y) = 0.28732 0.43039
# Poissons Ratio (z) = 0.30186 0.32092
#
# Static dielectric constant tensor:
#      x y z
#    x 1.508560 0.000000 0.006310 
#    y 0.000000 1.532340 0.000000 
#    z 0.006310 0.000000 1.526750 
# 
# From -- ./inp_files/69977.got.cif
#   From: 2010.05.17/outbox.cif.g08.bks.cpg/sg10_35_cif.got.tgz:69977.got - 2010.06.03 11:33:40.
