data_PCOD9151411
_publ_section_title
;
Structure prediction by ZEFSAII (Michael W. Deem and Ramdas Pophale) SiO2 
 PCOD9151411
Probable space group: P 2/M
;
_chemical_formula_sum "Si O2"
_cell_formula_units_Z 28
_cell_length_a 8.112021
_cell_length_b 12.986272
_cell_length_c 12.818278
_cell_angle_alpha 90.000000
_cell_angle_beta 74.750329
_cell_angle_gamma 90.000000
_cell_volume 1302.793299
_symmetry_space_group_name_H-M "P 2/M"
_symmetry_group_IT_number 10
_symmetry_cell_setting 'monoclinic'
loop_
_space_group_symop_operation_xyz
x,y,z
-x,y,-z
-x,-y,-z
x,-y,z
loop_
_atom_site_type_symbol
_atom_site_label
_atom_site_fract_x
_atom_site_fract_y
_atom_site_fract_z
Si Si1 0.174922 0.174887 0.294391
Si Si2 0.012357 0.381795 0.373371
Si Si3 0.658371 0.617153 0.304176
Si Si4 0.490784 0.824756 0.380833
Si Si5 0.845207 0.284746 0.087544
Si Si6 0.702084 0.885414 0.955776
Si Si7 0.138280 0.113242 0.751197
O O1 0.140855 0.297186 0.306921
O O2 0.313252 0.144733 0.357750
O O3 0.250509 0.138057 0.171646
O O4 0.983343 0.127897 0.329161
O O5 0.065086 0.500000 0.345343
O O6 0.000000 0.365975 0.500000
O O7 0.826096 0.368800 0.350191
O O8 0.599498 0.500000 0.323566
O O9 0.520655 0.702070 0.359643
O O10 0.723214 0.642412 0.175754
O O11 0.500000 0.850357 0.500000
O O12 0.660826 0.872467 0.301157
O O13 0.915472 0.203517 0.161507
O O14 0.757086 0.208099 0.020672
O O15 0.000000 0.337962 0.000000
O O16 0.768409 0.000000 0.973952
O O17 0.500000 0.890291 0.000000
O O18 0.109052 0.000000 0.798246
#
# Coordination Sequence:
#
# PCOD9151411 Si02
#       7
#     4   4   4   4   4   4   4
#     4  12  23  40  68  94 129 166 215 268 321 369
#     4  10  20  38  67  96 125 166 215 262 316 380
#     4  10  21  40  62  93 131 165 210 262 319 380
#     4  11  25  43  66  93 129 172 212 265 322 379
#     4  11  20  37  62  90 124 165 207 262 315 371
#     4  11  23  39  62  92 124 166 215 262 314 377
#     4  11  24  42  63  94 128 167 216 264 315 378
#
# _framework density 21.492280999999998
#
# number of rings (size 3 to 8) (size 9 to 14) (size 15 to 20)
#    0.000    1.143    4.286    3.429    0.000    4.286 
#    0.000    1.429    0.000    1.714    0.000    0.000 
#    0.000    0.000    0.000    0.000    0.000    0.000 
#
# Total GULP energy -156398.190150 kJ/mol
# GULP energy per Si atom -5585.649648 kJ/mol
# Density = 2.144336 g / cm^3
# Si number density = 21.492281 Si / 1000 Ang^3
#
#
#
# Elastic Constant Matrix: (Units=GPa)
#
#
# Indices 1 2 3 4 5 6 
#
# 1 87.9336 11.0865 -1.3690 0.0000 20.6929 0.0000
# 2 11.0865 68.3078 0.2950 0.0000 5.8631 0.0000
# 3 -1.3690 0.2950 45.9582 0.0000 20.5691 0.0000
# 4 0.0000 0.0000 0.0000 -18.3860 0.0000 4.8194
# 5 20.6929 5.8631 20.5691 0.0000 34.5610 0.0000
# 6 0.0000 0.0000 0.0000 4.8194 0.0000 123.3807
#
#
#
# Elastic Compliance Matrix: (Units=1/GPa)
#
#
# Indices 1 2 3 4 5 6 
#
# 1 0.014409 -0.001350 0.005720 0.000000 -0.011802 0.000000
# 2 -0.001350 0.015050 0.000878 0.000000 -0.002267 0.000000
# 3 0.005720 0.000878 0.032064 0.000000 -0.022657 0.000000
# 4 0.000000 0.000000 0.000000 -0.053838 0.000000 0.002103
# 5 -0.011802 -0.002267 -0.022657 0.000000 0.049870 0.000000
# 6 0.000000 0.000000 0.000000 0.002103 0.000000 0.008023
#
#
# Mechanical properties :
#
#
# Convention : Reuss Voigt Hill
#
# Bulk Modulus (GPa) = 13.88545 24.69163 19.28854
# Shear Modulus (GPa) = 63.22121 40.72361 51.97241
#
# Velocity S-wave (km/s) = 5.42951 4.35765 4.92284
# Velocity P-wave (km/s) = 6.76616 6.06897 6.42702
#
# Compressibility (1/GPa) = 0.07201784
#
# Stress axis : x y z
#
# Youngs Moduli (GPa) = 69.40149 66.44708 31.18775
#
# Poissons Ratio (x) = 0.08972 -0.17840
# Poissons Ratio (y) = 0.09371 -0.02738
# Poissons Ratio (z) = -0.39699 -0.05833
#
# Static dielectric constant tensor:
#      x y z
#    x 1.818920 0.000000 0.005890 
#    y 0.000000 1.785780 0.000000 
#    z 0.005890 0.000000 1.777610 
# 
# From -- ./inp_files/42674.got.cif
#   From: 2010.05.17/outbox.cif.g08.bks.cpg/sg10_22_cif.got.tgz:42674.got - 2010.06.03 11:33:40.
