data_PCOD9151937
_publ_section_title
;
Structure prediction by ZEFSAII (Michael W. Deem and Ramdas Pophale) SiO2 
 PCOD9151937
Probable space group: P 2/M
;
_chemical_formula_sum "Si O2"
_cell_formula_units_Z 32
_cell_length_a 29.094760
_cell_length_b 8.040775
_cell_length_c 10.905384
_cell_angle_alpha 90.000000
_cell_angle_beta 150.433022
_cell_angle_gamma 90.000000
_cell_volume 1258.892314
_symmetry_space_group_name_H-M "P 2/M"
_symmetry_group_IT_number 10
_symmetry_cell_setting 'monoclinic'
loop_
_space_group_symop_operation_xyz
x,y,z
-x,y,-z
-x,-y,-z
x,-y,z
loop_
_atom_site_type_symbol
_atom_site_label
_atom_site_fract_x
_atom_site_fract_y
_atom_site_fract_z
Si Si1 0.123645 0.813378 0.190431
Si Si2 0.196939 0.695876 0.998900
Si Si3 0.649174 0.201845 0.029824
Si Si4 0.304830 0.308971 0.511156
Si Si5 0.479415 0.201620 0.779036
Si Si6 0.375914 0.805353 0.293859
Si Si7 0.862257 0.302028 0.511479
Si Si8 0.019954 0.307625 0.718485
O O1 0.236019 0.795875 0.437242
O O2 0.099372 0.773442 0.273286
O O3 0.096914 0.000000 0.095706
O O4 0.075963 0.698204 0.978341
O O5 0.191278 0.500000 0.952877
O O6 0.252371 0.706599 0.257141
O O7 0.265702 0.783710 0.064219
O O8 0.093353 0.762222 0.789625
O O9 0.585336 0.255337 0.996258
O O10 0.603706 0.257872 0.794722
O O11 0.651213 0.000000 0.034990
O O12 0.753535 0.264774 0.263500
O O13 0.300258 0.500000 0.539461
O O14 0.410967 0.258615 0.728453
O O15 0.428037 0.261864 0.534299
O O16 0.478709 0.000000 0.783823
O O17 0.399080 0.000000 0.346854
O O18 0.874923 0.500000 0.544387
O O19 0.920053 0.237776 0.527806
O O20 0.007527 0.500000 0.655580
#
# Coordination Sequence:
#
# PCOD9151937 Si02
#       8
#     4   4   4   4   4   4   4   4
#     4  11  21  34  56  83 107 133 169 213 260 311
#     4   8  15  29  50  76 103 130 165 211 257 301
#     4  10  21  36  52  74 107 141 175 218 262 307
#     4   9  17  31  52  79 109 136 167 211 258 306
#     4   9  17  32  55  80 105 136 174 215 261 310
#     4   9  17  31  53  79 105 136 172 211 259 310
#     4  11  23  38  54  73 103 142 179 215 258 309
#     4   9  19  36  56  78 105 137 173 214 259 307
#
# _framework density 25.419170999999999
#
# number of rings (size 3 to 8) (size 9 to 14) (size 15 to 20)
#    0.000    2.500    0.000    3.375    0.000    8.000 
#    0.000    1.250    0.000   11.250    0.000    0.000 
#    0.000    0.000    0.000    0.000    0.000    0.000 
#
# Total GULP energy -178869.487822 kJ/mol
# GULP energy per Si atom -5589.671494 kJ/mol
# Density = 2.536132 g / cm^3
# Si number density = 25.419171 Si / 1000 Ang^3
#
#
#
# Elastic Constant Matrix: (Units=GPa)
#
#
# Indices 1 2 3 4 5 6 
#
# 1 180.1685 20.6122 32.0510 0.0000 30.3719 0.0000
# 2 20.6122 41.2173 -0.2714 0.0000 6.6106 0.0000
# 3 32.0510 -0.2714 108.1062 0.0000 31.4582 0.0000
# 4 0.0000 0.0000 0.0000 14.4266 0.0000 18.5850
# 5 30.3719 6.6106 31.4582 0.0000 55.8923 0.0000
# 6 0.0000 0.0000 0.0000 18.5850 0.0000 7.2188
#
#
#
# Elastic Compliance Matrix: (Units=1/GPa)
#
#
# Indices 1 2 3 4 5 6 
#
# 1 0.006518 -0.002862 -0.001205 0.000000 -0.002525 0.000000
# 2 -0.002862 0.026096 0.001626 0.000000 -0.002446 0.000000
# 3 -0.001205 0.001626 0.011333 0.000000 -0.005916 0.000000
# 4 0.000000 0.000000 0.000000 -0.029922 0.000000 0.077034
# 5 -0.002525 -0.002446 -0.005916 0.000000 0.022883 0.000000
# 6 0.000000 0.000000 0.000000 0.077034 0.000000 -0.059797
#
#
# Mechanical properties :
#
#
# Convention : Reuss Voigt Hill
#
# Bulk Modulus (GPa) = 25.59860 48.25284 36.92572
# Shear Modulus (GPa) = -1003.03912 33.98088 -484.52912
#
# Velocity S-wave (km/s) = -19.88608 3.66022 -13.82134
# Velocity P-wave (km/s) = 22.74164 6.07347 15.49670
#
# Compressibility (1/GPa) = 0.03906463
#
# Stress axis : x y z
#
# Youngs Moduli (GPa) = 153.42514 38.31984 88.23767
#
# Poissons Ratio (x) = 0.10969 0.10631
# Poissons Ratio (y) = 0.43917 -0.14347
# Poissons Ratio (z) = 0.18484 -0.06231
#
# Static dielectric constant tensor:
#      x y z
#    x 2.010070 0.000000 0.000220 
#    y 0.000000 1.899460 0.000000 
#    z 0.000220 0.000000 2.134240 
# 
# From -- ./inp_files/49904.got.cif
#   From: 2010.05.17/outbox.cif.g08.bks.cpg/sg10_25_cif.got.tgz:49904.got - 2010.06.03 11:33:40.
