data_PCOD9151768
_publ_section_title
;
Structure prediction by ZEFSAII (Michael W. Deem and Ramdas Pophale) SiO2 
 PCOD9151768
Probable space group: P 2/M
;
_chemical_formula_sum "Si O2"
_cell_formula_units_Z 24
_cell_length_a 9.346568
_cell_length_b 21.943652
_cell_length_c 7.159018
_cell_angle_alpha 90.000000
_cell_angle_beta 50.633090
_cell_angle_gamma 90.000000
_cell_volume 1135.142061
_symmetry_space_group_name_H-M "P 2/M"
_symmetry_group_IT_number 10
_symmetry_cell_setting 'monoclinic'
loop_
_space_group_symop_operation_xyz
x,y,z
-x,y,-z
-x,-y,-z
x,-y,z
loop_
_atom_site_type_symbol
_atom_site_label
_atom_site_fract_x
_atom_site_fract_y
_atom_site_fract_z
Si Si1 0.252597 0.500000 0.016791
Si Si2 0.666875 0.500000 0.601211
Si Si3 0.749176 0.834505 0.948913
Si Si4 0.648736 0.168927 0.601723
Si Si5 0.960204 0.401351 0.308866
Si Si6 0.052246 0.068692 0.739393
Si Si7 0.950854 0.261992 0.316563
O O1 0.296002 0.500000 0.204251
O O2 0.127036 0.440763 0.084479
O O3 0.448524 0.500000 0.753934
O O4 0.773854 0.440513 0.438967
O O5 0.680188 0.822213 0.797598
O O6 0.875287 0.894260 0.812288
O O7 0.887670 0.781132 0.897955
O O8 0.572105 0.839295 0.231355
O O9 0.767085 0.110041 0.442229
O O10 0.756358 0.228402 0.437944
O O11 0.950564 0.331732 0.255533
O O12 0.000000 0.400574 0.500000
O O13 0.074808 0.000000 0.649614
O O14 0.000000 0.065518 0.000000
O O15 0.000000 0.261918 0.500000
#
# Coordination Sequence:
#
# PCOD9151768 Si02
#       7
#     2   2   4   4   4   4   4
#     4   8  13  19  26  41  69 104 141 179 216 254
#     4   8  13  19  26  41  69 104 141 179 216 254
#     4   9  18  32  49  69  92 118 150 188 228 269
#     4   9  18  32  49  69  92 118 150 188 228 269
#     4   8  13  20  30  46  70 103 143 182 217 255
#     4  10  21  35  50  69  93 120 149 182 221 267
#     4   8  14  25  40  58  81 110 147 188 225 263
#
# _framework density 21.142728000000002
#
# number of rings (size 3 to 8) (size 9 to 14) (size 15 to 20)
#    0.000    3.333    0.000    2.500    0.000    4.000 
#    0.000   10.000    0.000    0.000    0.000    0.000 
#    0.000    0.000    0.000   48.000    0.000  157.333 
#
# Total GULP energy -133878.557377 kJ/mol
# GULP energy per Si atom -5578.273224 kJ/mol
# Density = 2.109461 g / cm^3
# Si number density = 21.142728 Si / 1000 Ang^3
#
#
#
# Elastic Constant Matrix: (Units=GPa)
#
#
# Indices 1 2 3 4 5 6 
#
# 1 57.1419 39.5468 44.1858 0.0000 -25.5707 0.0000
# 2 39.5468 218.5650 79.1041 0.0000 -54.3483 0.0000
# 3 44.1858 79.1041 147.9309 0.0000 -44.8686 0.0000
# 4 0.0000 0.0000 0.0000 -37.7056 0.0000 -25.0240
# 5 -25.5707 -54.3483 -44.8686 0.0000 58.6343 0.0000
# 6 0.0000 0.0000 0.0000 -25.0240 0.0000 -2.2838
#
#
#
# Elastic Compliance Matrix: (Units=1/GPa)
#
#
# Indices 1 2 3 4 5 6 
#
# 1 0.024830 -0.001230 -0.004975 0.000000 0.005882 0.000000
# 2 -0.001230 0.006479 -0.001873 0.000000 0.004036 0.000000
# 3 -0.004975 -0.001873 0.010500 0.000000 0.004129 0.000000
# 4 0.000000 0.000000 0.000000 0.004229 0.000000 -0.046333
# 5 0.005882 0.004036 0.004129 0.000000 0.026520 0.000000
# 6 0.000000 0.000000 0.000000 -0.046333 0.000000 0.069814
#
#
# Mechanical properties :
#
#
# Convention : Reuss Voigt Hill
#
# Bulk Modulus (GPa) = 38.98069 83.25680 61.11874
# Shear Modulus (GPa) = 29.92579 21.11572 25.52076
#
# Velocity S-wave (km/s) = 3.76629 3.16369 3.47806
# Velocity P-wave (km/s) = 6.11475 7.26699 6.71563
#
# Compressibility (1/GPa) = 0.02565373
#
# Stress axis : x y z
#
# Youngs Moduli (GPa) = 40.27308 154.33589 95.23818
#
# Poissons Ratio (x) = 0.18977 0.47382
# Poissons Ratio (y) = 0.04952 0.17841
# Poissons Ratio (z) = 0.20036 0.28913
#
# Static dielectric constant tensor:
#      x y z
#    x 1.770120 0.000000 0.050220 
#    y 0.000000 1.719920 0.000000 
#    z 0.050220 0.000000 1.808440 
# 
# From -- ./inp_files/25948.got.cif
#   From: 2010.05.17/outbox.cif.g08.bks.cpg/sg10_13_cif.got.tgz:25948.got - 2010.06.03 11:33:40.
