data_PCOD9151562
_publ_section_title
;
Structure prediction by ZEFSAII (Michael W. Deem and Ramdas Pophale) SiO2 
 PCOD9151562
Probable space group: P 2/M
;
_chemical_formula_sum "Si O2"
_cell_formula_units_Z 28
_cell_length_a 15.553585
_cell_length_b 9.461938
_cell_length_c 11.805173
_cell_angle_alpha 90.000000
_cell_angle_beta 121.897664
_cell_angle_gamma 90.000000
_cell_volume 1474.983591
_symmetry_space_group_name_H-M "P 2/M"
_symmetry_group_IT_number 10
_symmetry_cell_setting 'monoclinic'
loop_
_space_group_symop_operation_xyz
x,y,z
-x,y,-z
-x,-y,-z
x,-y,z
loop_
_atom_site_type_symbol
_atom_site_label
_atom_site_fract_x
_atom_site_fract_y
_atom_site_fract_z
Si Si1 0.277567 0.166857 0.110606
Si Si2 0.378616 0.834751 0.425455
Si Si3 0.012994 0.159971 0.694583
Si Si4 0.172169 0.839393 0.610038
Si Si5 0.350046 0.668703 0.631473
Si Si6 0.477559 0.833321 0.117110
Si Si7 0.069423 0.667044 0.940746
O O1 0.328094 0.194821 0.268730
O O2 0.362171 0.195288 0.073712
O O3 0.253487 0.000000 0.089138
O O4 0.176952 0.255948 0.024523
O O5 0.500000 0.818090 0.500000
O O6 0.339839 0.735416 0.498956
O O7 0.358671 0.000000 0.439925
O O8 0.112344 0.179571 0.685710
O O9 0.012751 0.273968 0.791574
O O10 0.915408 0.168620 0.546047
O O11 0.016447 0.000000 0.743712
O O12 0.257352 0.726604 0.642188
O O13 0.214588 0.000000 0.637796
O O14 0.354076 0.500000 0.630700
O O15 0.450009 0.736276 0.757134
O O16 0.496637 0.000000 0.156602
O O17 0.500000 0.811803 0.000000
O O18 0.084118 0.500000 0.944393
O O19 0.000000 0.700047 0.000000
#
# Coordination Sequence:
#
# PCOD9151562 Si02
#       7
#     4   4   4   4   4   4   4
#     4  10  22  41  66  92 116 157 211 259 303 349
#     4  10  20  40  65  87 116 153 202 252 294 347
#     4   9  20  41  67  90 113 151 208 260 300 350
#     4   9  20  40  65  91 118 152 200 257 304 349
#     4  12  25  37  58  93 129 161 195 239 302 372
#     4  10  22  42  66  91 122 161 208 256 299 354
#     4  11  26  43  59  86 129 168 198 244 309 373
#
# _framework density 18.983262
#
# number of rings (size 3 to 8) (size 9 to 14) (size 15 to 20)
#    0.000    1.857    1.429    2.571    4.000    4.000 
#    0.000    1.429    0.000    0.000    0.000    0.000 
#    0.000    0.000    0.000    0.000    0.000    0.000 
#
# Total GULP energy -156478.192981 kJ/mol
# GULP energy per Si atom -5588.506892 kJ/mol
# Density = 1.894006 g / cm^3
# Si number density = 18.983262 Si / 1000 Ang^3
#
#
#
# Elastic Constant Matrix: (Units=GPa)
#
#
# Indices 1 2 3 4 5 6 
#
# 1 83.9214 65.4854 17.6360 0.0000 -5.2678 0.0000
# 2 65.4854 75.9147 28.7072 0.0000 -12.5198 0.0000
# 3 17.6360 28.7072 39.8369 0.0000 -18.0465 0.0000
# 4 0.0000 0.0000 0.0000 -73.7433 0.0000 -0.9392
# 5 -5.2678 -12.5198 -18.0465 0.0000 23.6911 0.0000
# 6 0.0000 0.0000 0.0000 -0.9392 0.0000 -6.8807
#
#
#
# Elastic Compliance Matrix: (Units=1/GPa)
#
#
# Indices 1 2 3 4 5 6 
#
# 1 0.039446 -0.037645 0.007063 0.000000 -0.005743 0.000000
# 2 -0.037645 0.054038 -0.020049 0.000000 0.004914 0.000000
# 3 0.007063 -0.020049 0.049372 0.000000 0.028584 0.000000
# 4 0.000000 0.000000 0.000000 -0.013584 0.000000 0.001854
# 5 -0.005743 0.004914 0.028584 0.000000 0.065304 0.000000
# 6 0.000000 0.000000 0.000000 0.001854 0.000000 -0.145587
#
#
# Mechanical properties :
#
#
# Convention : Reuss Voigt Hill
#
# Bulk Modulus (GPa) = 24.04150 47.03669 35.53909
# Shear Modulus (GPa) = 30.46630 -5.53029 12.46800
#
# Velocity S-wave (km/s) = 4.01047 -1.70868 2.56557
# Velocity P-wave (km/s) = 5.84271 4.57592 5.24768
#
# Compressibility (1/GPa) = 0.04159475
#
# Stress axis : x y z
#
# Youngs Moduli (GPa) = 25.35086 18.50548 20.25448
#
# Poissons Ratio (x) = 0.69664 -0.14306
# Poissons Ratio (y) = 0.95434 0.40608
# Poissons Ratio (z) = -0.17906 0.37101
#
# Static dielectric constant tensor:
#      x y z
#    x 1.654140 0.000000 -0.005740 
#    y 0.000000 1.624250 0.000000 
#    z -0.005740 0.000000 1.654880 
# 
# From -- ./inp_files/50063.got.cif
#   From: 2010.05.17/outbox.cif.g08.bks.cpg/sg10_26_cif.got.tgz:50063.got - 2010.06.03 11:33:40.
