data_PCOD9151043
_publ_section_title
;
Structure prediction by ZEFSAII (Michael W. Deem and Ramdas Pophale) SiO2 
 PCOD9151043
Probable space group: P 2/M
;
_chemical_formula_sum "Si O2"
_cell_formula_units_Z 32
_cell_length_a 15.529676
_cell_length_b 8.527787
_cell_length_c 12.565773
_cell_angle_alpha 90.000000
_cell_angle_beta 92.380802
_cell_angle_gamma 90.000000
_cell_volume 1662.696209
_symmetry_space_group_name_H-M "P 2/M"
_symmetry_group_IT_number 10
_symmetry_cell_setting 'monoclinic'
loop_
_space_group_symop_operation_xyz
x,y,z
-x,y,-z
-x,-y,-z
x,-y,z
loop_
_atom_site_type_symbol
_atom_site_label
_atom_site_fract_x
_atom_site_fract_y
_atom_site_fract_z
Si Si1 0.875126 0.815349 0.458769
Si Si2 0.936658 0.189718 0.901615
Si Si3 0.260759 0.810303 0.098869
Si Si4 0.556109 0.812541 0.289813
Si Si5 0.408796 0.190858 0.945622
Si Si6 0.032336 0.685733 0.334097
Si Si7 0.363792 0.687539 0.302427
Si Si8 0.690165 0.313926 0.462110
O O1 0.940411 0.728532 0.382227
O O2 0.776761 0.772696 0.430839
O O3 0.899498 0.762603 0.580189
O O4 0.890060 0.000000 0.449732
O O5 0.838188 0.235408 0.922798
O O6 0.959983 0.253113 0.785759
O O7 0.940695 0.000000 0.896580
O O8 0.000000 0.241141 0.000000
O O9 0.296577 0.743561 0.210872
O O10 0.264179 0.000000 0.103552
O O11 0.327369 0.757641 0.010868
O O12 0.594084 0.763404 0.177427
O O13 0.456078 0.766236 0.286641
O O14 0.609461 0.731100 0.385366
O O15 0.563538 0.000000 0.300686
O O16 0.410074 0.000000 0.948659
O O17 0.500000 0.243815 0.000000
O O18 0.045276 0.500000 0.336511
O O19 0.373774 0.500000 0.298081
O O20 0.331234 0.730609 0.417890
O O21 0.705122 0.500000 0.458936
#
# Coordination Sequence:
#
# PCOD9151043 Si02
#       8
#     4   4   4   4   4   4   4   4
#     4  11  22  39  64  91 117 152 202 251 296 358
#     4  10  22  39  60  89 123 159 204 255 303 358
#     4  10  20  37  62  86 112 152 198 246 297 352
#     4  11  22  37  60  86 115 155 201 245 292 353
#     4   9  17  34  58  84 113 146 192 248 296 341
#     4  11  22  39  63  89 122 159 195 243 307 365
#     4  11  23  38  57  82 117 156 194 242 298 355
#     4  11  24  40  56  83 124 159 192 241 304 360
#
# _framework density 19.245849
#
# number of rings (size 3 to 8) (size 9 to 14) (size 15 to 20)
#    0.000    1.500    1.250    5.250    0.000    7.250 
#    0.000    4.375    0.000    0.000    0.000    0.000 
#    0.000    0.000    0.000    0.000    0.000    0.000 
#
# Total GULP energy -178871.384464 kJ/mol
# GULP energy per Si atom -5589.730765 kJ/mol
# Density = 1.920204 g / cm^3
# Si number density = 19.245849 Si / 1000 Ang^3
#
#
#
# Elastic Constant Matrix: (Units=GPa)
#
#
# Indices 1 2 3 4 5 6 
#
# 1 97.9885 7.0765 66.0459 0.0000 9.2272 0.0000
# 2 7.0765 16.9624 -4.3016 0.0000 -5.8195 0.0000
# 3 66.0459 -4.3016 27.7292 0.0000 -21.2912 0.0000
# 4 0.0000 0.0000 0.0000 40.5251 0.0000 27.3151
# 5 9.2272 -5.8195 -21.2912 0.0000 22.8767 0.0000
# 6 0.0000 0.0000 0.0000 27.3151 0.0000 58.4128
#
#
#
# Elastic Compliance Matrix: (Units=1/GPa)
#
#
# Indices 1 2 3 4 5 6 
#
# 1 -0.000287 0.008165 0.012730 0.000000 0.014040 0.000000
# 2 0.008165 0.049245 -0.016531 0.000000 -0.006151 0.000000
# 3 0.012730 -0.016531 -0.013991 0.000000 -0.022361 0.000000
# 4 0.000000 0.000000 0.000000 0.036034 0.000000 -0.016850
# 5 0.014040 -0.006151 -0.022361 0.000000 0.015673 0.000000
# 6 0.000000 0.000000 0.000000 -0.016850 0.000000 0.024999
#
#
# Mechanical properties :
#
#
# Convention : Reuss Voigt Hill
#
# Bulk Modulus (GPa) = 22.88580 31.14687 27.01633
# Shear Modulus (GPa) = 42.54960 29.28685 35.91823
#
# Velocity S-wave (km/s) = 4.70706 3.90516 4.32474
# Velocity P-wave (km/s) = 6.43887 6.04587 6.24546
#
# Compressibility (1/GPa) = 0.04369521
#
# Stress axis : x y z
#
# Youngs Moduli (GPa) = -3488.39565 20.30656 -71.47272
#
# Poissons Ratio (x) = -0.16580 0.90984
# Poissons Ratio (y) = 28.48215 -1.18149
# Poissons Ratio (z) = 44.40696 0.33568
#
# Static dielectric constant tensor:
#      x y z
#    x 1.665760 0.000000 -0.013940 
#    y 0.000000 1.649310 0.000000 
#    z -0.013940 0.000000 1.647950 
# 
# From -- ./inp_files/49866.got.cif
#   From: 2010.05.17/outbox.cif.g08.bks.cpg/sg10_25_cif.got.tgz:49866.got - 2010.06.03 11:33:40.
