data_PCOD9152142
_publ_section_title
;
Structure prediction by ZEFSAII (Michael W. Deem and Ramdas Pophale) SiO2 
 PCOD9152142
Probable space group: P 2/M
;
_chemical_formula_sum "Si O2"
_cell_formula_units_Z 14
_cell_length_a 23.468705
_cell_length_b 5.502218
_cell_length_c 18.159441
_cell_angle_alpha 90.000000
_cell_angle_beta 164.534913
_cell_angle_gamma 90.000000
_cell_volume 625.277558
_symmetry_space_group_name_H-M "P 2/M"
_symmetry_group_IT_number 10
_symmetry_cell_setting 'monoclinic'
loop_
_space_group_symop_operation_xyz
x,y,z
-x,y,-z
-x,-y,-z
x,-y,z
loop_
_atom_site_type_symbol
_atom_site_label
_atom_site_fract_x
_atom_site_fract_y
_atom_site_fract_z
Si Si1 0.428051 0.500000 0.531297
Si Si2 0.086247 0.000000 0.295418
Si Si3 0.480689 0.000000 0.687341
Si Si4 0.982820 0.000000 0.337122
Si Si5 0.677004 0.748301 0.155081
Si Si6 0.148416 0.500000 0.042108
O O1 0.430529 0.750842 0.580145
O O2 0.644978 0.500000 0.753487
O O3 0.232504 0.500000 0.230367
O O4 0.975506 0.249319 0.129337
O O5 0.323169 0.000000 0.559715
O O6 0.074363 0.000000 0.368704
O O7 0.731552 0.000000 0.017491
O O8 0.093901 0.777354 0.519356
O O9 0.657636 0.500000 0.088056
O O10 0.653347 0.000000 0.084013
O O11 0.500000 0.746678 0.000000
#
# Coordination Sequence:
#
# PCOD9152142 Si02
#       6
#     2   2   2   2   4   2
#     4  11  23  43  63  82 113 156 198 242 290 343
#     4  12  25  38  60  89 117 153 194 237 295 343
#     4  12  25  38  60  89 117 153 194 237 295 343
#     4  10  21  36  59  80 124 144 188 236 285 336
#     4   8  16  30  54  81 106 147 189 222 273 334
#     4  11  23  43  63  82 113 156 198 242 290 343
#
# _framework density 22.390056999999999
#
# number of rings (size 3 to 8) (size 9 to 14) (size 15 to 20)
#    0.857    0.857    2.857    1.714    4.000    5.714 
#    0.000    0.000    0.000    3.429    0.000    4.000 
#    0.000    0.000    0.000    0.000    0.000    0.000 
#
# Total GULP energy -78147.982480 kJ/mol
# GULP energy per Si atom -5581.998749 kJ/mol
# Density = 2.233910 g / cm^3
# Si number density = 22.390057 Si / 1000 Ang^3
#
#
#
# Elastic Constant Matrix: (Units=GPa)
#
#
# Indices 1 2 3 4 5 6 
#
# 1 92.6523 37.4374 50.5809 0.0000 8.1863 0.0000
# 2 37.4374 241.3096 35.4517 0.0000 -16.4423 0.0000
# 3 50.5809 35.4517 56.2127 0.0000 -4.1526 0.0000
# 4 0.0000 0.0000 0.0000 16.6740 0.0000 1.4136
# 5 8.1863 -16.4423 -4.1526 0.0000 33.6123 0.0000
# 6 0.0000 0.0000 0.0000 1.4136 0.0000 2.2361
#
#
#
# Elastic Compliance Matrix: (Units=1/GPa)
#
#
# Indices 1 2 3 4 5 6 
#
# 1 0.023610 -0.001161 -0.021172 0.000000 -0.008934 0.000000
# 2 -0.001161 0.004747 -0.001773 0.000000 0.002386 0.000000
# 3 -0.021172 -0.001773 0.038628 0.000000 0.009062 0.000000
# 4 0.000000 0.000000 0.000000 0.063370 0.000000 -0.040062
# 5 -0.008934 0.002386 0.009062 0.000000 0.034214 0.000000
# 6 0.000000 0.000000 0.000000 -0.040062 0.000000 0.472538
#
#
# Mechanical properties :
#
#
# Convention : Reuss Voigt Hill
#
# Bulk Modulus (GPa) = 53.26843 70.79050 62.02947
# Shear Modulus (GPa) = 7.22985 28.28479 17.75732
#
# Velocity S-wave (km/s) = 1.79890 3.55811 2.81924
# Velocity P-wave (km/s) = 5.30636 6.96892 6.19368
#
# Compressibility (1/GPa) = 0.01877284
#
# Stress axis : x y z
#
# Youngs Moduli (GPa) = 42.35503 210.64907 25.88788
#
# Poissons Ratio (x) = 0.24460 0.54810
# Poissons Ratio (y) = 0.04918 0.04590
# Poissons Ratio (z) = 0.89675 0.37345
#
# Static dielectric constant tensor:
#      x y z
#    x 1.783970 0.000000 0.026160 
#    y 0.000000 1.958770 0.000000 
#    z 0.026160 0.000000 1.822100 
# 
# From -- ./inp_files/26286.got.cif
#   From: 2010.05.17/outbox.cif.g08.bks.cpg/sg10_14_cif.got.tgz:26286.got - 2010.06.03 11:33:40.
