data_PCOD9152759
_publ_section_title
;
Structure prediction by ZEFSAII (Michael W. Deem and Ramdas Pophale) SiO2 
 PCOD9152759
Probable space group: P 2/M
;
_chemical_formula_sum "Si O2"
_cell_formula_units_Z 26
_cell_length_a 12.136911
_cell_length_b 7.607918
_cell_length_c 12.544354
_cell_angle_alpha 90.000000
_cell_angle_beta 115.246094
_cell_angle_gamma 90.000000
_cell_volume 1047.667056
_symmetry_space_group_name_H-M "P 2/M"
_symmetry_group_IT_number 10
_symmetry_cell_setting 'monoclinic'
loop_
_space_group_symop_operation_xyz
x,y,z
-x,y,-z
-x,-y,-z
x,-y,z
loop_
_atom_site_type_symbol
_atom_site_label
_atom_site_fract_x
_atom_site_fract_y
_atom_site_fract_z
Si Si1 0.265556 0.800162 0.658397
Si Si2 0.947200 0.500000 0.236766
Si Si3 0.627364 0.800125 0.086576
Si Si4 0.233463 0.206220 0.241015
Si Si5 0.185223 0.307535 0.997690
Si Si6 0.505167 0.704171 0.380751
Si Si7 0.090763 0.785761 0.394862
O O1 0.299001 0.711868 0.785545
O O2 0.394791 0.798972 0.649110
O O3 0.169304 0.738712 0.531038
O O4 0.225788 0.000000 0.666168
O O5 0.976582 0.658832 0.334297
O O6 0.919027 0.348977 0.130684
O O7 0.714875 0.805730 0.021544
O O8 0.598314 0.000000 0.109910
O O9 0.500000 0.716146 0.000000
O O10 0.368154 0.282884 0.281272
O O11 0.171202 0.270250 0.323898
O O12 0.249174 0.000000 0.261034
O O13 0.156241 0.240332 0.102610
O O14 0.243724 0.500000 0.037536
O O15 0.500000 0.772828 0.500000
O O16 0.542639 0.500000 0.400625
O O17 0.070798 0.000000 0.384371
#
# Coordination Sequence:
#
# PCOD9152759 Si02
#       7
#     4   2   4   4   4   4   4
#     4  10  21  38  61  93 131 169 209 261 314 378
#     4  10  26  45  68  91 124 172 211 285 320 381
#     4  10  21  40  67  95 127 166 208 254 312 381
#     4  11  22  37  62  90 129 170 210 261 316 389
#     4  10  24  42  60  92 119 167 208 264 319 373
#     4  11  22  33  55  94 132 169 201 247 315 384
#     4  10  23  41  65  96 127 168 215 266 330 381
#
# _framework density 24.817046000000001
#
# number of rings (size 3 to 8) (size 9 to 14) (size 15 to 20)
#    0.462    1.231    1.538    2.308    3.231    5.231 
#    0.000    3.077    0.000    2.769    0.000    0.000 
#    0.000    0.000    0.000    0.000    0.000    0.000 
#
# Total GULP energy -144747.367055 kJ/mol
# GULP energy per Si atom -5567.206425 kJ/mol
# Density = 2.476056 g / cm^3
# Si number density = 24.817046 Si / 1000 Ang^3
#
#
#
# Elastic Constant Matrix: (Units=GPa)
#
#
# Indices 1 2 3 4 5 6 
#
# 1 76.5438 1.1966 56.2094 0.0000 -5.6701 0.0000
# 2 1.1966 76.5798 15.5098 0.0000 2.0970 0.0000
# 3 56.2094 15.5098 207.7330 0.0000 1.0136 0.0000
# 4 0.0000 0.0000 0.0000 26.4104 0.0000 -8.7048
# 5 -5.6701 2.0970 1.0136 0.0000 44.1232 0.0000
# 6 0.0000 0.0000 0.0000 -8.7048 0.0000 -30.5598
#
#
#
# Elastic Compliance Matrix: (Units=1/GPa)
#
#
# Indices 1 2 3 4 5 6 
#
# 1 0.016547 0.000599 -0.004533 0.000000 0.002202 0.000000
# 2 0.000599 0.013297 -0.001152 0.000000 -0.000528 0.000000
# 3 -0.004533 -0.001152 0.006130 0.000000 -0.000669 0.000000
# 4 0.000000 0.000000 0.000000 0.034614 0.000000 -0.009860
# 5 0.002202 -0.000528 -0.000669 0.000000 0.022987 0.000000
# 6 0.000000 0.000000 0.000000 -0.009860 0.000000 -0.029914
#
#
# Mechanical properties :
#
#
# Convention : Reuss Voigt Hill
#
# Bulk Modulus (GPa) = 38.75761 56.29868 47.52814
# Shear Modulus (GPa) = 60.65551 27.19081 43.92316
#
# Velocity S-wave (km/s) = 4.94915 3.31365 4.21156
# Velocity P-wave (km/s) = 6.95054 6.11352 6.54543
#
# Compressibility (1/GPa) = 0.02580139
#
# Stress axis : x y z
#
# Youngs Moduli (GPa) = 60.43466 75.20628 163.14086
#
# Poissons Ratio (x) = -0.04506 0.73948
# Poissons Ratio (y) = -0.03621 0.18799
# Poissons Ratio (z) = 0.27394 0.08666
#
# Static dielectric constant tensor:
#      x y z
#    x 2.047640 0.000000 0.027050 
#    y 0.000000 2.027030 0.000000 
#    z 0.027050 0.000000 2.006040 
# 
# From -- ./inp_files/49512.got.cif
#   From: 2010.05.17/outbox.cif.g08.bks.cpg/sg10_25_cif.got.tgz:49512.got - 2010.06.03 11:33:40.
