data_PCOD9152488
_publ_section_title
;
Structure prediction by ZEFSAII (Michael W. Deem and Ramdas Pophale) SiO2 
 PCOD9152488
Probable space group: P 2/M
;
_chemical_formula_sum "Si O2"
_cell_formula_units_Z 32
_cell_length_a 9.039416
_cell_length_b 22.278862
_cell_length_c 15.390774
_cell_angle_alpha 90.000000
_cell_angle_beta 30.457414
_cell_angle_gamma 90.000000
_cell_volume 1571.137689
_symmetry_space_group_name_H-M "P 2/M"
_symmetry_group_IT_number 10
_symmetry_cell_setting 'monoclinic'
loop_
_space_group_symop_operation_xyz
x,y,z
-x,y,-z
-x,-y,-z
x,-y,z
loop_
_atom_site_type_symbol
_atom_site_label
_atom_site_fract_x
_atom_site_fract_y
_atom_site_fract_z
Si Si1 0.782246 0.805854 0.030941
Si Si2 0.150121 0.813652 0.192678
Si Si3 0.786249 0.063301 0.025738
Si Si4 0.313881 0.597194 0.326328
Si Si5 0.153859 0.067036 0.661080
Si Si6 0.787982 0.731014 0.682970
Si Si7 0.356380 0.427511 0.666996
Si Si8 0.295215 0.568246 0.029089
O O1 0.633842 0.872394 0.106673
O O2 0.535190 0.756824 0.163589
O O3 0.952605 0.800449 0.853426
O O4 0.000000 0.802458 0.000000
O O5 0.107408 0.758029 0.278487
O O6 0.995150 0.874253 0.305380
O O7 0.500000 0.822714 0.000000
O O8 0.617272 0.000000 0.109897
O O9 0.000000 0.062079 0.000000
O O10 0.987815 0.064461 0.837976
O O11 0.236721 0.660166 0.318334
O O12 0.472392 0.602156 0.339264
O O13 0.000000 0.567177 0.500000
O O14 0.527511 0.566259 0.149980
O O15 0.500000 0.075900 0.500000
O O16 0.115404 0.000000 0.640627
O O17 0.000000 0.753888 0.500000
O O18 0.500000 0.418050 0.500000
O O19 0.359220 0.500000 0.682991
O O20 0.022556 0.405148 0.828575
O O21 0.233159 0.500000 0.091640
O O22 0.500000 0.596752 0.000000
#
# Coordination Sequence:
#
# PCOD9152488 Si02
#       8
#     4   4   4   4   4   4   4   4
#     4   9  18  34  56  81 104 138 189 233 280 343
#     4   9  19  36  55  74 107 149 184 226 286 345
#     4   8  14  26  46  73 104 133 165 214 275 339
#     4  11  23  39  58  83 118 162 207 250 293 336
#     4   9  17  29  50  82 111 136 175 228 287 350
#     4  10  23  40  54  75 108 148 193 241 286 328
#     4  10  21  39  64  95 128 157 191 239 296 360
#     4  10  21  37  61  94 127 160 193 230 288 354
#
# _framework density 20.367407
#
# number of rings (size 3 to 8) (size 9 to 14) (size 15 to 20)
#    0.000    2.500    0.000    1.500    0.000    8.750 
#    0.000    4.375    0.000    0.750    0.000    0.000 
#    0.000    0.000    0.000    0.000    0.000    0.000 
#
# Total GULP energy -178257.903004 kJ/mol
# GULP energy per Si atom -5570.559469 kJ/mol
# Density = 2.032105 g / cm^3
# Si number density = 20.367407 Si / 1000 Ang^3
#
#
#
# Elastic Constant Matrix: (Units=GPa)
#
#
# Indices 1 2 3 4 5 6 
#
# 1 133.4173 20.0207 26.9628 0.0000 10.6588 0.0000
# 2 20.0207 87.8440 14.6378 0.0000 7.7972 0.0000
# 3 26.9628 14.6378 79.1646 0.0000 -6.7970 0.0000
# 4 0.0000 0.0000 0.0000 12.8833 0.0000 2.3403
# 5 10.6588 7.7972 -6.7970 0.0000 26.0078 0.0000
# 6 0.0000 0.0000 0.0000 2.3403 0.0000 30.3333
#
#
#
# Elastic Compliance Matrix: (Units=1/GPa)
#
#
# Indices 1 2 3 4 5 6 
#
# 1 0.008599 -0.001093 -0.003070 0.000000 -0.003999 0.000000
# 2 -0.001093 0.012347 -0.002240 0.000000 -0.003839 0.000000
# 3 -0.003070 -0.002240 0.014585 0.000000 0.005741 0.000000
# 4 0.000000 0.000000 0.000000 0.078723 0.000000 -0.006074
# 5 -0.003999 -0.003839 0.005741 0.000000 0.042740 0.000000
# 6 0.000000 0.000000 0.000000 -0.006074 0.000000 0.033436
#
#
# Mechanical properties :
#
#
# Convention : Reuss Voigt Hill
#
# Bulk Modulus (GPa) = 44.00669 47.07427 45.54048
# Shear Modulus (GPa) = 23.71784 29.76521 26.74152
#
# Velocity S-wave (km/s) = 3.41618 3.82699 3.62741
# Velocity P-wave (km/s) = 6.10030 6.53380 6.32077
#
# Compressibility (1/GPa) = 0.02272382
#
# Stress axis : x y z
#
# Youngs Moduli (GPa) = 116.28935 80.99084 68.56501
#
# Poissons Ratio (x) = 0.08855 0.21049
# Poissons Ratio (y) = 0.12715 0.15360
# Poissons Ratio (z) = 0.35701 0.18144
#
# Static dielectric constant tensor:
#      x y z
#    x 1.750890 0.000000 -0.001950 
#    y 0.000000 1.808930 0.000000 
#    z -0.001950 0.000000 1.710250 
# 
# From -- ./inp_files/62676.got.cif
#   From: 2010.05.17/outbox.cif.g08.bks.cpg/sg10_32_cif.got.tgz:62676.got - 2010.06.03 11:33:40.
