data_PCOD9152836
_publ_section_title
;
Structure prediction by ZEFSAII (Michael W. Deem and Ramdas Pophale) SiO2 
 PCOD9152836
Probable space group: P 2/M
;
_chemical_formula_sum "Si O2"
_cell_formula_units_Z 19
_cell_length_a 9.298943
_cell_length_b 23.827658
_cell_length_c 5.127780
_cell_angle_alpha 90.000000
_cell_angle_beta 55.560231
_cell_angle_gamma 90.000000
_cell_volume 937.025615
_symmetry_space_group_name_H-M "P 2/M"
_symmetry_group_IT_number 10
_symmetry_cell_setting 'monoclinic'
loop_
_space_group_symop_operation_xyz
x,y,z
-x,y,-z
-x,-y,-z
x,-y,z
loop_
_atom_site_type_symbol
_atom_site_label
_atom_site_fract_x
_atom_site_fract_y
_atom_site_fract_z
Si Si1 0.500000 0.500000 0.000000
Si Si2 0.876517 0.104839 0.379470
Si Si3 0.705395 0.660477 0.330707
Si Si4 0.621065 0.000000 0.625319
Si Si5 0.122170 0.229477 0.625287
Si Si6 0.801916 0.591983 0.734328
O O1 0.644859 0.548402 0.942976
O O2 0.738315 0.055597 0.504031
O O3 0.796662 0.167573 0.496707
O O4 0.000000 0.095394 0.500000
O O5 0.000000 0.103111 0.000000
O O6 0.500000 0.659144 0.500000
O O7 0.755106 0.720134 0.408454
O O8 0.760094 0.616755 0.494381
O O9 0.794551 0.640022 0.968219
O O10 0.500000 0.000000 0.500000
O O11 0.500000 0.000000 0.000000
O O12 0.000000 0.242437 0.500000
O O13 0.000000 0.222777 0.000000
O O14 0.000000 0.569498 0.500000
#
# Coordination Sequence:
#
# PCOD9152836 Si02
#       6
#     1   4   4   2   4   4
#     4  12  26  50  68 104 132 166 234 264 324 392
#     4  10  21  40  63  88 122 172 219 263 318 393
#     4  12  23  43  65  98 132 169 212 270 323 391
#     4  12  24  38  60  92 132 166 214 274 330 384
#     4  10  21  38  64  93 124 164 219 266 321 391
#     4  12  26  45  71  95 133 174 214 269 328 388
#
# _framework density 20.276926
#
# number of rings (size 3 to 8) (size 9 to 14) (size 15 to 20)
#    0.000    0.842    2.105    6.000    0.000    2.526 
#    0.000    4.211    0.000    0.000    0.000    0.000 
#    0.000    0.000    0.000    0.000    0.000    0.000 
#
# Total GULP energy -105812.054647 kJ/mol
# GULP energy per Si atom -5569.055508 kJ/mol
# Density = 2.023077 g / cm^3
# Si number density = 20.276926 Si / 1000 Ang^3
#
#
#
# Elastic Constant Matrix: (Units=GPa)
#
#
# Indices 1 2 3 4 5 6 
#
# 1 157.4269 87.5225 53.2906 0.0000 8.4371 0.0000
# 2 87.5225 118.5631 17.1371 0.0000 -23.2826 0.0000
# 3 53.2906 17.1371 94.3352 0.0000 14.3304 0.0000
# 4 0.0000 0.0000 0.0000 -116.3974 0.0000 48.8939
# 5 8.4371 -23.2826 14.3304 0.0000 40.3605 0.0000
# 6 0.0000 0.0000 0.0000 48.8939 0.0000 76.5479
#
#
#
# Elastic Compliance Matrix: (Units=1/GPa)
#
#
# Indices 1 2 3 4 5 6 
#
# 1 0.015371 -0.012258 -0.005173 0.000000 -0.008448 0.000000
# 2 -0.012258 0.019990 0.001218 0.000000 0.013661 0.000000
# 3 -0.005173 0.001218 0.013773 0.000000 -0.003106 0.000000
# 4 0.000000 0.000000 0.000000 -0.006774 0.000000 0.004327
# 5 -0.008448 0.013661 -0.003106 0.000000 0.035526 0.000000
# 6 0.000000 0.000000 0.000000 0.004327 0.000000 0.010300
#
#
# Mechanical properties :
#
#
# Convention : Reuss Voigt Hill
#
# Bulk Modulus (GPa) = 59.85166 76.24727 68.04947
# Shear Modulus (GPa) = 39.62535 14.26054 26.94294
#
# Velocity S-wave (km/s) = 4.42544 2.65484 3.64916
# Velocity P-wave (km/s) = 7.46283 6.86164 7.16854
#
# Compressibility (1/GPa) = 0.01670797
#
# Stress axis : x y z
#
# Youngs Moduli (GPa) = 65.05831 50.02589 72.60351
#
# Poissons Ratio (x) = 0.61321 0.37558
# Poissons Ratio (y) = 0.79747 -0.08842
# Poissons Ratio (z) = 0.33655 -0.06093
#
# Static dielectric constant tensor:
#      x y z
#    x 1.669970 0.000000 -0.008330 
#    y 0.000000 1.765670 0.000000 
#    z -0.008330 0.000000 1.703630 
# 
# From -- ./inp_files/4656.got.cif
#   From: 2010.05.17/outbox.cif.g08.bks.cpg/sg10_3_cif.got.tgz:4656.got - 2010.06.03 11:33:40.
