data_PCOD9152086
_publ_section_title
;
Structure prediction by ZEFSAII (Michael W. Deem and Ramdas Pophale) SiO2 
 PCOD9152086
Probable space group: P 2/M
;
_chemical_formula_sum "Si O2"
_cell_formula_units_Z 15
_cell_length_a 6.944432
_cell_length_b 15.948904
_cell_length_c 5.148571
_cell_angle_alpha 90.000000
_cell_angle_beta 101.631828
_cell_angle_gamma 90.000000
_cell_volume 558.524838
_symmetry_space_group_name_H-M "P 2/M"
_symmetry_group_IT_number 10
_symmetry_cell_setting 'monoclinic'
loop_
_space_group_symop_operation_xyz
x,y,z
-x,y,-z
-x,-y,-z
x,-y,z
loop_
_atom_site_type_symbol
_atom_site_label
_atom_site_fract_x
_atom_site_fract_y
_atom_site_fract_z
Si Si1 0.000000 0.293935 0.500000
Si Si2 0.767753 0.087427 0.974514
Si Si3 0.782776 0.594641 0.070069
Si Si4 0.500000 0.000000 0.500000
Si Si5 0.667992 0.247034 0.757833
O O1 0.167133 0.355408 0.656210
O O2 0.118369 0.239875 0.324662
O O3 0.696176 0.181266 0.007758
O O4 0.715790 0.000000 0.126330
O O5 0.645932 0.070268 0.678271
O O6 0.000000 0.084505 0.000000
O O7 0.713776 0.500000 0.085450
O O8 0.658568 0.658289 0.862596
O O9 0.000000 0.590137 0.000000
O O10 0.500000 0.235317 0.500000
#
# Coordination Sequence:
#
# PCOD9152086 Si02
#       5
#     2   4   4   1   4
#     4  10  21  36  57  82 110 150 191 234 285 340
#     4   9  16  30  54  81 112 150 187 231 284 335
#     4   9  19  36  57  81 111 148 188 235 288 338
#     4   8  14  28  52  84 104 152 194 218 288 342
#     4  11  21  37  58  83 115 149 190 236 283 340
#
# _framework density 26.856463999999999
#
# number of rings (size 3 to 8) (size 9 to 14) (size 15 to 20)
#    0.800    1.600    1.333    2.800    0.000    2.667 
#    0.000    2.000    0.000    1.600    0.000   11.200 
#    0.000    0.000    0.000    0.000    0.000    0.000 
#
# Total GULP energy -83501.869097 kJ/mol
# GULP energy per Si atom -5566.791273 kJ/mol
# Density = 2.679534 g / cm^3
# Si number density = 26.856464 Si / 1000 Ang^3
#
#
#
# Elastic Constant Matrix: (Units=GPa)
#
#
# Indices 1 2 3 4 5 6 
#
# 1 146.6449 5.9114 16.1906 0.0000 23.2440 0.0000
# 2 5.9114 221.6086 38.1426 0.0000 23.9369 0.0000
# 3 16.1906 38.1426 105.6000 0.0000 38.4306 0.0000
# 4 0.0000 0.0000 0.0000 -145.1638 0.0000 378.5622
# 5 23.2440 23.9369 38.4306 0.0000 58.7671 0.0000
# 6 0.0000 0.0000 0.0000 378.5622 0.0000 -843.6285
#
#
#
# Elastic Compliance Matrix: (Units=1/GPa)
#
#
# Indices 1 2 3 4 5 6 
#
# 1 0.007280 0.000136 -0.000128 0.000000 -0.002851 0.000000
# 2 0.000136 0.004867 -0.001362 0.000000 -0.001145 0.000000
# 3 -0.000128 -0.001362 0.012809 0.000000 -0.007772 0.000000
# 4 0.000000 0.000000 0.000000 0.040471 0.000000 0.018161
# 5 -0.002851 -0.001145 -0.007772 0.000000 0.023693 0.000000
# 6 0.000000 0.000000 0.000000 0.018161 0.000000 0.006964
#
#
# Mechanical properties :
#
#
# Convention : Reuss Voigt Hill
#
# Bulk Modulus (GPa) = 44.94625 66.03808 55.49216
# Shear Modulus (GPa) = 47.07750 -158.43110 -55.67680
#
# Velocity S-wave (km/s) = 4.19134 -7.68894 -4.55810
# Velocity P-wave (km/s) = 6.33997 7.36097 2.64468
#
# Compressibility (1/GPa) = 0.02224880
#
# Stress axis : x y z
#
# Youngs Moduli (GPa) = 137.36762 205.46663 78.06755
#
# Poissons Ratio (x) = -0.02789 0.00996
# Poissons Ratio (y) = -0.01865 0.10632
# Poissons Ratio (z) = 0.01752 0.27982
#
# Static dielectric constant tensor:
#      x y z
#    x 1.831960 0.000000 0.199060 
#    y 0.000000 2.292890 0.000000 
#    z 0.199060 0.000000 1.823620 
# 
# From -- ./inp_files/3850.got.cif
#   From: 2010.05.17/outbox.cif.g08.bks.cpg/sg10_2_cif.got.tgz:3850.got - 2010.06.03 11:33:40.
