data_PCOD9152493
_publ_section_title
;
Structure prediction by ZEFSAII (Michael W. Deem and Ramdas Pophale) SiO2 
 PCOD9152493
Probable space group: P 2/M
;
_chemical_formula_sum "Si O2"
_cell_formula_units_Z 32
_cell_length_a 9.271429
_cell_length_b 13.646181
_cell_length_c 10.918475
_cell_angle_alpha 90.000000
_cell_angle_beta 73.259222
_cell_angle_gamma 90.000000
_cell_volume 1322.854164
_symmetry_space_group_name_H-M "P 2/M"
_symmetry_group_IT_number 10
_symmetry_cell_setting 'monoclinic'
loop_
_space_group_symop_operation_xyz
x,y,z
-x,y,-z
-x,-y,-z
x,-y,z
loop_
_atom_site_type_symbol
_atom_site_label
_atom_site_fract_x
_atom_site_fract_y
_atom_site_fract_z
Si Si1 0.329616 0.884107 0.912979
Si Si2 0.166321 0.617463 0.935916
Si Si3 0.887648 0.890298 0.251603
Si Si4 0.077384 0.704127 0.610991
Si Si5 0.346476 0.614635 0.643736
Si Si6 0.781419 0.615843 0.811962
Si Si7 0.243343 0.110468 0.210554
Si Si8 0.565521 0.257065 0.719517
O O1 0.176631 0.873643 0.869374
O O2 0.445512 0.811649 0.819052
O O3 0.370107 0.000000 0.893348
O O4 0.315394 0.864170 0.060793
O O5 0.151153 0.500000 0.935954
O O6 0.250281 0.639311 0.790898
O O7 0.251513 0.642413 0.039062
O O8 0.000000 0.659139 0.000000
O O9 0.847440 0.802146 0.351770
O O10 0.067463 0.889101 0.220580
O O11 0.835350 0.000000 0.300668
O O12 0.218779 0.630041 0.571862
O O13 0.000000 0.719030 0.500000
O O14 0.940181 0.663588 0.729688
O O15 0.392416 0.500000 0.635326
O O16 0.483303 0.690793 0.626757
O O17 0.802389 0.500000 0.796611
O O18 0.637656 0.651981 0.773567
O O19 0.291948 0.182383 0.308101
O O20 0.284514 0.000000 0.234111
#
# Coordination Sequence:
#
# PCOD9152493 Si02
#       8
#     4   4   4   4   4   4   4   4
#     4  10  21  37  61  96 134 170 209 253 309 377
#     4   9  18  35  59  85 120 159 206 257 300 357
#     4  10  21  42  67  93 124 160 210 268 315 369
#     4  12  25  45  71  94 115 155 217 275 323 369
#     4  11  24  41  61  92 127 167 214 257 306 370
#     4  11  24  41  61  92 127 167 214 257 306 370
#     4  10  21  37  61  96 134 170 209 253 309 377
#     4  12  23  35  58  89 133 176 197 244 306 377
#
# _framework density 24.190117999999998
#
# number of rings (size 3 to 8) (size 9 to 14) (size 15 to 20)
#    0.000    1.375    3.750    1.875    3.500    3.750 
#    2.250    2.500    0.000    1.500    0.000    3.500 
#    0.000    0.000    0.000    0.000    0.000    0.000 
#
# Total GULP energy -178771.555789 kJ/mol
# GULP energy per Si atom -5586.611118 kJ/mol
# Density = 2.413506 g / cm^3
# Si number density = 24.190118 Si / 1000 Ang^3
#
#
#
# Elastic Constant Matrix: (Units=GPa)
#
#
# Indices 1 2 3 4 5 6 
#
# 1 117.4261 31.7500 37.9145 0.0000 26.5160 0.0000
# 2 31.7500 158.4081 29.2832 0.0000 20.3542 0.0000
# 3 37.9145 29.2832 88.6605 0.0000 19.5377 0.0000
# 4 0.0000 0.0000 0.0000 -29.4187 0.0000 21.6917
# 5 26.5160 20.3542 19.5377 0.0000 44.7292 0.0000
# 6 0.0000 0.0000 0.0000 21.6917 0.0000 31.6819
#
#
#
# Elastic Compliance Matrix: (Units=1/GPa)
#
#
# Indices 1 2 3 4 5 6 
#
# 1 0.010883 -0.000981 -0.003327 0.000000 -0.004552 0.000000
# 2 -0.000981 0.007035 -0.001468 0.000000 -0.001978 0.000000
# 3 -0.003327 -0.001468 0.013947 0.000000 -0.003452 0.000000
# 4 0.000000 0.000000 0.000000 -0.022588 0.000000 0.015466
# 5 -0.004552 -0.001978 -0.003452 0.000000 0.027463 0.000000
# 6 0.000000 0.000000 0.000000 0.015466 0.000000 0.020975
#
#
# Mechanical properties :
#
#
# Convention : Reuss Voigt Hill
#
# Bulk Modulus (GPa) = 49.22914 62.48779 55.85846
# Shear Modulus (GPa) = 65.75565 27.10159 46.42862
#
# Velocity S-wave (km/s) = 5.21937 3.35081 4.38576
# Velocity P-wave (km/s) = 7.53111 6.39207 6.98485
#
# Compressibility (1/GPa) = 0.02031317
#
# Stress axis : x y z
#
# Youngs Moduli (GPa) = 91.88265 142.14467 71.69901
#
# Poissons Ratio (x) = 0.13951 0.23853
# Poissons Ratio (y) = 0.09018 0.10525
# Poissons Ratio (z) = 0.30568 0.20866
#
# Static dielectric constant tensor:
#      x y z
#    x 2.018350 0.000000 -0.050850 
#    y 0.000000 1.967860 0.000000 
#    z -0.050850 0.000000 1.922410 
# 
# From -- ./inp_files/25314.got.cif
#   From: 2010.05.17/outbox.cif.g08.bks.cpg/sg10_13_cif.got.tgz:25314.got - 2010.06.03 11:33:40.
