data_PCOD9152430
_publ_section_title
;
Structure prediction by ZEFSAII (Michael W. Deem and Ramdas Pophale) SiO2 
 PCOD9152430
Probable space group: P 2/M
;
_chemical_formula_sum "Si O2"
_cell_formula_units_Z 32
_cell_length_a 11.496926
_cell_length_b 14.696601
_cell_length_c 15.061236
_cell_angle_alpha 90.000000
_cell_angle_beta 138.310989
_cell_angle_gamma 90.000000
_cell_volume 1692.535571
_symmetry_space_group_name_H-M "P 2/M"
_symmetry_group_IT_number 10
_symmetry_cell_setting 'monoclinic'
loop_
_space_group_symop_operation_xyz
x,y,z
-x,y,-z
-x,-y,-z
x,-y,z
loop_
_atom_site_type_symbol
_atom_site_label
_atom_site_fract_x
_atom_site_fract_y
_atom_site_fract_z
Si Si1 0.478848 0.392501 0.888323
Si Si2 0.109943 0.750232 0.333210
Si Si3 0.769800 0.345111 0.918204
Si Si4 0.255066 0.140464 0.153632
Si Si5 0.931715 0.604493 0.361451
Si Si6 0.857692 0.600266 0.785732
Si Si7 0.595074 0.105521 0.458153
Si Si8 0.040388 0.097971 0.870059
O O1 0.526273 0.500000 0.915936
O O2 0.606607 0.348054 0.890314
O O3 0.276084 0.383737 0.751625
O O4 0.500000 0.356618 0.000000
O O5 0.195221 0.682093 0.309037
O O6 0.251672 0.819558 0.454946
O O7 0.975218 0.816361 0.203858
O O8 0.017066 0.681409 0.348260
O O9 0.791631 0.244789 0.891570
O O10 0.750815 0.401032 0.816651
O O11 0.941925 0.378928 0.068830
O O12 0.449052 0.125271 0.300162
O O13 0.125143 0.105649 0.156837
O O14 0.204988 0.098523 0.030185
O O15 0.964543 0.500000 0.348227
O O16 0.000000 0.611740 0.500000
O O17 0.849118 0.500000 0.739868
O O18 0.500000 0.113220 0.500000
O O19 0.653806 0.000000 0.483252
O O20 0.030320 0.000000 0.818153
#
# Coordination Sequence:
#
# PCOD9152430 Si02
#       8
#     4   4   4   4   4   4   4   4
#     4  10  21  37  60  87 113 156 215 258 294 351
#     4  12  22  38  61  91 120 159 208 251 310 372
#     4  11  19  34  58  92 126 160 198 251 304 371
#     4  11  20  35  57  90 128 160 200 244 306 373
#     4  10  24  45  64  84 117 164 213 260 304 357
#     4  11  20  34  57  91 134 165 189 241 317 376
#     4  11  22  37  58  90 129 164 200 252 314 377
#     4  11  20  36  61  91 125 160 200 248 308 381
#
# _framework density 18.906545000000001
#
# number of rings (size 3 to 8) (size 9 to 14) (size 15 to 20)
#    0.000    1.125    3.750    5.250    1.750    1.000 
#    0.000    0.000    0.000    3.000    0.000    0.875 
#    0.000    0.000    0.000    0.000    0.000    0.000 
#
# Total GULP energy -178616.387635 kJ/mol
# GULP energy per Si atom -5581.762114 kJ/mol
# Density = 1.886351 g / cm^3
# Si number density = 18.906545 Si / 1000 Ang^3
#
#
#
# Elastic Constant Matrix: (Units=GPa)
#
#
# Indices 1 2 3 4 5 6 
#
# 1 97.3781 39.2713 32.6720 0.0000 -6.7900 0.0000
# 2 39.2713 146.0113 36.1838 0.0000 0.8573 0.0000
# 3 32.6720 36.1838 119.7951 0.0000 -0.6563 0.0000
# 4 0.0000 0.0000 0.0000 -7.7753 0.0000 19.4903
# 5 -6.7900 0.8573 -0.6563 0.0000 10.0667 0.0000
# 6 0.0000 0.0000 0.0000 19.4903 0.0000 17.8621
#
#
#
# Elastic Compliance Matrix: (Units=1/GPa)
#
#
# Indices 1 2 3 4 5 6 
#
# 1 0.012918 -0.002880 -0.002605 0.000000 0.008788 0.000000
# 2 -0.002880 0.008051 -0.001661 0.000000 -0.002737 0.000000
# 3 -0.002605 -0.001661 0.009554 0.000000 -0.000993 0.000000
# 4 0.000000 0.000000 0.000000 -0.034433 0.000000 0.037571
# 5 0.008788 -0.002737 -0.000993 0.000000 0.105433 0.000000
# 6 0.000000 0.000000 0.000000 0.037571 0.000000 0.014988
#
#
# Mechanical properties :
#
#
# Convention : Reuss Voigt Hill
#
# Bulk Modulus (GPa) = 61.61378 64.38206 62.99792
# Shear Modulus (GPa) = 36.70652 21.03454 28.87053
#
# Velocity S-wave (km/s) = 4.41099 3.33911 3.91194
# Velocity P-wave (km/s) = 7.65518 6.99950 7.33467
#
# Compressibility (1/GPa) = 0.01623013
#
# Stress axis : x y z
#
# Youngs Moduli (GPa) = 77.41339 124.20419 104.66417
#
# Poissons Ratio (x) = 0.35776 0.27264
# Poissons Ratio (y) = 0.22298 0.17388
# Poissons Ratio (z) = 0.20165 0.20634
#
# Static dielectric constant tensor:
#      x y z
#    x 1.622430 0.000000 -0.012960 
#    y 0.000000 1.719340 0.000000 
#    z -0.012960 0.000000 1.671480 
# 
# From -- ./inp_files/65107.got.cif
#   From: 2010.05.17/outbox.cif.g08.bks.cpg/sg10_33_cif.got.tgz:65107.got - 2010.06.03 11:33:40.
