data_PCOD9152933
_publ_section_title
;
Structure prediction by ZEFSAII (Michael W. Deem and Ramdas Pophale) SiO2 
 PCOD9152933
Probable space group: P 2/M
;
_chemical_formula_sum "Si O2"
_cell_formula_units_Z 26
_cell_length_a 5.025558
_cell_length_b 24.111572
_cell_length_c 10.930273
_cell_angle_alpha 90.000000
_cell_angle_beta 71.675772
_cell_angle_gamma 90.000000
_cell_volume 1257.305828
_symmetry_space_group_name_H-M "P 2/M"
_symmetry_group_IT_number 10
_symmetry_cell_setting 'monoclinic'
loop_
_space_group_symop_operation_xyz
x,y,z
-x,y,-z
-x,-y,-z
x,-y,z
loop_
_atom_site_type_symbol
_atom_site_label
_atom_site_fract_x
_atom_site_fract_y
_atom_site_fract_z
Si Si1 0.768628 0.624022 0.372098
Si Si2 0.628167 0.792376 0.850476
Si Si3 0.500000 0.606644 0.000000
Si Si4 0.129037 0.866530 0.848016
Si Si5 0.235278 0.500000 0.624598
Si Si6 0.819527 0.934279 0.410048
Si Si7 0.702295 0.500000 0.106222
Si Si8 0.341698 0.327362 0.244889
O O1 0.500000 0.627173 0.500000
O O2 0.896876 0.561069 0.365706
O O3 0.610556 0.644138 0.270897
O O4 0.044262 0.660529 0.351323
O O5 0.438707 0.842945 0.828659
O O6 0.616011 0.738283 0.769250
O O7 0.936573 0.815005 0.833477
O O8 0.500000 0.776284 0.000000
O O9 0.596247 0.559974 0.081784
O O10 0.313550 0.646573 0.111635
O O11 0.130377 0.907386 0.730994
O O12 0.000000 0.885736 0.000000
O O13 0.500000 0.500000 0.500000
O O14 0.337520 0.500000 0.746545
O O15 0.500000 0.927215 0.500000
O O16 0.000000 0.912581 0.500000
O O17 0.878855 0.000000 0.389505
O O18 0.000000 0.500000 0.000000
#
# Coordination Sequence:
#
# PCOD9152933 Si02
#       8
#     4   4   2   4   2   4   2   4
#     4  11  25  42  62  84 117 156 197 246 306 379
#     4  10  21  39  61  89 123 161 209 257 308 365
#     4  11  24  34  64  88 118 150 191 258 318 366
#     4  10  21  39  63  93 127 167 213 263 305 362
#     4  10  21  40  61  82 113 154 190 234 308 384
#     4  10  21  39  64  96 134 173 213 257 311 370
#     4  11  21  40  56  91 121 142 195 252 314 376
#     4  12  23  42  63  89 118 156 203 251 310 369
#
# _framework density 20.679137000000001
#
# number of rings (size 3 to 8) (size 9 to 14) (size 15 to 20)
#    0.000    1.385    2.308    3.231    0.000    1.538 
#    0.000   10.000    0.000    5.538    0.000    0.000 
#    0.000    0.000    0.000    0.000    0.000    0.000 
#
# Total GULP energy -144746.459364 kJ/mol
# GULP energy per Si atom -5567.171514 kJ/mol
# Density = 2.063207 g / cm^3
# Si number density = 20.679137 Si / 1000 Ang^3
#
#
#
# Elastic Constant Matrix: (Units=GPa)
#
#
# Indices 1 2 3 4 5 6 
#
# 1 61.1050 4.5205 13.7063 0.0000 5.9608 0.0000
# 2 4.5205 73.1395 46.6887 0.0000 6.4751 0.0000
# 3 13.7063 46.6887 123.5215 0.0000 20.7217 0.0000
# 4 0.0000 0.0000 0.0000 9.6930 0.0000 -6.0765
# 5 5.9608 6.4751 20.7217 0.0000 25.7868 0.0000
# 6 0.0000 0.0000 0.0000 -6.0765 0.0000 7.3569
#
#
#
# Elastic Compliance Matrix: (Units=1/GPa)
#
#
# Indices 1 2 3 4 5 6 
#
# 1 0.016955 0.000134 -0.001467 0.000000 -0.002774 0.000000
# 2 0.000134 0.018049 -0.007017 0.000000 0.001076 0.000000
# 3 -0.001467 -0.007017 0.012204 0.000000 -0.007705 0.000000
# 4 0.000000 0.000000 0.000000 0.213947 0.000000 0.176713
# 5 -0.002774 0.001076 -0.007705 0.000000 0.045343 0.000000
# 6 0.000000 0.000000 0.000000 0.176713 0.000000 0.281886
#
#
# Mechanical properties :
#
#
# Convention : Reuss Voigt Hill
#
# Bulk Modulus (GPa) = 32.77936 43.06632 37.92284
# Shear Modulus (GPa) = 8.12675 21.42405 14.77540
#
# Velocity S-wave (km/s) = 1.98455 3.22222 2.67593
# Velocity P-wave (km/s) = 4.59751 5.89193 5.28450
#
# Compressibility (1/GPa) = 0.03050700
#
# Stress axis : x y z
#
# Youngs Moduli (GPa) = 58.97975 55.40621 81.94331
#
# Poissons Ratio (x) = -0.00742 0.12017
# Poissons Ratio (y) = -0.00790 0.57503
# Poissons Ratio (z) = 0.08650 0.38881
#
# Static dielectric constant tensor:
#      x y z
#    x 1.786000 0.000000 0.070770 
#    y 0.000000 1.716720 0.000000 
#    z 0.070770 0.000000 1.776910 
# 
# From -- ./inp_files/39692.got.cif
#   From: 2010.05.17/outbox.cif.g08.bks.cpg/sg10_20_cif.got.tgz:39692.got - 2010.06.03 11:33:40.
