data_PCOD9152654
_publ_section_title
;
Structure prediction by ZEFSAII (Michael W. Deem and Ramdas Pophale) SiO2 
 PCOD9152654
Probable space group: P 2/M
;
_chemical_formula_sum "Si O2"
_cell_formula_units_Z 30
_cell_length_a 12.310095
_cell_length_b 22.178228
_cell_length_c 7.259151
_cell_angle_alpha 90.000000
_cell_angle_beta 134.506888
_cell_angle_gamma 90.000000
_cell_volume 1413.399130
_symmetry_space_group_name_H-M "P 2/M"
_symmetry_group_IT_number 10
_symmetry_cell_setting 'monoclinic'
loop_
_space_group_symop_operation_xyz
x,y,z
-x,y,-z
-x,-y,-z
x,-y,z
loop_
_atom_site_type_symbol
_atom_site_label
_atom_site_fract_x
_atom_site_fract_y
_atom_site_fract_z
Si Si1 0.844021 0.310555 0.029932
Si Si2 0.500000 0.107456 0.000000
Si Si3 0.213950 0.816322 0.571924
Si Si4 0.190421 0.317124 0.450975
Si Si5 0.300709 0.434095 0.084324
Si Si6 0.351663 0.932406 0.196769
Si Si7 0.128771 0.826387 0.893163
Si Si8 0.352426 0.435462 0.590580
O O1 0.825299 0.318798 0.789124
O O2 0.766075 0.367895 0.031433
O O3 0.800958 0.240379 0.995130
O O4 0.016333 0.315032 0.305392
O O5 0.369173 0.145990 0.737281
O O6 0.589209 0.072803 0.944405
O O7 0.257787 0.746138 0.597928
O O8 0.156794 0.832171 0.708196
O O9 0.052256 0.825730 0.270788
O O10 0.279032 0.378042 0.599214
O O11 0.226581 0.500000 0.953654
O O12 0.318739 0.434559 0.329733
O O13 0.465878 0.434417 0.187663
O O14 0.500000 0.924610 0.500000
O O15 0.290141 0.000000 0.153515
O O16 0.227757 0.880746 0.092842
O O17 0.295323 0.500000 0.593657
#
# Coordination Sequence:
#
# PCOD9152654 Si02
#       8
#     4   2   4   4   4   4   4   4
#     4   9  17  28  46  73  97 129 173 217 263 315
#     4  10  21  38  60  86 113 148 186 228 275 318
#     4   9  19  35  54  78 108 143 178 222 272 323
#     4   9  17  28  45  71  99 129 168 218 268 315
#     4   8  14  25  39  61  95 130 166 212 263 316
#     4  10  22  40  61  87 117 148 184 226 271 323
#     4   9  19  37  55  77 109 144 180 219 271 325
#     4   8  14  24  38  60  93 129 167 212 263 316
#
# _framework density 21.225428000000001
#
# number of rings (size 3 to 8) (size 9 to 14) (size 15 to 20)
#    0.000    3.067    0.000    1.000    1.867    2.667 
#    2.400    8.667    0.000    2.400    0.000    6.067 
#    0.000    0.000    0.000    0.000    0.000    0.000 
#
# Total GULP energy -167004.237029 kJ/mol
# GULP energy per Si atom -5566.807901 kJ/mol
# Density = 2.117712 g / cm^3
# Si number density = 21.225428 Si / 1000 Ang^3
#
#
#
# Elastic Constant Matrix: (Units=GPa)
#
#
# Indices 1 2 3 4 5 6 
#
# 1 40.9421 38.3122 15.3308 0.0000 -1.8668 0.0000
# 2 38.3122 210.5363 55.2446 0.0000 36.1951 0.0000
# 3 15.3308 55.2446 50.8101 0.0000 -1.3169 0.0000
# 4 0.0000 0.0000 0.0000 62.6450 0.0000 6.7616
# 5 -1.8668 36.1951 -1.3169 0.0000 26.1278 0.0000
# 6 0.0000 0.0000 0.0000 6.7616 0.0000 37.1068
#
#
#
# Elastic Compliance Matrix: (Units=1/GPa)
#
#
# Indices 1 2 3 4 5 6 
#
# 1 0.032933 -0.008134 -0.000741 0.000000 0.013583 0.000000
# 2 -0.008134 0.012403 -0.011506 0.000000 -0.018342 0.000000
# 3 -0.000741 -0.011506 0.032870 0.000000 0.017543 0.000000
# 4 0.000000 0.000000 0.000000 0.016283 0.000000 -0.002967
# 5 0.013583 -0.018342 0.017543 0.000000 0.065538 0.000000
# 6 0.000000 0.000000 0.000000 -0.002967 0.000000 0.027490
#
#
# Mechanical properties :
#
#
# Convention : Reuss Voigt Hill
#
# Bulk Modulus (GPa) = 26.70714 57.78484 42.24599
# Shear Modulus (GPa) = 20.76760 38.06931 29.41845
#
# Velocity S-wave (km/s) = 3.13138 4.23965 3.72694
# Velocity P-wave (km/s) = 5.06794 7.15889 6.20216
#
# Compressibility (1/GPa) = 0.03744317
#
# Stress axis : x y z
#
# Youngs Moduli (GPa) = 30.36484 80.62885 30.42299
#
# Poissons Ratio (x) = 0.65581 0.02255
# Poissons Ratio (y) = 0.24698 0.35005
# Poissons Ratio (z) = 0.02250 0.92773
#
# Static dielectric constant tensor:
#      x y z
#    x 1.796250 0.000000 -0.044790 
#    y 0.000000 1.810140 0.000000 
#    z -0.044790 0.000000 1.830650 
# 
# From -- ./inp_files/30276.got.cif
#   From: 2010.05.17/outbox.cif.g08.bks.cpg/sg10_16_cif.got.tgz:30276.got - 2010.06.03 11:33:40.
