data_PCOD9152595
_publ_section_title
;
Structure prediction by ZEFSAII (Michael W. Deem and Ramdas Pophale) SiO2 
 PCOD9152595
Probable space group: P 2/M
;
_chemical_formula_sum "Si O2"
_cell_formula_units_Z 28
_cell_length_a 11.446425
_cell_length_b 8.029709
_cell_length_c 15.350823
_cell_angle_alpha 90.000000
_cell_angle_beta 113.397061
_cell_angle_gamma 90.000000
_cell_volume 1294.903961
_symmetry_space_group_name_H-M "P 2/M"
_symmetry_group_IT_number 10
_symmetry_cell_setting 'monoclinic'
loop_
_space_group_symop_operation_xyz
x,y,z
-x,y,-z
-x,-y,-z
x,-y,z
loop_
_atom_site_type_symbol
_atom_site_label
_atom_site_fract_x
_atom_site_fract_y
_atom_site_fract_z
Si Si1 0.644762 0.194732 0.548588
Si Si2 0.452284 0.700828 0.117374
Si Si3 0.914404 0.201378 0.557167
Si Si4 0.299415 0.806716 0.911552
Si Si5 0.961219 0.689665 0.226525
Si Si6 0.342439 0.309520 0.256019
Si Si7 0.095211 0.809865 0.102132
O O1 0.500000 0.266371 0.500000
O O2 0.766825 0.261203 0.529424
O O3 0.677383 0.211335 0.660822
O O4 0.634404 0.000000 0.521703
O O5 0.460355 0.500000 0.118053
O O6 0.573984 0.778834 0.107163
O O7 0.444304 0.754820 0.215888
O O8 0.334683 0.752250 0.020171
O O9 0.000000 0.258207 0.500000
O O10 0.991896 0.253163 0.665823
O O11 0.907567 0.000000 0.550805
O O12 0.188628 0.702324 0.834000
O O13 0.264226 0.000000 0.901489
O O14 0.004818 0.500000 0.225180
O O15 0.019822 0.806160 0.170162
O O16 0.370209 0.500000 0.287955
O O17 0.216742 0.299657 0.159716
O O18 0.132514 0.000000 0.091109
O O19 0.000000 0.746730 0.000000
#
# Coordination Sequence:
#
# PCOD9152595 Si02
#       7
#     4   4   4   4   4   4   4
#     4  10  22  41  65  91 122 163 211 266 325 386
#     4  10  21  38  58  86 126 165 205 254 313 375
#     4  10  22  42  66  92 124 163 211 268 326 390
#     4  11  22  37  59  87 121 165 214 256 305 370
#     4  12  24  39  61  89 124 162 204 256 319 379
#     4  11  23  38  60  90 123 161 201 253 315 377
#     4  11  23  38  60  90 124 163 207 255 308 373
#
# _framework density 21.623225999999999
#
# number of rings (size 3 to 8) (size 9 to 14) (size 15 to 20)
#    0.000    1.286    1.429    5.571    0.000    7.429 
#    0.000    1.429    0.000    0.000    0.000    0.000 
#    0.000    0.000    0.000    0.000    0.000    0.000 
#
# Total GULP energy -156322.070432 kJ/mol
# GULP energy per Si atom -5582.931087 kJ/mol
# Density = 2.157401 g / cm^3
# Si number density = 21.623226 Si / 1000 Ang^3
#
#
#
# Elastic Constant Matrix: (Units=GPa)
#
#
# Indices 1 2 3 4 5 6 
#
# 1 124.1937 3.5963 52.5297 0.0000 -12.1292 0.0000
# 2 3.5963 46.1281 -0.3674 0.0000 -8.4810 0.0000
# 3 52.5297 -0.3674 85.5652 0.0000 -13.2994 0.0000
# 4 0.0000 0.0000 0.0000 2.8106 0.0000 -9.5083
# 5 -12.1292 -8.4810 -13.2994 0.0000 33.9465 0.0000
# 6 0.0000 0.0000 0.0000 -9.5083 0.0000 12.4216
#
#
#
# Elastic Compliance Matrix: (Units=1/GPa)
#
#
# Indices 1 2 3 4 5 6 
#
# 1 0.010956 -0.000690 -0.006546 0.000000 0.001178 0.000000
# 2 -0.000690 0.022854 0.001460 0.000000 0.006035 0.000000
# 3 -0.006546 0.001460 0.016404 0.000000 0.004452 0.000000
# 4 0.000000 0.000000 0.000000 -0.223829 0.000000 -0.171334
# 5 0.001178 0.006035 0.004452 0.000000 0.033131 0.000000
# 6 0.000000 0.000000 0.000000 -0.171334 0.000000 -0.050645
#
#
# Mechanical properties :
#
#
# Convention : Reuss Voigt Hill
#
# Bulk Modulus (GPa) = 25.86557 40.82269 33.34413
# Shear Modulus (GPa) = -29.99563 23.17762 -3.40900
#
# Velocity S-wave (km/s) = -3.72855 3.27752 -1.25697
# Velocity P-wave (km/s) = 2.55894 5.76567 3.65340
#
# Compressibility (1/GPa) = 0.03866143
#
# Stress axis : x y z
#
# Youngs Moduli (GPa) = 91.27814 43.75653 60.96150
#
# Poissons Ratio (x) = 0.03018 0.39903
# Poissons Ratio (y) = 0.06296 -0.08898
# Poissons Ratio (z) = 0.59748 -0.06387
#
# Static dielectric constant tensor:
#      x y z
#    x 1.931800 0.000000 0.026530 
#    y 0.000000 1.758310 0.000000 
#    z 0.026530 0.000000 1.764390 
# 
# From -- ./inp_files/63509.got.cif
#   From: 2010.05.17/outbox.cif.g08.bks.cpg/sg10_32_cif.got.tgz:63509.got - 2010.06.03 11:33:40.
