data_PCOD9152961
_publ_section_title
;
Structure prediction by ZEFSAII (Michael W. Deem and Ramdas Pophale) SiO2 
 PCOD9152961
Probable space group: P 2/M
;
_chemical_formula_sum "Si O2"
_cell_formula_units_Z 28
_cell_length_a 13.402453
_cell_length_b 17.982737
_cell_length_c 8.236109
_cell_angle_alpha 90.000000
_cell_angle_beta 136.045060
_cell_angle_gamma 90.000000
_cell_volume 1377.778749
_symmetry_space_group_name_H-M "P 2/M"
_symmetry_group_IT_number 10
_symmetry_cell_setting 'monoclinic'
loop_
_space_group_symop_operation_xyz
x,y,z
-x,y,-z
-x,-y,-z
x,-y,z
loop_
_atom_site_type_symbol
_atom_site_label
_atom_site_fract_x
_atom_site_fract_y
_atom_site_fract_z
Si Si1 0.817794 0.640630 0.145876
Si Si2 0.530912 0.584633 0.713755
Si Si3 0.080046 0.583284 0.265086
Si Si4 0.681685 0.675972 0.337785
Si Si5 0.660545 0.152030 0.245130
Si Si6 0.879247 0.798044 0.235344
Si Si7 0.930981 0.085371 0.737917
O O1 0.756670 0.652695 0.256185
O O2 0.819332 0.725135 0.077157
O O3 0.968900 0.604816 0.276928
O O4 0.700663 0.587988 0.929078
O O5 0.500000 0.616450 0.500000
O O6 0.478117 0.500000 0.659383
O O7 0.459184 0.632189 0.771861
O O8 0.138736 0.500000 0.365305
O O9 0.200269 0.646681 0.397220
O O10 0.000000 0.581971 0.000000
O O11 0.649105 0.763169 0.296498
O O12 0.757129 0.160955 0.195810
O O13 0.764808 0.108778 0.496879
O O14 0.500000 0.126105 0.000000
O O15 0.000000 0.765305 0.500000
O O16 0.968194 0.857169 0.238655
O O17 0.945983 0.000000 0.699892
O O18 0.000000 0.088023 0.000000
#
# Coordination Sequence:
#
# PCOD9152961 Si02
#       7
#     4   4   4   4   4   4   4
#     4  11  21  36  57  81 107 142 194 247 290 343
#     4  11  24  39  54  77 112 153 195 241 298 358
#     4  11  23  36  51  76 110 148 194 247 301 357
#     4  11  22  38  58  81 112 147 193 246 295 349
#     4  10  21  39  62  89 120 154 196 243 291 351
#     4   9  19  37  60  84 115 153 192 235 290 355
#     4  10  22  40  63  93 125 156 194 238 287 351
#
# _framework density 20.322565999999998
#
# number of rings (size 3 to 8) (size 9 to 14) (size 15 to 20)
#    0.000    1.571    0.000    6.857    0.000   12.000 
#    0.000    0.714    0.000    1.714    0.000    0.000 
#    0.000    0.000    0.000    0.000    0.000    0.000 
#
# Total GULP energy -156063.946089 kJ/mol
# GULP energy per Si atom -5573.712360 kJ/mol
# Density = 2.027631 g / cm^3
# Si number density = 20.322566 Si / 1000 Ang^3
#
#
#
# Elastic Constant Matrix: (Units=GPa)
#
#
# Indices 1 2 3 4 5 6 
#
# 1 79.2813 34.2659 28.8853 0.0000 17.9198 0.0000
# 2 34.2659 92.0272 27.4605 0.0000 -10.7259 0.0000
# 3 28.8853 27.4605 90.9802 0.0000 17.9290 0.0000
# 4 0.0000 0.0000 0.0000 49.0187 0.0000 -15.1137
# 5 17.9198 -10.7259 17.9290 0.0000 33.7273 0.0000
# 6 0.0000 0.0000 0.0000 -15.1137 0.0000 30.1424
#
#
#
# Elastic Compliance Matrix: (Units=1/GPa)
#
#
# Indices 1 2 3 4 5 6 
#
# 1 0.019434 -0.008301 -0.001240 0.000000 -0.012306 0.000000
# 2 -0.008301 0.016858 -0.004891 0.000000 0.012371 0.000000
# 3 -0.001240 -0.004891 0.014564 0.000000 -0.008639 0.000000
# 4 0.000000 0.000000 0.000000 0.024131 0.000000 0.012100
# 5 -0.012306 0.012371 -0.008639 0.000000 0.044715 0.000000
# 6 0.000000 0.000000 0.000000 0.012100 0.000000 0.039243
#
#
# Mechanical properties :
#
#
# Convention : Reuss Voigt Hill
#
# Bulk Modulus (GPa) = 45.46761 49.27912 47.37337
# Shear Modulus (GPa) = 25.62287 34.02282 29.82285
#
# Velocity S-wave (km/s) = 3.55464 4.09606 3.83492
# Velocity P-wave (km/s) = 6.26648 6.83165 6.55516
#
# Compressibility (1/GPa) = 0.02199368
#
# Stress axis : x y z
#
# Youngs Moduli (GPa) = 51.45581 59.31759 68.66449
#
# Poissons Ratio (x) = 0.49237 0.08512
# Poissons Ratio (y) = 0.42712 0.33584
# Poissons Ratio (z) = 0.06378 0.29012
#
# Static dielectric constant tensor:
#      x y z
#    x 1.718780 0.000000 -0.005190 
#    y 0.000000 1.696390 0.000000 
#    z -0.005190 0.000000 1.804040 
# 
# From -- ./inp_files/30193.got.cif
#   From: 2010.05.17/outbox.cif.g08.bks.cpg/sg10_16_cif.got.tgz:30193.got - 2010.06.03 11:33:40.
