data_PCOD9152629
_publ_section_title
;
Structure prediction by ZEFSAII (Michael W. Deem and Ramdas Pophale) SiO2 
 PCOD9152629
Probable space group: P 2/M
;
_chemical_formula_sum "Si O2"
_cell_formula_units_Z 28
_cell_length_a 5.359995
_cell_length_b 19.736836
_cell_length_c 12.254130
_cell_angle_alpha 90.000000
_cell_angle_beta 80.980953
_cell_angle_gamma 90.000000
_cell_volume 1280.328569
_symmetry_space_group_name_H-M "P 2/M"
_symmetry_group_IT_number 10
_symmetry_cell_setting 'monoclinic'
loop_
_space_group_symop_operation_xyz
x,y,z
-x,y,-z
-x,-y,-z
x,-y,z
loop_
_atom_site_type_symbol
_atom_site_label
_atom_site_fract_x
_atom_site_fract_y
_atom_site_fract_z
Si Si1 0.161210 0.730001 0.224108
Si Si2 0.589752 0.601918 0.813640
Si Si3 0.471870 0.078700 0.246961
Si Si4 0.276053 0.189796 0.429199
Si Si5 0.942329 0.381291 0.119829
Si Si6 0.975453 0.127322 0.871708
Si Si7 0.729032 0.581022 0.553908
O O1 0.394114 0.683810 0.165693
O O2 0.224280 0.752346 0.341990
O O3 0.942871 0.674361 0.217372
O O4 0.088788 0.796003 0.161183
O O5 0.314212 0.579270 0.859498
O O6 0.665253 0.589984 0.684381
O O7 0.813545 0.574581 0.871466
O O8 0.371056 0.125143 0.352745
O O9 0.751997 0.104808 0.194913
O O10 0.262502 0.087119 0.164697
O O11 0.488838 0.000000 0.275301
O O12 0.500000 0.205754 0.500000
O O13 0.000000 0.176308 0.500000
O O14 0.000000 0.347403 0.000000
O O15 0.000000 0.120780 0.000000
O O16 0.500000 0.610488 0.500000
O O17 0.738277 0.500000 0.531573
O O18 0.000000 0.609239 0.500000
#
# Coordination Sequence:
#
# PCOD9152629 Si02
#       7
#     4   4   4   4   4   4   4
#     4   9  24  37  61  88 119 157 197 243 300 361
#     4  10  22  36  61  90 124 160 205 249 295 362
#     4  11  25  43  62  87 117 153 204 246 294 369
#     4  11  24  40  60  84 119 152 193 250 305 355
#     4  10  21  38  59  88 122 160 199 242 294 362
#     4  11  23  40  64  91 122 152 193 247 308 359
#     4  10  21  39  64  92 126 167 212 259 306 350
#
# _framework density 21.869385000000001
#
# number of rings (size 3 to 8) (size 9 to 14) (size 15 to 20)
#    0.857    0.857    0.000    4.286    6.000    3.429 
#    5.143    0.000    0.000    2.571    0.000    0.000 
#    0.000    0.000    0.000    0.000    0.000    0.000 
#
# Total GULP energy -156125.938281 kJ/mol
# GULP energy per Si atom -5575.926367 kJ/mol
# Density = 2.181961 g / cm^3
# Si number density = 21.869385 Si / 1000 Ang^3
#
#
#
# Elastic Constant Matrix: (Units=GPa)
#
#
# Indices 1 2 3 4 5 6 
#
# 1 207.6491 32.5578 70.8253 0.0000 11.2737 0.0000
# 2 32.5578 101.7636 13.3873 0.0000 -0.2539 0.0000
# 3 70.8253 13.3873 114.1750 0.0000 10.4015 0.0000
# 4 0.0000 0.0000 0.0000 15.7167 0.0000 8.0939
# 5 11.2737 -0.2539 10.4015 0.0000 34.1883 0.0000
# 6 0.0000 0.0000 0.0000 8.0939 0.0000 79.5642
#
#
#
# Elastic Compliance Matrix: (Units=1/GPa)
#
#
# Indices 1 2 3 4 5 6 
#
# 1 0.006368 -0.001556 -0.003677 0.000000 -0.000993 0.000000
# 2 -0.001556 0.010367 -0.000313 0.000000 0.000685 0.000000
# 3 -0.003677 -0.000313 0.011279 0.000000 -0.002221 0.000000
# 4 0.000000 0.000000 0.000000 0.067144 0.000000 -0.006830
# 5 -0.000993 0.000685 -0.002221 0.000000 0.030258 0.000000
# 6 0.000000 0.000000 0.000000 -0.006830 0.000000 0.013263
#
#
# Mechanical properties :
#
#
# Convention : Reuss Voigt Hill
#
# Bulk Modulus (GPa) = 59.09573 73.01428 66.05501
# Shear Modulus (GPa) = 32.17247 46.34831 39.26039
#
# Velocity S-wave (km/s) = 3.83968 4.60861 4.24160
# Velocity P-wave (km/s) = 6.83654 7.85990 7.36601
#
# Compressibility (1/GPa) = 0.01692170
#
# Stress axis : x y z
#
# Youngs Moduli (GPa) = 157.03649 96.45635 88.66330
#
# Poissons Ratio (x) = 0.15009 0.32604
# Poissons Ratio (y) = 0.24436 0.02773
# Poissons Ratio (z) = 0.57747 0.03017
#
# Static dielectric constant tensor:
#      x y z
#    x 1.858700 0.000000 0.026720 
#    y 0.000000 1.797970 0.000000 
#    z 0.026720 0.000000 1.790020 
# 
# From -- ./inp_files/39596.got.cif
#   From: 2010.05.17/outbox.cif.g08.bks.cpg/sg10_20_cif.got.tgz:39596.got - 2010.06.03 11:33:40.
