data_PCOD9153980
_publ_section_title
;
Structure prediction by ZEFSAII (Michael W. Deem and Ramdas Pophale) SiO2 
 PCOD9153980
Probable space group: P 2/M
;
_chemical_formula_sum "Si O2"
_cell_formula_units_Z 17
_cell_length_a 5.108283
_cell_length_b 24.428013
_cell_length_c 5.200483
_cell_angle_alpha 90.000000
_cell_angle_beta 89.829133
_cell_angle_gamma 90.000000
_cell_volume 648.940444
_symmetry_space_group_name_H-M "P 2/M"
_symmetry_group_IT_number 10
_symmetry_cell_setting 'monoclinic'
loop_
_space_group_symop_operation_xyz
x,y,z
-x,y,-z
-x,-y,-z
x,-y,z
loop_
_atom_site_type_symbol
_atom_site_label
_atom_site_fract_x
_atom_site_fract_y
_atom_site_fract_z
Si Si1 0.240039 0.878558 0.174938
Si Si2 0.322671 0.412300 0.244564
Si Si3 0.000000 0.202758 0.500000
Si Si4 0.678341 0.284732 0.756942
Si Si5 0.000000 0.500000 0.500000
Si Si6 0.679343 0.000000 0.747920
O O1 0.179472 0.941745 0.246467
O O2 0.227465 0.841076 0.428781
O O3 0.500000 0.875585 0.000000
O O4 0.000000 0.859276 0.000000
O O5 0.500000 0.420223 0.500000
O O6 0.248064 0.348570 0.223657
O O7 0.084228 0.452081 0.293385
O O8 0.500000 0.426573 0.000000
O O9 0.068669 0.247091 0.279730
O O10 0.500000 0.278186 0.500000
O O11 0.500000 0.269467 0.000000
O O12 0.500000 0.000000 0.500000
O O13 0.500000 0.000000 0.000000
#
# Coordination Sequence:
#
# PCOD9153980 Si02
#       6
#     4   4   2   4   1   2
#     4  11  28  48  74 110 150 193 245 306 370 444
#     4  10  23  42  63  96 134 179 231 287 349 424
#     4  12  27  39  76  97 147 174 252 286 384 408
#     4  10  24  45  68  95 137 184 235 291 359 430
#     4  12  22  38  68  96 138 174 236 280 372 396
#     4  10  25  49  79 105 150 194 246 295 371 441
#
# _framework density 26.196549000000001
#
# number of rings (size 3 to 8) (size 9 to 14) (size 15 to 20)
#    0.000    1.412    0.000    2.471   13.176    2.353 
#    0.000    7.059    0.000    0.000    0.000    0.000 
#    0.000    0.000    0.000    0.000    0.000    0.000 
#
# Total GULP energy -94859.077854 kJ/mol
# GULP energy per Si atom -5579.945756 kJ/mol
# Density = 2.613692 g / cm^3
# Si number density = 26.196549 Si / 1000 Ang^3
#
#
#
# Elastic Constant Matrix: (Units=GPa)
#
#
# Indices 1 2 3 4 5 6 
#
# 1 113.9717 50.1912 68.1428 0.0000 -20.5991 0.0000
# 2 50.1912 175.2565 78.1372 0.0000 -56.3942 0.0000
# 3 68.1428 78.1372 222.2901 0.0000 -44.4632 0.0000
# 4 0.0000 0.0000 0.0000 35.0450 0.0000 -34.5572
# 5 -20.5991 -56.3942 -44.4632 0.0000 63.9597 0.0000
# 6 0.0000 0.0000 0.0000 -34.5572 0.0000 25.5641
#
#
#
# Elastic Compliance Matrix: (Units=1/GPa)
#
#
# Indices 1 2 3 4 5 6 
#
# 1 0.011309 -0.002027 -0.002768 0.000000 -0.000069 0.000000
# 2 -0.002027 0.008866 -0.001234 0.000000 0.006307 0.000000
# 3 -0.002768 -0.001234 0.006255 0.000000 0.002369 0.000000
# 4 0.000000 0.000000 0.000000 -0.085697 0.000000 -0.115844
# 5 -0.000069 0.006307 0.002369 0.000000 0.022820 0.000000
# 6 0.000000 0.000000 0.000000 -0.115844 0.000000 -0.117480
#
#
# Mechanical properties :
#
#
# Convention : Reuss Voigt Hill
#
# Bulk Modulus (GPa) = 69.57818 100.49565 85.03692
# Shear Modulus (GPa) = -36.47540 45.91691 4.72076
#
# Velocity S-wave (km/s) = -3.73550 4.19117 1.34386
# Velocity P-wave (km/s) = 2.83062 7.86554 5.91097
#
# Compressibility (1/GPa) = 0.01437232
#
# Stress axis : x y z
#
# Youngs Moduli (GPa) = 88.42271 112.79341 159.88065
#
# Poissons Ratio (x) = 0.22862 0.44259
# Poissons Ratio (y) = 0.17923 0.19722
# Poissons Ratio (z) = 0.24477 0.13914
#
# Static dielectric constant tensor:
#      x y z
#    x 2.131110 0.000000 0.128140 
#    y 0.000000 2.032570 0.000000 
#    z 0.128140 0.000000 2.146040 
# 
# From -- ./inp_files/1668.got.cif
#   From: 2010.05.17/outbox.cif.g08.bks.cpg/sg10_1_cif.got.tgz:1668.got - 2010.06.03 11:33:40.
