data_PCOD9153234
_publ_section_title
;
Structure prediction by ZEFSAII (Michael W. Deem and Ramdas Pophale) SiO2 
 PCOD9153234
Probable space group: P 2/M
;
_chemical_formula_sum "Si O2"
_cell_formula_units_Z 18
_cell_length_a 24.314750
_cell_length_b 7.517689
_cell_length_c 5.018196
_cell_angle_alpha 90.000000
_cell_angle_beta 60.000310
_cell_angle_gamma 90.000000
_cell_volume 794.390007
_symmetry_space_group_name_H-M "P 2/M"
_symmetry_group_IT_number 10
_symmetry_cell_setting 'monoclinic'
loop_
_space_group_symop_operation_xyz
x,y,z
-x,y,-z
-x,-y,-z
x,-y,z
loop_
_atom_site_type_symbol
_atom_site_label
_atom_site_fract_x
_atom_site_fract_y
_atom_site_fract_z
Si Si1 0.360627 0.295835 0.692795
Si Si2 0.438159 0.796139 0.005387
Si Si3 0.766866 0.285851 0.730181
Si Si4 0.953933 0.000000 0.862043
Si Si5 0.846903 0.713656 0.043427
O O1 0.346789 0.500000 0.651744
O O2 0.384373 0.208284 0.364102
O O3 0.414214 0.290861 0.792201
O O4 0.298509 0.216630 0.986934
O O5 0.453221 0.000000 0.899322
O O6 0.500000 0.716370 0.000000
O O7 0.758788 0.500000 0.735935
O O8 0.790297 0.231825 0.382828
O O9 0.822877 0.248603 0.803922
O O10 0.000000 0.000000 0.500000
O O11 0.908201 0.171835 0.964167
O O12 0.000000 0.000000 0.000000
O O13 0.856905 0.500000 0.045684
#
# Coordination Sequence:
#
# PCOD9153234 Si02
#       5
#     4   4   4   2   4
#     4  11  22  39  64  91 117 153 209 266 310 366
#     4  11  24  41  56  81 125 166 203 253 314 379
#     4   9  19  38  62  88 120 152 192 248 307 359
#     4  12  26  42  62  94 128 158 205 250 281 348
#     4  10  21  41  64  88 124 165 197 244 308 356
#
# _framework density 22.658894
#
# number of rings (size 3 to 8) (size 9 to 14) (size 15 to 20)
#    0.000    1.556    0.000    4.667    0.000    8.889 
#   12.000    0.000    0.000    0.000    0.000    0.000 
#    0.000    0.000    0.000    0.000    0.000    0.000 
#
# Total GULP energy -100692.525300 kJ/mol
# GULP energy per Si atom -5594.029183 kJ/mol
# Density = 2.260732 g / cm^3
# Si number density = 22.658894 Si / 1000 Ang^3
#
#
#
# Elastic Constant Matrix: (Units=GPa)
#
#
# Indices 1 2 3 4 5 6 
#
# 1 55.8768 7.1719 -2.6423 0.0000 0.9055 0.0000
# 2 7.1719 74.1262 -2.4723 0.0000 -5.7529 0.0000
# 3 -2.6423 -2.4723 93.8578 0.0000 9.5955 0.0000
# 4 0.0000 0.0000 0.0000 29.9060 0.0000 -0.5127
# 5 0.9055 -5.7529 9.5955 0.0000 43.2047 0.0000
# 6 0.0000 0.0000 0.0000 -0.5127 0.0000 35.2610
#
#
#
# Elastic Compliance Matrix: (Units=1/GPa)
#
#
# Indices 1 2 3 4 5 6 
#
# 1 0.018165 -0.001797 0.000540 0.000000 -0.000740 0.000000
# 2 -0.001797 0.013812 0.000124 0.000000 0.001849 0.000000
# 3 0.000540 0.000124 0.010920 0.000000 -0.002420 0.000000
# 4 0.000000 0.000000 0.000000 0.033446 0.000000 0.000486
# 5 -0.000740 0.001849 -0.002420 0.000000 0.023945 0.000000
# 6 0.000000 0.000000 0.000000 0.000486 0.000000 0.028367
#
#
# Mechanical properties :
#
#
# Convention : Reuss Voigt Hill
#
# Bulk Modulus (GPa) = 24.61182 25.33061 24.97122
# Shear Modulus (GPa) = 34.61046 36.46125 35.53586
#
# Velocity S-wave (km/s) = 3.91251 4.01576 3.96447
# Velocity P-wave (km/s) = 5.59426 5.71884 5.65689
#
# Compressibility (1/GPa) = 0.04063089
#
# Stress axis : x y z
#
# Youngs Moduli (GPa) = 55.05198 72.40069 91.57264
#
# Poissons Ratio (x) = 0.13010 -0.04942
# Poissons Ratio (y) = 0.09892 -0.01137
# Poissons Ratio (z) = -0.02971 -0.00899
#
# Static dielectric constant tensor:
#      x y z
#    x 1.808320 0.000000 -0.036390 
#    y 0.000000 1.815150 0.000000 
#    z -0.036390 0.000000 1.813650 
# 
# From -- ./inp_files/11962.got.cif
#   From: 2010.05.17/outbox.cif.g08.bks.cpg/sg10_6_cif.got.tgz:11962.got - 2010.06.03 11:33:40.
