data_PCOD9153938
_publ_section_title
;
Structure prediction by ZEFSAII (Michael W. Deem and Ramdas Pophale) SiO2 
 PCOD9153938
Probable space group: P 2/M
;
_chemical_formula_sum "Si O2"
_cell_formula_units_Z 28
_cell_length_a 23.348465
_cell_length_b 7.762624
_cell_length_c 8.397519
_cell_angle_alpha 90.000000
_cell_angle_beta 47.516556
_cell_angle_gamma 90.000000
_cell_volume 1122.441520
_symmetry_space_group_name_H-M "P 2/M"
_symmetry_group_IT_number 10
_symmetry_cell_setting 'monoclinic'
loop_
_space_group_symop_operation_xyz
x,y,z
-x,y,-z
-x,-y,-z
x,-y,z
loop_
_atom_site_type_symbol
_atom_site_label
_atom_site_fract_x
_atom_site_fract_y
_atom_site_fract_z
Si Si1 0.953220 0.198676 0.239254
Si Si2 0.318840 0.295735 0.263382
Si Si3 0.186418 0.300978 0.297536
Si Si4 0.237507 0.200651 0.739619
Si Si5 0.385260 0.789685 0.631885
Si Si6 0.464024 0.207305 0.815434
Si Si7 0.093639 0.698705 0.170996
O O1 0.015574 0.208657 0.265152
O O2 0.875366 0.290167 0.442137
O O3 0.933159 0.000000 0.241076
O O4 0.000000 0.271076 0.000000
O O5 0.306440 0.500000 0.295464
O O6 0.266752 0.225801 0.213111
O O7 0.282517 0.217004 0.489546
O O8 0.409422 0.263123 0.061765
O O9 0.200708 0.500000 0.229101
O O10 0.141283 0.224487 0.230904
O O11 0.299378 0.270346 0.752489
O O12 0.221897 0.000000 0.797430
O O13 0.155854 0.293354 0.910677
O O14 0.447801 0.734196 0.380165
O O15 0.419025 0.737075 0.738498
O O16 0.383600 0.000000 0.633238
O O17 0.466119 0.000000 0.815079
O O18 0.073592 0.500000 0.242624
#
# Coordination Sequence:
#
# PCOD9153938 Si02
#       7
#     4   4   4   4   4   4   4
#     4  11  24  40  60  88 118 147 184 228 272 323
#     4  11  23  38  55  81 116 151 186 228 280 332
#     4  10  23  41  60  82 112 150 188 227 276 332
#     4  11  22  37  57  83 113 147 188 232 279 330
#     4   8  17  34  58  84 110 143 186 235 283 331
#     4   9  17  35  60  83 108 144 189 233 280 334
#     4  11  23  40  61  85 113 146 185 229 279 332
#
# _framework density 24.945619000000001
#
# number of rings (size 3 to 8) (size 9 to 14) (size 15 to 20)
#    0.000    1.857    0.000    4.714    0.000    8.000 
#    0.000    6.429    0.000    0.000    0.000    0.000 
#    0.000    0.000    0.000    0.000    0.000    0.000 
#
# Total GULP energy -156661.054795 kJ/mol
# GULP energy per Si atom -5595.037671 kJ/mol
# Density = 2.488884 g / cm^3
# Si number density = 24.945619 Si / 1000 Ang^3
#
#
#
# Elastic Constant Matrix: (Units=GPa)
#
#
# Indices 1 2 3 4 5 6 
#
# 1 51.1871 -3.3554 -0.7318 0.0000 -12.7549 0.0000
# 2 -3.3554 55.9306 0.3994 0.0000 -2.0368 0.0000
# 3 -0.7318 0.3994 126.1711 0.0000 -15.9506 0.0000
# 4 0.0000 0.0000 0.0000 23.6435 0.0000 1.1432
# 5 -12.7549 -2.0368 -15.9506 0.0000 46.8354 0.0000
# 6 0.0000 0.0000 0.0000 1.1432 0.0000 12.4165
#
#
#
# Elastic Compliance Matrix: (Units=1/GPa)
#
#
# Indices 1 2 3 4 5 6 
#
# 1 0.021175 0.001487 0.000894 0.000000 0.006136 0.000000
# 2 0.001487 0.018012 0.000106 0.000000 0.001225 0.000000
# 3 0.000894 0.000106 0.008320 0.000000 0.003082 0.000000
# 4 0.000000 0.000000 0.000000 0.042484 0.000000 -0.003912
# 5 0.006136 0.001225 0.003082 0.000000 0.024125 0.000000
# 6 0.000000 0.000000 0.000000 -0.003912 0.000000 0.080898
#
#
# Mechanical properties :
#
#
# Convention : Reuss Voigt Hill
#
# Bulk Modulus (GPa) = 19.05369 25.10146 22.07757
# Shear Modulus (GPa) = 24.09239 32.37751 28.23495
#
# Velocity S-wave (km/s) = 3.11110 3.60658 3.36796
# Velocity P-wave (km/s) = 4.53430 5.23713 4.89834
#
# Compressibility (1/GPa) = 0.05248328
#
# Stress axis : x y z
#
# Youngs Moduli (GPa) = 47.22465 55.51735 120.18981
#
# Poissons Ratio (x) = -0.08258 -0.10743
# Poissons Ratio (y) = -0.07024 -0.01279
# Poissons Ratio (z) = -0.04221 -0.00591
#
# Static dielectric constant tensor:
#      x y z
#    x 2.005840 0.000000 0.070450 
#    y 0.000000 1.901000 0.000000 
#    z 0.070450 0.000000 1.979480 
# 
# From -- ./inp_files/37053.got.cif
#   From: 2010.05.17/outbox.cif.g08.bks.cpg/sg10_19_cif.got.tgz:37053.got - 2010.06.03 11:33:40.
