data_PCOD9153417
_publ_section_title
;
Structure prediction by ZEFSAII (Michael W. Deem and Ramdas Pophale) SiO2 
 PCOD9153417
Probable space group: P 2/M
;
_chemical_formula_sum "Si O2"
_cell_formula_units_Z 28
_cell_length_a 9.717227
_cell_length_b 14.892907
_cell_length_c 12.192931
_cell_angle_alpha 90.000000
_cell_angle_beta 115.832467
_cell_angle_gamma 90.000000
_cell_volume 1588.207321
_symmetry_space_group_name_H-M "P 2/M"
_symmetry_group_IT_number 10
_symmetry_cell_setting 'monoclinic'
loop_
_space_group_symop_operation_xyz
x,y,z
-x,y,-z
-x,-y,-z
x,-y,z
loop_
_atom_site_type_symbol
_atom_site_label
_atom_site_fract_x
_atom_site_fract_y
_atom_site_fract_z
Si Si1 0.387203 0.898543 0.798971
Si Si2 0.676711 0.217307 0.847302
Si Si3 0.842428 0.102865 0.076760
Si Si4 0.646028 0.321878 0.497320
Si Si5 0.186021 0.099548 0.283720
Si Si6 0.373017 0.398136 0.284102
Si Si7 0.175867 0.842577 0.525887
O O1 0.518760 0.824334 0.836877
O O2 0.282859 0.889316 0.870527
O O3 0.278035 0.885706 0.656280
O O4 0.452154 0.000000 0.822179
O O5 0.711631 0.171503 0.742600
O O6 0.668587 0.322891 0.819702
O O7 0.804353 0.177242 0.973007
O O8 0.010246 0.113521 0.186195
O O9 0.834289 0.000000 0.029760
O O10 0.500000 0.267992 0.500000
O O11 0.552255 0.384851 0.380669
O O12 0.706239 0.374708 0.625221
O O13 0.762565 0.257557 0.478183
O O14 0.193879 0.107869 0.416556
O O15 0.233746 0.000000 0.265960
O O16 0.342621 0.500000 0.241501
O O17 0.000000 0.843216 0.500000
#
# Coordination Sequence:
#
# PCOD9153417 Si02
#       7
#     4   4   4   4   4   4   4
#     4  11  22  36  54  80 115 153 187 224 267 319
#     4  12  21  36  57  85 107 139 193 237 266 311
#     4  10  22  38  55  78 113 161 193 213 260 323
#     4   8  16  35  55  82 107 135 180 224 275 329
#     4  11  22  36  54  80 115 153 187 224 267 319
#     4   9  18  34  61  84 105 135 180 231 289 338
#     4  12  21  34  55  84 116 150 180 225 280 327
#
# _framework density 17.629940000000001
#
# number of rings (size 3 to 8) (size 9 to 14) (size 15 to 20)
#    0.857    0.571    4.286    3.429    0.000    2.857 
#    0.000    1.429    0.000    5.143    0.000    0.000 
#    0.000    0.000    0.000    0.000    0.000    0.000 
#
# Total GULP energy -156099.095003 kJ/mol
# GULP energy per Si atom -5574.967679 kJ/mol
# Density = 1.758981 g / cm^3
# Si number density = 17.629940 Si / 1000 Ang^3
#
#
#
# Elastic Constant Matrix: (Units=GPa)
#
#
# Indices 1 2 3 4 5 6 
#
# 1 29.8487 6.3786 -13.0712 0.0000 -11.7628 0.0000
# 2 6.3786 123.1032 30.9132 0.0000 -7.5722 0.0000
# 3 -13.0712 30.9132 84.4459 0.0000 -4.7051 0.0000
# 4 0.0000 0.0000 0.0000 12.9538 0.0000 -0.3391
# 5 -11.7628 -7.5722 -4.7051 0.0000 22.8233 0.0000
# 6 0.0000 0.0000 0.0000 -0.3391 0.0000 7.6968
#
#
#
# Elastic Compliance Matrix: (Units=1/GPa)
#
#
# Indices 1 2 3 4 5 6 
#
# 1 0.049164 -0.003533 0.010369 0.000000 0.026304 0.000000
# 2 -0.003533 0.009323 -0.003934 0.000000 0.000461 0.000000
# 3 0.010369 -0.003934 0.015288 0.000000 0.007190 0.000000
# 4 0.000000 0.000000 0.000000 0.077286 0.000000 0.003405
# 5 0.026304 0.000461 0.007190 0.000000 0.059007 0.000000
# 6 0.000000 0.000000 0.000000 0.003405 0.000000 0.130075
#
#
# Mechanical properties :
#
#
# Convention : Reuss Voigt Hill
#
# Bulk Modulus (GPa) = 12.56635 31.75986 22.16310
# Shear Modulus (GPa) = 13.85563 22.90659 18.38111
#
# Velocity S-wave (km/s) = 2.80646 3.60849 3.23245
# Velocity P-wave (km/s) = 4.20059 5.95109 5.15075
#
# Compressibility (1/GPa) = 0.07957763
#
# Stress axis : x y z
#
# Youngs Moduli (GPa) = 20.34013 107.26648 65.41236
#
# Poissons Ratio (x) = 0.37900 -0.67826
# Poissons Ratio (y) = 0.07187 0.25733
# Poissons Ratio (z) = -0.21091 0.42198
#
# Static dielectric constant tensor:
#      x y z
#    x 1.593570 0.000000 0.001220 
#    y 0.000000 1.594020 0.000000 
#    z 0.001220 0.000000 1.637650 
# 
# From -- ./inp_files/42736.got.cif
#   From: 2010.05.17/outbox.cif.g08.bks.cpg/sg10_22_cif.got.tgz:42736.got - 2010.06.03 11:33:40.
