data_PCOD9153770
_publ_section_title
;
Structure prediction by ZEFSAII (Michael W. Deem and Ramdas Pophale) SiO2 
 PCOD9153770
Probable space group: P 2/M
;
_chemical_formula_sum "Si O2"
_cell_formula_units_Z 16
_cell_length_a 12.998004
_cell_length_b 10.304671
_cell_length_c 14.480630
_cell_angle_alpha 90.000000
_cell_angle_beta 20.679530
_cell_angle_gamma 90.000000
_cell_volume 684.929583
_symmetry_space_group_name_H-M "P 2/M"
_symmetry_group_IT_number 10
_symmetry_cell_setting 'monoclinic'
loop_
_space_group_symop_operation_xyz
x,y,z
-x,y,-z
-x,-y,-z
x,-y,z
loop_
_atom_site_type_symbol
_atom_site_label
_atom_site_fract_x
_atom_site_fract_y
_atom_site_fract_z
Si Si1 0.654582 0.805463 0.278418
Si Si2 0.189446 0.637977 0.615689
Si Si3 0.705636 0.356037 0.690329
Si Si4 0.287764 0.146552 0.975241
O O1 0.500000 0.860361 0.500000
O O2 0.508184 0.664152 0.389224
O O3 0.583653 0.863607 0.236891
O O4 0.000000 0.810448 0.000000
O O5 0.066905 0.500000 0.750847
O O6 0.214069 0.635026 0.484827
O O7 0.990376 0.760781 0.805653
O O8 0.583402 0.500000 0.819112
O O9 0.488810 0.233474 0.874323
O O10 0.000000 0.335355 0.500000
O O11 0.230802 0.000000 0.055764
#
# Coordination Sequence:
#
# PCOD9153770 Si02
#       4
#     4   4   4   4
#     4  11  23  45  65 100 130 177 226 278 330 388
#     4  10  22  41  66  96 132 170 220 277 332 395
#     4   9  20  41  67  94 127 172 223 275 332 394
#     4  11  24  41  64  95 135 174 220 274 330 398
#
# _framework density 23.360064999999999
#
# number of rings (size 3 to 8) (size 9 to 14) (size 15 to 20)
#    0.000    1.750    2.500    0.750    0.000    8.500 
#    0.000    5.000    0.000    0.000    0.000    0.000 
#    0.000    0.000    0.000    0.000    0.000    0.000 
#
# Total GULP energy -89230.503677 kJ/mol
# GULP energy per Si atom -5576.906480 kJ/mol
# Density = 2.330690 g / cm^3
# Si number density = 23.360065 Si / 1000 Ang^3
#
#
#
# Elastic Constant Matrix: (Units=GPa)
#
#
# Indices 1 2 3 4 5 6 
#
# 1 80.1007 16.3552 17.6355 0.0000 -13.3069 0.0000
# 2 16.3552 221.4886 58.5661 0.0000 -19.7706 0.0000
# 3 17.6355 58.5661 103.3901 0.0000 -12.1084 0.0000
# 4 0.0000 0.0000 0.0000 3.3684 0.0000 25.7977
# 5 -13.3069 -19.7706 -12.1084 0.0000 42.0859 0.0000
# 6 0.0000 0.0000 0.0000 25.7977 0.0000 -32.3085
#
#
#
# Elastic Compliance Matrix: (Units=1/GPa)
#
#
# Indices 1 2 3 4 5 6 
#
# 1 0.013524 -0.000205 -0.001760 0.000000 0.003673 0.000000
# 2 -0.000205 0.005432 -0.002846 0.000000 0.001668 0.000000
# 3 -0.001760 -0.002846 0.011759 0.000000 0.001489 0.000000
# 4 0.000000 0.000000 0.000000 0.041723 0.000000 0.033315
# 5 0.003673 0.001668 0.001489 0.000000 0.026134 0.000000
# 6 0.000000 0.000000 0.000000 0.033315 0.000000 -0.004350
#
#
# Mechanical properties :
#
#
# Convention : Reuss Voigt Hill
#
# Bulk Modulus (GPa) = 47.41448 65.56590 56.49019
# Shear Modulus (GPa) = 45.09514 23.45734 34.27624
#
# Velocity S-wave (km/s) = 4.39844 3.17229 3.83469
# Velocity P-wave (km/s) = 6.79237 6.44565 6.62128
#
# Compressibility (1/GPa) = 0.02109060
#
# Stress axis : x y z
#
# Youngs Moduli (GPa) = 73.94271 184.10832 85.03984
#
# Poissons Ratio (x) = 0.03780 0.14970
# Poissons Ratio (y) = 0.01518 0.24206
# Poissons Ratio (z) = 0.13017 0.52405
#
# Static dielectric constant tensor:
#      x y z
#    x 1.864380 0.000000 0.011680 
#    y 0.000000 1.960330 0.000000 
#    z 0.011680 0.000000 1.958670 
# 
# From -- ./inp_files/8547.got.cif
#   From: 2010.05.17/outbox.cif.g08.bks.cpg/sg10_5_cif.got.tgz:8547.got - 2010.06.03 11:33:40.
