data_PCOD9153927
_publ_section_title
;
Structure prediction by ZEFSAII (Michael W. Deem and Ramdas Pophale) SiO2 
 PCOD9153927
Probable space group: P 2/M
;
_chemical_formula_sum "Si O2"
_cell_formula_units_Z 30
_cell_length_a 5.628135
_cell_length_b 16.960883
_cell_length_c 14.170356
_cell_angle_alpha 90.000000
_cell_angle_beta 104.599361
_cell_angle_gamma 90.000000
_cell_volume 1309.000595
_symmetry_space_group_name_H-M "P 2/M"
_symmetry_group_IT_number 10
_symmetry_cell_setting 'monoclinic'
loop_
_space_group_symop_operation_xyz
x,y,z
-x,y,-z
-x,-y,-z
x,-y,z
loop_
_atom_site_type_symbol
_atom_site_label
_atom_site_fract_x
_atom_site_fract_y
_atom_site_fract_z
Si Si1 0.089107 0.282192 0.262651
Si Si2 0.786784 0.000000 0.562239
Si Si3 0.622562 0.708726 0.113956
Si Si4 0.529866 0.847089 0.765359
Si Si5 0.267338 0.089387 0.038359
Si Si6 0.434681 0.589596 0.252215
Si Si7 0.047647 0.847022 0.615101
Si Si8 0.269833 0.591906 0.534645
O O1 0.291009 0.214820 0.265625
O O2 0.219066 0.365534 0.286758
O O3 0.916064 0.295772 0.154314
O O4 0.957735 0.239206 0.336465
O O5 0.500000 0.000000 0.500000
O O6 0.000000 0.000000 0.500000
O O7 0.855913 0.917925 0.622111
O O8 0.578294 0.790744 0.163194
O O9 0.507198 0.640580 0.168632
O O10 0.500000 0.704913 0.000000
O O11 0.670084 0.909418 0.844293
O O12 0.316580 0.877020 0.675213
O O13 0.235599 0.000000 0.000115
O O14 0.500000 0.117650 0.000000
O O15 0.000000 0.130335 0.000000
O O16 0.371429 0.500000 0.222971
O O17 0.656914 0.590675 0.348490
O O18 0.000000 0.834873 0.500000
O O19 0.500000 0.628162 0.500000
O O20 0.252503 0.500000 0.499431
O O21 0.000000 0.627228 0.500000
#
# Coordination Sequence:
#
# PCOD9153927 Si02
#       8
#     4   2   4   4   4   4   4   4
#     4  10  24  44  66  99 131 185 234 292 361 431
#     4  10  24  44  72 104 140 195 246 293 352 414
#     4  10  23  43  65  94 131 179 236 294 365 429
#     4  10  23  40  66  98 131 184 234 286 353 423
#     4  10  23  41  65 101 140 177 227 290 354 418
#     4  10  23  43  66 100 136 175 237 297 363 443
#     4  10  24  45  68  98 143 185 238 290 350 424
#     4   9  19  37  62  93 129 170 212 264 332 406
#
# _framework density 22.918248999999999
#
# number of rings (size 3 to 8) (size 9 to 14) (size 15 to 20)
#    0.000    2.133    0.000    0.400   12.133    2.400 
#    8.400    0.667    0.000    0.400    0.000    0.000 
#    0.000    0.000    0.000    0.000    0.000    0.000 
#
# Total GULP energy -167180.996909 kJ/mol
# GULP energy per Si atom -5572.699897 kJ/mol
# Density = 2.286609 g / cm^3
# Si number density = 22.918249 Si / 1000 Ang^3
#
#
#
# Elastic Constant Matrix: (Units=GPa)
#
#
# Indices 1 2 3 4 5 6 
#
# 1 111.6279 19.3647 42.5686 0.0000 32.5521 0.0000
# 2 19.3647 110.1834 28.0087 0.0000 12.8217 0.0000
# 3 42.5686 28.0087 154.3867 0.0000 32.1072 0.0000
# 4 0.0000 0.0000 0.0000 19.6566 0.0000 9.2763
# 5 32.5521 12.8217 32.1072 0.0000 34.7025 0.0000
# 6 0.0000 0.0000 0.0000 9.2763 0.0000 8.7454
#
#
#
# Elastic Compliance Matrix: (Units=1/GPa)
#
#
# Indices 1 2 3 4 5 6 
#
# 1 0.012573 -0.000696 -0.001165 0.000000 -0.010459 0.000000
# 2 -0.000696 0.009714 -0.001188 0.000000 -0.001836 0.000000
# 3 -0.001165 -0.001188 0.008291 0.000000 -0.006138 0.000000
# 4 0.000000 0.000000 0.000000 0.101862 0.000000 -0.108046
# 5 -0.010459 -0.001836 -0.006138 0.000000 0.044985 0.000000
# 6 0.000000 0.000000 0.000000 -0.108046 0.000000 0.228951
#
#
# Mechanical properties :
#
#
# Convention : Reuss Voigt Hill
#
# Bulk Modulus (GPa) = 40.85368 61.78689 51.32028
# Shear Modulus (GPa) = 11.88677 31.70464 21.79570
#
# Velocity S-wave (km/s) = 2.27988 3.72342 3.08721
# Velocity P-wave (km/s) = 4.97946 6.74561 5.92867
#
# Compressibility (1/GPa) = 0.02447760
#
# Stress axis : x y z
#
# Youngs Moduli (GPa) = 79.53249 102.94481 120.61613
#
# Poissons Ratio (x) = 0.07170 0.14057
# Poissons Ratio (y) = 0.05539 0.14334
# Poissons Ratio (z) = 0.09269 0.12234
#
# Static dielectric constant tensor:
#      x y z
#    x 2.048030 0.000000 0.012900 
#    y 0.000000 1.901090 0.000000 
#    z 0.012900 0.000000 1.898760 
# 
# From -- ./inp_files/59447.got.cif
#   From: 2010.05.17/outbox.cif.g08.bks.cpg/sg10_30_cif.got.tgz:59447.got - 2010.06.03 11:33:40.
