data_PCOD9153830
_publ_section_title
;
Structure prediction by ZEFSAII (Michael W. Deem and Ramdas Pophale) SiO2 
 PCOD9153830
Probable space group: P 2/M
;
_chemical_formula_sum "Si O2"
_cell_formula_units_Z 24
_cell_length_a 8.434305
_cell_length_b 18.993469
_cell_length_c 9.177713
_cell_angle_alpha 90.000000
_cell_angle_beta 129.947340
_cell_angle_gamma 90.000000
_cell_volume 1127.136860
_symmetry_space_group_name_H-M "P 2/M"
_symmetry_group_IT_number 10
_symmetry_cell_setting 'monoclinic'
loop_
_space_group_symop_operation_xyz
x,y,z
-x,y,-z
-x,-y,-z
x,-y,z
loop_
_atom_site_type_symbol
_atom_site_label
_atom_site_fract_x
_atom_site_fract_y
_atom_site_fract_z
Si Si1 0.928264 0.212918 0.686905
Si Si2 0.000000 0.115045 0.000000
Si Si3 0.299616 0.311925 0.817313
Si Si4 0.638446 0.000000 0.727317
Si Si5 0.691628 0.000000 0.219555
Si Si6 0.928360 0.417941 0.120545
Si Si7 0.000000 0.888240 0.500000
Si Si8 0.307019 0.651625 0.481593
O O1 0.109140 0.259120 0.720299
O O2 0.859636 0.158099 0.523643
O O3 0.011775 0.167812 0.870045
O O4 0.759228 0.271871 0.622361
O O5 0.797318 0.065716 0.850622
O O6 0.328107 0.337769 0.668049
O O7 0.250995 0.374082 0.905487
O O8 0.500000 0.274598 0.000000
O O9 0.500000 0.000000 0.500000
O O10 0.441249 0.000000 0.714724
O O11 0.849276 0.934842 0.311617
O O12 0.500000 0.000000 0.000000
O O13 0.877158 0.500000 0.080369
O O14 0.122941 0.402493 0.339787
O O15 0.000000 0.393843 0.000000
O O16 0.500000 0.627424 0.500000
#
# Coordination Sequence:
#
# PCOD9153830 Si02
#       8
#     4   2   4   2   2   4   2   4
#     4  11  23  42  62  91 128 169 211 267 330 386
#     4  11  26  40  68  94 127 172 216 272 333 400
#     4  11  24  41  64  96 133 171 220 275 322 392
#     4  11  24  47  62  94 130 166 218 271 329 401
#     4  11  24  39  68  92 124 168 211 270 330 388
#     4  10  22  42  68  96 132 176 219 268 326 384
#     4  11  22  44  62  92 129 164 218 270 323 396
#     4  11  24  41  65  95 133 172 218 272 328 390
#
# _framework density 21.292888999999999
#
# number of rings (size 3 to 8) (size 9 to 14) (size 15 to 20)
#    0.000    1.167    1.667    4.500    7.000    8.667 
#    0.000    0.000    0.000    0.000    0.000    0.000 
#    0.000    0.000    0.000    0.000    0.000    0.000 
#
# Total GULP energy -133844.458120 kJ/mol
# GULP energy per Si atom -5576.852422 kJ/mol
# Density = 2.124443 g / cm^3
# Si number density = 21.292889 Si / 1000 Ang^3
#
#
#
# Elastic Constant Matrix: (Units=GPa)
#
#
# Indices 1 2 3 4 5 6 
#
# 1 66.1103 2.6671 2.4200 0.0000 -12.1466 0.0000
# 2 2.6671 68.6383 8.9927 0.0000 -12.0322 0.0000
# 3 2.4200 8.9927 97.2907 0.0000 -17.4253 0.0000
# 4 0.0000 0.0000 0.0000 17.9056 0.0000 -13.5020
# 5 -12.1466 -12.0322 -17.4253 0.0000 53.2648 0.0000
# 6 0.0000 0.0000 0.0000 -13.5020 0.0000 15.7952
#
#
#
# Elastic Compliance Matrix: (Units=1/GPa)
#
#
# Indices 1 2 3 4 5 6 
#
# 1 0.015794 -0.000002 0.000268 0.000000 0.003689 0.000000
# 2 -0.000002 0.015234 -0.000841 0.000000 0.003166 0.000000
# 3 0.000268 -0.000841 0.010969 0.000000 0.003460 0.000000
# 4 0.000000 0.000000 0.000000 0.157139 0.000000 0.134325
# 5 0.003689 0.003166 0.003460 0.000000 0.021462 0.000000
# 6 0.000000 0.000000 0.000000 0.134325 0.000000 0.178134
#
#
# Mechanical properties :
#
#
# Convention : Reuss Voigt Hill
#
# Bulk Modulus (GPa) = 24.48136 28.91100 26.69618
# Shear Modulus (GPa) = 12.09193 31.92374 22.00783
#
# Velocity S-wave (km/s) = 2.38562 3.87624 3.21842
# Velocity P-wave (km/s) = 4.37157 5.80008 5.13573
#
# Compressibility (1/GPa) = 0.04084741
#
# Stress axis : x y z
#
# Youngs Moduli (GPa) = 63.31396 65.64111 91.16447
#
# Poissons Ratio (x) = 0.00014 -0.02444
# Poissons Ratio (y) = 0.00014 0.07668
# Poissons Ratio (z) = -0.01697 0.05521
#
# Static dielectric constant tensor:
#      x y z
#    x 1.789090 0.000000 -0.017160 
#    y 0.000000 1.683260 0.000000 
#    z -0.017160 0.000000 1.745530 
# 
# From -- ./inp_files/20320.got.cif
#   From: 2010.05.17/outbox.cif.g08.bks.cpg/sg10_11_cif.got.tgz:20320.got - 2010.06.03 11:33:40.
