data_PCOD9153420
_publ_section_title
;
Structure prediction by ZEFSAII (Michael W. Deem and Ramdas Pophale) SiO2 
 PCOD9153420
Probable space group: P 2/M
;
_chemical_formula_sum "Si O2"
_cell_formula_units_Z 28
_cell_length_a 5.713828
_cell_length_b 18.507916
_cell_length_c 15.286242
_cell_angle_alpha 90.000000
_cell_angle_beta 123.417929
_cell_angle_gamma 90.000000
_cell_volume 1349.283202
_symmetry_space_group_name_H-M "P 2/M"
_symmetry_group_IT_number 10
_symmetry_cell_setting 'monoclinic'
loop_
_space_group_symop_operation_xyz
x,y,z
-x,y,-z
-x,-y,-z
x,-y,z
loop_
_atom_site_type_symbol
_atom_site_label
_atom_site_fract_x
_atom_site_fract_y
_atom_site_fract_z
Si Si1 0.861743 0.918815 0.692542
Si Si2 0.317187 0.193516 0.736777
Si Si3 0.022821 0.316017 0.753945
Si Si4 0.840543 0.584257 0.060167
Si Si5 0.513543 0.212764 0.604244
Si Si6 0.162188 0.413561 0.442035
Si Si7 0.795882 0.918950 0.875826
O O1 0.080847 0.867634 0.691346
O O2 0.576823 0.873011 0.625610
O O3 0.946427 0.920649 0.812440
O O4 0.841944 0.000000 0.656021
O O5 0.281057 0.261784 0.792436
O O6 0.284905 0.224722 0.631523
O O7 0.588460 0.148310 0.821986
O O8 0.031007 0.360914 0.843668
O O9 0.766641 0.259962 0.695286
O O10 0.989525 0.371314 0.667088
O O11 0.895301 0.500000 0.094329
O O12 0.500000 0.593084 0.000000
O O13 0.000000 0.595877 0.000000
O O14 0.500000 0.230688 0.500000
O O15 0.500000 0.398178 0.500000
O O16 0.134321 0.500000 0.426066
O O17 0.000000 0.395211 0.500000
O O18 0.660004 0.000000 0.855855
O O19 0.000000 0.910674 0.000000
#
# Coordination Sequence:
#
# PCOD9153420 Si02
#       7
#     4   4   4   4   4   4   4
#     4   9  19  37  58  84 116 159 215 267 321 386
#     4  10  22  38  55  88 123 165 209 264 327 398
#     4  11  24  39  63  92 128 171 207 265 327 387
#     4  10  24  47  72  98 130 173 223 268 317 385
#     4  10  23  40  58  86 124 165 212 261 327 395
#     4  10  23  41  66 101 132 166 215 267 321 386
#     4   9  18  36  60  85 119 162 213 272 329 386
#
# _framework density 20.751760000000001
#
# number of rings (size 3 to 8) (size 9 to 14) (size 15 to 20)
#    0.000    2.143    0.000    1.286    6.000    3.143 
#    7.714    7.143    0.000    0.000    0.000    0.000 
#    0.000    0.000    0.000    0.000    0.000    0.000 
#
# Total GULP energy -155943.696298 kJ/mol
# GULP energy per Si atom -5569.417725 kJ/mol
# Density = 2.070453 g / cm^3
# Si number density = 20.751760 Si / 1000 Ang^3
#
#
#
# Elastic Constant Matrix: (Units=GPa)
#
#
# Indices 1 2 3 4 5 6 
#
# 1 91.1831 50.5761 32.6543 0.0000 -22.2658 0.0000
# 2 50.5761 143.6923 72.9744 0.0000 -21.0265 0.0000
# 3 32.6543 72.9744 72.4845 0.0000 -18.9023 0.0000
# 4 0.0000 0.0000 0.0000 26.8088 0.0000 2.9481
# 5 -22.2658 -21.0265 -18.9023 0.0000 24.5750 0.0000
# 6 0.0000 0.0000 0.0000 2.9481 0.0000 11.6743
#
#
#
# Elastic Compliance Matrix: (Units=1/GPa)
#
#
# Indices 1 2 3 4 5 6 
#
# 1 0.015860 -0.003693 -0.000630 0.000000 0.010725 0.000000
# 2 -0.003693 0.015141 -0.013853 0.000000 -0.001046 0.000000
# 3 -0.000630 -0.013853 0.031006 0.000000 0.011425 0.000000
# 4 0.000000 0.000000 0.000000 0.038367 0.000000 -0.009689
# 5 0.010725 -0.001046 0.011425 0.000000 0.058302 0.000000
# 6 0.000000 0.000000 0.000000 -0.009689 0.000000 0.088105
#
#
# Mechanical properties :
#
#
# Convention : Reuss Voigt Hill
#
# Bulk Modulus (GPa) = 38.97813 68.86325 53.92069
# Shear Modulus (GPa) = 17.14185 22.68862 19.91524
#
# Velocity S-wave (km/s) = 2.87722 3.31015 3.10125
# Velocity P-wave (km/s) = 5.46458 6.91851 6.23408
#
# Compressibility (1/GPa) = 0.02565542
#
# Stress axis : x y z
#
# Youngs Moduli (GPa) = 63.05207 66.04546 32.25223
#
# Poissons Ratio (x) = 0.24389 0.02033
# Poissons Ratio (y) = 0.23284 0.44678
# Poissons Ratio (z) = 0.03974 0.91490
#
# Static dielectric constant tensor:
#      x y z
#    x 1.845980 0.000000 -0.014480 
#    y 0.000000 1.731110 0.000000 
#    z -0.014480 0.000000 1.731330 
# 
# From -- ./inp_files/59465.got.cif
#   From: 2010.05.17/outbox.cif.g08.bks.cpg/sg10_30_cif.got.tgz:59465.got - 2010.06.03 11:33:40.
