data_PCOD9153320
_publ_section_title
;
Structure prediction by ZEFSAII (Michael W. Deem and Ramdas Pophale) SiO2 
 PCOD9153320
Probable space group: P 2/M
;
_chemical_formula_sum "Si O2"
_cell_formula_units_Z 21
_cell_length_a 15.541202
_cell_length_b 16.509625
_cell_length_c 9.030744
_cell_angle_alpha 90.000000
_cell_angle_beta 29.997813
_cell_angle_gamma 90.000000
_cell_volume 1158.474919
_symmetry_space_group_name_H-M "P 2/M"
_symmetry_group_IT_number 10
_symmetry_cell_setting 'monoclinic'
loop_
_space_group_symop_operation_xyz
x,y,z
-x,y,-z
-x,-y,-z
x,-y,z
loop_
_atom_site_type_symbol
_atom_site_label
_atom_site_fract_x
_atom_site_fract_y
_atom_site_fract_z
Si Si1 0.516120 0.254042 0.306448
Si Si2 0.000000 0.500000 0.500000
Si Si3 0.072673 0.907795 0.632995
Si Si4 0.838686 0.254041 0.338747
Si Si5 0.278339 0.907794 0.015990
Si Si6 0.834601 0.667560 0.665398
O O1 0.500000 0.280971 0.500000
O O2 0.336223 0.261663 0.491331
O O3 0.580081 0.160931 0.210100
O O4 0.663572 0.304184 0.002943
O O5 0.872397 0.572673 0.627599
O O6 0.129741 0.839070 0.660438
O O7 0.189905 0.901616 0.310094
O O8 0.876450 0.894836 0.870651
O O9 0.088309 0.000000 0.665292
O O10 0.830086 0.304182 0.503400
O O11 0.000000 0.280969 0.000000
O O12 0.341909 0.000000 0.904488
O O13 0.000000 0.708993 0.500000
#
# Coordination Sequence:
#
# PCOD9153320 Si02
#       6
#     4   1   4   4   4   4
#     4  12  24  38  63  96 129 172 213 258 311 369
#     4   8  24  44  82  92 122 162 190 244 356 372
#     4   9  18  34  57  87 125 173 220 264 310 359
#     4  12  24  38  63  96 129 172 213 258 311 369
#     4   9  18  34  57  87 125 173 220 264 310 359
#     4  10  21  45  70  94 124 154 203 251 317 393
#
# _framework density 18.127279999999999
#
# number of rings (size 3 to 8) (size 9 to 14) (size 15 to 20)
#    0.571    1.143    1.905    5.143    0.000    1.524 
#    0.000    4.762    0.000    0.000    0.000    0.000 
#    0.000    0.000    0.000    0.000    0.000    0.000 
#
# Total GULP energy -117009.725308 kJ/mol
# GULP energy per Si atom -5571.891681 kJ/mol
# Density = 1.808602 g / cm^3
# Si number density = 18.127280 Si / 1000 Ang^3
#
#
#
# Elastic Constant Matrix: (Units=GPa)
#
#
# Indices 1 2 3 4 5 6 
#
# 1 150.3623 64.3313 89.0194 0.0000 -6.1293 0.0000
# 2 64.3313 120.2519 61.5885 0.0000 -2.7869 0.0000
# 3 89.0194 61.5885 141.1733 0.0000 -3.2123 0.0000
# 4 0.0000 0.0000 0.0000 3.4788 0.0000 -9.9957
# 5 -6.1293 -2.7869 -3.2123 0.0000 30.6237 0.0000
# 6 0.0000 0.0000 0.0000 -9.9957 0.0000 13.3082
#
#
#
# Elastic Compliance Matrix: (Units=1/GPa)
#
#
# Indices 1 2 3 4 5 6 
#
# 1 0.011519 -0.003124 -0.005869 0.000000 0.001406 0.000000
# 2 -0.003124 0.011563 -0.003072 0.000000 0.000105 0.000000
# 3 -0.005869 -0.003072 0.012120 0.000000 -0.000183 0.000000
# 4 0.000000 0.000000 0.000000 -0.248213 0.000000 -0.186430
# 5 0.001406 0.000105 -0.000183 0.000000 0.032926 0.000000
# 6 0.000000 0.000000 0.000000 -0.186430 0.000000 -0.064884
#
#
# Mechanical properties :
#
#
# Convention : Reuss Voigt Hill
#
# Bulk Modulus (GPa) = 90.31419 93.51844 91.91631
# Shear Modulus (GPa) = -23.02576 22.60536 -0.21020
#
# Velocity S-wave (km/s) = -3.56789 3.53517 -0.34089
# Velocity P-wave (km/s) = 5.74084 8.26832 7.11767
#
# Compressibility (1/GPa) = 0.01107246
#
# Stress axis : x y z
#
# Youngs Moduli (GPa) = 86.81406 86.48237 82.50721
#
# Poissons Ratio (x) = 0.27017 0.48420
# Poissons Ratio (y) = 0.27121 0.25348
# Poissons Ratio (z) = 0.50947 0.26569
#
# Static dielectric constant tensor:
#      x y z
#    x 1.614740 0.000000 0.011820 
#    y 0.000000 1.606790 0.000000 
#    z 0.011820 0.000000 1.626360 
# 
# From -- ./inp_files/29958.got.cif
#   From: 2010.05.17/outbox.cif.g08.bks.cpg/sg10_15_cif.got.tgz:29958.got - 2010.06.03 11:33:40.
