data_PCOD9153238
_publ_section_title
;
Structure prediction by ZEFSAII (Michael W. Deem and Ramdas Pophale) SiO2 
 PCOD9153238
Probable space group: P 2/M
;
_chemical_formula_sum "Si O2"
_cell_formula_units_Z 28
_cell_length_a 8.734684
_cell_length_b 15.545079
_cell_length_c 13.926017
_cell_angle_alpha 90.000000
_cell_angle_beta 47.629339
_cell_angle_gamma 90.000000
_cell_volume 1396.993064
_symmetry_space_group_name_H-M "P 2/M"
_symmetry_group_IT_number 10
_symmetry_cell_setting 'monoclinic'
loop_
_space_group_symop_operation_xyz
x,y,z
-x,y,-z
-x,-y,-z
x,-y,z
loop_
_atom_site_type_symbol
_atom_site_label
_atom_site_fract_x
_atom_site_fract_y
_atom_site_fract_z
Si Si1 0.582482 0.500000 0.606599
Si Si2 0.165360 0.902414 0.714318
Si Si3 0.704263 0.767718 0.471258
Si Si4 0.109253 0.674491 0.221277
Si Si5 0.228934 0.787899 0.874942
Si Si6 0.723950 0.158511 0.944706
Si Si7 0.622319 0.322436 0.698519
Si Si8 0.128482 0.500000 0.705628
O O1 0.626357 0.414538 0.647355
O O2 0.336444 0.500000 0.683583
O O3 0.749346 0.500000 0.448763
O O4 0.262270 0.865968 0.575118
O O5 0.232138 0.837819 0.772449
O O6 0.915588 0.893068 0.818857
O O7 0.223748 0.000000 0.708917
O O8 0.500000 0.735702 0.500000
O O9 0.703582 0.745135 0.583574
O O10 0.898736 0.720267 0.343125
O O11 0.223421 0.740617 0.100946
O O12 0.253282 0.671496 0.255062
O O13 0.023486 0.582694 0.221257
O O14 0.389702 0.710768 0.811009
O O15 0.280588 0.853085 0.939214
O O16 0.000000 0.757595 0.000000
O O17 0.500000 0.137116 0.000000
#
# Coordination Sequence:
#
# PCOD9153238 Si02
#       8
#     2   4   4   4   4   4   4   2
#     4  11  25  35  63  91 130 163 216 257 301 354
#     4  10  23  41  65  95 122 155 205 260 313 373
#     4  11  21  37  63  90 124 163 202 251 314 372
#     4  11  23  38  64  88 128 161 214 256 308 358
#     4  10  22  39  66  87 123 162 210 251 305 371
#     4  10  21  41  65  91 118 167 205 253 310 368
#     4  12  22  40  61  95 124 168 208 256 307 368
#     4  11  23  39  57  93 124 166 210 266 301 357
#
# _framework density 20.043047000000001
#
# number of rings (size 3 to 8) (size 9 to 14) (size 15 to 20)
#    0.000    1.286    4.286    1.714    4.000    3.714 
#    0.000    1.429    0.000    6.857    0.000    0.000 
#    0.000    0.000    0.000    0.000    0.000    0.000 
#
# Total GULP energy -156228.594510 kJ/mol
# GULP energy per Si atom -5579.592661 kJ/mol
# Density = 1.999743 g / cm^3
# Si number density = 20.043047 Si / 1000 Ang^3
#
#
#
# Elastic Constant Matrix: (Units=GPa)
#
#
# Indices 1 2 3 4 5 6 
#
# 1 110.1963 19.0236 13.6139 0.0000 -0.8765 0.0000
# 2 19.0236 78.5029 15.1048 0.0000 4.6263 0.0000
# 3 13.6139 15.1048 45.1649 0.0000 11.1915 0.0000
# 4 0.0000 0.0000 0.0000 10.3816 0.0000 -6.3814
# 5 -0.8765 4.6263 11.1915 0.0000 31.5911 0.0000
# 6 0.0000 0.0000 0.0000 -6.3814 0.0000 2.5413
#
#
#
# Elastic Compliance Matrix: (Units=1/GPa)
#
#
# Indices 1 2 3 4 5 6 
#
# 1 0.009750 -0.001939 -0.002662 0.000000 0.001497 0.000000
# 2 -0.001939 0.014005 -0.003922 0.000000 -0.000715 0.000000
# 3 -0.002662 -0.003922 0.026453 0.000000 -0.008871 0.000000
# 4 0.000000 0.000000 0.000000 -0.177220 0.000000 -0.445013
# 5 0.001497 -0.000715 -0.008871 0.000000 0.034943 0.000000
# 6 0.000000 0.000000 0.000000 -0.445013 0.000000 -0.723964
#
#
# Mechanical properties :
#
#
# Convention : Reuss Voigt Hill
#
# Bulk Modulus (GPa) = 30.15387 36.59430 33.37408
# Shear Modulus (GPa) = -6.34572 21.31092 7.48260
#
# Velocity S-wave (km/s) = -1.78127 3.26430 1.93426
# Velocity P-wave (km/s) = 3.29343 5.70132 4.65573
#
# Compressibility (1/GPa) = 0.03316324
#
# Stress axis : x y z
#
# Youngs Moduli (GPa) = 102.56247 71.40286 37.80263
#
# Poissons Ratio (x) = 0.13844 0.10061
# Poissons Ratio (y) = 0.19886 0.14827
# Poissons Ratio (z) = 0.27297 0.28005
#
# Static dielectric constant tensor:
#      x y z
#    x 1.732470 0.000000 -0.002170 
#    y 0.000000 1.714790 0.000000 
#    z -0.002170 0.000000 1.735060 
# 
# From -- ./inp_files/29644.got.cif
#   From: 2010.05.17/outbox.cif.g08.bks.cpg/sg10_15_cif.got.tgz:29644.got - 2010.06.03 11:33:40.
