data_PCOD9153214
_publ_section_title
;
Structure prediction by ZEFSAII (Michael W. Deem and Ramdas Pophale) SiO2 
 PCOD9153214
Probable space group: P 2/M
;
_chemical_formula_sum "Si O2"
_cell_formula_units_Z 26
_cell_length_a 19.698564
_cell_length_b 7.423813
_cell_length_c 14.530418
_cell_angle_alpha 90.000000
_cell_angle_beta 147.877629
_cell_angle_gamma 90.000000
_cell_volume 1129.874710
_symmetry_space_group_name_H-M "P 2/M"
_symmetry_group_IT_number 10
_symmetry_cell_setting 'monoclinic'
loop_
_space_group_symop_operation_xyz
x,y,z
-x,y,-z
-x,-y,-z
x,-y,z
loop_
_atom_site_type_symbol
_atom_site_label
_atom_site_fract_x
_atom_site_fract_y
_atom_site_fract_z
Si Si1 0.102957 0.704007 0.836758
Si Si2 0.623213 0.711513 0.193833
Si Si3 0.696748 0.282298 0.479861
Si Si4 0.719904 0.000000 0.954202
Si Si5 0.027677 0.720162 0.135338
Si Si6 0.532512 0.714794 0.643687
Si Si7 0.098702 0.215361 0.535471
O O1 0.148224 0.500000 0.888308
O O2 0.078833 0.775322 0.912857
O O3 0.963718 0.710558 0.629895
O O4 0.196076 0.842703 0.895799
O O5 0.596473 0.500000 0.177245
O O6 0.652314 0.786997 0.329087
O O7 0.754725 0.727920 0.288498
O O8 0.500000 0.788041 0.000000
O O9 0.707605 0.500000 0.485392
O O10 0.834280 0.217522 0.671841
O O11 0.590422 0.245762 0.434118
O O12 0.642668 0.840621 0.809648
O O13 0.026181 0.500000 0.134968
O O14 0.000000 0.777595 0.000000
O O15 0.500000 0.750586 0.500000
O O16 0.561768 0.500000 0.684970
O O17 0.000000 0.278191 0.500000
O O18 0.096313 0.000000 0.529021
#
# Coordination Sequence:
#
# PCOD9153214 Si02
#       7
#     4   4   4   2   4   4   4
#     4  11  23  42  69  97 132 177 218 275 342 405
#     4  10  21  40  68  99 130 173 230 283 340 414
#     4   9  18  37  63  93 128 166 221 278 329 396
#     4  12  25  42  60  96 137 174 223 280 322 408
#     4   9  18  34  64  99 128 167 219 270 329 395
#     4  10  23  43  67  93 133 185 227 276 339 398
#     4  11  24  44  67  99 139 176 224 289 351 411
#
# _framework density 23.011403000000001
#
# number of rings (size 3 to 8) (size 9 to 14) (size 15 to 20)
#    0.000    1.846    2.308    1.154    2.154    2.769 
#    1.385    2.692    0.000    0.000    0.000    0.000 
#    0.000    0.000    0.000    0.000    0.000    0.000 
#
# Total GULP energy -144871.397623 kJ/mol
# GULP energy per Si atom -5571.976832 kJ/mol
# Density = 2.295903 g / cm^3
# Si number density = 23.011403 Si / 1000 Ang^3
#
#
#
# Elastic Constant Matrix: (Units=GPa)
#
#
# Indices 1 2 3 4 5 6 
#
# 1 107.8445 -3.6945 43.3843 0.0000 -8.0056 0.0000
# 2 -3.6945 109.6727 13.9915 0.0000 5.9684 0.0000
# 3 43.3843 13.9915 139.0840 0.0000 10.1747 0.0000
# 4 0.0000 0.0000 0.0000 7.4994 0.0000 -8.7666
# 5 -8.0056 5.9684 10.1747 0.0000 27.6292 0.0000
# 6 0.0000 0.0000 0.0000 -8.7666 0.0000 -12.3495
#
#
#
# Elastic Compliance Matrix: (Units=1/GPa)
#
#
# Indices 1 2 3 4 5 6 
#
# 1 0.011195 0.000626 -0.003887 0.000000 0.004540 0.000000
# 2 0.000626 0.009350 -0.001029 0.000000 -0.001459 0.000000
# 3 -0.003887 -0.001029 0.008809 0.000000 -0.004148 0.000000
# 4 0.000000 0.000000 0.000000 0.072872 0.000000 -0.051731
# 5 0.004540 -0.001459 -0.004148 0.000000 0.039352 0.000000
# 6 0.000000 0.000000 0.000000 -0.051731 0.000000 -0.044253
#
#
# Mechanical properties :
#
#
# Convention : Reuss Voigt Hill
#
# Bulk Modulus (GPa) = 48.13798 51.55153 49.84476
# Shear Modulus (GPa) = 44.31429 24.75048 34.53239
#
# Velocity S-wave (km/s) = 4.39310 3.28315 3.87804
# Velocity P-wave (km/s) = 6.83352 6.06823 6.46221
#
# Compressibility (1/GPa) = 0.02077362
#
# Stress axis : x y z
#
# Youngs Moduli (GPa) = 89.32734 106.95385 113.51554
#
# Poissons Ratio (x) = -0.06695 0.44124
# Poissons Ratio (y) = -0.05591 0.11681
# Poissons Ratio (z) = 0.34722 0.11006
#
# Static dielectric constant tensor:
#      x y z
#    x 1.890390 0.000000 0.019420 
#    y 0.000000 1.718880 0.000000 
#    z 0.019420 0.000000 1.882440 
# 
# From -- ./inp_files/70081.got.cif
#   From: 2010.05.17/outbox.cif.g08.bks.cpg/sg10_36_cif.got.tgz:70081.got - 2010.06.03 11:33:40.
