data_PCOD9153198
_publ_section_title
;
Structure prediction by ZEFSAII (Michael W. Deem and Ramdas Pophale) SiO2 
 PCOD9153198
Probable space group: P 2/M
;
_chemical_formula_sum "Si O2"
_cell_formula_units_Z 28
_cell_length_a 25.331600
_cell_length_b 8.583097
_cell_length_c 22.966439
_cell_angle_alpha 90.000000
_cell_angle_beta 16.816003
_cell_angle_gamma 90.000000
_cell_volume 1444.599605
_symmetry_space_group_name_H-M "P 2/M"
_symmetry_group_IT_number 10
_symmetry_cell_setting 'monoclinic'
loop_
_space_group_symop_operation_xyz
x,y,z
-x,y,-z
-x,-y,-z
x,-y,z
loop_
_atom_site_type_symbol
_atom_site_label
_atom_site_fract_x
_atom_site_fract_y
_atom_site_fract_z
Si Si1 0.335767 0.310432 0.354660
Si Si2 0.997023 0.677850 0.438075
Si Si3 0.567065 0.677283 0.869335
Si Si4 0.932690 0.815812 0.756700
Si Si5 0.548050 0.184861 0.362917
Si Si6 0.598496 0.685422 0.181571
Si Si7 0.209196 0.687246 0.791009
O O1 0.322335 0.500000 0.364628
O O2 0.454253 0.256881 0.173029
O O3 0.437201 0.270934 0.307048
O O4 0.135135 0.238741 0.561817
O O5 0.068810 0.500000 0.364879
O O6 0.784517 0.668445 0.646294
O O7 0.000000 0.745312 0.500000
O O8 0.089634 0.768310 0.287612
O O9 0.490730 0.500000 0.949725
O O10 0.500000 0.754947 0.000000
O O11 0.915271 0.000000 0.781507
O O12 0.784694 0.730098 0.952432
O O13 0.579716 0.231142 0.262986
O O14 0.706998 0.254282 0.236364
O O15 0.354578 0.251185 0.590146
O O16 0.546832 0.000000 0.371499
O O17 0.591661 0.500000 0.197956
O O18 0.213522 0.500000 0.785901
O O19 0.000000 0.737043 0.000000
#
# Coordination Sequence:
#
# PCOD9153198 Si02
#       7
#     4   4   4   4   4   4   4
#     4   9  20  38  59  82 109 148 198 249 296 350
#     4   9  18  32  53  77 103 140 191 243 290 351
#     4   8  14  26  48  77 102 126 174 240 295 342
#     4  11  23  38  56  81 119 155 188 240 305 369
#     4  11  23  39  61  93 130 162 200 247 298 353
#     4  11  23  40  64  87 116 158 207 253 295 350
#     4  10  21  40  67  95 127 166 206 245 286 336
#
# _framework density 19.382532999999999
#
# number of rings (size 3 to 8) (size 9 to 14) (size 15 to 20)
#    0.000    2.143    0.000    5.143    2.000    3.714 
#    0.000    1.429    0.000    1.714    0.000    0.000 
#    0.000    0.000    0.000    0.000    0.000    0.000 
#
# Total GULP energy -156256.542572 kJ/mol
# GULP energy per Si atom -5580.590806 kJ/mol
# Density = 1.933842 g / cm^3
# Si number density = 19.382533 Si / 1000 Ang^3
#
#
#
# Elastic Constant Matrix: (Units=GPa)
#
#
# Indices 1 2 3 4 5 6 
#
# 1 132.4532 24.6970 66.8958 0.0000 13.7864 0.0000
# 2 24.6970 51.7882 19.5564 0.0000 -3.2518 0.0000
# 3 66.8958 19.5564 93.4829 0.0000 -8.0422 0.0000
# 4 0.0000 0.0000 0.0000 -4.0676 0.0000 18.5728
# 5 13.7864 -3.2518 -8.0422 0.0000 33.2946 0.0000
# 6 0.0000 0.0000 0.0000 18.5728 0.0000 25.0922
#
#
#
# Elastic Compliance Matrix: (Units=1/GPa)
#
#
# Indices 1 2 3 4 5 6 
#
# 1 0.014281 -0.003492 -0.010240 0.000000 -0.008728 0.000000
# 2 -0.003492 0.021853 -0.001802 0.000000 0.003145 0.000000
# 3 -0.010240 -0.001802 0.019149 0.000000 0.008689 0.000000
# 4 0.000000 0.000000 0.000000 -0.056133 0.000000 0.041549
# 5 -0.008728 0.003145 0.008689 0.000000 0.036055 0.000000
# 6 0.000000 0.000000 0.000000 0.041549 0.000000 0.009099
#
#
# Mechanical properties :
#
#
# Convention : Reuss Voigt Hill
#
# Bulk Modulus (GPa) = 41.29629 55.55809 48.42719
# Shear Modulus (GPa) = 59.92094 21.96885 40.94490
#
# Velocity S-wave (km/s) = 5.56615 3.37031 4.60114
# Velocity P-wave (km/s) = 7.91591 6.62356 7.29839
#
# Compressibility (1/GPa) = 0.02421525
#
# Stress axis : x y z
#
# Youngs Moduli (GPa) = 70.02358 45.76112 52.22135
#
# Poissons Ratio (x) = 0.15978 0.53473
# Poissons Ratio (y) = 0.24449 0.09413
# Poissons Ratio (z) = 0.71702 0.08248
#
# Static dielectric constant tensor:
#      x y z
#    x 1.700830 0.000000 0.000800 
#    y 0.000000 1.661900 0.000000 
#    z 0.000800 0.000000 1.665350 
# 
# From -- ./inp_files/86453.got.cif
#   From: 2010.05.17/outbox.cif.g08.bks.cpg/sg10_44_cif.got.tgz:86453.got - 2010.06.03 11:33:40.
