data_PCOD9153382
_publ_section_title
;
Structure prediction by ZEFSAII (Michael W. Deem and Ramdas Pophale) SiO2 
 PCOD9153382
Probable space group: P 2/M
;
_chemical_formula_sum "Si O2"
_cell_formula_units_Z 32
_cell_length_a 19.163461
_cell_length_b 14.077249
_cell_length_c 5.546003
_cell_angle_alpha 90.000000
_cell_angle_beta 75.652035
_cell_angle_gamma 90.000000
_cell_volume 1449.472009
_symmetry_space_group_name_H-M "P 2/M"
_symmetry_group_IT_number 10
_symmetry_cell_setting 'monoclinic'
loop_
_space_group_symop_operation_xyz
x,y,z
-x,y,-z
-x,-y,-z
x,-y,z
loop_
_atom_site_type_symbol
_atom_site_label
_atom_site_fract_x
_atom_site_fract_y
_atom_site_fract_z
Si Si1 0.808328 0.396575 0.543528
Si Si2 0.538318 0.115994 0.717124
Si Si3 0.459864 0.615658 0.784286
Si Si4 0.051811 0.606014 0.252914
Si Si5 0.781084 0.887493 0.993836
Si Si6 0.700455 0.114655 0.569545
Si Si7 0.845837 0.283484 0.107998
Si Si8 0.296290 0.388693 0.977962
O O1 0.814380 0.500000 0.406352
O O2 0.869410 0.404485 0.693470
O O3 0.830998 0.299338 0.399467
O O4 0.728663 0.389074 0.720645
O O5 0.500000 0.143227 0.500000
O O6 0.619673 0.152763 0.648187
O O7 0.539814 0.000000 0.714590
O O8 0.500000 0.142649 0.000000
O O9 0.500000 0.642298 0.500000
O O10 0.457627 0.500000 0.788235
O O11 0.376324 0.648332 0.862831
O O12 0.500000 0.642756 0.000000
O O13 0.023867 0.500000 0.226534
O O14 0.000000 0.648979 0.500000
O O15 0.078359 0.663826 0.000893
O O16 0.733894 0.868651 0.276575
O O17 0.848065 0.818883 0.986485
O O18 0.796087 0.000000 0.971622
O O19 0.742853 0.858136 0.776838
O O20 0.696281 0.000000 0.591052
O O21 0.769965 0.332399 0.084734
O O22 0.294290 0.500000 0.906782
#
# Coordination Sequence:
#
# PCOD9153382 Si02
#       8
#     4   4   4   4   4   4   4   4
#     4   9  18  32  54  85 118 152 190 230 284 347
#     4   9  15  24  45  74 101 130 171 227 293 368
#     4   9  18  31  49  74 107 151 195 234 285 345
#     4   9  19  36  57  89 130 160 186 224 277 350
#     4  10  22  37  57  80 110 149 196 252 297 341
#     4   9  18  34  52  76 106 140 185 243 305 353
#     4  11  21  33  58  83 114 151 199 240 294 347
#     4   9  19  33  52  81 116 150 189 241 291 350
#
# _framework density 22.077005
#
# number of rings (size 3 to 8) (size 9 to 14) (size 15 to 20)
#    0.000    2.625    0.000    2.625    5.250    3.500 
#    0.000    1.875    0.000    4.875    0.000    0.875 
#    0.000    0.000    0.000    0.000    0.000    0.250 
#
# Total GULP energy -178248.847143 kJ/mol
# GULP energy per Si atom -5570.276473 kJ/mol
# Density = 2.202676 g / cm^3
# Si number density = 22.077005 Si / 1000 Ang^3
#
#
#
# Elastic Constant Matrix: (Units=GPa)
#
#
# Indices 1 2 3 4 5 6 
#
# 1 63.5840 8.2697 37.7429 0.0000 -13.8421 0.0000
# 2 8.2697 60.2773 7.8765 0.0000 -0.5238 0.0000
# 3 37.7429 7.8765 121.5707 0.0000 -4.4638 0.0000
# 4 0.0000 0.0000 0.0000 2.1057 0.0000 2.7419
# 5 -13.8421 -0.5238 -4.4638 0.0000 41.4603 0.0000
# 6 0.0000 0.0000 0.0000 2.7419 0.0000 9.9856
#
#
#
# Elastic Compliance Matrix: (Units=1/GPa)
#
#
# Indices 1 2 3 4 5 6 
#
# 1 0.021028 -0.002024 -0.006165 0.000000 0.006331 0.000000
# 2 -0.002024 0.016927 -0.000487 0.000000 -0.000514 0.000000
# 3 -0.006165 -0.000487 0.010135 0.000000 -0.000973 0.000000
# 4 0.000000 0.000000 0.000000 0.739172 0.000000 -0.202964
# 5 0.006331 -0.000514 -0.000973 0.000000 0.026122 0.000000
# 6 0.000000 0.000000 0.000000 -0.202964 0.000000 0.155875
#
#
# Mechanical properties :
#
#
# Convention : Reuss Voigt Hill
#
# Bulk Modulus (GPa) = 32.53300 39.24557 35.88928
# Shear Modulus (GPa) = 5.01576 23.47985 14.24781
#
# Velocity S-wave (km/s) = 1.50893 3.26474 2.54317
# Velocity P-wave (km/s) = 4.21947 5.65921 4.99152
#
# Compressibility (1/GPa) = 0.03073802
#
# Stress axis : x y z
#
# Youngs Moduli (GPa) = 47.55519 59.07753 98.66393
#
# Poissons Ratio (x) = 0.11959 0.60824
# Poissons Ratio (y) = 0.09627 0.04806
# Poissons Ratio (z) = 0.29317 0.02878
#
# Static dielectric constant tensor:
#      x y z
#    x 1.790440 0.000000 0.045290 
#    y 0.000000 1.930660 0.000000 
#    z 0.045290 0.000000 1.939460 
# 
# From -- ./inp_files/12705.got.cif
#   From: 2010.05.17/outbox.cif.g08.bks.cpg/sg10_7_cif.got.tgz:12705.got - 2010.06.03 11:33:40.
