data_PCOD9153977
_publ_section_title
;
Structure prediction by ZEFSAII (Michael W. Deem and Ramdas Pophale) SiO2 
 PCOD9153977
Probable space group: P 2/M
;
_chemical_formula_sum "Si O2"
_cell_formula_units_Z 32
_cell_length_a 21.490938
_cell_length_b 8.405109
_cell_length_c 27.411952
_cell_angle_alpha 90.000000
_cell_angle_beta 19.677568
_cell_angle_gamma 90.000000
_cell_volume 1667.309231
_symmetry_space_group_name_H-M "P 2/M"
_symmetry_group_IT_number 10
_symmetry_cell_setting 'monoclinic'
loop_
_space_group_symop_operation_xyz
x,y,z
-x,y,-z
-x,-y,-z
x,-y,z
loop_
_atom_site_type_symbol
_atom_site_label
_atom_site_fract_x
_atom_site_fract_y
_atom_site_fract_z
Si Si1 0.862211 0.811756 0.346732
Si Si2 0.510821 0.191766 0.435963
Si Si3 0.814021 0.688130 0.489756
Si Si4 0.233708 0.688944 0.026956
Si Si5 0.205547 0.694007 0.231928
Si Si6 0.404181 0.813646 0.803104
Si Si7 0.788011 0.310441 0.152730
Si Si8 0.540600 0.306676 0.047217
O O1 0.678769 0.769182 0.452047
O O2 0.862932 0.717542 0.396946
O O3 0.042939 0.772828 0.182018
O O4 0.855204 0.000000 0.362933
O O5 0.500000 0.243089 0.500000
O O6 0.678476 0.266979 0.282501
O O7 0.531904 0.000000 0.419470
O O8 0.789701 0.500000 0.516142
O O9 0.621087 0.771946 0.643142
O O10 0.993568 0.746483 0.387099
O O11 0.207551 0.500000 0.052386
O O12 0.301518 0.724660 0.922753
O O13 0.387007 0.743305 0.953523
O O14 0.201721 0.500000 0.234855
O O15 0.339239 0.746382 0.177179
O O16 0.311148 0.740352 0.103914
O O17 0.213071 0.500000 0.853439
O O18 0.318262 0.765506 0.814537
O O19 0.379138 0.000000 0.828833
O O20 0.000000 0.255824 0.000000
O O21 0.536101 0.500000 0.050314
#
# Coordination Sequence:
#
# PCOD9153977 Si02
#       8
#     4   4   4   4   4   4   4   4
#     4  11  22  37  59  89 123 158 196 244 296 353
#     4  10  23  42  63  90 122 159 198 235 287 353
#     4  11  20  36  62  90 116 153 201 252 295 344
#     4  11  22  38  61  89 119 157 202 253 297 343
#     4   8  14  27  53  87 117 148 191 244 298 348
#     4  12  26  43  61  84 120 164 199 240 298 364
#     4  11  25  44  65  92 120 152 198 248 296 347
#     4   8  14  28  52  85 119 149 191 245 297 347
#
# _framework density 19.192601
#
# number of rings (size 3 to 8) (size 9 to 14) (size 15 to 20)
#    0.000    1.750    2.500    3.375    1.750    1.750 
#    0.000    0.625    0.000    7.500    0.000    0.000 
#    0.000    0.000    0.000    0.000    0.000    0.000 
#
# Total GULP energy -178728.843505 kJ/mol
# GULP energy per Si atom -5585.276360 kJ/mol
# Density = 1.914892 g / cm^3
# Si number density = 19.192601 Si / 1000 Ang^3
#
#
#
# Elastic Constant Matrix: (Units=GPa)
#
#
# Indices 1 2 3 4 5 6 
#
# 1 54.5171 8.4210 30.3645 0.0000 -7.9565 0.0000
# 2 8.4210 17.9058 0.4583 0.0000 -12.4271 0.0000
# 3 30.3645 0.4583 100.3922 0.0000 -17.2158 0.0000
# 4 0.0000 0.0000 0.0000 -19.0360 0.0000 -20.7467
# 5 -7.9565 -12.4271 -17.2158 0.0000 35.2348 0.0000
# 6 0.0000 0.0000 0.0000 -20.7467 0.0000 -33.0767
#
#
#
# Elastic Compliance Matrix: (Units=1/GPa)
#
#
# Indices 1 2 3 4 5 6 
#
# 1 0.024312 -0.013338 -0.007812 0.000000 -0.003031 0.000000
# 2 -0.013338 0.083188 0.008916 0.000000 0.030685 0.000000
# 3 -0.007812 0.008916 0.013665 0.000000 0.008057 0.000000
# 4 0.000000 0.000000 0.000000 -0.166027 0.000000 0.104137
# 5 -0.003031 0.030685 0.008057 0.000000 0.042456 0.000000
# 6 0.000000 0.000000 0.000000 0.104137 0.000000 -0.095550
#
#
# Mechanical properties :
#
#
# Convention : Reuss Voigt Hill
#
# Bulk Modulus (GPa) = 10.34150 27.92253 19.13201
# Shear Modulus (GPa) = -121.19196 5.52916 -57.83140
#
# Velocity S-wave (km/s) = -7.95501 1.69916 -5.49523
# Velocity P-wave (km/s) = 8.88686 4.29298 5.50212
#
# Compressibility (1/GPa) = 0.09669778
#
# Stress axis : x y z
#
# Youngs Moduli (GPa) = 41.13222 12.02094 73.18072
#
# Poissons Ratio (x) = 0.16033 0.57170
# Poissons Ratio (y) = 0.54860 -0.65250
# Poissons Ratio (z) = 0.32133 -0.10718
#
# Static dielectric constant tensor:
#      x y z
#    x 1.659250 0.000000 -0.027600 
#    y 0.000000 1.654990 0.000000 
#    z -0.027600 0.000000 1.646590 
# 
# From -- ./inp_files/86960.got.cif
#   From: 2010.05.17/outbox.cif.g08.bks.cpg/sg10_44_cif.got.tgz:86960.got - 2010.06.03 11:33:40.
