data_PCOD9153222
_publ_section_title
;
Structure prediction by ZEFSAII (Michael W. Deem and Ramdas Pophale) SiO2 
 PCOD9153222
Probable space group: P 2/M
;
_chemical_formula_sum "Si O2"
_cell_formula_units_Z 28
_cell_length_a 8.477508
_cell_length_b 13.809825
_cell_length_c 11.923068
_cell_angle_alpha 90.000000
_cell_angle_beta 67.059480
_cell_angle_gamma 90.000000
_cell_volume 1285.468934
_symmetry_space_group_name_H-M "P 2/M"
_symmetry_group_IT_number 10
_symmetry_cell_setting 'monoclinic'
loop_
_space_group_symop_operation_xyz
x,y,z
-x,y,-z
-x,-y,-z
x,-y,z
loop_
_atom_site_type_symbol
_atom_site_label
_atom_site_fract_x
_atom_site_fract_y
_atom_site_fract_z
Si Si1 0.907111 0.713035 0.925583
Si Si2 0.308141 0.611567 0.498783
Si Si3 0.540263 0.234695 0.105923
Si Si4 0.467660 0.886033 0.333323
Si Si5 0.853757 0.800676 0.449517
Si Si6 0.722765 0.614218 0.766049
Si Si7 0.122144 0.109309 0.772941
O O1 0.851796 0.663851 0.822076
O O2 0.019456 0.807505 0.864392
O O3 0.739521 0.749332 0.038373
O O4 0.000000 0.653174 0.000000
O O5 0.500000 0.621175 0.500000
O O6 0.255660 0.500000 0.533203
O O7 0.192534 0.694559 0.586353
O O8 0.283199 0.629250 0.369781
O O9 0.449201 0.169490 0.222551
O O10 0.455829 0.339781 0.144040
O O11 0.500000 0.186019 0.000000
O O12 0.328746 0.839606 0.454243
O O13 0.672345 0.872755 0.293917
O O14 0.436294 0.000000 0.339191
O O15 0.930545 0.876802 0.341230
O O16 0.000000 0.786845 0.500000
O O17 0.736609 0.500000 0.776764
O O18 0.095549 0.000000 0.822071
#
# Coordination Sequence:
#
# PCOD9153222 Si02
#       7
#     4   4   4   4   4   4   4
#     4  11  23  42  68  99 137 177 232 283 338 400
#     4  10  21  40  71 102 133 178 225 275 344 413
#     4  10  22  40  66  94 130 175 221 279 335 393
#     4  11  23  42  66  94 126 174 230 276 339 408
#     4  12  25  42  65  96 138 172 223 287 342 410
#     4  10  22  43  69 101 138 178 227 281 342 409
#     4  11  25  43  66  94 133 183 227 281 343 406
#
# _framework density 21.781935000000001
#
# number of rings (size 3 to 8) (size 9 to 14) (size 15 to 20)
#    0.000    1.286    2.857    2.571    2.000    6.571 
#    0.000    0.714    0.000    0.857    0.000    0.000 
#    0.000    0.000    0.000    0.000    0.000    0.000 
#
# Total GULP energy -155929.871309 kJ/mol
# GULP energy per Si atom -5568.923975 kJ/mol
# Density = 2.173236 g / cm^3
# Si number density = 21.781935 Si / 1000 Ang^3
#
#
#
# Elastic Constant Matrix: (Units=GPa)
#
#
# Indices 1 2 3 4 5 6 
#
# 1 93.4116 43.9443 20.8890 0.0000 4.3126 0.0000
# 2 43.9443 117.6884 38.8160 0.0000 -9.9573 0.0000
# 3 20.8890 38.8160 95.6799 0.0000 -0.7957 0.0000
# 4 0.0000 0.0000 0.0000 18.2999 0.0000 -3.7272
# 5 4.3126 -9.9573 -0.7957 0.0000 35.8463 0.0000
# 6 0.0000 0.0000 0.0000 -3.7272 0.0000 13.0663
#
#
#
# Elastic Compliance Matrix: (Units=1/GPa)
#
#
# Indices 1 2 3 4 5 6 
#
# 1 0.013378 -0.004938 -0.000942 0.000000 -0.003002 0.000000
# 2 -0.004938 0.011888 -0.003713 0.000000 0.003814 0.000000
# 3 -0.000942 -0.003713 0.012158 0.000000 -0.000648 0.000000
# 4 0.000000 0.000000 0.000000 0.058016 0.000000 0.016549
# 5 -0.003002 0.003814 -0.000648 0.000000 0.029303 0.000000
# 6 0.000000 0.000000 0.000000 0.016549 0.000000 0.081253
#
#
# Mechanical properties :
#
#
# Convention : Reuss Voigt Hill
#
# Bulk Modulus (GPa) = 54.83368 57.11983 55.97676
# Shear Modulus (GPa) = 21.62040 26.98454 24.30247
#
# Velocity S-wave (km/s) = 3.15395 3.52355 3.34386
# Velocity P-wave (km/s) = 6.20417 6.54479 6.37676
#
# Compressibility (1/GPa) = 0.01823697
#
# Stress axis : x y z
#
# Youngs Moduli (GPa) = 74.75045 84.11588 82.24929
#
# Poissons Ratio (x) = 0.41541 0.07749
# Poissons Ratio (y) = 0.36915 0.30540
# Poissons Ratio (z) = 0.07043 0.31233
#
# Static dielectric constant tensor:
#      x y z
#    x 1.908120 0.000000 0.075980 
#    y 0.000000 1.748970 0.000000 
#    z 0.075980 0.000000 1.849020 
# 
# From -- ./inp_files/42671.got.cif
#   From: 2010.05.17/outbox.cif.g08.bks.cpg/sg10_22_cif.got.tgz:42671.got - 2010.06.03 11:33:40.
