data_PCOD9153764
_publ_section_title
;
Structure prediction by ZEFSAII (Michael W. Deem and Ramdas Pophale) SiO2 
 PCOD9153764
Probable space group: P 2/M
;
_chemical_formula_sum "Si O2"
_cell_formula_units_Z 26
_cell_length_a 15.034803
_cell_length_b 7.544002
_cell_length_c 9.542484
_cell_angle_alpha 90.000000
_cell_angle_beta 88.714164
_cell_angle_gamma 90.000000
_cell_volume 1082.060647
_symmetry_space_group_name_H-M "P 2/M"
_symmetry_group_IT_number 10
_symmetry_cell_setting 'monoclinic'
loop_
_space_group_symop_operation_xyz
x,y,z
-x,y,-z
-x,-y,-z
x,-y,z
loop_
_atom_site_type_symbol
_atom_site_label
_atom_site_fract_x
_atom_site_fract_y
_atom_site_fract_z
Si Si1 0.940463 0.286603 0.303169
Si Si2 0.700845 0.000000 0.334580
Si Si3 0.868380 0.285771 0.600765
Si Si4 0.786071 0.706555 0.124680
Si Si5 0.409477 0.295317 0.591750
Si Si6 0.284159 0.205378 0.178014
Si Si7 0.484584 0.706960 0.153758
O O1 0.945368 0.500000 0.314176
O O2 0.881571 0.223325 0.439238
O O3 0.888491 0.248742 0.162181
O O4 0.041026 0.225426 0.323187
O O5 0.732384 0.156984 0.222131
O O6 0.664857 0.156625 0.444945
O O7 0.866897 0.500000 0.596555
O O8 0.784453 0.230226 0.693735
O O9 0.771054 0.500000 0.165705
O O10 0.759448 0.721862 0.963846
O O11 0.500000 0.296177 0.500000
O O12 0.379192 0.500000 0.597870
O O13 0.448659 0.215075 0.736041
O O14 0.381623 0.286533 0.198692
O O15 0.300718 0.000000 0.153337
O O16 0.510788 0.500000 0.147745
O O17 0.500000 0.783948 0.000000
#
# Coordination Sequence:
#
# PCOD9153764 Si02
#       7
#     4   2   4   4   4   4   4
#     4   8  18  39  68  94 122 169 218 260 319 388
#     4  12  23  40  63  96 125 165 209 263 320 381
#     4   9  18  40  68  93 125 166 214 266 320 382
#     4  11  23  42  64  92 129 168 215 265 318 378
#     4  10  23  43  66  93 126 166 213 265 324 385
#     4  12  25  40  58  96 132 169 214 268 319 381
#     4  10  22  41  66  89 119 169 215 260 319 378
#
# _framework density 24.028226
#
# number of rings (size 3 to 8) (size 9 to 14) (size 15 to 20)
#    0.000    1.846    0.769    3.923    1.077    3.385 
#    5.538    8.462    0.000    0.000    0.000    0.000 
#    0.000    0.000    0.000    0.000    0.000    0.000 
#
# Total GULP energy -144863.923360 kJ/mol
# GULP energy per Si atom -5571.689360 kJ/mol
# Density = 2.397354 g / cm^3
# Si number density = 24.028226 Si / 1000 Ang^3
#
#
#
# Elastic Constant Matrix: (Units=GPa)
#
#
# Indices 1 2 3 4 5 6 
#
# 1 108.6045 -8.6769 49.2040 0.0000 5.1595 0.0000
# 2 -8.6769 135.6555 14.7991 0.0000 -0.7437 0.0000
# 3 49.2040 14.7991 47.5959 0.0000 3.7877 0.0000
# 4 0.0000 0.0000 0.0000 25.1743 0.0000 -27.3319
# 5 5.1595 -0.7437 3.7877 0.0000 43.6025 0.0000
# 6 0.0000 0.0000 0.0000 -27.3319 0.0000 22.1847
#
#
#
# Elastic Compliance Matrix: (Units=1/GPa)
#
#
# Indices 1 2 3 4 5 6 
#
# 1 0.018750 0.003425 -0.020417 0.000000 -0.000387 0.000000
# 2 0.003425 0.008261 -0.006130 0.000000 0.000268 0.000000
# 3 -0.020417 -0.006130 0.044145 0.000000 -0.001523 0.000000
# 4 0.000000 0.000000 0.000000 -0.117660 0.000000 -0.144959
# 5 -0.000387 0.000268 -0.001523 0.000000 0.023117 0.000000
# 6 0.000000 0.000000 0.000000 -0.144959 0.000000 -0.133516
#
#
# Mechanical properties :
#
#
# Convention : Reuss Voigt Hill
#
# Bulk Modulus (GPa) = 40.14540 44.72314 42.43427
# Shear Modulus (GPa) = -48.85040 33.96095 -7.44473
#
# Velocity S-wave (km/s) = -4.51382 3.76357 -1.76212
# Velocity P-wave (km/s) = 3.22834 6.12692 3.68218
#
# Compressibility (1/GPa) = 0.02490945
#
# Stress axis : x y z
#
# Youngs Moduli (GPa) = 53.33338 121.05227 22.65272
#
# Poissons Ratio (x) = -0.41455 0.46251
# Poissons Ratio (y) = -0.18264 0.13887
# Poissons Ratio (z) = 1.08893 0.74208
#
# Static dielectric constant tensor:
#      x y z
#    x 1.997610 0.000000 0.032910 
#    y 0.000000 1.909700 0.000000 
#    z 0.032910 0.000000 1.939100 
# 
# From -- ./inp_files/31520.got.cif
#   From: 2010.05.17/outbox.cif.g08.bks.cpg/sg10_16_cif.got.tgz:31520.got - 2010.06.03 11:33:40.
