data_PCOD9153618
_publ_section_title
;
Structure prediction by ZEFSAII (Michael W. Deem and Ramdas Pophale) SiO2 
 PCOD9153618
Probable space group: P 2/M
;
_chemical_formula_sum "Si O2"
_cell_formula_units_Z 32
_cell_length_a 8.038650
_cell_length_b 19.036786
_cell_length_c 12.699543
_cell_angle_alpha 90.000000
_cell_angle_beta 126.989512
_cell_angle_gamma 90.000000
_cell_volume 1552.291758
_symmetry_space_group_name_H-M "P 2/M"
_symmetry_group_IT_number 10
_symmetry_cell_setting 'monoclinic'
loop_
_space_group_symop_operation_xyz
x,y,z
-x,y,-z
-x,-y,-z
x,-y,z
loop_
_atom_site_type_symbol
_atom_site_label
_atom_site_fract_x
_atom_site_fract_y
_atom_site_fract_z
Si Si1 0.839657 0.921376 0.139864
Si Si2 0.119781 0.583781 0.945699
Si Si3 0.446331 0.582100 0.806029
Si Si4 0.651525 0.801324 0.365277
Si Si5 0.456417 0.920571 0.163284
Si Si6 0.593089 0.644330 0.418441
Si Si7 0.995849 0.643472 0.312361
Si Si8 0.971112 0.196445 0.661459
O O1 0.651085 0.920178 0.154428
O O2 0.988206 0.859796 0.233457
O O3 0.929679 0.000000 0.177530
O O4 0.741033 0.909602 0.987725
O O5 0.130615 0.500000 0.959678
O O6 0.361023 0.606408 0.048412
O O7 0.998955 0.601531 0.794058
O O8 0.000000 0.613737 0.000000
O O9 0.400326 0.500000 0.811152
O O10 0.502121 0.592191 0.704190
O O11 0.239672 0.628286 0.741277
O O12 0.492054 0.858938 0.260564
O O13 0.573151 0.722980 0.362446
O O14 0.833322 0.798580 0.345453
O O15 0.770984 0.824082 0.516665
O O16 0.448285 0.000000 0.204568
O O17 0.500000 0.641814 0.500000
O O18 0.835676 0.625862 0.534193
O O19 0.044224 0.724335 0.304209
#
# Coordination Sequence:
#
# PCOD9153618 Si02
#       8
#     4   4   4   4   4   4   4   4
#     4   8  14  25  41  69 105 134 167 216 271 322
#     4  10  22  40  59  82 114 146 179 224 273 326
#     4  11  23  39  60  85 109 141 184 226 275 331
#     4   9  17  31  47  69 103 135 176 219 269 321
#     4   8  14  25  43  68 101 136 172 215 264 319
#     4  11  23  38  56  79 110 147 184 230 281 330
#     4  11  21  37  57  81 113 143 186 231 274 327
#     4   9  17  29  47  72 102 138 173 221 269 317
#
# _framework density 20.614681999999998
#
# number of rings (size 3 to 8) (size 9 to 14) (size 15 to 20)
#    0.000    2.375    1.250    2.625    0.000    4.250 
#    4.500    2.500    0.000    0.375    0.000    0.000 
#    0.000    8.500    0.000    0.000    0.000    0.125 
#
# Total GULP energy -178477.426019 kJ/mol
# GULP energy per Si atom -5577.419563 kJ/mol
# Density = 2.056776 g / cm^3
# Si number density = 20.614682 Si / 1000 Ang^3
#
#
#
# Elastic Constant Matrix: (Units=GPa)
#
#
# Indices 1 2 3 4 5 6 
#
# 1 41.2797 5.6792 9.7147 0.0000 -4.7889 0.0000
# 2 5.6792 37.3712 33.0092 0.0000 10.9413 0.0000
# 3 9.7147 33.0092 65.7628 0.0000 9.6350 0.0000
# 4 0.0000 0.0000 0.0000 16.9912 0.0000 -3.3633
# 5 -4.7889 10.9413 9.6350 0.0000 19.6794 0.0000
# 6 0.0000 0.0000 0.0000 -3.3633 0.0000 8.1951
#
#
#
# Elastic Compliance Matrix: (Units=1/GPa)
#
#
# Indices 1 2 3 4 5 6 
#
# 1 0.026817 -0.004115 -0.003433 0.000000 0.010495 0.000000
# 2 -0.004115 0.053930 -0.023616 0.000000 -0.019423 0.000000
# 3 -0.003433 -0.023616 0.027757 0.000000 -0.001295 0.000000
# 4 0.000000 0.000000 0.000000 0.064058 0.000000 0.026290
# 5 0.010495 -0.019423 -0.001295 0.000000 0.064801 0.000000
# 6 0.000000 0.000000 0.000000 0.026290 0.000000 0.132813
#
#
# Mechanical properties :
#
#
# Convention : Reuss Voigt Hill
#
# Bulk Modulus (GPa) = 21.65708 26.80222 24.22965
# Shear Modulus (GPa) = 11.16327 15.37385 13.26856
#
# Velocity S-wave (km/s) = 2.32958 2.73385 2.53977
# Velocity P-wave (km/s) = 4.21478 4.79531 4.51439
#
# Compressibility (1/GPa) = 0.04617427
#
# Stress axis : x y z
#
# Youngs Moduli (GPa) = 37.29029 18.54244 36.02665
#
# Poissons Ratio (x) = 0.07630 0.12370
# Poissons Ratio (y) = 0.15345 0.85082
# Poissons Ratio (z) = 0.12803 0.43791
#
# Static dielectric constant tensor:
#      x y z
#    x 1.843490 0.000000 0.001590 
#    y 0.000000 1.702710 0.000000 
#    z 0.001590 0.000000 1.718200 
# 
# From -- ./inp_files/43640.got.cif
#   From: 2010.05.17/outbox.cif.g08.bks.cpg/sg10_22_cif.got.tgz:43640.got - 2010.06.03 11:33:40.
