data_PCOD9153339
_publ_section_title
;
Structure prediction by ZEFSAII (Michael W. Deem and Ramdas Pophale) SiO2 
 PCOD9153339
Probable space group: P 2/M
;
_chemical_formula_sum "Si O2"
_cell_formula_units_Z 21
_cell_length_a 17.468195
_cell_length_b 7.621488
_cell_length_c 9.219279
_cell_angle_alpha 90.000000
_cell_angle_beta 126.609120
_cell_angle_gamma 90.000000
_cell_volume 985.258588
_symmetry_space_group_name_H-M "P 2/M"
_symmetry_group_IT_number 10
_symmetry_cell_setting 'monoclinic'
loop_
_space_group_symop_operation_xyz
x,y,z
-x,y,-z
-x,-y,-z
x,-y,z
loop_
_atom_site_type_symbol
_atom_site_label
_atom_site_fract_x
_atom_site_fract_y
_atom_site_fract_z
Si Si1 0.283630 0.208710 0.099708
Si Si2 0.125806 0.500000 0.424299
Si Si3 0.000000 0.500000 0.000000
Si Si4 0.501494 0.209835 0.667103
Si Si5 0.195831 0.198170 0.700811
Si Si6 0.223186 0.500000 0.247105
Si Si7 0.400252 0.298683 0.824601
O O1 0.390150 0.245151 0.160927
O O2 0.266515 0.328234 0.220036
O O3 0.279147 0.000000 0.127970
O O4 0.210742 0.247382 0.886566
O O5 0.037322 0.500000 0.215268
O O6 0.134729 0.331978 0.537482
O O7 0.216656 0.500000 0.414556
O O8 0.111457 0.500000 0.078644
O O9 0.500000 0.269815 0.500000
O O10 0.422842 0.293712 0.679533
O O11 0.486250 0.000000 0.651953
O O12 0.303471 0.203523 0.757245
O O13 0.159380 0.000000 0.651337
O O14 0.391839 0.500000 0.865460
O O15 0.500000 0.222457 0.000000
#
# Coordination Sequence:
#
# PCOD9153339 Si02
#       7
#     4   2   1   4   4   2   4
#     4  10  22  39  61  92 124 164 208 254 311 359
#     4  10  23  45  65  95 118 154 207 252 317 392
#     4   8  24  48  68  98 120 152 194 246 342 386
#     4  10  22  35  50  78 119 165 212 254 295 342
#     4  11  22  38  63  92 129 171 211 258 304 363
#     4  10  23  43  69  86 120 155 188 259 316 383
#     4  11  22  34  54  85 124 172 219 253 295 342
#
# _framework density 21.314201000000001
#
# number of rings (size 3 to 8) (size 9 to 14) (size 15 to 20)
#    0.571    1.143    2.857    1.143    4.000    1.905 
#    0.000    3.810    0.000    2.286    0.000    0.000 
#    0.000    0.000    0.000    0.000    0.000    0.000 
#
# Total GULP energy -117008.663040 kJ/mol
# GULP energy per Si atom -5571.841097 kJ/mol
# Density = 2.126569 g / cm^3
# Si number density = 21.314201 Si / 1000 Ang^3
#
#
#
# Elastic Constant Matrix: (Units=GPa)
#
#
# Indices 1 2 3 4 5 6 
#
# 1 22.4133 -7.4273 -27.5684 0.0000 -3.4453 0.0000
# 2 -7.4273 82.6414 32.9499 0.0000 -9.7002 0.0000
# 3 -27.5684 32.9499 109.1101 0.0000 -1.0308 0.0000
# 4 0.0000 0.0000 0.0000 47.9821 0.0000 -20.4642
# 5 -3.4453 -9.7002 -1.0308 0.0000 40.7517 0.0000
# 6 0.0000 0.0000 0.0000 -20.4642 0.0000 6.3814
#
#
#
# Elastic Compliance Matrix: (Units=1/GPa)
#
#
# Indices 1 2 3 4 5 6 
#
# 1 0.066179 -0.000041 0.016790 0.000000 0.006010 0.000000
# 2 -0.000041 0.014179 -0.004261 0.000000 0.003264 0.000000
# 3 0.016790 -0.004261 0.014702 0.000000 0.000777 0.000000
# 4 0.000000 0.000000 0.000000 -0.056676 0.000000 -0.181754
# 5 0.006010 0.003264 0.000777 0.000000 0.025843 0.000000
# 6 0.000000 0.000000 0.000000 -0.181754 0.000000 -0.426156
#
#
# Mechanical properties :
#
#
# Convention : Reuss Voigt Hill
#
# Bulk Modulus (GPa) = 8.33093 23.34147 15.83620
# Shear Modulus (GPa) = -14.41363 33.43709 9.51173
#
# Velocity S-wave (km/s) = -2.60329 3.96507 2.11478
# Velocity P-wave (km/s) = 2.26254 5.65131 3.66184
#
# Compressibility (1/GPa) = 0.12003456
#
# Stress axis : x y z
#
# Youngs Moduli (GPa) = 15.11059 70.52714 68.01943
#
# Poissons Ratio (x) = 0.00291 -1.14207
# Poissons Ratio (y) = 0.00062 0.28986
# Poissons Ratio (z) = -0.25371 0.30055
#
# Static dielectric constant tensor:
#      x y z
#    x 1.760230 0.000000 -0.019230 
#    y 0.000000 1.749130 0.000000 
#    z -0.019230 0.000000 1.843360 
# 
# From -- ./inp_files/26982.got.cif
#   From: 2010.05.17/outbox.cif.g08.bks.cpg/sg10_14_cif.got.tgz:26982.got - 2010.06.03 11:33:40.
