data_PCOD9154367
_publ_section_title
;
Structure prediction by ZEFSAII (Michael W. Deem and Ramdas Pophale) SiO2 
 PCOD9154367
Probable space group: P 2/M
;
_chemical_formula_sum "Si O2"
_cell_formula_units_Z 32
_cell_length_a 16.421953
_cell_length_b 8.470283
_cell_length_c 22.132521
_cell_angle_alpha 90.000000
_cell_angle_beta 145.495501
_cell_angle_gamma 90.000000
_cell_volume 1743.938846
_symmetry_space_group_name_H-M "P 2/M"
_symmetry_group_IT_number 10
_symmetry_cell_setting 'monoclinic'
loop_
_space_group_symop_operation_xyz
x,y,z
-x,y,-z
-x,-y,-z
x,-y,z
loop_
_atom_site_type_symbol
_atom_site_label
_atom_site_fract_x
_atom_site_fract_y
_atom_site_fract_z
Si Si1 0.013672 0.811962 0.809445
Si Si2 0.860460 0.809220 0.597370
Si Si3 0.744127 0.318372 0.719227
Si Si4 0.877797 0.190210 0.470779
Si Si5 0.729506 0.687968 0.955604
Si Si6 0.170077 0.175145 0.108533
Si Si7 0.437613 0.689433 0.725496
Si Si8 0.542663 0.309486 0.402650
O O1 0.974924 0.761337 0.717777
O O2 0.870412 0.768716 0.760387
O O3 0.031171 0.000000 0.822835
O O4 0.159165 0.736556 0.924443
O O5 0.897301 0.755443 0.552088
O O6 0.702043 0.746007 0.516655
O O7 0.852977 0.000000 0.592929
O O8 0.741336 0.500000 0.697020
O O9 0.789594 0.303806 0.817209
O O10 0.580656 0.255027 0.625832
O O11 0.717096 0.239530 0.354627
O O12 0.000000 0.249333 0.500000
O O13 0.884553 0.000000 0.475341
O O14 0.741530 0.500000 0.954577
O O15 0.780609 0.776733 0.927073
O O16 0.559452 0.727067 0.849667
O O17 0.223969 0.000000 0.159354
O O18 0.000000 0.167100 0.000000
O O19 0.424733 0.500000 0.714740
O O20 0.479405 0.740652 0.681719
O O21 0.536450 0.500000 0.399609
#
# Coordination Sequence:
#
# PCOD9154367 Si02
#       8
#     4   4   4   4   4   4   4   4
#     4  11  23  36  48  70 103 140 183 217 256 309
#     4   9  20  37  54  74 104 137 166 210 263 312
#     4  11  21  33  49  70  99 138 183 226 266 298
#     4   9  18  35  61  89 108 127 161 203 254 315
#     4  11  21  34  52  73 102 139 179 218 259 302
#     4  11  21  31  46  71 100 134 180 228 268 303
#     4   9  18  33  52  79 109 133 164 209 260 306
#     4   9  18  33  51  72  99 132 175 222 261 303
#
# _framework density 18.349267000000001
#
# number of rings (size 3 to 8) (size 9 to 14) (size 15 to 20)
#    0.000    2.000    2.500    1.500    0.000    4.250 
#    0.000    2.500    0.000    0.750    0.000    5.250 
#    0.000    0.000    0.000    0.000    0.000    0.000 
#
# Total GULP energy -178378.271445 kJ/mol
# GULP energy per Si atom -5574.320983 kJ/mol
# Density = 1.830750 g / cm^3
# Si number density = 18.349267 Si / 1000 Ang^3
#
#
#
# Elastic Constant Matrix: (Units=GPa)
#
#
# Indices 1 2 3 4 5 6 
#
# 1 72.0176 10.6202 49.8563 0.0000 17.5385 0.0000
# 2 10.6202 18.3121 10.1739 0.0000 4.3310 0.0000
# 3 49.8563 10.1739 107.3643 0.0000 5.9068 0.0000
# 4 0.0000 0.0000 0.0000 28.3609 0.0000 8.7823
# 5 17.5385 4.3310 5.9068 0.0000 18.1927 0.0000
# 6 0.0000 0.0000 0.0000 8.7823 0.0000 9.1400
#
#
#
# Elastic Compliance Matrix: (Units=1/GPa)
#
#
# Indices 1 2 3 4 5 6 
#
# 1 0.027663 -0.004634 -0.011200 0.000000 -0.021928 0.000000
# 2 -0.004634 0.061192 -0.003147 0.000000 -0.009078 0.000000
# 3 -0.011200 -0.003147 0.014436 0.000000 0.006859 0.000000
# 4 0.000000 0.000000 0.000000 0.050195 0.000000 -0.048230
# 5 -0.021928 -0.009078 0.006859 0.000000 0.076041 0.000000
# 6 0.000000 0.000000 0.000000 -0.048230 0.000000 0.155752
#
#
# Mechanical properties :
#
#
# Convention : Reuss Voigt Hill
#
# Bulk Modulus (GPa) = 15.30754 37.66611 26.48682
# Shear Modulus (GPa) = 11.23554 19.60830 15.42192
#
# Velocity S-wave (km/s) = 2.47719 3.27251 2.90222
# Velocity P-wave (km/s) = 4.06723 5.90347 5.06919
#
# Compressibility (1/GPa) = 0.06532727
#
# Stress axis : x y z
#
# Youngs Moduli (GPa) = 36.14986 16.34208 69.27209
#
# Poissons Ratio (x) = 0.07573 0.77585
# Poissons Ratio (y) = 0.16753 0.21801
# Poissons Ratio (z) = 0.40488 0.05143
#
# Static dielectric constant tensor:
#      x y z
#    x 1.613680 0.000000 0.011950 
#    y 0.000000 1.641860 0.000000 
#    z 0.011950 0.000000 1.666040 
# 
# From -- ./inp_files/55228.got.cif
#   From: 2010.05.17/outbox.cif.g08.bks.cpg/sg10_28_cif.got.tgz:55228.got - 2010.06.03 11:33:40.
