data_PCOD9154133
_publ_section_title
;
Structure prediction by ZEFSAII (Michael W. Deem and Ramdas Pophale) SiO2 
 PCOD9154133
Probable space group: P 2/M
;
_chemical_formula_sum "Si O2"
_cell_formula_units_Z 13
_cell_length_a 5.145907
_cell_length_b 19.292620
_cell_length_c 5.177604
_cell_angle_alpha 90.000000
_cell_angle_beta 88.361384
_cell_angle_gamma 90.000000
_cell_volume 513.812117
_symmetry_space_group_name_H-M "P 2/M"
_symmetry_group_IT_number 10
_symmetry_cell_setting 'monoclinic'
loop_
_space_group_symop_operation_xyz
x,y,z
-x,y,-z
-x,-y,-z
x,-y,z
loop_
_atom_site_type_symbol
_atom_site_label
_atom_site_fract_x
_atom_site_fract_y
_atom_site_fract_z
Si Si1 0.320199 0.774510 0.257259
Si Si2 0.315961 0.382010 0.254195
Si Si3 0.247807 0.000000 0.683605
Si Si4 0.000000 0.500000 0.500000
Si Si5 0.000000 0.883510 0.000000
O O1 0.500000 0.784542 0.500000
O O2 0.209118 0.696427 0.262766
O O3 0.500000 0.777455 0.000000
O O4 0.110934 0.833645 0.217410
O O5 0.500000 0.391364 0.500000
O O6 0.098772 0.439232 0.295823
O O7 0.500000 0.391048 0.000000
O O8 0.500000 0.000000 0.500000
O O9 0.000000 0.000000 0.500000
O O10 0.215218 0.933499 0.868714
#
# Coordination Sequence:
#
# PCOD9154133 Si02
#       5
#     4   4   2   1   2
#     4  10  25  46  76 111 154 199 265 331 396 467
#     4  10  24  45  66 106 148 194 257 324 384 463
#     4  11  30  53  81 118 168 208 268 328 408 490
#     4  12  24  42  76  96 152 204 256 306 406 452
#     4  11  28  48  82 115 154 206 266 319 408 474
#
# _framework density 25.301082000000001
#
# number of rings (size 3 to 8) (size 9 to 14) (size 15 to 20)
#    0.000    1.538    0.000    0.923    8.615   11.077 
#    0.000    2.308    0.000    0.000    0.000    0.000 
#    0.000    0.000    0.000    0.000    0.000    0.000 
#
# Total GULP energy -72716.607064 kJ/mol
# GULP energy per Si atom -5593.585159 kJ/mol
# Density = 2.524350 g / cm^3
# Si number density = 25.301082 Si / 1000 Ang^3
#
#
#
# Elastic Constant Matrix: (Units=GPa)
#
#
# Indices 1 2 3 4 5 6 
#
# 1 96.5889 83.3192 67.1590 0.0000 -17.2953 0.0000
# 2 83.3192 242.6478 85.2564 0.0000 -9.1359 0.0000
# 3 67.1590 85.2564 219.1049 0.0000 -17.0624 0.0000
# 4 0.0000 0.0000 0.0000 71.9261 0.0000 21.8248
# 5 -17.2953 -9.1359 -17.0624 0.0000 60.5367 0.0000
# 6 0.0000 0.0000 0.0000 21.8248 0.0000 30.7690
#
#
#
# Elastic Compliance Matrix: (Units=1/GPa)
#
#
# Indices 1 2 3 4 5 6 
#
# 1 0.017182 -0.004651 -0.003199 0.000000 0.003305 0.000000
# 2 -0.004651 0.006035 -0.000977 0.000000 -0.000693 0.000000
# 3 -0.003199 -0.000977 0.005973 0.000000 0.000622 0.000000
# 4 0.000000 0.000000 0.000000 0.017716 0.000000 -0.012566
# 5 0.003305 -0.000693 0.000622 0.000000 0.017534 0.000000
# 6 0.000000 0.000000 0.000000 -0.012566 0.000000 0.041414
#
#
# Mechanical properties :
#
#
# Convention : Reuss Voigt Hill
#
# Bulk Modulus (GPa) = 86.68673 114.42341 100.55507
# Shear Modulus (GPa) = 39.26076 54.15350 46.70713
#
# Velocity S-wave (km/s) = 3.94349 4.63142 4.30123
# Velocity P-wave (km/s) = 7.42100 8.59785 8.03101
#
# Compressibility (1/GPa) = 0.01153579
#
# Stress axis : x y z
#
# Youngs Moduli (GPa) = 58.20167 165.68885 167.41597
#
# Poissons Ratio (x) = 0.77066 0.53560
# Poissons Ratio (y) = 0.27071 0.16353
# Poissons Ratio (z) = 0.18620 0.16184
#
# Static dielectric constant tensor:
#      x y z
#    x 2.041640 0.000000 0.040400 
#    y 0.000000 1.961790 0.000000 
#    z 0.040400 0.000000 1.971680 
# 
# From -- ./inp_files/762.got.cif
#   From: 2010.05.17/outbox.cif.g08.bks.cpg/sg10_1_cif.got.tgz:762.got - 2010.06.03 11:33:40.
