data_PCOD9154590
_publ_section_title
;
Structure prediction by ZEFSAII (Michael W. Deem and Ramdas Pophale) SiO2 
 PCOD9154590
Probable space group: P 2/M
;
_chemical_formula_sum "Si O2"
_cell_formula_units_Z 20
_cell_length_a 5.125824
_cell_length_b 7.482019
_cell_length_c 22.579440
_cell_angle_alpha 90.000000
_cell_angle_beta 96.469987
_cell_angle_gamma 90.000000
_cell_volume 860.440421
_symmetry_space_group_name_H-M "P 2/M"
_symmetry_group_IT_number 10
_symmetry_cell_setting 'monoclinic'
loop_
_space_group_symop_operation_xyz
x,y,z
-x,y,-z
-x,-y,-z
x,-y,z
loop_
_atom_site_type_symbol
_atom_site_label
_atom_site_fract_x
_atom_site_fract_y
_atom_site_fract_z
Si Si1 0.931825 0.717971 0.564418
Si Si2 0.714605 0.794751 0.169031
Si Si3 0.535050 0.718231 0.366777
Si Si4 0.773332 0.782526 0.037533
Si Si5 0.747683 0.703574 0.758271
O O1 0.930151 0.500000 0.563103
O O2 0.651764 0.770920 0.583435
O O3 0.000000 0.777581 0.500000
O O4 0.167477 0.774627 0.613928
O O5 0.777741 0.720353 0.105469
O O6 0.472566 0.704887 0.196311
O O7 0.982468 0.789787 0.213445
O O8 0.629477 0.000000 0.159447
O O9 0.541112 0.500000 0.364402
O O10 0.397218 0.780994 0.303116
O O11 0.796505 0.000000 0.040529
O O12 0.500000 0.738494 0.000000
O O13 0.000000 0.717057 0.000000
O O14 0.822174 0.500000 0.745469
#
# Coordination Sequence:
#
# PCOD9154590 Si02
#       5
#     4   4   4   4   4
#     4   9  15  24  40  64  96 131 168 214 264 309
#     4  11  22  37  59  85 110 139 184 233 268 313
#     4   9  17  28  43  66  98 137 173 206 258 323
#     4   9  17  31  53  79 104 133 173 222 272 317
#     4  11  22  37  56  79 114 153 182 215 270 335
#
# _framework density 23.243911000000001
#
# number of rings (size 3 to 8) (size 9 to 14) (size 15 to 20)
#    0.000    2.200    0.000    4.200    0.000    8.800 
#    0.000    0.000    0.000   12.000    0.000    0.000 
#    0.000   56.000    0.000    0.000    0.000    0.000 
#
# Total GULP energy -111830.043965 kJ/mol
# GULP energy per Si atom -5591.502198 kJ/mol
# Density = 2.319101 g / cm^3
# Si number density = 23.243911 Si / 1000 Ang^3
#
#
#
# Elastic Constant Matrix: (Units=GPa)
#
#
# Indices 1 2 3 4 5 6 
#
# 1 75.6244 -11.0558 -28.4932 0.0000 -3.4631 0.0000
# 2 -11.0558 64.2472 -5.7280 0.0000 0.0232 0.0000
# 3 -28.4932 -5.7280 56.6097 0.0000 -2.3928 0.0000
# 4 0.0000 0.0000 0.0000 15.1997 0.0000 0.1826
# 5 -3.4631 0.0232 -2.3928 0.0000 34.8298 0.0000
# 6 0.0000 0.0000 0.0000 0.1826 0.0000 -0.0679
#
#
#
# Elastic Compliance Matrix: (Units=1/GPa)
#
#
# Indices 1 2 3 4 5 6 
#
# 1 0.017364 0.003810 0.009225 0.000000 0.002358 0.000000
# 2 0.003810 0.016543 0.003617 0.000000 0.000616 0.000000
# 3 0.009225 0.003617 0.022779 0.000000 0.002480 0.000000
# 4 0.000000 0.000000 0.000000 0.063733 0.000000 0.171352
# 5 0.002358 0.000616 0.002480 0.000000 0.029115 0.000000
# 6 0.000000 0.000000 0.000000 0.171352 0.000000-14.266835
#
#
# Mechanical properties :
#
#
# Convention : Reuss Voigt Hill
#
# Bulk Modulus (GPa) = 11.11249 11.76969 11.44109
# Shear Modulus (GPa) = -0.35409 26.10955 12.87773
#
# Velocity S-wave (km/s) = -0.39073 3.35518 2.35633
# Velocity P-wave (km/s) = 2.14188 4.48154 3.51225
#
# Compressibility (1/GPa) = 0.08998886
#
# Stress axis : x y z
#
# Youngs Moduli (GPa) = 57.59104 60.44950 43.90060
#
# Poissons Ratio (x) = -0.23029 -0.40497
# Poissons Ratio (y) = -0.21940 -0.15881
# Poissons Ratio (z) = -0.53127 -0.21867
#
# Static dielectric constant tensor:
#      x y z
#    x 1.777440 0.000000 -0.013490 
#    y 0.000000 1.890830 0.000000 
#    z -0.013490 0.000000 1.859680 
# 
# From -- ./inp_files/11961.got.cif
#   From: 2010.05.17/outbox.cif.g08.bks.cpg/sg10_6_cif.got.tgz:11961.got - 2010.06.03 11:33:40.
