data_PCOD9154214
_publ_section_title
;
Structure prediction by ZEFSAII (Michael W. Deem and Ramdas Pophale) SiO2 
 PCOD9154214
Probable space group: P 2/M
;
_chemical_formula_sum "Si O2"
_cell_formula_units_Z 28
_cell_length_a 13.925474
_cell_length_b 8.945068
_cell_length_c 15.066897
_cell_angle_alpha 90.000000
_cell_angle_beta 102.989422
_cell_angle_gamma 90.000000
_cell_volume 1828.773368
_symmetry_space_group_name_H-M "P 2/M"
_symmetry_group_IT_number 10
_symmetry_cell_setting 'monoclinic'
loop_
_space_group_symop_operation_xyz
x,y,z
-x,y,-z
-x,-y,-z
x,-y,z
loop_
_atom_site_type_symbol
_atom_site_label
_atom_site_fract_x
_atom_site_fract_y
_atom_site_fract_z
Si Si1 0.754404 0.674824 0.216699
Si Si2 0.068178 0.325434 0.888484
Si Si3 0.911313 0.818215 0.599515
Si Si4 0.135822 0.820049 0.604857
Si Si5 0.387664 0.317313 0.964898
Si Si6 0.777913 0.320354 0.930145
Si Si7 0.131972 0.178220 0.214361
O O1 0.738562 0.500000 0.232518
O O2 0.848881 0.685194 0.170761
O O3 0.782214 0.757735 0.312410
O O4 0.663477 0.731261 0.137873
O O5 0.037633 0.500000 0.888973
O O6 0.975421 0.226627 0.843898
O O7 0.125398 0.283339 0.990423
O O8 0.859392 0.771479 0.497094
O O9 0.864749 0.768588 0.682595
O O10 0.026549 0.773637 0.616446
O O11 0.911284 0.000000 0.599918
O O12 0.138299 0.000000 0.607529
O O13 0.385614 0.500000 0.963129
O O14 0.500000 0.269238 0.000000
O O15 0.316538 0.272309 0.031485
O O16 0.775250 0.500000 0.922786
O O17 0.789898 0.249312 0.836562
O O18 0.140703 0.000000 0.214671
#
# Coordination Sequence:
#
# PCOD9154214 Si02
#       7
#     4   4   4   4   4   4   4
#     4   9  16  26  43  67  88 106 138 181 215 244
#     4   9  17  28  39  55  85 118 141 166 203 246
#     4   8  16  27  40  57  81 116 152 177 199 242
#     4   9  15  28  44  57  80 116 150 175 206 249
#     4   8  15  30  50  67  84 110 141 171 210 263
#     4   9  18  30  43  60  83 111 141 171 207 252
#     4  11  19  27  40  60  84 113 147 176 201 237
#
# _framework density 15.310808
#
# number of rings (size 3 to 8) (size 9 to 14) (size 15 to 20)
#    0.000    3.000    1.429    3.429    0.000    2.286 
#    0.000    5.000    0.000    1.714    0.000    1.000 
#    0.000    8.000    0.000    0.000    0.000    0.000 
#
# Total GULP energy -155923.824110 kJ/mol
# GULP energy per Si atom -5568.708004 kJ/mol
# Density = 1.527596 g / cm^3
# Si number density = 15.310808 Si / 1000 Ang^3
#
#
#
# Elastic Constant Matrix: (Units=GPa)
#
#
# Indices 1 2 3 4 5 6 
#
# 1 67.0481 15.2428 60.8933 0.0000 7.5152 0.0000
# 2 15.2428 10.7551 29.7060 0.0000 0.1135 0.0000
# 3 60.8933 29.7060 157.8244 0.0000 -5.3890 0.0000
# 4 0.0000 0.0000 0.0000 24.9363 0.0000 -3.9124
# 5 7.5152 0.1135 -5.3890 0.0000 18.3285 0.0000
# 6 0.0000 0.0000 0.0000 -3.9124 0.0000 20.7547
#
#
#
# Elastic Compliance Matrix: (Units=1/GPa)
#
#
# Indices 1 2 3 4 5 6 
#
# 1 0.027406 -0.017136 -0.007807 0.000000 -0.013426 0.000000
# 2 -0.017136 0.207039 -0.032488 0.000000 -0.003808 0.000000
# 3 -0.007807 -0.032488 0.015737 0.000000 0.008029 0.000000
# 4 0.000000 0.000000 0.000000 0.041324 0.000000 0.007790
# 5 -0.013426 -0.003808 0.008029 0.000000 0.062449 0.000000
# 6 0.000000 0.000000 0.000000 0.007790 0.000000 0.049650
#
#
# Mechanical properties :
#
#
# Convention : Reuss Voigt Hill
#
# Bulk Modulus (GPa) = 7.38986 49.70130 28.54558
# Shear Modulus (GPa) = 8.87193 21.45627 15.16410
#
# Velocity S-wave (km/s) = 2.40980 3.74756 3.15051
# Velocity P-wave (km/s) = 3.54681 7.15945 5.64967
#
# Compressibility (1/GPa) = 0.13532056
#
# Stress axis : x y z
#
# Youngs Moduli (GPa) = 36.48883 4.83000 63.54289
#
# Poissons Ratio (x) = 0.08277 0.49608
# Poissons Ratio (y) = 0.62528 2.06437
# Poissons Ratio (z) = 0.28487 0.15692
#
# Static dielectric constant tensor:
#      x y z
#    x 1.497150 0.000000 -0.012520 
#    y 0.000000 1.516850 0.000000 
#    z -0.012520 0.000000 1.535240 
# 
# From -- ./inp_files/65743.got.cif
#   From: 2010.05.17/outbox.cif.g08.bks.cpg/sg10_33_cif.got.tgz:65743.got - 2010.06.03 11:33:40.
