data_PCOD9154791
_publ_section_title
;
Structure prediction by ZEFSAII (Michael W. Deem and Ramdas Pophale) SiO2 
 PCOD9154791
Probable space group: P 2/M
;
_chemical_formula_sum "Si O2"
_cell_formula_units_Z 16
_cell_length_a 8.345824
_cell_length_b 16.912288
_cell_length_c 8.401322
_cell_angle_alpha 90.000000
_cell_angle_beta 33.051919
_cell_angle_gamma 90.000000
_cell_volume 646.745446
_symmetry_space_group_name_H-M "P 2/M"
_symmetry_group_IT_number 10
_symmetry_cell_setting 'monoclinic'
loop_
_space_group_symop_operation_xyz
x,y,z
-x,y,-z
-x,-y,-z
x,-y,z
loop_
_atom_site_type_symbol
_atom_site_label
_atom_site_fract_x
_atom_site_fract_y
_atom_site_fract_z
Si Si1 0.637391 0.334437 0.049313
Si Si2 0.764877 0.412533 0.405454
Si Si3 0.050485 0.822627 0.138004
Si Si4 0.579361 0.910151 0.747041
O O1 0.353335 0.338886 0.396185
O O2 0.500000 0.364771 0.000000
O O3 0.896128 0.389954 0.905787
O O4 0.766691 0.247324 0.930219
O O5 0.500000 0.418181 0.500000
O O6 0.770600 0.500000 0.477730
O O7 0.798503 0.852954 0.467238
O O8 0.000000 0.790686 0.000000
O O9 0.264897 0.896634 0.928566
O O10 0.688183 0.000000 0.645252
O O11 0.500000 0.895514 0.000000
#
# Coordination Sequence:
#
# PCOD9154791 Si02
#       4
#     4   4   4   4
#     4  12  26  44  68 100 139 181 231 289 349 417
#     4  11  24  44  70 100 137 181 229 284 350 421
#     4  12  25  43  69 100 138 183 234 291 351 419
#     4  11  25  45  69  99 137 181 231 290 355 421
#
# _framework density 24.739253999999999
#
# number of rings (size 3 to 8) (size 9 to 14) (size 15 to 20)
#    0.000    0.500    0.000    8.250    0.000   12.000 
#    0.000    0.000    0.000    0.000    0.000    0.000 
#    0.000    0.000    0.000    0.000    0.000    0.000 
#
# Total GULP energy -89218.353533 kJ/mol
# GULP energy per Si atom -5576.147096 kJ/mol
# Density = 2.468295 g / cm^3
# Si number density = 24.739254 Si / 1000 Ang^3
#
#
#
# Elastic Constant Matrix: (Units=GPa)
#
#
# Indices 1 2 3 4 5 6 
#
# 1 85.3376 9.8026 14.9110 0.0000 -15.4732 0.0000
# 2 9.8026 117.8675 48.6022 0.0000 -1.4057 0.0000
# 3 14.9110 48.6022 184.6194 0.0000 -2.4328 0.0000
# 4 0.0000 0.0000 0.0000 30.8298 0.0000 -1.5424
# 5 -15.4732 -1.4057 -2.4328 0.0000 28.7020 0.0000
# 6 0.0000 0.0000 0.0000 -1.5424 0.0000 18.5607
#
#
#
# Elastic Compliance Matrix: (Units=1/GPa)
#
#
# Indices 1 2 3 4 5 6 
#
# 1 0.013209 -0.000688 -0.000793 0.000000 0.007020 0.000000
# 2 -0.000688 0.009555 -0.002461 0.000000 -0.000111 0.000000
# 3 -0.000793 -0.002461 0.006128 0.000000 -0.000029 0.000000
# 4 0.000000 0.000000 0.000000 0.032572 0.000000 0.002707
# 5 0.007020 -0.000111 -0.000029 0.000000 0.038617 0.000000
# 6 0.000000 0.000000 0.000000 0.002707 0.000000 0.054102
#
#
# Mechanical properties :
#
#
# Convention : Reuss Voigt Hill
#
# Bulk Modulus (GPa) = 47.60290 59.38401 53.49345
# Shear Modulus (GPa) = 29.57364 36.58574 33.07969
#
# Velocity S-wave (km/s) = 3.46123 3.84976 3.66065
# Velocity P-wave (km/s) = 5.93777 6.61944 6.28785
#
# Compressibility (1/GPa) = 0.02100712
#
# Stress axis : x y z
#
# Youngs Moduli (GPa) = 75.70839 104.65859 163.18023
#
# Poissons Ratio (x) = 0.07197 0.12945
# Poissons Ratio (y) = 0.05206 0.40164
# Poissons Ratio (z) = 0.06006 0.25760
#
# Static dielectric constant tensor:
#      x y z
#    x 2.145020 0.000000 0.119740 
#    y 0.000000 1.949980 0.000000 
#    z 0.119740 0.000000 2.028100 
# 
# From -- ./inp_files/14344.got.cif
#   From: 2010.05.17/outbox.cif.g08.bks.cpg/sg10_8_cif.got.tgz:14344.got - 2010.06.03 11:33:40.
