data_PCOD9154494
_publ_section_title
;
Structure prediction by ZEFSAII (Michael W. Deem and Ramdas Pophale) SiO2 
 PCOD9154494
Probable space group: P 2/M
;
_chemical_formula_sum "Si O2"
_cell_formula_units_Z 25
_cell_length_a 15.596741
_cell_length_b 11.984392
_cell_length_c 20.687874
_cell_angle_alpha 90.000000
_cell_angle_beta 160.864205
_cell_angle_gamma 90.000000
_cell_volume 1267.609599
_symmetry_space_group_name_H-M "P 2/M"
_symmetry_group_IT_number 10
_symmetry_cell_setting 'monoclinic'
loop_
_space_group_symop_operation_xyz
x,y,z
-x,y,-z
-x,-y,-z
x,-y,z
loop_
_atom_site_type_symbol
_atom_site_label
_atom_site_fract_x
_atom_site_fract_y
_atom_site_fract_z
Si Si1 0.595442 0.264734 0.397763
Si Si2 0.486963 0.869527 0.096357
Si Si3 0.804729 0.264741 0.002408
Si Si4 0.000054 0.500000 0.155972
Si Si5 0.000000 0.500000 0.000000
Si Si6 0.208324 0.869725 0.208322
Si Si7 0.924567 0.869532 0.315173
Si Si8 0.623708 0.500000 0.467822
O O1 0.460502 0.197355 0.361208
O O2 0.716302 0.382635 0.504394
O O3 0.813868 0.192863 0.517639
O O4 0.360422 0.285086 0.180211
O O5 0.759741 0.828175 0.259746
O O6 0.520238 0.000000 0.135730
O O7 0.370990 0.807166 0.074780
O O8 0.272794 0.862362 0.886391
O O9 0.868635 0.382629 0.080563
O O10 0.063334 0.197361 0.162623
O O11 0.279525 0.500000 0.389748
O O12 0.985373 0.500000 0.068581
O O13 0.681804 0.500000 0.764977
O O14 0.262906 0.000000 0.262918
O O15 0.000000 0.870995 0.000000
O O16 0.982243 0.000000 0.366753
#
# Coordination Sequence:
#
# PCOD9154494 Si02
#       8
#     4   4   4   2   1   4   4   2
#     4  11  21  37  61  87 125 159 207 263 306 373
#     4   9  19  37  60  87 122 164 210 260 314 373
#     4  11  21  37  61  87 125 159 207 263 306 373
#     4  12  25  41  64  89 124 169 211 259 316 372
#     4  12  22  44  60  90 120 156 218 256 296 362
#     4   9  19  33  53  83 119 158 190 238 312 367
#     4   9  19  37  60  87 122 164 210 260 314 373
#     4  12  25  41  64  89 124 169 211 259 316 372
#
# _framework density 19.722159999999999
#
# number of rings (size 3 to 8) (size 9 to 14) (size 15 to 20)
#    0.000    1.760    1.600    4.080    2.240    2.560 
#    0.000    4.800    0.000   10.560    0.000    0.000 
#    0.000    0.000    0.000    0.000    0.000    0.000 
#
# Total GULP energy -139245.249868 kJ/mol
# GULP energy per Si atom -5569.809995 kJ/mol
# Density = 1.967727 g / cm^3
# Si number density = 19.722160 Si / 1000 Ang^3
#
#
#
# Elastic Constant Matrix: (Units=GPa)
#
#
# Indices 1 2 3 4 5 6 
#
# 1 115.9831 58.2408 31.8453 0.0000 23.1935 0.0000
# 2 58.2408 131.0775 36.5010 0.0000 27.2913 0.0000
# 3 31.8453 36.5010 88.5222 0.0000 11.2406 0.0000
# 4 0.0000 0.0000 0.0000 46.0697 0.0000 45.9841
# 5 23.1935 27.2913 11.2406 0.0000 47.8081 0.0000
# 6 0.0000 0.0000 0.0000 45.9841 0.0000 82.6939
#
#
#
# Elastic Compliance Matrix: (Units=1/GPa)
#
#
# Indices 1 2 3 4 5 6 
#
# 1 0.011843 -0.004034 -0.002226 0.000000 -0.002919 0.000000
# 2 -0.004034 0.010902 -0.002579 0.000000 -0.003660 0.000000
# 3 -0.002226 -0.002579 0.013232 0.000000 -0.000559 0.000000
# 4 0.000000 0.000000 0.000000 0.048783 0.000000 -0.027127
# 5 -0.002919 -0.003660 -0.000559 0.000000 0.024554 0.000000
# 6 0.000000 0.000000 0.000000 -0.027127 0.000000 0.027177
#
#
# Mechanical properties :
#
#
# Convention : Reuss Voigt Hill
#
# Bulk Modulus (GPa) = 54.65370 65.41743 60.03557
# Shear Modulus (GPa) = 31.19762 49.24741 40.22252
#
# Velocity S-wave (km/s) = 3.98157 5.00248 4.52094
# Velocity P-wave (km/s) = 6.99351 8.16137 7.59990
#
# Compressibility (1/GPa) = 0.01829702
#
# Stress axis : x y z
#
# Youngs Moduli (GPa) = 84.44005 91.72771 75.57492
#
# Poissons Ratio (x) = 0.37006 0.16824
# Poissons Ratio (y) = 0.34066 0.19492
# Poissons Ratio (z) = 0.18798 0.23658
#
# Static dielectric constant tensor:
#      x y z
#    x 1.683420 0.000000 -0.023310 
#    y 0.000000 1.801830 0.000000 
#    z -0.023310 0.000000 1.702070 
# 
# From -- ./inp_files/85262.got.cif
#   From: 2010.05.17/outbox.cif.g08.bks.cpg/sg10_43_cif.got.tgz:85262.got - 2010.06.03 11:33:40.
