data_PCOD9154542
_publ_section_title
;
Structure prediction by ZEFSAII (Michael W. Deem and Ramdas Pophale) SiO2 
 PCOD9154542
Probable space group: P 2/M
;
_chemical_formula_sum "Si O2"
_cell_formula_units_Z 18
_cell_length_a 8.758644
_cell_length_b 10.042910
_cell_length_c 12.083264
_cell_angle_alpha 90.000000
_cell_angle_beta 54.519649
_cell_angle_gamma 90.000000
_cell_volume 865.511694
_symmetry_space_group_name_H-M "P 2/M"
_symmetry_group_IT_number 10
_symmetry_cell_setting 'monoclinic'
loop_
_space_group_symop_operation_xyz
x,y,z
-x,y,-z
-x,-y,-z
x,-y,z
loop_
_atom_site_type_symbol
_atom_site_label
_atom_site_fract_x
_atom_site_fract_y
_atom_site_fract_z
Si Si1 0.439743 0.000000 0.286082
Si Si2 0.824112 0.000000 0.994331
Si Si3 0.556459 0.736686 0.349322
Si Si4 0.803139 0.500000 0.862839
Si Si5 0.986904 0.223938 0.218058
Si Si6 0.050846 0.000000 0.353575
Si Si7 0.480116 0.500000 0.812649
O O1 0.444987 0.130896 0.360131
O O2 0.275898 0.000000 0.264233
O O3 0.631693 0.000000 0.137557
O O4 0.859816 0.135324 0.911851
O O5 0.000000 0.000000 0.000000
O O6 0.500000 0.699065 0.500000
O O7 0.780097 0.767118 0.252982
O O8 0.520001 0.625481 0.270977
O O9 0.655281 0.500000 0.823775
O O10 0.931033 0.369440 0.800515
O O11 0.695654 0.500000 0.027217
O O12 0.969308 0.132266 0.333130
O O13 0.000000 0.000000 0.500000
#
# Coordination Sequence:
#
# PCOD9154542 Si02
#       7
#     2   2   4   2   4   2   2
#     4  12  22  38  70  93 131 172 210 270 322 377
#     4  11  21  41  64 100 128 158 215 270 324 374
#     4  12  24  42  65  95 127 171 217 263 320 390
#     4  11  25  44  65  94 126 169 214 269 334 380
#     4  11  24  41  66  95 131 167 217 268 322 385
#     4  11  24  44  64  97 137 175 213 261 322 390
#     4  11  26  44  64  92 130 167 218 266 325 393
#
# _framework density 20.796945000000001
#
# number of rings (size 3 to 8) (size 9 to 14) (size 15 to 20)
#    0.000    0.667    2.222    6.000    0.000    4.444 
#    0.000    1.667    0.000    0.000    0.000    0.000 
#    0.000    0.000    0.000    0.000    0.000    0.000 
#
# Total GULP energy -100583.875859 kJ/mol
# GULP energy per Si atom -5587.993103 kJ/mol
# Density = 2.074961 g / cm^3
# Si number density = 20.796945 Si / 1000 Ang^3
#
#
#
# Elastic Constant Matrix: (Units=GPa)
#
#
# Indices 1 2 3 4 5 6 
#
# 1 105.6062 58.0025 12.4698 0.0000 3.7978 0.0000
# 2 58.0025 197.6579 40.2394 0.0000 24.8957 0.0000
# 3 12.4698 40.2394 104.9484 0.0000 15.2839 0.0000
# 4 0.0000 0.0000 0.0000 61.0643 0.0000 15.8448
# 5 3.7978 24.8957 15.2839 0.0000 42.3198 0.0000
# 6 0.0000 0.0000 0.0000 15.8448 0.0000 35.8941
#
#
#
# Elastic Compliance Matrix: (Units=1/GPa)
#
#
# Indices 1 2 3 4 5 6 
#
# 1 0.011332 -0.003421 -0.000190 0.000000 0.001064 0.000000
# 2 -0.003421 0.006807 -0.001757 0.000000 -0.003062 0.000000
# 3 -0.000190 -0.001757 0.010631 0.000000 -0.002789 0.000000
# 4 0.000000 0.000000 0.000000 0.018495 0.000000 -0.008164
# 5 0.001064 -0.003062 -0.002789 0.000000 0.026343 0.000000
# 6 0.000000 0.000000 0.000000 -0.008164 0.000000 0.031464
#
#
# Mechanical properties :
#
#
# Convention : Reuss Voigt Hill
#
# Bulk Modulus (GPa) = 55.45147 69.95955 62.70551
# Shear Modulus (GPa) = 41.04498 47.68904 44.36701
#
# Velocity S-wave (km/s) = 4.44735 4.79381 4.62382
# Velocity P-wave (km/s) = 7.28650 8.02204 7.66310
#
# Compressibility (1/GPa) = 0.01803379
#
# Stress axis : x y z
#
# Youngs Moduli (GPa) = 88.24499 146.91725 94.06495
#
# Poissons Ratio (x) = 0.50257 0.01786
# Poissons Ratio (y) = 0.30186 0.16530
# Poissons Ratio (z) = 0.01675 0.25818
#
# Static dielectric constant tensor:
#      x y z
#    x 1.715030 0.000000 0.027790 
#    y 0.000000 1.740550 0.000000 
#    z 0.027790 0.000000 1.775250 
# 
# From -- ./inp_files/40719.got.cif
#   From: 2010.05.17/outbox.cif.g08.bks.cpg/sg10_21_cif.got.tgz:40719.got - 2010.06.03 11:33:40.
