data_PCOD9154256
_publ_section_title
;
Structure prediction by ZEFSAII (Michael W. Deem and Ramdas Pophale) SiO2 
 PCOD9154256
Probable space group: P 2/M
;
_chemical_formula_sum "Si O2"
_cell_formula_units_Z 28
_cell_length_a 20.349974
_cell_length_b 8.014241
_cell_length_c 22.785284
_cell_angle_alpha 90.000000
_cell_angle_beta 154.474506
_cell_angle_gamma 90.000000
_cell_volume 1601.289884
_symmetry_space_group_name_H-M "P 2/M"
_symmetry_group_IT_number 10
_symmetry_cell_setting 'monoclinic'
loop_
_space_group_symop_operation_xyz
x,y,z
-x,y,-z
-x,-y,-z
x,-y,z
loop_
_atom_site_type_symbol
_atom_site_label
_atom_site_fract_x
_atom_site_fract_y
_atom_site_fract_z
Si Si1 0.679261 0.682529 0.843422
Si Si2 0.922529 0.703412 0.348320
Si Si3 0.763272 0.701972 0.336603
Si Si4 0.241311 0.000000 0.161490
Si Si5 0.985873 0.691438 0.824948
Si Si6 0.544262 0.192602 0.849045
Si Si7 0.900545 0.000000 0.828870
Si Si8 0.850794 0.701668 0.159727
O O1 0.660425 0.500000 0.801047
O O2 0.676173 0.834777 0.795933
O O3 0.563589 0.705492 0.804363
O O4 0.846889 0.687856 0.009188
O O5 0.920968 0.500000 0.346196
O O6 0.801096 0.754400 0.300285
O O7 0.888418 0.761595 0.255298
O O8 0.089407 0.751881 0.506219
O O9 0.754820 0.500000 0.330381
O O10 0.609517 0.770524 0.240109
O O11 0.213954 0.000000 0.208814
O O12 0.071734 0.000000 0.995162
O O13 0.927644 0.500000 0.780288
O O14 0.022792 0.742326 0.787651
O O15 0.891566 0.832807 0.782525
O O16 0.553274 0.000000 0.839351
O O17 0.689042 0.233239 0.006550
O O18 0.841465 0.500000 0.152779
#
# Coordination Sequence:
#
# PCOD9154256 Si02
#       8
#     4   4   4   2   4   4   2   4
#     4   9  16  28  43  61  89 123 158 198 239 278
#     4   8  16  32  52  70  91 120 160 205 247 294
#     4   9  17  32  52  70  90 123 160 200 252 295
#     4   9  16  26  38  64  88 125 156 192 227 289
#     4   8  15  25  40  61  88 121 156 193 235 280
#     4  11  20  30  45  67  96 128 163 203 241 286
#     4   9  16  24  40  58  94 123 156 186 233 281
#     4   9  17  30  48  69  91 122 163 204 242 285
#
# _framework density 17.485901999999999
#
# number of rings (size 3 to 8) (size 9 to 14) (size 15 to 20)
#    0.000    3.000    0.714    3.000    3.000    1.143 
#    0.000    8.571    0.000    0.000    0.000    0.000 
#    0.000    2.286    0.000    8.571    0.000    7.714 
#
# Total GULP energy -155996.279902 kJ/mol
# GULP energy per Si atom -5571.295711 kJ/mol
# Density = 1.744610 g / cm^3
# Si number density = 17.485902 Si / 1000 Ang^3
#
#
#
# Elastic Constant Matrix: (Units=GPa)
#
#
# Indices 1 2 3 4 5 6 
#
# 1 154.5553 67.6525 41.8153 0.0000 -4.4575 0.0000
# 2 67.6525 83.6507 18.4322 0.0000 -4.2250 0.0000
# 3 41.8153 18.4322 21.5304 0.0000 -1.5853 0.0000
# 4 0.0000 0.0000 0.0000 -4.0377 0.0000 0.2997
# 5 -4.4575 -4.2250 -1.5853 0.0000 -5.9939 0.0000
# 6 0.0000 0.0000 0.0000 0.2997 0.0000 24.9911
#
#
#
# Elastic Compliance Matrix: (Units=1/GPa)
#
#
# Indices 1 2 3 4 5 6 
#
# 1 0.017125 -0.008041 -0.026382 0.000000 -0.000090 0.000000
# 2 -0.008041 0.018223 -0.000480 0.000000 -0.006738 0.000000
# 3 -0.026382 -0.000480 0.097662 0.000000 -0.005872 0.000000
# 4 0.000000 0.000000 0.000000 -0.247442 0.000000 0.002967
# 5 -0.000090 -0.006738 -0.005872 0.000000 -0.160467 0.000000
# 6 0.000000 0.000000 0.000000 0.002967 0.000000 0.039979
#
#
# Mechanical properties :
#
#
# Convention : Reuss Voigt Hill
#
# Bulk Modulus (GPa) = 15.82166 57.28182 36.55174
# Shear Modulus (GPa) = -34.71117 11.78098 -11.46510
#
# Velocity S-wave (km/s) = -4.46027 2.59847 -2.56340
# Velocity P-wave (km/s) = 4.17822 6.46782 3.49107
#
# Compressibility (1/GPa) = 0.06320448
#
# Stress axis : x y z
#
# Youngs Moduli (GPa) = 58.39337 54.87494 10.23938
#
# Poissons Ratio (x) = 0.44127 0.27014
# Poissons Ratio (y) = 0.46956 0.00491
# Poissons Ratio (z) = 1.54054 0.02632
#
# Static dielectric constant tensor:
#      x y z
#    x 1.596820 0.000000 -0.007500 
#    y 0.000000 1.620500 0.000000 
#    z -0.007500 0.000000 1.556060 
# 
# From -- ./inp_files/85676.got.cif
#   From: 2010.05.17/outbox.cif.g08.bks.cpg/sg10_43_cif.got.tgz:85676.got - 2010.06.03 11:33:40.
