data_PCOD9154761
_publ_section_title
;
Structure prediction by ZEFSAII (Michael W. Deem and Ramdas Pophale) SiO2 
 PCOD9154761
Probable space group: P 2/M
;
_chemical_formula_sum "Si O2"
_cell_formula_units_Z 24
_cell_length_a 9.766147
_cell_length_b 14.050859
_cell_length_c 14.795939
_cell_angle_alpha 90.000000
_cell_angle_beta 141.565260
_cell_angle_gamma 90.000000
_cell_volume 1262.105411
_symmetry_space_group_name_H-M "P 2/M"
_symmetry_group_IT_number 10
_symmetry_cell_setting 'monoclinic'
loop_
_space_group_symop_operation_xyz
x,y,z
-x,y,-z
-x,-y,-z
x,-y,z
loop_
_atom_site_type_symbol
_atom_site_label
_atom_site_fract_x
_atom_site_fract_y
_atom_site_fract_z
Si Si1 0.928173 0.113185 0.563891
Si Si2 0.040210 0.889609 0.127433
Si Si3 0.649515 0.610265 0.364266
Si Si4 0.485587 0.224560 0.388575
Si Si5 0.760662 0.792830 0.130059
Si Si6 0.123412 0.609954 0.707704
O O1 0.704211 0.165238 0.476580
O O2 0.000000 0.141731 0.500000
O O3 0.118503 0.144628 0.730783
O O4 0.896708 0.000000 0.549768
O O5 0.274363 0.842249 0.269721
O O6 0.856430 0.830334 0.085628
O O7 0.036854 0.000000 0.155567
O O8 0.000000 0.887133 0.000000
O O9 0.580159 0.500000 0.334605
O O10 0.482560 0.685470 0.320044
O O11 0.716585 0.630087 0.295177
O O12 0.876424 0.619700 0.539709
O O13 0.500000 0.256978 0.500000
O O14 0.830452 0.685014 0.190297
O O15 0.500000 0.802104 0.000000
O O16 0.153405 0.500000 0.749941
#
# Coordination Sequence:
#
# PCOD9154761 Si02
#       6
#     4   4   4   4   4   4
#     4  11  24  40  63  94 122 160 215 267 312 366
#     4  11  27  46  62  87 127 174 212 252 317 379
#     4   9  18  34  64  97 125 158 205 259 312 371
#     4  12  22  39  66  91 126 164 205 264 313 371
#     4  12  25  41  65  94 126 167 208 266 312 376
#     4   9  18  37  63  94 126 159 205 259 314 370
#
# _framework density 19.015844999999999
#
# number of rings (size 3 to 8) (size 9 to 14) (size 15 to 20)
#    0.000    1.333    3.333    3.000    4.667    2.667 
#    0.000    0.833    0.000    1.000    0.000    0.000 
#    0.000    0.000    0.000    0.000    0.000    0.000 
#
# Total GULP energy -134169.583636 kJ/mol
# GULP energy per Si atom -5590.399318 kJ/mol
# Density = 1.897256 g / cm^3
# Si number density = 19.015845 Si / 1000 Ang^3
#
#
#
# Elastic Constant Matrix: (Units=GPa)
#
#
# Indices 1 2 3 4 5 6 
#
# 1 100.2978 64.9419 17.5143 0.0000 0.6039 0.0000
# 2 64.9419 130.3929 16.6292 0.0000 0.8624 0.0000
# 3 17.5143 16.6292 41.9551 0.0000 9.2711 0.0000
# 4 0.0000 0.0000 0.0000 7.7156 0.0000 -7.7450
# 5 0.6039 0.8624 9.2711 0.0000 26.6041 0.0000
# 6 0.0000 0.0000 0.0000 -7.7450 0.0000 -8.3990
#
#
#
# Elastic Compliance Matrix: (Units=1/GPa)
#
#
# Indices 1 2 3 4 5 6 
#
# 1 0.015230 -0.007108 -0.003809 0.000000 0.001212 0.000000
# 2 -0.007108 0.011416 -0.001637 0.000000 0.000362 0.000000
# 3 -0.003809 -0.001637 0.028216 0.000000 -0.009693 0.000000
# 4 0.000000 0.000000 0.000000 0.067306 0.000000 -0.062065
# 5 0.001212 0.000362 -0.009693 0.000000 0.040927 0.000000
# 6 0.000000 0.000000 0.000000 -0.062065 0.000000 -0.061829
#
#
# Mechanical properties :
#
#
# Convention : Reuss Voigt Hill
#
# Bulk Modulus (GPa) = 33.60863 52.31297 42.96080
# Shear Modulus (GPa) = 36.68629 16.75483 26.72056
#
# Velocity S-wave (km/s) = 4.39709 2.97155 3.75263
# Velocity P-wave (km/s) = 6.59481 6.27243 6.43564
#
# Compressibility (1/GPa) = 0.02975427
#
# Stress axis : x y z
#
# Youngs Moduli (GPa) = 65.65888 87.59999 35.44100
#
# Poissons Ratio (x) = 0.62263 0.13498
# Poissons Ratio (y) = 0.46668 0.05803
# Poissons Ratio (z) = 0.25007 0.14344
#
# Static dielectric constant tensor:
#      x y z
#    x 1.651150 0.000000 -0.012720 
#    y 0.000000 1.669110 0.000000 
#    z -0.012720 0.000000 1.639150 
# 
# From -- ./inp_files/29288.got.cif
#   From: 2010.05.17/outbox.cif.g08.bks.cpg/sg10_15_cif.got.tgz:29288.got - 2010.06.03 11:33:40.
