data_PCOD9154509
_publ_section_title
;
Structure prediction by ZEFSAII (Michael W. Deem and Ramdas Pophale) SiO2 
 PCOD9154509
Probable space group: P 2/M
;
_chemical_formula_sum "Si O2"
_cell_formula_units_Z 30
_cell_length_a 15.434630
_cell_length_b 19.613480
_cell_length_c 11.457697
_cell_angle_alpha 90.000000
_cell_angle_beta 150.705407
_cell_angle_gamma 90.000000
_cell_volume 1697.163035
_symmetry_space_group_name_H-M "P 2/M"
_symmetry_group_IT_number 10
_symmetry_cell_setting 'monoclinic'
loop_
_space_group_symop_operation_xyz
x,y,z
-x,y,-z
-x,-y,-z
x,-y,z
loop_
_atom_site_type_symbol
_atom_site_label
_atom_site_fract_x
_atom_site_fract_y
_atom_site_fract_z
Si Si1 0.686149 0.576357 0.284979
Si Si2 0.187300 0.578604 0.153632
Si Si3 0.373712 0.666479 0.567452
Si Si4 0.747775 0.824868 0.896105
Si Si5 0.794064 0.675687 0.039958
Si Si6 0.354121 0.822228 0.497160
Si Si7 0.000000 0.625842 0.500000
Si Si8 0.053521 0.921660 0.200901
O O1 0.684417 0.500000 0.333375
O O2 0.703298 0.629486 0.409826
O O3 0.845483 0.583337 0.381050
O O4 0.500000 0.587155 0.000000
O O5 0.247056 0.500000 0.210939
O O6 0.316424 0.624502 0.385244
O O7 0.162530 0.616279 0.001392
O O8 0.000000 0.578077 0.000000
O O9 0.315939 0.745059 0.492156
O O10 0.586201 0.667074 0.824046
O O11 0.564365 0.836341 0.750081
O O12 0.696003 0.823878 0.698697
O O13 0.817460 0.749888 0.010301
O O14 0.896654 0.882326 0.083447
O O15 0.907524 0.668782 0.289584
O O16 0.232113 0.877315 0.417397
O O17 0.074389 0.000000 0.261508
O O18 0.000000 0.922076 0.000000
#
# Coordination Sequence:
#
# PCOD9154509 Si02
#       8
#     4   4   4   4   4   4   2   4
#     4  11  24  42  59  79 112 152 195 244 296 344
#     4  11  24  37  55  85 113 147 193 244 296 345
#     4  11  21  39  60  84 112 149 195 244 290 345
#     4   9  18  33  51  80 112 147 181 227 276 329
#     4  11  23  38  58  83 113 151 197 239 289 343
#     4   9  18  31  54  80 112 143 184 226 279 329
#     4  12  25  42  60  80 111 150 196 244 289 348
#     4   9  18  30  49  80 114 151 182 211 269 340
#
# _framework density 17.676558
#
# number of rings (size 3 to 8) (size 9 to 14) (size 15 to 20)
#    0.000    1.733    2.667    1.800    3.733    4.267 
#    0.000    2.667    0.000    0.000    0.000    0.467 
#    0.000    3.200    0.000    0.000    0.000    0.000 
#
# Total GULP energy -167498.410563 kJ/mol
# GULP energy per Si atom -5583.280352 kJ/mol
# Density = 1.763633 g / cm^3
# Si number density = 17.676558 Si / 1000 Ang^3
#
#
#
# Elastic Constant Matrix: (Units=GPa)
#
#
# Indices 1 2 3 4 5 6 
#
# 1 72.1891 53.8925 28.1208 0.0000 9.2677 0.0000
# 2 53.8925 161.8819 56.6494 0.0000 17.5638 0.0000
# 3 28.1208 56.6494 85.4719 0.0000 8.0704 0.0000
# 4 0.0000 0.0000 0.0000 22.1890 0.0000 0.1001
# 5 9.2677 17.5638 8.0704 0.0000 21.7919 0.0000
# 6 0.0000 0.0000 0.0000 0.1001 0.0000 16.4697
#
#
#
# Elastic Compliance Matrix: (Units=1/GPa)
#
#
# Indices 1 2 3 4 5 6 
#
# 1 0.019069 -0.005109 -0.002601 0.000000 -0.003028 0.000000
# 2 -0.005109 0.009898 -0.004488 0.000000 -0.004143 0.000000
# 3 -0.002601 -0.004488 0.015631 0.000000 -0.001065 0.000000
# 4 0.000000 0.000000 0.000000 0.045069 0.000000 -0.000274
# 5 -0.003028 -0.004143 -0.001065 0.000000 0.050910 0.000000
# 6 0.000000 0.000000 0.000000 -0.000274 0.000000 0.060719
#
#
# Mechanical properties :
#
#
# Convention : Reuss Voigt Hill
#
# Bulk Modulus (GPa) = 49.50477 66.31869 57.91173
# Shear Modulus (GPa) = 21.51204 24.14881 22.83042
#
# Velocity S-wave (km/s) = 3.49231 3.70015 3.59773
# Velocity P-wave (km/s) = 6.65795 7.47357 7.07752
#
# Compressibility (1/GPa) = 0.02020007
#
# Stress axis : x y z
#
# Youngs Moduli (GPa) = 52.44099 101.02565 63.97533
#
# Poissons Ratio (x) = 0.51618 0.16643
# Poissons Ratio (y) = 0.26794 0.28714
# Poissons Ratio (z) = 0.13642 0.45344
#
# Static dielectric constant tensor:
#      x y z
#    x 1.596760 0.000000 0.029360 
#    y 0.000000 1.583390 0.000000 
#    z 0.029360 0.000000 1.617290 
# 
# From -- ./inp_files/47927.got.cif
#   From: 2010.05.17/outbox.cif.g08.bks.cpg/sg10_24_cif.got.tgz:47927.got - 2010.06.03 11:33:40.
