data_PCOD9154598
_publ_section_title
;
Structure prediction by ZEFSAII (Michael W. Deem and Ramdas Pophale) SiO2 
 PCOD9154598
Probable space group: P 2/M
;
_chemical_formula_sum "Si O2"
_cell_formula_units_Z 21
_cell_length_a 7.259734
_cell_length_b 14.870299
_cell_length_c 10.548310
_cell_angle_alpha 90.000000
_cell_angle_beta 45.334013
_cell_angle_gamma 90.000000
_cell_volume 809.888754
_symmetry_space_group_name_H-M "P 2/M"
_symmetry_group_IT_number 10
_symmetry_cell_setting 'monoclinic'
loop_
_space_group_symop_operation_xyz
x,y,z
-x,y,-z
-x,-y,-z
x,-y,z
loop_
_atom_site_type_symbol
_atom_site_label
_atom_site_fract_x
_atom_site_fract_y
_atom_site_fract_z
Si Si1 0.924493 0.188054 0.856999
Si Si2 0.914511 0.000000 0.850005
Si Si3 0.869644 0.625827 0.257304
Si Si4 0.672625 0.598629 0.615322
Si Si5 0.628564 0.000000 0.727856
Si Si6 0.604945 0.199208 0.748723
Si Si7 0.000000 0.500000 0.000000
O O1 0.768126 0.188030 0.799836
O O2 0.121040 0.268354 0.756373
O O3 0.052587 0.091900 0.815067
O O4 0.698330 0.203630 0.068317
O O5 0.842558 0.000000 0.736596
O O6 0.644582 0.000000 0.060694
O O7 0.875834 0.599785 0.400561
O O8 0.606224 0.593186 0.319525
O O9 0.077338 0.578235 0.068260
O O10 0.691916 0.500000 0.671746
O O11 0.679970 0.700721 0.664757
O O12 0.648012 0.898657 0.658473
#
# Coordination Sequence:
#
# PCOD9154598 Si02
#       7
#     4   2   4   4   2   4   1
#     4   9  18  34  58  91 109 150 182 233 264 332
#     4   7  12  28  54  81 120 136 182 223 278 307
#     4  11  22  37  59  78 106 143 195 221 283 325
#     4  11  22  41  53  79 112 155 181 234 274 338
#     4   7  12  28  56  83 108 157 172 220 270 339
#     4   9  18  35  59  86 121 139 189 224 282 316
#     4  12  20  38  60  78  92 138 188 230 264 342
#
# _framework density 25.929489
#
# number of rings (size 3 to 8) (size 9 to 14) (size 15 to 20)
#    0.000    2.476    1.905    4.000    0.000    0.762 
#    1.714    3.810    0.000    9.714    0.000    0.000 
#    0.000    0.000    0.000    0.000    0.000    0.000 
#
# Total GULP energy -116933.389477 kJ/mol
# GULP energy per Si atom -5568.256642 kJ/mol
# Density = 2.587047 g / cm^3
# Si number density = 25.929489 Si / 1000 Ang^3
#
#
#
# Elastic Constant Matrix: (Units=GPa)
#
#
# Indices 1 2 3 4 5 6 
#
# 1 44.6580 29.1136 -10.7537 0.0000 -12.0163 0.0000
# 2 29.1136 350.4048 56.7266 0.0000 8.4030 0.0000
# 3 -10.7537 56.7266 56.7896 0.0000 10.7566 0.0000
# 4 0.0000 0.0000 0.0000 15.5716 0.0000 1.7921
# 5 -12.0163 8.4030 10.7566 0.0000 22.3533 0.0000
# 6 0.0000 0.0000 0.0000 1.7921 0.0000 39.7718
#
#
#
# Elastic Compliance Matrix: (Units=1/GPa)
#
#
# Indices 1 2 3 4 5 6 
#
# 1 0.030661 -0.004044 0.007081 0.000000 0.014595 0.000000
# 2 -0.004044 0.003941 -0.004412 0.000000 -0.001532 0.000000
# 3 0.007081 -0.004412 0.024560 0.000000 -0.006354 0.000000
# 4 0.000000 0.000000 0.000000 0.064554 0.000000 -0.002909
# 5 0.014595 -0.001532 -0.006354 0.000000 0.056215 0.000000
# 6 0.000000 0.000000 0.000000 -0.002909 0.000000 0.025275
#
#
# Mechanical properties :
#
#
# Convention : Reuss Voigt Hill
#
# Bulk Modulus (GPa) = 17.72677 66.89175 42.30926
# Shear Modulus (GPa) = 22.04975 40.65705 31.35340
#
# Velocity S-wave (km/s) = 2.91928 3.96407 3.48110
# Velocity P-wave (km/s) = 4.26782 6.84145 5.70174
#
# Compressibility (1/GPa) = 0.05641186
#
# Stress axis : x y z
#
# Youngs Moduli (GPa) = 32.61492 253.75476 40.71628
#
# Poissons Ratio (x) = 1.02613 -0.28830
# Poissons Ratio (y) = 0.13189 0.17964
# Poissons Ratio (z) = -0.23094 1.11956
#
# Static dielectric constant tensor:
#      x y z
#    x 2.033050 0.000000 -0.046190 
#    y 0.000000 2.028520 0.000000 
#    z -0.046190 0.000000 2.319590 
# 
# From -- ./inp_files/18740.got.cif
#   From: 2010.05.17/outbox.cif.g08.bks.cpg/sg10_10_cif.got.tgz:18740.got - 2010.06.03 11:33:40.
