data_PCOD9154342
_publ_section_title
;
Structure prediction by ZEFSAII (Michael W. Deem and Ramdas Pophale) SiO2 
 PCOD9154342
Probable space group: P 2/M
;
_chemical_formula_sum "Si O2"
_cell_formula_units_Z 24
_cell_length_a 15.031683
_cell_length_b 12.457468
_cell_length_c 15.379416
_cell_angle_alpha 90.000000
_cell_angle_beta 151.785428
_cell_angle_gamma 90.000000
_cell_volume 1361.543861
_symmetry_space_group_name_H-M "P 2/M"
_symmetry_group_IT_number 10
_symmetry_cell_setting 'monoclinic'
loop_
_space_group_symop_operation_xyz
x,y,z
-x,y,-z
-x,-y,-z
x,-y,z
loop_
_atom_site_type_symbol
_atom_site_label
_atom_site_fract_x
_atom_site_fract_y
_atom_site_fract_z
Si Si1 0.224539 0.500000 0.802338
Si Si2 0.641116 0.735620 0.039380
Si Si3 0.774230 0.500000 0.398238
Si Si4 0.355015 0.272541 0.643559
Si Si5 0.267474 0.000000 0.158151
Si Si6 0.435553 0.176001 0.543369
Si Si7 0.137001 0.000000 0.246442
Si Si8 0.004642 0.126315 0.398737
O O1 0.291668 0.611252 0.902155
O O2 0.286693 0.500000 0.755076
O O3 0.999010 0.500000 0.601703
O O4 0.818665 0.813417 0.204716
O O5 0.500000 0.749169 0.000000
O O6 0.528987 0.759413 0.854831
O O7 0.701459 0.391338 0.377122
O O8 0.400144 0.269838 0.580440
O O9 0.185520 0.190755 0.519804
O O10 0.403392 0.102457 0.273512
O O11 0.188071 0.000000 0.188124
O O12 0.087958 0.000000 0.940498
O O13 0.500000 0.200336 0.500000
O O14 0.246656 0.103688 0.376296
O O15 0.000000 0.134157 0.500000
O O16 0.010686 0.000000 0.380573
#
# Coordination Sequence:
#
# PCOD9154342 Si02
#       8
#     2   4   2   4   2   4   2   4
#     4  11  20  39  66  88 113 144 196 267 295 328
#     4  12  22  38  62  89 117 152 197 247 294 342
#     4  11  21  38  66  86 113 150 198 246 304 348
#     4  12  24  39  61  89 117 157 198 244 295 350
#     4   8  15  33  60  87 105 151 199 248 291 330
#     4   9  20  37  56  85 120 152 197 245 285 344
#     4   8  15  33  62  81 113 149 197 248 293 326
#     4  11  24  40  56  83 126 166 192 227 293 366
#
# _framework density 17.627050000000001
#
# number of rings (size 3 to 8) (size 9 to 14) (size 15 to 20)
#    0.000    1.500    5.000    1.750    2.333    2.333 
#    0.000    0.417    0.000    0.000    0.000    1.167 
#    0.000    0.000    0.000    0.000    0.000    0.000 
#
# Total GULP energy -133970.016022 kJ/mol
# GULP energy per Si atom -5582.084001 kJ/mol
# Density = 1.758693 g / cm^3
# Si number density = 17.627050 Si / 1000 Ang^3
#
#
#
# Elastic Constant Matrix: (Units=GPa)
#
#
# Indices 1 2 3 4 5 6 
#
# 1 71.8282 44.5787 37.7378 0.0000 -15.9145 0.0000
# 2 44.5787 117.7162 56.4474 0.0000 2.9964 0.0000
# 3 37.7378 56.4474 144.8705 0.0000 9.3324 0.0000
# 4 0.0000 0.0000 0.0000 -1.0495 0.0000 -17.6140
# 5 -15.9145 2.9964 9.3324 0.0000 23.4166 0.0000
# 6 0.0000 0.0000 0.0000 -17.6140 0.0000 -9.9180
#
#
#
# Elastic Compliance Matrix: (Units=1/GPa)
#
#
# Indices 1 2 3 4 5 6 
#
# 1 0.026151 -0.008023 -0.005026 0.000000 0.020803 0.000000
# 2 -0.008023 0.012910 -0.002548 0.000000 -0.006089 0.000000
# 3 -0.005026 -0.002548 0.009652 0.000000 -0.006937 0.000000
# 4 0.000000 0.000000 0.000000 0.033077 0.000000 -0.058744
# 5 0.020803 -0.006089 -0.006937 0.000000 0.060386 0.000000
# 6 0.000000 0.000000 0.000000 -0.058744 0.000000 0.003500
#
#
# Mechanical properties :
#
#
# Convention : Reuss Voigt Hill
#
# Bulk Modulus (GPa) = 57.08223 67.99364 62.53793
# Shear Modulus (GPa) = 27.36568 15.53320 21.44944
#
# Velocity S-wave (km/s) = 3.94443 2.97174 3.49212
# Velocity P-wave (km/s) = 7.29372 7.10157 7.19828
#
# Compressibility (1/GPa) = 0.01751859
#
# Stress axis : x y z
#
# Youngs Moduli (GPa) = 38.23939 77.45911 103.60782
#
# Poissons Ratio (x) = 0.62142 0.52077
# Poissons Ratio (y) = 0.30678 0.26401
# Poissons Ratio (z) = 0.19220 0.19738
#
# Static dielectric constant tensor:
#      x y z
#    x 1.598980 0.000000 0.008310 
#    y 0.000000 1.580170 0.000000 
#    z 0.008310 0.000000 1.630970 
# 
# From -- ./inp_files/67454.got.cif
#   From: 2010.05.17/outbox.cif.g08.bks.cpg/sg10_34_cif.got.tgz:67454.got - 2010.06.03 11:33:40.
