data_PCOD9154983
_publ_section_title
;
Structure prediction by ZEFSAII (Michael W. Deem and Ramdas Pophale) SiO2 
 PCOD9154983
Probable space group: P 2/M
;
_chemical_formula_sum "Si O2"
_cell_formula_units_Z 32
_cell_length_a 6.950180
_cell_length_b 7.824048
_cell_length_c 24.054254
_cell_angle_alpha 90.000000
_cell_angle_beta 95.063340
_cell_angle_gamma 90.000000
_cell_volume 1302.930965
_symmetry_space_group_name_H-M "P 2/M"
_symmetry_group_IT_number 10
_symmetry_cell_setting 'monoclinic'
loop_
_space_group_symop_operation_xyz
x,y,z
-x,y,-z
-x,-y,-z
x,-y,z
loop_
_atom_site_type_symbol
_atom_site_label
_atom_site_fract_x
_atom_site_fract_y
_atom_site_fract_z
Si Si1 0.444095 0.199559 0.632613
Si Si2 0.831937 0.295763 0.780578
Si Si3 0.276622 0.794463 0.984510
Si Si4 0.128783 0.205318 0.338443
Si Si5 0.686032 0.799587 0.133238
Si Si6 0.899496 0.789925 0.441009
Si Si7 0.383220 0.700139 0.748472
Si Si8 0.764042 0.705143 0.896541
O O1 0.653862 0.276429 0.647972
O O2 0.317507 0.267872 0.578680
O O3 0.333032 0.210141 0.689099
O O4 0.474035 0.000000 0.621580
O O5 0.839745 0.500000 0.782784
O O6 0.934449 0.245982 0.726012
O O7 0.606086 0.244065 0.766047
O O8 0.877877 0.232363 0.844211
O O9 0.171786 0.753454 0.039760
O O10 0.275975 0.000000 0.979834
O O11 0.500000 0.738026 0.000000
O O12 0.223890 0.725855 0.921786
O O13 0.014236 0.265996 0.389111
O O14 0.131435 0.000000 0.340978
O O15 0.722944 0.723537 0.195149
O O16 0.454586 0.775849 0.116618
O O17 0.726013 0.000000 0.138472
O O18 0.000000 0.732431 0.500000
O O19 0.899359 0.000000 0.442170
O O20 0.381094 0.500000 0.736124
O O21 0.752433 0.500000 0.894185
#
# Coordination Sequence:
#
# PCOD9154983 Si02
#       8
#     4   4   4   4   4   4   4   4
#     4   9  17  30  49  71  96 127 159 194 237 280
#     4   8  15  26  39  58  85 117 152 195 243 281
#     4   8  14  21  28  43  72 111 151 193 240 287
#     4   9  17  29  48  72  94 124 163 195 233 283
#     4   9  15  22  32  49  77 113 153 195 241 290
#     4   9  18  32  50  75 104 127 154 196 235 273
#     4   9  16  26  41  61  85 115 154 198 240 283
#     4   9  15  21  31  49  75 111 154 197 242 288
#
# _framework density 24.560010999999999
#
# number of rings (size 3 to 8) (size 9 to 14) (size 15 to 20)
#    0.000    3.250    0.000    2.625    0.000    6.750 
#    0.000    3.125    0.000    1.500    0.000    3.500 
#    0.000    1.000    0.000   11.375    0.000   28.125 
#
# Total GULP energy -178580.813876 kJ/mol
# GULP energy per Si atom -5580.650434 kJ/mol
# Density = 2.450411 g / cm^3
# Si number density = 24.560011 Si / 1000 Ang^3
#
#
#
# Elastic Constant Matrix: (Units=GPa)
#
#
# Indices 1 2 3 4 5 6 
#
# 1 63.3801 -7.3454 50.7909 0.0000 11.0404 0.0000
# 2 -7.3454 33.4238 6.5091 0.0000 9.2960 0.0000
# 3 50.7909 6.5091 167.3607 0.0000 24.5677 0.0000
# 4 0.0000 0.0000 0.0000 39.4201 0.0000 -10.2851
# 5 11.0404 9.2960 24.5677 0.0000 45.1650 0.0000
# 6 0.0000 0.0000 0.0000 -10.2851 0.0000 2.6845
#
#
#
# Elastic Compliance Matrix: (Units=1/GPa)
#
#
# Indices 1 2 3 4 5 6 
#
# 1 0.022494 0.007170 -0.006609 0.000000 -0.003379 0.000000
# 2 0.007170 0.034035 -0.002406 0.000000 -0.007449 0.000000
# 3 -0.006609 -0.002406 0.008438 0.000000 -0.002479 0.000000
# 4 0.000000 0.000000 0.000000 71.945500 0.000000275.649630
# 5 -0.003379 -0.007449 -0.002479 0.000000 0.025849 0.000000
# 6 0.000000 0.000000 0.000000275.649630 0.000000**********
#
#
# Mechanical properties :
#
#
# Convention : Reuss Voigt Hill
#
# Bulk Modulus (GPa) = 16.31939 40.45264 28.38601
# Shear Modulus (GPa) = 0.00443 31.73457 15.86950
#
# Velocity S-wave (km/s) = 0.04252 3.59851 2.54471
# Velocity P-wave (km/s) = 2.58099 5.81140 4.49633
#
# Compressibility (1/GPa) = 0.06127680
#
# Stress axis : x y z
#
# Youngs Moduli (GPa) = 44.45636 29.38157 118.50513
#
# Poissons Ratio (x) = -0.21068 0.78324
# Poissons Ratio (y) = -0.31877 0.28516
# Poissons Ratio (z) = 0.29383 0.07070
#
# Static dielectric constant tensor:
#      x y z
#    x 2.074470 0.000000 -0.030670 
#    y 0.000000 1.863980 0.000000 
#    z -0.030670 0.000000 1.992410 
# 
# From -- ./inp_files/87721.got.cif
#   From: 2010.05.17/outbox.cif.g08.bks.cpg/sg10_44_cif.got.tgz:87721.got - 2010.06.03 11:33:40.
