data_PCOD9154615
_publ_section_title
;
Structure prediction by ZEFSAII (Michael W. Deem and Ramdas Pophale) SiO2 
 PCOD9154615
Probable space group: P 2/M
;
_chemical_formula_sum "Si O2"
_cell_formula_units_Z 26
_cell_length_a 9.161098
_cell_length_b 19.586405
_cell_length_c 8.768733
_cell_angle_alpha 90.000000
_cell_angle_beta 52.616446
_cell_angle_gamma 90.000000
_cell_volume 1250.206103
_symmetry_space_group_name_H-M "P 2/M"
_symmetry_group_IT_number 10
_symmetry_cell_setting 'monoclinic'
loop_
_space_group_symop_operation_xyz
x,y,z
-x,y,-z
-x,-y,-z
x,-y,z
loop_
_atom_site_type_symbol
_atom_site_label
_atom_site_fract_x
_atom_site_fract_y
_atom_site_fract_z
Si Si1 0.393168 0.328936 0.714156
Si Si2 0.000000 0.398029 0.000000
Si Si3 0.813301 0.837366 0.546952
Si Si4 0.539078 0.078149 0.291673
Si Si5 0.194295 0.189436 0.806848
Si Si6 0.888031 0.574174 0.732652
Si Si7 0.339083 0.296246 0.202554
O O1 0.500000 0.355244 0.500000
O O2 0.346215 0.248568 0.725463
O O3 0.541634 0.337270 0.750742
O O4 0.195948 0.360898 0.866084
O O5 0.009722 0.428546 0.167437
O O6 0.634866 0.885336 0.676166
O O7 0.835327 0.825192 0.352467
O O8 0.776356 0.763977 0.648735
O O9 0.000000 0.866333 0.500000
O O10 0.500000 0.078815 0.500000
O O11 0.721260 0.123911 0.161242
O O12 0.561012 0.000000 0.229739
O O13 0.000000 0.210622 0.000000
O O14 0.787714 0.500000 0.787589
O O15 0.779338 0.645923 0.804678
O O16 0.000000 0.578097 0.500000
O O17 0.500000 0.262941 0.000000
#
# Coordination Sequence:
#
# PCOD9154615 Si02
#       7
#     4   2   4   4   4   4   4
#     4  12  22  40  65 100 131 169 224 283 337 395
#     4  12  25  44  72 100 133 182 226 286 341 408
#     4  11  24  37  62  97 127 166 216 275 333 396
#     4   9  19  40  62  86 128 173 215 269 332 397
#     4  11  22  38  61  94 128 170 222 272 330 398
#     4  11  26  47  69  98 136 179 225 279 343 412
#     4  12  24  41  64  94 129 168 214 274 333 395
#
# _framework density 20.796571
#
# number of rings (size 3 to 8) (size 9 to 14) (size 15 to 20)
#    0.000    0.923    5.385    2.077    4.308    0.923 
#    0.000    0.000    0.000    6.462    0.000    0.000 
#    0.000    0.000    0.000    0.000    0.000    0.000 
#
# Total GULP energy -144936.242799 kJ/mol
# GULP energy per Si atom -5574.470877 kJ/mol
# Density = 2.074924 g / cm^3
# Si number density = 20.796571 Si / 1000 Ang^3
#
#
#
# Elastic Constant Matrix: (Units=GPa)
#
#
# Indices 1 2 3 4 5 6 
#
# 1 127.5010 47.1541 24.3889 0.0000 7.7196 0.0000
# 2 47.1541 81.0503 8.8057 0.0000 -1.3376 0.0000
# 3 24.3889 8.8057 94.4989 0.0000 2.3930 0.0000
# 4 0.0000 0.0000 0.0000 -6.1495 0.0000 4.2258
# 5 7.7196 -1.3376 2.3930 0.0000 31.3106 0.0000
# 6 0.0000 0.0000 0.0000 4.2258 0.0000 21.8826
#
#
#
# Elastic Compliance Matrix: (Units=1/GPa)
#
#
# Indices 1 2 3 4 5 6 
#
# 1 0.010631 -0.006000 -0.002116 0.000000 -0.002716 0.000000
# 2 -0.006000 0.015863 0.000016 0.000000 0.002156 0.000000
# 3 -0.002116 0.000016 0.011135 0.000000 -0.000329 0.000000
# 4 0.000000 0.000000 0.000000 -0.143564 0.000000 0.027724
# 5 -0.002716 0.002156 -0.000329 0.000000 0.032725 0.000000
# 6 0.000000 0.000000 0.000000 0.027724 0.000000 0.040345
#
#
# Mechanical properties :
#
#
# Convention : Reuss Voigt Hill
#
# Bulk Modulus (GPa) = 46.66650 51.52750 49.09700
# Shear Modulus (GPa) = -525.06296 24.25550 -250.40373
#
# Velocity S-wave (km/s) = -15.90672 3.41885 -10.98488
# Velocity P-wave (km/s) = 17.74477 6.35731 11.71455
#
# Compressibility (1/GPa) = 0.02142865
#
# Stress axis : x y z
#
# Youngs Moduli (GPa) = 94.06216 63.04114 89.80640
#
# Poissons Ratio (x) = 0.37825 0.19002
# Poissons Ratio (y) = 0.56438 -0.00142
# Poissons Ratio (z) = 0.19903 -0.00100
#
# Static dielectric constant tensor:
#      x y z
#    x 1.758570 0.000000 0.102430 
#    y 0.000000 1.744060 0.000000 
#    z 0.102430 0.000000 1.916400 
# 
# From -- ./inp_files/20422.got.cif
#   From: 2010.05.17/outbox.cif.g08.bks.cpg/sg10_11_cif.got.tgz:20422.got - 2010.06.03 11:33:40.
