data_PCOD9154955
_publ_section_title
;
Structure prediction by ZEFSAII (Michael W. Deem and Ramdas Pophale) SiO2 
 PCOD9154955
Probable space group: P 2/M
;
_chemical_formula_sum "Si O2"
_cell_formula_units_Z 32
_cell_length_a 19.429538
_cell_length_b 7.424668
_cell_length_c 21.550301
_cell_angle_alpha 90.000000
_cell_angle_beta 21.496592
_cell_angle_gamma 90.000000
_cell_volume 1139.207147
_symmetry_space_group_name_H-M "P 2/M"
_symmetry_group_IT_number 10
_symmetry_cell_setting 'monoclinic'
loop_
_space_group_symop_operation_xyz
x,y,z
-x,y,-z
-x,-y,-z
x,-y,z
loop_
_atom_site_type_symbol
_atom_site_label
_atom_site_fract_x
_atom_site_fract_y
_atom_site_fract_z
Si Si1 0.652804 0.289668 0.483129
Si Si2 0.284548 0.286757 0.737989
Si Si3 0.058487 0.793044 0.053875
Si Si4 0.992195 0.720208 0.271782
Si Si5 0.682456 0.718953 0.924628
Si Si6 0.748620 0.279904 0.733531
Si Si7 0.210627 0.710018 0.433360
Si Si8 0.429412 0.782560 0.799030
O O1 0.679177 0.500000 0.446652
O O2 0.495446 0.211653 0.568935
O O3 0.860283 0.216661 0.326139
O O4 0.541183 0.277891 0.642913
O O5 0.304539 0.500000 0.727994
O O6 0.151934 0.264261 0.789253
O O7 0.168340 0.222561 0.895370
O O8 0.048018 0.000000 0.077153
O O9 0.214691 0.711317 0.970052
O O10 0.988650 0.500000 0.272551
O O11 0.884173 0.782335 0.425090
O O12 0.201913 0.781392 0.112457
O O13 0.682545 0.500000 0.925931
O O14 0.784010 0.773039 0.774793
O O15 0.468601 0.772702 0.096139
O O16 0.761090 0.500000 0.722560
O O17 0.840383 0.217746 0.591930
O O18 0.158256 0.500000 0.475788
O O19 0.434619 0.719585 0.259670
O O20 0.426341 0.000000 0.802198
#
# Coordination Sequence:
#
# PCOD9154955 Si02
#       8
#     4   4   4   4   4   4   4   4
#     4   8  14  23  33  49  73  98 125 156 188 222
#     4   9  14  19  29  44  65  94 124 151 182 220
#     4   9  15  21  29  43  65  92 124 156 182 215
#     4   8  13  21  34  52  75 102 127 152 184 221
#     4   8  13  22  36  55  79 102 123 151 188 225
#     4   8  14  23  35  55  81 102 121 152 191 224
#     4   9  16  25  37  55  78 100 124 156 190 223
#     4   9  16  24  34  49  70  98 128 156 188 224
#
# _framework density 28.08971
#
# number of rings (size 3 to 8) (size 9 to 14) (size 15 to 20)
#    0.000    3.500    0.000    3.375    0.000    2.500 
#    0.000    2.500    0.000    0.000    0.000   12.250 
#    0.000    1.000    0.000   12.500    0.000    9.250 
#
# Total GULP energy -178818.282707 kJ/mol
# GULP energy per Si atom -5588.071335 kJ/mol
# Density = 2.802578 g / cm^3
# Si number density = 28.089710 Si / 1000 Ang^3
#
#
#
# Elastic Constant Matrix: (Units=GPa)
#
#
# Indices 1 2 3 4 5 6 
#
# 1 218.3704 8.3286 24.5221 0.0000 -39.9201 0.0000
# 2 8.3286 110.6738 2.2076 0.0000 1.1248 0.0000
# 3 24.5221 2.2076 131.2767 0.0000 -47.3711 0.0000
# 4 0.0000 0.0000 0.0000 9.3467 0.0000 16.8098
# 5 -39.9201 1.1248 -47.3711 0.0000 60.9712 0.0000
# 6 0.0000 0.0000 0.0000 16.8098 0.0000 -21.0297
#
#
#
# Elastic Compliance Matrix: (Units=1/GPa)
#
#
# Indices 1 2 3 4 5 6 
#
# 1 0.005235 -0.000439 0.000374 0.000000 0.003727 0.000000
# 2 -0.000439 0.009082 -0.000326 0.000000 -0.000709 0.000000
# 3 0.000374 -0.000326 0.010622 0.000000 0.008503 0.000000
# 4 0.000000 0.000000 0.000000 0.043892 0.000000 0.035084
# 5 0.003727 -0.000709 0.008503 0.000000 0.025461 0.000000
# 6 0.000000 0.000000 0.000000 0.035084 0.000000 -0.019508
#
#
# Mechanical properties :
#
#
# Convention : Reuss Voigt Hill
#
# Bulk Modulus (GPa) = 41.39747 58.93747 50.16747
# Shear Modulus (GPa) = 59.79496 38.20849 49.00173
#
# Velocity S-wave (km/s) = 4.61880 3.69213 4.18122
# Velocity P-wave (km/s) = 6.57374 6.26125 6.41940
#
# Compressibility (1/GPa) = 0.02415607
#
# Stress axis : x y z
#
# Youngs Moduli (GPa) = 191.00839 110.10383 94.14866
#
# Poissons Ratio (x) = 0.04837 -0.03523
# Poissons Ratio (y) = 0.08391 0.03073
# Poissons Ratio (z) = -0.07147 0.03594
#
# Static dielectric constant tensor:
#      x y z
#    x 2.211830 0.000000 0.027380 
#    y 0.000000 2.026910 0.000000 
#    z 0.027380 0.000000 2.348580 
# 
# From -- ./inp_files/95743.got.cif
#   From: 2010.05.17/outbox.cif.g08.bks.cpg/sg10_48_cif.got.tgz:95743.got - 2010.06.03 11:33:40.
