data_PCOD9154924
_publ_section_title
;
Structure prediction by ZEFSAII (Michael W. Deem and Ramdas Pophale) SiO2 
 PCOD9154924
Probable space group: P 2/M
;
_chemical_formula_sum "Si O2"
_cell_formula_units_Z 32
_cell_length_a 19.493649
_cell_length_b 7.346020
_cell_length_c 20.318198
_cell_angle_alpha 90.000000
_cell_angle_beta 22.673384
_cell_angle_gamma 90.000000
_cell_volume 1121.577818
_symmetry_space_group_name_H-M "P 2/M"
_symmetry_group_IT_number 10
_symmetry_cell_setting 'monoclinic'
loop_
_space_group_symop_operation_xyz
x,y,z
-x,y,-z
-x,-y,-z
x,-y,z
loop_
_atom_site_type_symbol
_atom_site_label
_atom_site_fract_x
_atom_site_fract_y
_atom_site_fract_z
Si Si1 0.319689 0.716142 0.511690
Si Si2 0.753886 0.784318 0.045571
Si Si3 0.056144 0.787279 0.867190
Si Si4 0.630790 0.217288 0.327036
Si Si5 0.980678 0.717382 0.313198
Si Si6 0.463340 0.777549 0.210570
Si Si7 0.807926 0.222542 0.647905
Si Si8 0.705864 0.209651 0.875674
O O1 0.305084 0.500000 0.523127
O O2 0.197085 0.781648 0.681503
O O3 0.521300 0.757619 0.356463
O O4 0.213809 0.785022 0.540273
O O5 0.874321 0.706884 0.998020
O O6 0.887535 0.766431 0.864478
O O7 0.730512 0.000000 0.077819
O O8 0.566264 0.709630 0.184100
O O9 0.173808 0.715886 0.824102
O O10 0.016283 0.000000 0.914206
O O11 0.500000 0.289841 0.500000
O O12 0.642457 0.000000 0.324383
O O13 0.975690 0.500000 0.323306
O O14 0.088706 0.788584 0.280605
O O15 0.273511 0.718563 0.349593
O O16 0.466104 0.000000 0.211402
O O17 0.590550 0.715229 0.037394
O O18 0.693343 0.280916 0.813018
O O19 0.000000 0.286019 0.500000
O O20 0.809510 0.000000 0.645507
O O21 0.651376 0.000000 0.920084
#
# Coordination Sequence:
#
# PCOD9154924 Si02
#       8
#     4   4   4   4   4   4   4   4
#     4   9  15  20  27  41  61  86 117 151 184 217
#     4   8  13  22  36  51  68  93 125 157 186 220
#     4   8  13  20  28  40  60  87 119 151 180 212
#     4   8  13  19  26  37  57  87 119 148 178 214
#     4   9  16  24  34  50  71  93 121 159 194 220
#     4   8  13  22  38  58  77  99 127 156 185 219
#     4   9  16  25  39  61  84 100 119 154 193 222
#     4   9  16  26  41  58  75  99 129 156 184 223
#
# _framework density 28.531234000000001
#
# number of rings (size 3 to 8) (size 9 to 14) (size 15 to 20)
#    0.000    3.500    0.000    2.625    0.000    5.250 
#    0.000    0.000    0.000    6.375    0.000    0.000 
#    0.000    0.000    0.000    1.125    0.000   28.750 
#
# Total GULP energy -178888.391683 kJ/mol
# GULP energy per Si atom -5590.262240 kJ/mol
# Density = 2.846630 g / cm^3
# Si number density = 28.531234 Si / 1000 Ang^3
#
#
#
# Elastic Constant Matrix: (Units=GPa)
#
#
# Indices 1 2 3 4 5 6 
#
# 1 269.0093 3.2317 70.0124 0.0000 -72.5936 0.0000
# 2 3.2317 138.7770 -1.6623 0.0000 0.7379 0.0000
# 3 70.0124 -1.6623 199.6238 0.0000 -69.2218 0.0000
# 4 0.0000 0.0000 0.0000 -24.6020 0.0000 30.4367
# 5 -72.5936 0.7379 -69.2218 0.0000 77.8551 0.0000
# 6 0.0000 0.0000 0.0000 30.4367 0.0000 -3.4980
#
#
#
# Elastic Compliance Matrix: (Units=1/GPa)
#
#
# Indices 1 2 3 4 5 6 
#
# 1 0.004975 -0.000142 -0.000198 0.000000 0.004464 0.000000
# 2 -0.000142 0.007211 0.000058 0.000000 -0.000149 0.000000
# 3 -0.000198 0.000058 0.007251 0.000000 0.006261 0.000000
# 4 0.000000 0.000000 0.000000 0.004163 0.000000 0.036220
# 5 0.004464 -0.000149 0.006261 0.000000 0.022575 0.000000
# 6 0.000000 0.000000 0.000000 0.036220 0.000000 0.029276
#
#
# Mechanical properties :
#
#
# Convention : Reuss Voigt Hill
#
# Bulk Modulus (GPa) = 52.98658 83.39709 68.19183
# Shear Modulus (GPa) = 60.74925 45.67293 53.21109
#
# Velocity S-wave (km/s) = 4.61935 4.00535 4.32326
# Velocity P-wave (km/s) = 6.86025 7.11927 6.99096
#
# Compressibility (1/GPa) = 0.01887270
#
# Stress axis : x y z
#
# Youngs Moduli (GPa) = 200.99208 138.68469 137.92056
#
# Poissons Ratio (x) = 0.01969 0.02732
# Poissons Ratio (y) = 0.02853 -0.00802
# Poissons Ratio (z) = 0.03981 -0.00807
#
# Static dielectric constant tensor:
#      x y z
#    x 2.226960 0.000000 0.038930 
#    y 0.000000 2.077800 0.000000 
#    z 0.038930 0.000000 2.356380 
# 
# From -- ./inp_files/35692.got.cif
#   From: 2010.05.17/outbox.cif.g08.bks.cpg/sg10_18_cif.got.tgz:35692.got - 2010.06.03 11:33:40.
