data_PCOD9154530
_publ_section_title
;
Structure prediction by ZEFSAII (Michael W. Deem and Ramdas Pophale) SiO2 
 PCOD9154530
Probable space group: P 2/M
;
_chemical_formula_sum "Si O2"
_cell_formula_units_Z 32
_cell_length_a 9.257604
_cell_length_b 22.626919
_cell_length_c 16.049857
_cell_angle_alpha 90.000000
_cell_angle_beta 151.609112
_cell_angle_gamma 90.000000
_cell_volume 1598.568970
_symmetry_space_group_name_H-M "P 2/M"
_symmetry_group_IT_number 10
_symmetry_cell_setting 'monoclinic'
loop_
_space_group_symop_operation_xyz
x,y,z
-x,y,-z
-x,-y,-z
x,-y,z
loop_
_atom_site_type_symbol
_atom_site_label
_atom_site_fract_x
_atom_site_fract_y
_atom_site_fract_z
Si Si1 0.365111 0.361703 0.692373
Si Si2 0.707775 0.359200 0.688666
Si Si3 0.353272 0.227055 0.702095
Si Si4 0.756140 0.160329 0.193717
Si Si5 0.304175 0.932147 0.485825
Si Si6 0.668480 0.570835 0.998886
Si Si7 0.838423 0.228459 0.707733
Si Si8 0.241508 0.144787 0.192786
O O1 0.517753 0.367667 0.677945
O O2 0.436125 0.294806 0.758844
O O3 0.000000 0.368332 0.500000
O O4 0.497974 0.404667 0.830270
O O5 0.500000 0.365806 0.500000
O O6 0.840244 0.292240 0.751092
O O7 0.991877 0.403076 0.829439
O O8 0.394935 0.181532 0.798002
O O9 0.551267 0.200255 0.729055
O O10 0.000000 0.225937 0.500000
O O11 0.016701 0.111468 0.338104
O O12 0.921274 0.220134 0.244042
O O13 0.500000 0.140072 0.000000
O O14 0.500000 0.928216 0.500000
O O15 0.536115 0.908598 0.673202
O O16 0.213944 0.000000 0.452354
O O17 0.675836 0.500000 0.999744
O O18 0.500000 0.588415 0.000000
O O19 0.500000 0.220200 0.500000
O O20 0.909988 0.172465 0.802259
O O21 0.000000 0.130683 0.000000
#
# Coordination Sequence:
#
# PCOD9154530 Si02
#       8
#     4   4   4   4   4   4   4   4
#     4  11  25  42  67 104 139 179 227 281 339 404
#     4  11  25  41  69 103 137 182 226 282 338 405
#     4  11  23  38  62  97 137 165 204 273 342 397
#     4  12  24  39  64  97 126 172 212 272 340 395
#     4  11  24  46  67  87 125 177 227 267 316 400
#     4  11  27  49  71  98 139 186 232 278 336 404
#     4  11  21  40  64  93 135 171 215 264 332 404
#     4  12  22  39  64  95 130 167 210 269 332 395
#
# _framework density 20.017904999999999
#
# number of rings (size 3 to 8) (size 9 to 14) (size 15 to 20)
#    0.000    0.750    5.000    1.875   10.500    2.000 
#    0.000    1.250    0.000    0.000    0.000    0.000 
#    0.000    0.000    0.000    0.000    0.000    0.000 
#
# Total GULP energy -178831.358007 kJ/mol
# GULP energy per Si atom -5588.479938 kJ/mol
# Density = 1.997234 g / cm^3
# Si number density = 20.017905 Si / 1000 Ang^3
#
#
#
# Elastic Constant Matrix: (Units=GPa)
#
#
# Indices 1 2 3 4 5 6 
#
# 1 89.4371 52.0458 36.7454 0.0000 3.9851 0.0000
# 2 52.0458 106.8020 53.7035 0.0000 -4.2035 0.0000
# 3 36.7454 53.7035 128.5358 0.0000 -7.3426 0.0000
# 4 0.0000 0.0000 0.0000 -105.0257 0.0000 -35.5707
# 5 3.9851 -4.2035 -7.3426 0.0000 34.1717 0.0000
# 6 0.0000 0.0000 0.0000 -35.5707 0.0000 37.6873
#
#
#
# Elastic Compliance Matrix: (Units=1/GPa)
#
#
# Indices 1 2 3 4 5 6 
#
# 1 0.016210 -0.007093 -0.001851 0.000000 -0.003161 0.000000
# 2 -0.007093 0.014962 -0.004122 0.000000 0.001782 0.000000
# 3 -0.001851 -0.004122 0.010139 0.000000 0.001887 0.000000
# 4 0.000000 0.000000 0.000000 -0.007215 0.000000 -0.006810
# 5 -0.003161 0.001782 0.001887 0.000000 0.030257 0.000000
# 6 0.000000 0.000000 0.000000 -0.006810 0.000000 0.020107
#
#
# Mechanical properties :
#
#
# Convention : Reuss Voigt Hill
#
# Bulk Modulus (GPa) = 65.87811 67.75161 66.81486
# Shear Modulus (GPa) = 43.23308 5.51868 24.37588
#
# Velocity S-wave (km/s) = 4.65232 1.66218 3.49335
# Velocity P-wave (km/s) = 7.86383 6.13211 7.05133
#
# Compressibility (1/GPa) = 0.01517955
#
# Stress axis : x y z
#
# Youngs Moduli (GPa) = 61.69048 66.83443 98.62777
#
# Poissons Ratio (x) = 0.47405 0.18257
# Poissons Ratio (y) = 0.43756 0.40654
# Poissons Ratio (z) = 0.11420 0.27549
#
# Static dielectric constant tensor:
#      x y z
#    x 1.795300 0.000000 -0.074720 
#    y 0.000000 1.670080 0.000000 
#    z -0.074720 0.000000 1.740280 
# 
# From -- ./inp_files/30596.got.cif
#   From: 2010.05.17/outbox.cif.g08.bks.cpg/sg10_16_cif.got.tgz:30596.got - 2010.06.03 11:33:40.
