data_PCOD9154527
_publ_section_title
;
Structure prediction by ZEFSAII (Michael W. Deem and Ramdas Pophale) SiO2 
 PCOD9154527
Probable space group: P 2/M
;
_chemical_formula_sum "Si O2"
_cell_formula_units_Z 24
_cell_length_a 14.763091
_cell_length_b 15.880199
_cell_length_c 12.457797
_cell_angle_alpha 90.000000
_cell_angle_beta 28.535980
_cell_angle_gamma 90.000000
_cell_volume 1395.209122
_symmetry_space_group_name_H-M "P 2/M"
_symmetry_group_IT_number 10
_symmetry_cell_setting 'monoclinic'
loop_
_space_group_symop_operation_xyz
x,y,z
-x,y,-z
-x,-y,-z
x,-y,z
loop_
_atom_site_type_symbol
_atom_site_label
_atom_site_fract_x
_atom_site_fract_y
_atom_site_fract_z
Si Si1 0.292249 0.904711 0.354455
Si Si2 0.000000 0.645609 0.500000
Si Si3 0.724904 0.500000 0.758684
Si Si4 0.257440 0.905077 0.137600
Si Si5 0.955622 0.364740 0.921962
Si Si6 0.242864 0.500000 0.528868
Si Si7 0.009772 0.230559 0.689714
Si Si8 0.621377 0.500000 0.263597
O O1 0.229020 0.896680 0.295358
O O2 0.192352 0.828410 0.518956
O O3 0.244985 0.000000 0.439730
O O4 0.518706 0.897853 0.116863
O O5 0.823649 0.582797 0.705372
O O6 0.042573 0.703369 0.558449
O O7 0.776159 0.500000 0.579179
O O8 0.500000 0.500000 0.000000
O O9 0.147382 0.834303 0.188802
O O10 0.197577 0.000000 0.170478
O O11 0.946953 0.282092 0.858690
O O12 0.129932 0.420581 0.694674
O O13 0.764160 0.420420 0.111347
O O14 0.000000 0.348486 0.000000
O O15 0.462119 0.500000 0.336758
O O16 0.500000 0.500000 0.500000
#
# Coordination Sequence:
#
# PCOD9154527 Si02
#       8
#     4   2   2   4   4   2   4   2
#     4   9  18  33  54  82 116 151 182 218 271 335
#     4  11  24  38  49  84 116 150 189 220 280 343
#     4  11  26  39  54  77 121 162 183 214 280 360
#     4   9  18  33  54  83 115 148 187 220 265 336
#     4  11  24  40  56  84 109 140 195 244 277 328
#     4  11  21  40  59  78 108 149 185 237 284 322
#     4  12  21  34  56  81 116 144 177 235 279 324
#     4  11  21  40  67  77  95 143 195 244 288 320
#
# _framework density 17.201723000000001
#
# number of rings (size 3 to 8) (size 9 to 14) (size 15 to 20)
#    0.000    1.500    5.000    2.000    2.333    4.000 
#    0.000    0.000    0.000    2.000    0.000    2.333 
#    0.000    0.000    0.000    0.000    0.000    0.000 
#
# Total GULP energy -134004.335846 kJ/mol
# GULP energy per Si atom -5583.513994 kJ/mol
# Density = 1.716257 g / cm^3
# Si number density = 17.201723 Si / 1000 Ang^3
#
#
#
# Elastic Constant Matrix: (Units=GPa)
#
#
# Indices 1 2 3 4 5 6 
#
# 1 37.5145 29.7456 14.5551 0.0000 -5.7179 0.0000
# 2 29.7456 130.8888 47.8415 0.0000 -3.3712 0.0000
# 3 14.5551 47.8415 79.3933 0.0000 -10.0793 0.0000
# 4 0.0000 0.0000 0.0000 20.7735 0.0000 0.2145
# 5 -5.7179 -3.3712 -10.0793 0.0000 35.0367 0.0000
# 6 0.0000 0.0000 0.0000 0.2145 0.0000 26.0908
#
#
#
# Elastic Compliance Matrix: (Units=1/GPa)
#
#
# Indices 1 2 3 4 5 6 
#
# 1 0.033385 -0.006977 -0.001359 0.000000 0.004386 0.000000
# 2 -0.006977 0.011277 -0.005733 0.000000 -0.001703 0.000000
# 3 -0.001359 -0.005733 0.016815 0.000000 0.004064 0.000000
# 4 0.000000 0.000000 0.000000 0.048142 0.000000 -0.000396
# 5 0.004386 -0.001703 0.004064 0.000000 0.030263 0.000000
# 6 0.000000 0.000000 0.000000 -0.000396 0.000000 0.038331
#
#
# Mechanical properties :
#
#
# Convention : Reuss Voigt Hill
#
# Bulk Modulus (GPa) = 29.99498 48.00899 39.00199
# Shear Modulus (GPa) = 22.99241 26.75718 24.87479
#
# Velocity S-wave (km/s) = 3.65997 3.94825 3.80684
# Velocity P-wave (km/s) = 5.94437 6.98247 6.48423
#
# Compressibility (1/GPa) = 0.03333891
#
# Stress axis : x y z
#
# Youngs Moduli (GPa) = 29.95401 88.67487 59.47077
#
# Poissons Ratio (x) = 0.61870 0.08083
# Poissons Ratio (y) = 0.20899 0.34092
# Poissons Ratio (z) = 0.04071 0.50833
#
# Static dielectric constant tensor:
#      x y z
#    x 1.575370 0.000000 -0.017620 
#    y 0.000000 1.589230 0.000000 
#    z -0.017620 0.000000 1.590020 
# 
# From -- ./inp_files/51375.got.cif
#   From: 2010.05.17/outbox.cif.g08.bks.cpg/sg10_26_cif.got.tgz:51375.got - 2010.06.03 11:33:40.
