data_PCOD9154654
_publ_section_title
;
Structure prediction by ZEFSAII (Michael W. Deem and Ramdas Pophale) SiO2 
 PCOD9154654
Probable space group: P 2/M
;
_chemical_formula_sum "Si O2"
_cell_formula_units_Z 26
_cell_length_a 15.226237
_cell_length_b 12.693371
_cell_length_c 8.079512
_cell_angle_alpha 90.000000
_cell_angle_beta 120.420910
_cell_angle_gamma 90.000000
_cell_volume 1346.566013
_symmetry_space_group_name_H-M "P 2/M"
_symmetry_group_IT_number 10
_symmetry_cell_setting 'monoclinic'
loop_
_space_group_symop_operation_xyz
x,y,z
-x,y,-z
-x,-y,-z
x,-y,z
loop_
_atom_site_type_symbol
_atom_site_label
_atom_site_fract_x
_atom_site_fract_y
_atom_site_fract_z
Si Si1 0.575243 0.609285 0.225884
Si Si2 0.376346 0.000000 0.415129
Si Si3 0.289886 0.776494 0.811975
Si Si4 0.297771 0.777895 0.216320
Si Si5 0.115480 0.618719 0.663940
Si Si6 0.882637 0.379806 0.936929
Si Si7 0.500000 0.336971 0.500000
Si Si8 0.381318 0.000000 0.816929
O O1 0.637143 0.500000 0.283642
O O2 0.637816 0.712910 0.244839
O O3 0.512795 0.609235 0.335431
O O4 0.500000 0.605438 0.000000
O O5 0.500000 0.000000 0.500000
O O6 0.315159 0.899534 0.282486
O O7 0.377419 0.000000 0.614795
O O8 0.182776 0.718571 0.674008
O O9 0.318734 0.897462 0.813944
O O10 0.305867 0.761035 0.025100
O O11 0.198654 0.712117 0.184715
O O12 0.396866 0.726757 0.389460
O O13 0.146034 0.500000 0.636043
O O14 0.000000 0.633868 0.500000
O O15 0.120350 0.615914 0.867211
O O16 0.856739 0.500000 0.851831
O O17 0.000000 0.357797 0.000000
O O18 0.500000 0.000000 0.000000
#
# Coordination Sequence:
#
# PCOD9154654 Si02
#       8
#     4   2   4   4   4   4   2   2
#     4  11  23  38  57  85 124 162 202 254 311 374
#     4  12  24  42  61  90 123 163 213 263 315 382
#     4  11  22  41  61  89 121 165 209 259 315 374
#     4  11  23  39  64  90 125 165 212 261 316 377
#     4   9  19  37  64  93 123 159 202 254 311 375
#     4   9  20  39  63  91 126 164 204 255 313 374
#     4  12  23  39  58  92 128 167 211 254 314 388
#     4  12  26  40  63  84 119 164 214 261 314 374
#
# _framework density 19.308374000000001
#
# number of rings (size 3 to 8) (size 9 to 14) (size 15 to 20)
#    0.000    1.385    2.308    3.462    0.000    4.308 
#    0.000    2.308    0.000    0.000    0.000    0.000 
#    0.000    0.000    0.000    0.000    0.000    0.000 
#
# Total GULP energy -144748.810471 kJ/mol
# GULP energy per Si atom -5567.261941 kJ/mol
# Density = 1.926443 g / cm^3
# Si number density = 19.308374 Si / 1000 Ang^3
#
#
#
# Elastic Constant Matrix: (Units=GPa)
#
#
# Indices 1 2 3 4 5 6 
#
# 1 117.2679 81.3144 38.7610 0.0000 9.7080 0.0000
# 2 81.3144 186.4003 43.3710 0.0000 27.1476 0.0000
# 3 38.7610 43.3710 87.5885 0.0000 2.1286 0.0000
# 4 0.0000 0.0000 0.0000 45.6403 0.0000 -7.4973
# 5 9.7080 27.1476 2.1286 0.0000 41.1748 0.0000
# 6 0.0000 0.0000 0.0000 -7.4973 0.0000 45.7957
#
#
#
# Elastic Compliance Matrix: (Units=1/GPa)
#
#
# Indices 1 2 3 4 5 6 
#
# 1 0.013040 -0.004971 -0.003318 0.000000 0.000375 0.000000
# 2 -0.004971 0.008635 -0.001969 0.000000 -0.004419 0.000000
# 3 -0.003318 -0.001969 0.013827 0.000000 0.001365 0.000000
# 4 0.000000 0.000000 0.000000 0.022516 0.000000 0.003686
# 5 0.000375 -0.004419 0.001365 0.000000 0.027042 0.000000
# 6 0.000000 0.000000 0.000000 0.003686 0.000000 0.022440
#
#
# Mechanical properties :
#
#
# Convention : Reuss Voigt Hill
#
# Bulk Modulus (GPa) = 66.72681 79.79440 73.26061
# Shear Modulus (GPa) = 37.59085 41.70950 39.65017
#
# Velocity S-wave (km/s) = 4.41712 4.65281 4.53650
# Velocity P-wave (km/s) = 7.78769 8.38337 8.09101
#
# Compressibility (1/GPa) = 0.01498648
#
# Stress axis : x y z
#
# Youngs Moduli (GPa) = 76.68542 115.80718 72.32185
#
# Poissons Ratio (x) = 0.57569 0.23999
# Poissons Ratio (y) = 0.38121 0.14237
# Poissons Ratio (z) = 0.25447 0.22797
#
# Static dielectric constant tensor:
#      x y z
#    x 1.674560 0.000000 -0.023440 
#    y 0.000000 1.779330 0.000000 
#    z -0.023440 0.000000 1.666920 
# 
# From -- ./inp_files/28447.got.cif
#   From: 2010.05.17/outbox.cif.g08.bks.cpg/sg10_15_cif.got.tgz:28447.got - 2010.06.03 11:33:40.
