data_PCOD9154274
_publ_section_title
;
Structure prediction by ZEFSAII (Michael W. Deem and Ramdas Pophale) SiO2 
 PCOD9154274
Probable space group: P 2/M
;
_chemical_formula_sum "Si O2"
_cell_formula_units_Z 28
_cell_length_a 11.364623
_cell_length_b 14.247163
_cell_length_c 15.090657
_cell_angle_alpha 90.000000
_cell_angle_beta 42.012725
_cell_angle_gamma 90.000000
_cell_volume 1635.345682
_symmetry_space_group_name_H-M "P 2/M"
_symmetry_group_IT_number 10
_symmetry_cell_setting 'monoclinic'
loop_
_space_group_symop_operation_xyz
x,y,z
-x,y,-z
-x,-y,-z
x,-y,z
loop_
_atom_site_type_symbol
_atom_site_label
_atom_site_fract_x
_atom_site_fract_y
_atom_site_fract_z
Si Si1 0.407574 0.801336 0.454783
Si Si2 0.048315 0.603418 0.869854
Si Si3 0.083065 0.800228 0.051400
Si Si4 0.551858 0.110369 0.200892
Si Si5 0.338642 0.113014 0.152285
Si Si6 0.038936 0.888908 0.708334
Si Si7 0.464515 0.396909 0.624220
O O1 0.500000 0.806587 0.500000
O O2 0.504228 0.865085 0.328020
O O3 0.428783 0.694697 0.407136
O O4 0.207978 0.833981 0.578561
O O5 0.014981 0.500000 0.847774
O O6 0.256771 0.622150 0.749653
O O7 0.945726 0.695015 0.894383
O O8 0.000000 0.596505 0.000000
O O9 0.985722 0.869448 0.173373
O O10 0.283194 0.830711 0.926634
O O11 0.000000 0.803244 0.000000
O O12 0.390262 0.131097 0.224950
O O13 0.594126 0.000000 0.168427
O O14 0.145386 0.144778 0.231570
O O15 0.334002 0.000000 0.142953
O O16 0.500000 0.147146 0.000000
O O17 0.062081 0.000000 0.679025
O O18 0.500000 0.404285 0.500000
O O19 0.502658 0.500000 0.642965
#
# Coordination Sequence:
#
# PCOD9154274 Si02
#       7
#     4   4   4   4   4   4   4
#     4  11  22  35  50  80 117 139 164 210 266 326
#     4   9  17  30  48  71 100 132 170 216 256 297
#     4  11  20  31  50  78 105 135 174 209 258 325
#     4  11  22  35  53  74 104 145 180 214 255 305
#     4   9  18  37  57  73  94 131 192 238 247 275
#     4  11  22  35  53  74 104 143 176 215 260 299
#     4   9  17  32  52  71 100 140 174 208 250 303
#
# _framework density 17.121760999999999
#
# number of rings (size 3 to 8) (size 9 to 14) (size 15 to 20)
#    0.000    1.857    1.429    5.143    0.000    4.000 
#    0.000    2.143    0.000    0.000    0.000    6.000 
#    0.000    0.000    0.000    0.000    0.000    0.000 
#
# Total GULP energy -156035.543486 kJ/mol
# GULP energy per Si atom -5572.697982 kJ/mol
# Density = 1.708279 g / cm^3
# Si number density = 17.121761 Si / 1000 Ang^3
#
#
#
# Elastic Constant Matrix: (Units=GPa)
#
#
# Indices 1 2 3 4 5 6 
#
# 1 59.5655 50.6291 28.4773 0.0000 -14.7302 0.0000
# 2 50.6291 97.3176 39.8565 0.0000 -23.6334 0.0000
# 3 28.4773 39.8565 122.4408 0.0000 -24.7066 0.0000
# 4 0.0000 0.0000 0.0000 27.9122 0.0000 -8.9787
# 5 -14.7302 -23.6334 -24.7066 0.0000 29.2799 0.0000
# 6 0.0000 0.0000 0.0000 -8.9787 0.0000 -3.6692
#
#
#
# Elastic Compliance Matrix: (Units=1/GPa)
#
#
# Indices 1 2 3 4 5 6 
#
# 1 0.030696 -0.014698 -0.001968 0.000000 0.001919 0.000000
# 2 -0.014698 0.020489 -0.001695 0.000000 0.007714 0.000000
# 3 -0.001968 -0.001695 0.010486 0.000000 0.006490 0.000000
# 4 0.000000 0.000000 0.000000 0.020047 0.000000 -0.049055
# 5 0.001919 0.007714 0.006490 0.000000 0.046822 0.000000
# 6 0.000000 0.000000 0.000000 -0.049055 0.000000 -0.152498
#
#
# Mechanical properties :
#
#
# Convention : Reuss Voigt Hill
#
# Bulk Modulus (GPa) = 40.07764 57.47220 48.77492
# Shear Modulus (GPa) = 237.19758 21.39530 129.29644
#
# Velocity S-wave (km/s) = 11.78289 3.53880 8.69941
# Velocity P-wave (km/s) = 14.44208 7.09486 11.37784
#
# Compressibility (1/GPa) = 0.02495157
#
# Stress axis : x y z
#
# Youngs Moduli (GPa) = 32.57731 48.80566 95.36335
#
# Poissons Ratio (x) = 0.71733 0.18765
# Poissons Ratio (y) = 0.47881 0.16161
# Poissons Ratio (z) = 0.06410 0.08271
#
# Static dielectric constant tensor:
#      x y z
#    x 1.579550 0.000000 0.005290 
#    y 0.000000 1.647180 0.000000 
#    z 0.005290 0.000000 1.573300 
# 
# From -- ./inp_files/64905.got.cif
#   From: 2010.05.17/outbox.cif.g08.bks.cpg/sg10_33_cif.got.tgz:64905.got - 2010.06.03 11:33:40.
