data_PCOD9154333
_publ_section_title
;
Structure prediction by ZEFSAII (Michael W. Deem and Ramdas Pophale) SiO2 
 PCOD9154333
Probable space group: P 2/M
;
_chemical_formula_sum "Si O2"
_cell_formula_units_Z 20
_cell_length_a 19.453701
_cell_length_b 10.186450
_cell_length_c 12.091424
_cell_angle_alpha 90.000000
_cell_angle_beta 154.088773
_cell_angle_gamma 90.000000
_cell_volume 1047.037325
_symmetry_space_group_name_H-M "P 2/M"
_symmetry_group_IT_number 10
_symmetry_cell_setting 'monoclinic'
loop_
_space_group_symop_operation_xyz
x,y,z
-x,y,-z
-x,-y,-z
x,-y,z
loop_
_atom_site_type_symbol
_atom_site_label
_atom_site_fract_x
_atom_site_fract_y
_atom_site_fract_z
Si Si1 0.757154 0.500000 0.346530
Si Si2 0.260310 0.000000 0.733372
Si Si3 0.461653 0.500000 0.755872
Si Si4 0.732647 0.843811 0.881441
Si Si5 0.051815 0.746499 0.453947
Si Si6 0.379916 0.000000 0.663464
Si Si7 0.575827 0.766766 0.433211
O O1 0.666497 0.500000 0.331531
O O2 0.860644 0.630123 0.482512
O O3 0.627906 0.500000 0.060972
O O4 0.167876 0.129518 0.636435
O O5 0.275535 0.000000 0.622302
O O6 0.437232 0.000000 0.034749
O O7 0.443334 0.628131 0.653872
O O8 0.683822 0.769367 0.698603
O O9 0.594385 0.815830 0.769673
O O10 0.734346 0.000000 0.862120
O O11 0.898382 0.796500 0.167599
O O12 0.000000 0.698888 0.500000
O O13 0.356947 0.128523 0.556408
#
# Coordination Sequence:
#
# PCOD9154333 Si02
#       7
#     2   2   2   4   4   2   4
#     4  11  25  45  63  94 128 168 208 259 312 383
#     4  11  23  35  59  94 118 160 216 257 304 371
#     4  11  24  44  67  91 128 164 216 259 307 370
#     4  11  22  41  65  97 129 160 214 263 308 375
#     4  12  24  40  65  92 130 163 204 262 323 365
#     4  11  20  38  61  85 122 166 212 255 305 366
#     4  11  22  40  67  91 123 171 209 258 311 365
#
# _framework density 19.101516
#
# number of rings (size 3 to 8) (size 9 to 14) (size 15 to 20)
#    0.000    0.800    3.000    6.000    0.000    6.400 
#    0.000    6.000    0.000    0.000    0.000    0.000 
#    0.000    0.000    0.000    0.000    0.000    0.000 
#
# Total GULP energy -111908.024364 kJ/mol
# GULP energy per Si atom -5595.401218 kJ/mol
# Density = 1.905804 g / cm^3
# Si number density = 19.101516 Si / 1000 Ang^3
#
#
#
# Elastic Constant Matrix: (Units=GPa)
#
#
# Indices 1 2 3 4 5 6 
#
# 1 83.1102 16.2163 20.5457 0.0000 -14.6969 0.0000
# 2 16.2163 103.6751 19.8160 0.0000 -10.8166 0.0000
# 3 20.5457 19.8160 83.2739 0.0000 -2.9405 0.0000
# 4 0.0000 0.0000 0.0000 1.5125 0.0000 -16.5951
# 5 -14.6969 -10.8166 -2.9405 0.0000 27.4492 0.0000
# 6 0.0000 0.0000 0.0000 -16.5951 0.0000 26.4385
#
#
#
# Elastic Compliance Matrix: (Units=1/GPa)
#
#
# Indices 1 2 3 4 5 6 
#
# 1 0.014183 -0.000917 -0.003037 0.000000 0.006907 0.000000
# 2 -0.000917 0.010562 -0.002166 0.000000 0.003439 0.000000
# 3 -0.003037 -0.002166 0.013236 0.000000 -0.001062 0.000000
# 4 0.000000 0.000000 0.000000 -0.112309 0.000000 -0.070495
# 5 0.006907 0.003439 -0.001062 0.000000 0.041371 0.000000
# 6 0.000000 0.000000 0.000000 -0.070495 0.000000 -0.006425
#
#
# Mechanical properties :
#
#
# Convention : Reuss Voigt Hill
#
# Bulk Modulus (GPa) = 38.84888 42.57946 40.71417
# Shear Modulus (GPa) = -269.35710 25.31213 -122.02249
#
# Velocity S-wave (km/s) = -11.88779 3.64419 -8.00123
# Velocity P-wave (km/s) = 12.96317 6.32822 7.99992
#
# Compressibility (1/GPa) = 0.02574077
#
# Stress axis : x y z
#
# Youngs Moduli (GPa) = 70.50448 94.68190 75.55304
#
# Poissons Ratio (x) = 0.08686 0.22947
# Poissons Ratio (y) = 0.06468 0.16361
# Poissons Ratio (z) = 0.21414 0.20504
#
# Static dielectric constant tensor:
#      x y z
#    x 1.650610 0.000000 -0.004700 
#    y 0.000000 1.588510 0.000000 
#    z -0.004700 0.000000 1.645530 
# 
# From -- ./inp_files/53166.got.cif
#   From: 2010.05.17/outbox.cif.g08.bks.cpg/sg10_27_cif.got.tgz:53166.got - 2010.06.03 11:33:40.
