data_PCOD9154064
_publ_section_title
;
Structure prediction by ZEFSAII (Michael W. Deem and Ramdas Pophale) SiO2 
 PCOD9154064
Probable space group: P 2/M
;
_chemical_formula_sum "Si O2"
_cell_formula_units_Z 28
_cell_length_a 15.206836
_cell_length_b 8.634678
_cell_length_c 11.867860
_cell_angle_alpha 90.000000
_cell_angle_beta 117.824466
_cell_angle_gamma 90.000000
_cell_volume 1378.152227
_symmetry_space_group_name_H-M "P 2/M"
_symmetry_group_IT_number 10
_symmetry_cell_setting 'monoclinic'
loop_
_space_group_symop_operation_xyz
x,y,z
-x,y,-z
-x,-y,-z
x,-y,z
loop_
_atom_site_type_symbol
_atom_site_label
_atom_site_fract_x
_atom_site_fract_y
_atom_site_fract_z
Si Si1 0.295873 0.176623 0.261135
Si Si2 0.782769 0.317882 0.001205
Si Si3 0.384460 0.685017 0.912801
Si Si4 0.172030 0.681262 0.374132
Si Si5 0.012957 0.814548 0.874847
Si Si6 0.308023 0.183912 0.634610
Si Si7 0.498195 0.674622 0.364068
O O1 0.263195 0.288535 0.342021
O O2 0.405018 0.217487 0.282611
O O3 0.288707 0.000000 0.295315
O O4 0.226088 0.211900 0.114297
O O5 0.782972 0.500000 0.970717
O O6 0.687872 0.290291 0.023986
O O7 0.889008 0.269947 0.114588
O O8 0.387358 0.500000 0.892399
O O9 0.330781 0.766816 0.775889
O O10 0.500000 0.734631 0.000000
O O11 0.152066 0.500000 0.371776
O O12 0.080648 0.765407 0.257500
O O13 0.209603 0.748343 0.515716
O O14 0.023760 0.000000 0.878035
O O15 0.000000 0.768807 0.000000
O O16 0.401805 0.255032 0.624131
O O17 0.306697 0.000000 0.622961
O O18 0.500000 0.667698 0.500000
O O19 0.483099 0.500000 0.310392
#
# Coordination Sequence:
#
# PCOD9154064 Si02
#       7
#     4   4   4   4   4   4   4
#     4  12  23  36  58  91 129 164 206 262 321 381
#     4  11  23  40  66  96 127 170 218 264 318 383
#     4  10  23  45  70  95 129 172 219 265 313 381
#     4  12  24  40  63  91 127 168 212 261 318 388
#     4  11  23  40  64  95 132 171 212 270 329 381
#     4  12  25  41  64  93 129 169 212 267 327 383
#     4  11  22  36  57  85 121 165 208 254 312 381
#
# _framework density 20.317056999999998
#
# number of rings (size 3 to 8) (size 9 to 14) (size 15 to 20)
#    0.000    0.714    2.857    6.000    0.000    3.714 
#    0.000    0.714    0.000    4.286    0.000    0.000 
#    0.000    0.000    0.000    0.000    0.000    0.000 
#
# Total GULP energy -156523.924650 kJ/mol
# GULP energy per Si atom -5590.140166 kJ/mol
# Density = 2.027081 g / cm^3
# Si number density = 20.317057 Si / 1000 Ang^3
#
#
#
# Elastic Constant Matrix: (Units=GPa)
#
#
# Indices 1 2 3 4 5 6 
#
# 1 64.6096 11.8178 11.4028 0.0000 18.4697 0.0000
# 2 11.8178 83.7657 18.3882 0.0000 -4.6196 0.0000
# 3 11.4028 18.3882 94.6740 0.0000 13.8611 0.0000
# 4 0.0000 0.0000 0.0000 33.6419 0.0000 10.3248
# 5 18.4697 -4.6196 13.8611 0.0000 33.2784 0.0000
# 6 0.0000 0.0000 0.0000 10.3248 0.0000 24.7113
#
#
#
# Elastic Compliance Matrix: (Units=1/GPa)
#
#
# Indices 1 2 3 4 5 6 
#
# 1 0.019279 -0.003325 -0.000045 0.000000 -0.011143 0.000000
# 2 -0.003325 0.013315 -0.002903 0.000000 0.004903 0.000000
# 3 -0.000045 -0.002903 0.011914 0.000000 -0.005340 0.000000
# 4 0.000000 0.000000 0.000000 0.034097 0.000000 -0.014246
# 5 -0.011143 0.004903 -0.005340 0.000000 0.039139 0.000000
# 6 0.000000 0.000000 0.000000 -0.014246 0.000000 0.046420
#
#
# Mechanical properties :
#
#
# Convention : Reuss Voigt Hill
#
# Bulk Modulus (GPa) = 31.28745 36.25187 33.76966
# Shear Modulus (GPa) = 26.68618 31.75570 29.22094
#
# Velocity S-wave (km/s) = 3.62814 3.95778 3.79654
# Velocity P-wave (km/s) = 5.74319 6.22633 5.98963
#
# Compressibility (1/GPa) = 0.03196170
#
# Stress axis : x y z
#
# Youngs Moduli (GPa) = 51.87009 75.10417 83.93634
#
# Poissons Ratio (x) = 0.24969 0.00377
# Poissons Ratio (y) = 0.17244 0.24371
# Poissons Ratio (z) = 0.00233 0.21806
#
# Static dielectric constant tensor:
#      x y z
#    x 1.749110 0.000000 0.033570 
#    y 0.000000 1.677390 0.000000 
#    z 0.033570 0.000000 1.777450 
# 
# From -- ./inp_files/50093.got.cif
#   From: 2010.05.17/outbox.cif.g08.bks.cpg/sg10_26_cif.got.tgz:50093.got - 2010.06.03 11:33:40.
