data_PCOD9154808
_publ_section_title
;
Structure prediction by ZEFSAII (Michael W. Deem and Ramdas Pophale) SiO2 
 PCOD9154808
Probable space group: P 2/M
;
_chemical_formula_sum "Si O2"
_cell_formula_units_Z 20
_cell_length_a 7.386792
_cell_length_b 15.884116
_cell_length_c 7.098045
_cell_angle_alpha 90.000000
_cell_angle_beta 83.567432
_cell_angle_gamma 90.000000
_cell_volume 827.589325
_symmetry_space_group_name_H-M "P 2/M"
_symmetry_group_IT_number 10
_symmetry_cell_setting 'monoclinic'
loop_
_space_group_symop_operation_xyz
x,y,z
-x,y,-z
-x,-y,-z
x,-y,z
loop_
_atom_site_type_symbol
_atom_site_label
_atom_site_fract_x
_atom_site_fract_y
_atom_site_fract_z
Si Si1 0.838053 0.728510 0.783700
Si Si2 0.741751 0.909863 0.356515
Si Si3 0.839790 0.910025 0.791935
Si Si4 0.735179 0.271784 0.376613
Si Si5 0.692476 0.594303 0.080969
O O1 0.783171 0.819356 0.877086
O O2 0.049792 0.734630 0.701371
O O3 0.729767 0.716585 0.601439
O O4 0.810112 0.652527 0.928384
O O5 0.785926 0.907838 0.576019
O O6 0.653242 0.819345 0.328568
O O7 0.939661 0.912085 0.233865
O O8 0.649156 0.000000 0.327052
O O9 0.773381 0.000000 0.876679
O O10 0.667353 0.352356 0.273291
O O11 0.764208 0.500000 0.104361
O O12 0.500000 0.588098 0.000000
#
# Coordination Sequence:
#
# PCOD9154808 Si02
#       5
#     4   4   4   4   4
#     4   9  18  34  58  85 108 133 170 216 262 305
#     4   7  10  20  43  76 109 135 160 196 245 300
#     4   7  10  20  43  76 109 135 160 196 245 300
#     4   9  18  34  58  85 108 133 170 216 262 305
#     4  11  25  41  54  71 100 140 181 219 264 319
#
# _framework density 24.166575999999999
#
# number of rings (size 3 to 8) (size 9 to 14) (size 15 to 20)
#    0.000    3.400    0.000    4.200    0.000    3.200 
#    0.000    5.000    0.000    7.200    0.000    5.600 
#    0.000    0.000    0.000    0.000    0.000    0.000 
#
# Total GULP energy -111732.153495 kJ/mol
# GULP energy per Si atom -5586.607675 kJ/mol
# Density = 2.411157 g / cm^3
# Si number density = 24.166576 Si / 1000 Ang^3
#
#
#
# Elastic Constant Matrix: (Units=GPa)
#
#
# Indices 1 2 3 4 5 6 
#
# 1 45.7186 31.8082 18.3277 0.0000 -10.1706 0.0000
# 2 31.8082 285.4387 70.4661 0.0000 10.1292 0.0000
# 3 18.3277 70.4661 102.2870 0.0000 12.0858 0.0000
# 4 0.0000 0.0000 0.0000 37.0749 0.0000 22.0776
# 5 -10.1706 10.1292 12.0858 0.0000 26.6232 0.0000
# 6 0.0000 0.0000 0.0000 22.0776 0.0000 -22.9507
#
#
#
# Elastic Compliance Matrix: (Units=1/GPa)
#
#
# Indices 1 2 3 4 5 6 
#
# 1 0.028823 -0.002443 -0.005170 0.000000 0.014287 0.000000
# 2 -0.002443 0.004431 -0.002436 0.000000 -0.001513 0.000000
# 3 -0.005170 -0.002436 0.013213 0.000000 -0.007047 0.000000
# 4 0.000000 0.000000 0.000000 0.017149 0.000000 0.016497
# 5 0.014287 -0.001513 -0.007047 0.000000 0.046794 0.000000
# 6 0.000000 0.000000 0.000000 0.016497 0.000000 -0.027703
#
#
# Mechanical properties :
#
#
# Convention : Reuss Voigt Hill
#
# Bulk Modulus (GPa) = 37.92114 74.96093 56.44103
# Shear Modulus (GPa) = 44.80513 29.00563 36.90538
#
# Velocity S-wave (km/s) = 4.31050 3.46820 3.91208
# Velocity P-wave (km/s) = 6.36392 6.86467 6.61903
#
# Compressibility (1/GPa) = 0.02637052
#
# Stress axis : x y z
#
# Youngs Moduli (GPa) = 34.69415 225.70289 75.68077
#
# Poissons Ratio (x) = 0.55132 0.39126
# Poissons Ratio (y) = 0.08475 0.18434
# Poissons Ratio (z) = 0.17937 0.54977
#
# Static dielectric constant tensor:
#      x y z
#    x 1.977020 0.000000 0.005020 
#    y 0.000000 1.939480 0.000000 
#    z 0.005020 0.000000 1.947370 
# 
# From -- ./inp_files/24302.got.cif
#   From: 2010.05.17/outbox.cif.g08.bks.cpg/sg10_13_cif.got.tgz:24302.got - 2010.06.03 11:33:40.
