data_PCOD9154786
_publ_section_title
;
Structure prediction by ZEFSAII (Michael W. Deem and Ramdas Pophale) SiO2 
 PCOD9154786
Probable space group: P 2/M
;
_chemical_formula_sum "Si O2"
_cell_formula_units_Z 17
_cell_length_a 8.065473
_cell_length_b 19.396240
_cell_length_c 9.103315
_cell_angle_alpha 90.000000
_cell_angle_beta 31.473605
_cell_angle_gamma 90.000000
_cell_volume 743.541835
_symmetry_space_group_name_H-M "P 2/M"
_symmetry_group_IT_number 10
_symmetry_cell_setting 'monoclinic'
loop_
_space_group_symop_operation_xyz
x,y,z
-x,y,-z
-x,-y,-z
x,-y,z
loop_
_atom_site_type_symbol
_atom_site_label
_atom_site_fract_x
_atom_site_fract_y
_atom_site_fract_z
Si Si1 0.500000 0.500000 0.500000
Si Si2 0.984403 0.697269 0.336129
Si Si3 0.568944 0.078300 0.121264
Si Si4 0.313985 0.633043 0.838425
Si Si5 0.815784 0.158872 0.360911
O O1 0.385412 0.560211 0.706234
O O2 0.624352 0.676331 0.576507
O O3 0.018986 0.772123 0.238216
O O4 0.000000 0.699006 0.500000
O O5 0.215632 0.641067 0.084304
O O6 0.925778 0.103235 0.886031
O O7 0.517829 0.000000 0.212480
O O8 0.500000 0.079683 0.000000
O O9 0.326858 0.130056 0.380568
O O10 0.000000 0.662205 0.000000
O O11 0.500000 0.168769 0.500000
#
# Coordination Sequence:
#
# PCOD9154786 Si02
#       5
#     1   4   4   4   4
#     4  12  26  48  80 106 138 188 222 280 340 414
#     4  12  26  45  70 104 143 182 229 294 348 406
#     4  11  24  43  67  97 139 187 231 285 352 415
#     4  12  24  46  75 102 136 183 231 271 343 416
#     4  12  25  43  68 101 136 181 236 289 346 405
#
# _framework density 22.863541999999999
#
# number of rings (size 3 to 8) (size 9 to 14) (size 15 to 20)
#    0.000    0.235    2.353    7.412    0.000    4.706 
#    0.000    3.529    0.000    0.000    0.000    0.000 
#    0.000    0.000    0.000    0.000    0.000    0.000 
#
# Total GULP energy -94774.359946 kJ/mol
# GULP energy per Si atom -5574.962350 kJ/mol
# Density = 2.281150 g / cm^3
# Si number density = 22.863542 Si / 1000 Ang^3
#
#
#
# Elastic Constant Matrix: (Units=GPa)
#
#
# Indices 1 2 3 4 5 6 
#
# 1 92.6366 41.2369 17.8315 0.0000 11.4073 0.0000
# 2 41.2369 111.1012 38.2501 0.0000 18.4656 0.0000
# 3 17.8315 38.2501 105.1383 0.0000 8.5333 0.0000
# 4 0.0000 0.0000 0.0000 52.8157 0.0000 37.2214
# 5 11.4073 18.4656 8.5333 0.0000 42.0253 0.0000
# 6 0.0000 0.0000 0.0000 37.2214 0.0000 17.8898
#
#
#
# Elastic Compliance Matrix: (Units=1/GPa)
#
#
# Indices 1 2 3 4 5 6 
#
# 1 0.013042 -0.004427 -0.000480 0.000000 -0.001498 0.000000
# 2 -0.004427 0.012434 -0.003484 0.000000 -0.003554 0.000000
# 3 -0.000480 -0.003484 0.010905 0.000000 -0.000553 0.000000
# 4 0.000000 0.000000 0.000000 -0.040606 0.000000 0.084484
# 5 -0.001498 -0.003554 -0.000553 0.000000 0.025876 0.000000
# 6 0.000000 0.000000 0.000000 0.084484 0.000000 -0.119880
#
#
# Mechanical properties :
#
#
# Convention : Reuss Voigt Hill
#
# Bulk Modulus (GPa) = 51.02149 55.94590 53.48370
# Shear Modulus (GPa) = -66.74380 36.64998 -15.04691
#
# Velocity S-wave (km/s) = -5.40885 4.00808 -2.56816
# Velocity P-wave (km/s) = 4.07963 6.77807 3.82745
#
# Compressibility (1/GPa) = 0.01959958
#
# Stress axis : x y z
#
# Youngs Moduli (GPa) = 76.67424 80.42339 91.69922
#
# Poissons Ratio (x) = 0.35601 0.04401
# Poissons Ratio (y) = 0.33941 0.31952
# Poissons Ratio (z) = 0.03680 0.28023
#
# Static dielectric constant tensor:
#      x y z
#    x 1.920860 0.000000 0.058600 
#    y 0.000000 1.800660 0.000000 
#    z 0.058600 0.000000 1.881810 
# 
# From -- ./inp_files/20045.got.cif
#   From: 2010.05.17/outbox.cif.g08.bks.cpg/sg10_11_cif.got.tgz:20045.got - 2010.06.03 11:33:40.
