data_PCOD9154175
_publ_section_title
;
Structure prediction by ZEFSAII (Michael W. Deem and Ramdas Pophale) SiO2 
 PCOD9154175
Probable space group: P 2/M
;
_chemical_formula_sum "Si O2"
_cell_formula_units_Z 17
_cell_length_a 5.114478
_cell_length_b 7.754809
_cell_length_c 22.908301
_cell_angle_alpha 90.000000
_cell_angle_beta 124.923830
_cell_angle_gamma 90.000000
_cell_volume 744.960970
_symmetry_space_group_name_H-M "P 2/M"
_symmetry_group_IT_number 10
_symmetry_cell_setting 'monoclinic'
loop_
_space_group_symop_operation_xyz
x,y,z
-x,y,-z
-x,-y,-z
x,-y,z
loop_
_atom_site_type_symbol
_atom_site_label
_atom_site_fract_x
_atom_site_fract_y
_atom_site_fract_z
Si Si1 0.514311 0.199824 0.782789
Si Si2 0.364247 0.800468 0.068851
Si Si3 0.365859 0.288855 0.544868
Si Si4 0.815416 0.698389 0.705118
Si Si5 0.500000 0.500000 0.000000
O O1 0.635911 0.246353 0.862726
O O2 0.763736 0.222754 0.762458
O O3 0.177402 0.292046 0.729261
O O4 0.429927 0.000000 0.774791
O O5 0.478975 0.000000 0.075743
O O6 0.542255 0.653840 0.055265
O O7 0.000000 0.793682 0.000000
O O8 0.500000 0.232775 0.500000
O O9 0.378807 0.500000 0.547731
O O10 0.576806 0.226520 0.626181
O O11 0.000000 0.237198 0.500000
O O12 0.726760 0.500000 0.701651
#
# Coordination Sequence:
#
# PCOD9154175 Si02
#       5
#     4   4   4   4   1
#     4  11  25  43  64  90 132 174 207 262 329 391
#     4  10  25  44  64  93 129 173 218 266 333 393
#     4   9  17  32  57  89 125 160 203 261 320 371
#     4  11  23  39  66  98 125 164 220 270 314 381
#     4  12  24  40  72  96 124 164 220 286 314 390
#
# _framework density 22.819987000000001
#
# number of rings (size 3 to 8) (size 9 to 14) (size 15 to 20)
#    0.000    1.647    0.000    3.529    6.588    3.765 
#    0.000    0.000    0.000   14.118    0.000    0.000 
#    0.000    0.000    0.000    0.000    0.000    0.000 
#
# Total GULP energy -94788.839023 kJ/mol
# GULP energy per Si atom -5575.814060 kJ/mol
# Density = 2.276805 g / cm^3
# Si number density = 22.819987 Si / 1000 Ang^3
#
#
#
# Elastic Constant Matrix: (Units=GPa)
#
#
# Indices 1 2 3 4 5 6 
#
# 1 75.7298 7.6858 -2.1407 0.0000 -10.8225 0.0000
# 2 7.6858 77.5584 14.3893 0.0000 -12.5082 0.0000
# 3 -2.1407 14.3893 85.8803 0.0000 -8.1686 0.0000
# 4 0.0000 0.0000 0.0000 20.2355 0.0000 -11.5685
# 5 -10.8225 -12.5082 -8.1686 0.0000 41.3393 0.0000
# 6 0.0000 0.0000 0.0000 -11.5685 0.0000 21.4009
#
#
#
# Elastic Compliance Matrix: (Units=1/GPa)
#
#
# Indices 1 2 3 4 5 6 
#
# 1 0.013825 -0.000962 0.000838 0.000000 0.003494 0.000000
# 2 -0.000962 0.013939 -0.002020 0.000000 0.003566 0.000000
# 3 0.000838 -0.002020 0.012195 0.000000 0.002018 0.000000
# 4 0.000000 0.000000 0.000000 0.071521 0.000000 0.038661
# 5 0.003494 0.003566 0.002018 0.000000 0.026583 0.000000
# 6 0.000000 0.000000 0.000000 0.038661 0.000000 0.067626
#
#
# Mechanical properties :
#
#
# Convention : Reuss Voigt Hill
#
# Bulk Modulus (GPa) = 28.03358 31.00415 29.51886
# Shear Modulus (GPa) = 22.53596 31.21075 26.87336
#
# Velocity S-wave (km/s) = 3.14595 3.70225 3.43538
# Velocity P-wave (km/s) = 5.05047 5.64725 5.35718
#
# Compressibility (1/GPa) = 0.03567150
#
# Stress axis : x y z
#
# Youngs Moduli (GPa) = 72.33014 71.74198 81.99791
#
# Poissons Ratio (x) = 0.06902 -0.06873
# Poissons Ratio (y) = 0.06959 0.16565
# Poissons Ratio (z) = -0.06062 0.14493
#
# Static dielectric constant tensor:
#      x y z
#    x 1.801470 0.000000 0.011290 
#    y 0.000000 1.845340 0.000000 
#    z 0.011290 0.000000 1.851960 
# 
# From -- ./inp_files/80995.got.cif
#   From: 2010.05.17/outbox.cif.g08.bks.cpg/sg10_41_cif.got.tgz:80995.got - 2010.06.03 11:33:40.
