data_PCOD9155769
_publ_section_title
;
Structure prediction by ZEFSAII (Michael W. Deem and Ramdas Pophale) SiO2 
 PCOD9155769
Probable space group: P 21/M
;
_chemical_formula_sum "Si O2"
_cell_formula_units_Z 32
_cell_length_a 13.727530
_cell_length_b 7.953330
_cell_length_c 24.824396
_cell_angle_alpha 90.000000
_cell_angle_beta 45.696867
_cell_angle_gamma 90.000000
_cell_volume 1939.650697
_symmetry_space_group_name_H-M "P 21/M"
_symmetry_group_IT_number 11
_symmetry_cell_setting 'monoclinic'
loop_
_space_group_symop_operation_xyz
x,y,z
-x,1/2+y,-z
-x,-y,-z
x,1/2-y,z
loop_
_atom_site_type_symbol
_atom_site_label
_atom_site_fract_x
_atom_site_fract_y
_atom_site_fract_z
Si Si1 0.674466 0.555117 0.688950
Si Si2 0.066918 0.550263 0.672740
Si Si3 0.730331 0.543758 0.553269
Si Si4 0.644922 0.549391 0.467616
Si Si5 0.616767 0.449365 0.997586
Si Si6 0.024791 0.945427 0.408940
Si Si7 0.583088 0.956714 0.838541
Si Si8 0.814589 0.951039 0.834552
O O1 0.632397 0.750000 0.702785
O O2 0.656340 0.483199 0.635947
O O3 0.837007 0.545618 0.635833
O O4 0.605676 0.481358 0.769089
O O5 0.048133 0.750000 0.671843
O O6 0.226821 0.516279 0.616251
O O7 0.017780 0.460335 0.637209
O O8 0.965891 0.494878 0.759457
O O9 0.730962 0.750000 0.553519
O O10 0.666703 0.489119 0.521021
O O11 0.889639 0.492750 0.491987
O O12 0.500000 0.500000 0.500000
O O13 0.654922 0.750000 0.464865
O O14 0.620207 0.250000 0.999507
O O15 0.756286 0.503760 0.915613
O O16 0.500000 0.500000 0.000000
O O17 0.556310 0.510615 0.077940
O O18 0.049414 0.750000 0.412467
O O19 0.587078 0.750000 0.835806
O O20 0.708287 0.010539 0.829161
O O21 0.810553 0.750000 0.833637
#
# Coordination Sequence:
#
# PCOD9155769 Si02
#       8
#     4   4   4   4   4   4   4   4
#     4  10  16  27  43  57  80 117 148 176 210 244
#     4  10  18  30  47  65  84 113 147 180 217 257
#     4   8  17  29  43  61  82 107 142 179 209 249
#     4  10  20  35  50  68  88 109 139 176 218 264
#     4   9  16  25  36  53  78 111 146 180 211 244
#     4  10  18  27  37  59  89 113 143 181 211 247
#     4   8  14  24  37  55  79 110 148 177 202 244
#     4   9  16  27  40  58  81 108 146 181 208 250
#
# _framework density 16.497814999999999
#
# number of rings (size 3 to 8) (size 9 to 14) (size 15 to 20)
#    0.000    2.750    1.250    3.375    0.000    1.000 
#    0.000    3.750    0.000    0.000    0.000    0.000 
#    0.000    1.000    0.000    2.000    0.000    2.625 
#
# Total GULP energy -178183.818576 kJ/mol
# GULP energy per Si atom -5568.244331 kJ/mol
# Density = 1.646027 g / cm^3
# Si number density = 16.497815 Si / 1000 Ang^3
#
#
#
# Elastic Constant Matrix: (Units=GPa)
#
#
# Indices 1 2 3 4 5 6 
#
# 1 46.3822 0.0513 47.1619 0.0000 -1.4973 0.0000
# 2 0.0513 24.6766 10.8808 0.0000 0.1413 0.0000
# 3 47.1619 10.8808 186.2590 0.0000 13.2856 0.0000
# 4 0.0000 0.0000 0.0000 17.5988 0.0000 -4.0571
# 5 -1.4973 0.1413 13.2856 0.0000 17.4596 0.0000
# 6 0.0000 0.0000 0.0000 -4.0571 0.0000 11.4303
#
#
#
# Elastic Compliance Matrix: (Units=1/GPa)
#
#
# Indices 1 2 3 4 5 6 
#
# 1 0.030617 0.003685 -0.008621 0.000000 0.009156 0.000000
# 2 0.003685 0.042082 -0.003584 0.000000 0.002703 0.000000
# 3 -0.008621 -0.003584 0.008260 0.000000 -0.006996 0.000000
# 4 0.000000 0.000000 0.000000 0.061886 0.000000 0.021966
# 5 0.009156 0.002703 -0.006996 0.000000 0.063362 0.000000
# 6 0.000000 0.000000 0.000000 0.021966 0.000000 0.095283
#
#
# Mechanical properties :
#
#
# Convention : Reuss Voigt Hill
#
# Bulk Modulus (GPa) = 15.64479 41.50066 28.57272
# Shear Modulus (GPa) = 14.71301 22.57933 18.64617
#
# Velocity S-wave (km/s) = 2.98957 3.70351 3.36552
# Velocity P-wave (km/s) = 4.62820 6.59529 5.69728
#
# Compressibility (1/GPa) = 0.06391904
#
# Stress axis : x y z
#
# Youngs Moduli (GPa) = 32.66139 23.76341 121.06432
#
# Poissons Ratio (x) = -0.08757 1.04367
# Poissons Ratio (y) = -0.12036 0.43392
# Poissons Ratio (z) = 0.28157 0.08517
#
# Static dielectric constant tensor:
#      x y z
#    x 1.526860 0.000000 0.023290 
#    y 0.000000 1.597620 0.000000 
#    z 0.023290 0.000000 1.628090 
# 
# From -- ./inp_files/43807.got.cif
#   From: 2010.05.17/outbox.cif.g08.bks.cpg/sg11_22_cif.got.tgz:43807.got - 2010.06.03 12:22:45.
