data_PCOD9155908
_publ_section_title
;
Structure prediction by ZEFSAII (Michael W. Deem and Ramdas Pophale) SiO2 
 PCOD9155908
Probable space group: P 21/M
;
_chemical_formula_sum "Si O2"
_cell_formula_units_Z 32
_cell_length_a 13.856684
_cell_length_b 8.862418
_cell_length_c 24.615316
_cell_angle_alpha 90.000000
_cell_angle_beta 45.284228
_cell_angle_gamma 90.000000
_cell_volume 2148.056593
_symmetry_space_group_name_H-M "P 21/M"
_symmetry_group_IT_number 11
_symmetry_cell_setting 'monoclinic'
loop_
_space_group_symop_operation_xyz
x,y,z
-x,1/2+y,-z
-x,-y,-z
x,1/2-y,z
loop_
_atom_site_type_symbol
_atom_site_label
_atom_site_fract_x
_atom_site_fract_y
_atom_site_fract_z
Si Si1 0.397198 0.930481 0.167693
Si Si2 0.819788 0.568969 0.831738
Si Si3 0.732404 0.932291 0.552460
Si Si4 0.999348 0.927966 0.593166
Si Si5 0.069332 0.069701 0.680323
Si Si6 0.685846 0.571972 0.688350
Si Si7 0.607163 0.931088 0.999662
Si Si8 0.635386 0.568633 0.470956
O O1 0.380058 0.750000 0.171399
O O2 0.280288 0.005257 0.176009
O O3 0.382252 0.984614 0.235161
O O4 0.543484 0.972279 0.083114
O O5 0.822395 0.750000 0.825593
O O6 0.752067 0.525638 0.916564
O O7 0.969389 0.504131 0.763404
O O8 0.749996 0.750000 0.545993
O O9 0.655617 0.974384 0.638314
O O10 0.659834 0.973704 0.524548
O O11 0.880563 0.007866 0.491556
O O12 0.020993 0.750000 0.594159
O O13 0.848379 0.947202 0.630520
O O14 0.012429 0.016855 0.644497
O O15 0.062274 0.250000 0.686890
O O16 0.227759 0.023802 0.615940
O O17 0.656212 0.750000 0.706326
O O18 0.601613 0.750000 0.998675
O O19 0.500000 0.000000 0.000000
O O20 0.500000 0.500000 0.500000
O O21 0.627350 0.750000 0.472348
#
# Coordination Sequence:
#
# PCOD9155908 Si02
#       8
#     4   4   4   4   4   4   4   4
#     4  10  18  27  40  58  84 119 151 179 213 247
#     4  10  17  27  42  60  84 113 149 185 212 246
#     4   9  19  33  45  60  84 112 141 176 216 254
#     4  10  18  27  41  61  84 112 145 177 207 243
#     4  10  19  30  44  64  88 114 143 177 217 257
#     4  10  19  29  41  59  86 116 147 179 208 245
#     4   8  16  27  38  55  80 112 148 182 212 243
#     4   9  19  34  50  65  84 109 137 174 218 261
#
# _framework density 14.897186
#
# number of rings (size 3 to 8) (size 9 to 14) (size 15 to 20)
#    0.000    2.500    1.250    2.625    0.000    4.500 
#    0.000    0.000    0.000    0.000    0.000    0.000 
#    0.000    1.000    0.000    2.250    0.000    4.000 
#
# Total GULP energy -178189.324605 kJ/mol
# GULP energy per Si atom -5568.416394 kJ/mol
# Density = 1.486328 g / cm^3
# Si number density = 14.897186 Si / 1000 Ang^3
#
#
#
# Elastic Constant Matrix: (Units=GPa)
#
#
# Indices 1 2 3 4 5 6 
#
# 1 42.6919 21.8146 50.0713 0.0000 -3.3528 0.0000
# 2 21.8146 31.6427 44.5301 0.0000 0.7961 0.0000
# 3 50.0713 44.5301 153.5067 0.0000 9.0403 0.0000
# 4 0.0000 0.0000 0.0000 22.9633 0.0000 -2.3075
# 5 -3.3528 0.7961 9.0403 0.0000 16.6969 0.0000
# 6 0.0000 0.0000 0.0000 -2.3075 0.0000 14.1174
#
#
#
# Elastic Compliance Matrix: (Units=1/GPa)
#
#
# Indices 1 2 3 4 5 6 
#
# 1 0.046368 -0.016469 -0.011302 0.000000 0.016215 0.000000
# 2 -0.016469 0.059849 -0.012009 0.000000 0.000342 0.000000
# 3 -0.011302 -0.012009 0.014239 0.000000 -0.009406 0.000000
# 4 0.000000 0.000000 0.000000 0.044275 0.000000 0.007237
# 5 0.016215 0.000342 -0.009406 0.000000 0.068224 0.000000
# 6 0.000000 0.000000 0.000000 0.007237 0.000000 0.072018
#
#
# Mechanical properties :
#
#
# Convention : Reuss Voigt Hill
#
# Bulk Modulus (GPa) = 24.45338 51.18593 37.81966
# Shear Modulus (GPa) = 12.55761 18.18388 15.37075
#
# Velocity S-wave (km/s) = 2.90651 3.49754 3.21563
# Velocity P-wave (km/s) = 5.26442 7.12351 6.26333
#
# Compressibility (1/GPa) = 0.04089414
#
# Stress axis : x y z
#
# Youngs Moduli (GPa) = 21.56657 16.70873 70.23187
#
# Poissons Ratio (x) = 0.27518 0.79375
# Poissons Ratio (y) = 0.35519 0.84344
# Poissons Ratio (z) = 0.24374 0.20066
#
# Static dielectric constant tensor:
#      x y z
#    x 1.460320 0.000000 0.014410 
#    y 0.000000 1.491120 0.000000 
#    z 0.014410 0.000000 1.548690 
# 
# From -- ./inp_files/42433.got.cif
#   From: 2010.05.17/outbox.cif.g08.bks.cpg/sg11_22_cif.got.tgz:42433.got - 2010.06.03 12:22:45.
