data_PCOD9155833
_publ_section_title
;
Structure prediction by ZEFSAII (Michael W. Deem and Ramdas Pophale) SiO2 
 PCOD9155833
Probable space group: P 21/M
;
_chemical_formula_sum "Si O2"
_cell_formula_units_Z 22
_cell_length_a 16.698585
_cell_length_b 12.183589
_cell_length_c 21.055462
_cell_angle_alpha 90.000000
_cell_angle_beta 13.843547
_cell_angle_gamma 90.000000
_cell_volume 1024.968781
_symmetry_space_group_name_H-M "P 21/M"
_symmetry_group_IT_number 11
_symmetry_cell_setting 'monoclinic'
loop_
_space_group_symop_operation_xyz
x,y,z
-x,1/2+y,-z
-x,-y,-z
x,1/2-y,z
loop_
_atom_site_type_symbol
_atom_site_label
_atom_site_fract_x
_atom_site_fract_y
_atom_site_fract_z
Si Si1 0.947960 0.250000 0.254706
Si Si2 0.707703 0.012287 0.403756
Si Si3 0.544272 0.528611 0.038950
Si Si4 0.344955 0.750000 0.377361
Si Si5 0.603142 0.119850 0.110472
Si Si6 0.689706 0.250000 0.722339
Si Si7 0.659109 0.015948 0.577877
O O1 0.808114 0.359966 0.331951
O O2 0.862030 0.250000 0.395310
O O3 0.349192 0.250000 0.940967
O O4 0.500000 0.000000 0.500000
O O5 0.518035 0.989999 0.616756
O O6 0.031883 0.932900 0.155859
O O7 0.344670 0.639595 0.211299
O O8 0.945850 0.537441 0.736445
O O9 0.500000 0.500000 0.000000
O O10 0.459508 0.437257 0.157255
O O11 0.493311 0.626330 0.274247
O O12 0.090169 0.750000 0.511559
O O13 0.616036 0.250000 0.093303
O O14 0.383984 0.081499 0.339074
#
# Coordination Sequence:
#
# PCOD9155833 Si02
#       7
#     2   4   4   2   4   2   4
#     4  10  18  38  62  91 114 156 201 248 304 347
#     4  10  22  39  66  92 122 156 203 251 300 358
#     4  11  24  40  62  91 121 158 207 253 300 357
#     4  10  16  34  66  86 109 147 201 255 289 351
#     4  11  24  42  59  88 128 165 198 246 305 363
#     4  12  18  40  64  87 111 159 200 253 307 348
#     4  10  20  41  62  86 122 159 201 246 307 353
#
# _framework density 21.464068000000001
#
# number of rings (size 3 to 8) (size 9 to 14) (size 15 to 20)
#    0.000    1.455    7.273    0.000    2.545    4.364 
#    0.000    0.000    0.000    0.000    0.000    0.000 
#    0.000    0.000    0.000    0.000    0.000    0.000 
#
# Total GULP energy -122653.049616 kJ/mol
# GULP energy per Si atom -5575.138619 kJ/mol
# Density = 2.141521 g / cm^3
# Si number density = 21.464068 Si / 1000 Ang^3
#
#
#
# Elastic Constant Matrix: (Units=GPa)
#
#
# Indices 1 2 3 4 5 6 
#
# 1 174.1328 58.6864 21.2480 0.0000 23.3349 0.0000
# 2 58.6864 180.5003 27.7466 0.0000 18.7724 0.0000
# 3 21.2480 27.7466 34.0903 0.0000 16.3206 0.0000
# 4 0.0000 0.0000 0.0000 23.1569 0.0000 11.4791
# 5 23.3349 18.7724 16.3206 0.0000 26.6668 0.0000
# 6 0.0000 0.0000 0.0000 11.4791 0.0000 35.7051
#
#
#
# Elastic Compliance Matrix: (Units=1/GPa)
#
#
# Indices 1 2 3 4 5 6 
#
# 1 0.007009 -0.001684 -0.000890 0.000000 -0.004403 0.000000
# 2 -0.001684 0.006802 -0.004101 0.000000 -0.000804 0.000000
# 3 -0.000890 -0.004101 0.044514 0.000000 -0.023578 0.000000
# 4 0.000000 0.000000 0.000000 0.051371 0.000000 -0.016516
# 5 -0.004403 -0.000804 -0.023578 0.000000 0.056349 0.000000
# 6 0.000000 0.000000 0.000000 -0.016516 0.000000 0.033317
#
#
# Mechanical properties :
#
#
# Convention : Reuss Voigt Hill
#
# Bulk Modulus (GPa) = 22.23480 67.12060 44.67770
# Shear Modulus (GPa) = 21.95834 35.84193 28.90014
#
# Velocity S-wave (km/s) = 3.20195 4.09082 3.67337
# Velocity P-wave (km/s) = 4.90424 7.32476 6.23312
#
# Compressibility (1/GPa) = 0.04497455
#
# Stress axis : x y z
#
# Youngs Moduli (GPa) = 142.67481 147.01911 22.46461
#
# Poissons Ratio (x) = 0.24760 0.01999
# Poissons Ratio (y) = 0.24028 0.09213
# Poissons Ratio (z) = 0.12697 0.60297
#
# Static dielectric constant tensor:
#      x y z
#    x 1.893500 0.000000 0.125390 
#    y 0.000000 1.846150 0.000000 
#    z 0.125390 0.000000 2.018530 
# 
# From -- ./inp_files/53612.got.cif
#   From: 2010.05.17/outbox.cif.g08.bks.cpg/sg11_27_cif.got.tgz:53612.got - 2010.06.03 12:22:45.
