data_PCOD9155982
_publ_section_title
;
Structure prediction by ZEFSAII (Michael W. Deem and Ramdas Pophale) SiO2 
 PCOD9155982
Probable space group: P 21/M
;
_chemical_formula_sum "Si O2"
_cell_formula_units_Z 20
_cell_length_a 19.605036
_cell_length_b 8.282966
_cell_length_c 12.488432
_cell_angle_alpha 90.000000
_cell_angle_beta 157.618946
_cell_angle_gamma 90.000000
_cell_volume 772.179099
_symmetry_space_group_name_H-M "P 21/M"
_symmetry_group_IT_number 11
_symmetry_cell_setting 'monoclinic'
loop_
_space_group_symop_operation_xyz
x,y,z
-x,1/2+y,-z
-x,-y,-z
x,1/2-y,z
loop_
_atom_site_type_symbol
_atom_site_label
_atom_site_fract_x
_atom_site_fract_y
_atom_site_fract_z
Si Si1 0.043386 0.938130 0.835621
Si Si2 0.458316 0.560768 0.819521
Si Si3 0.739738 0.560015 0.645926
Si Si4 0.608447 0.562670 0.758927
Si Si5 0.155907 0.562355 0.647941
O O1 0.999467 0.750000 0.779224
O O2 0.903353 0.037431 0.561171
O O3 0.111601 0.997444 0.053316
O O4 0.215024 0.957250 0.002930
O O5 0.417740 0.750000 0.760446
O O6 0.284145 0.466538 0.516379
O O7 0.500000 0.500000 0.000000
O O8 0.660265 0.531524 0.064160
O O9 0.721160 0.750000 0.640385
O O10 0.558958 0.459531 0.405666
O O11 0.500000 0.500000 0.500000
O O12 0.662295 0.750000 0.833198
O O13 0.189288 0.750000 0.716476
O O14 0.000000 0.500000 0.500000
#
# Coordination Sequence:
#
# PCOD9155982 Si02
#       5
#     4   4   4   4   4
#     4  11  21  36  58  90 127 167 213 269 326 385
#     4  12  26  47  70  97 131 175 222 271 329 398
#     4  11  21  37  60  89 123 167 216 267 321 386
#     4  10  17  28  48  80 119 160 203 256 314 376
#     4  12  25  44  68 100 137 177 220 273 332 393
#
# _framework density 25.900725000000001
#
# number of rings (size 3 to 8) (size 9 to 14) (size 15 to 20)
#    0.000    0.800    0.000   12.600    0.000    0.000 
#    0.000    1.000    0.000    0.000    0.000    0.000 
#    0.000    0.000    0.000    0.000    0.000    0.000 
#
# Total GULP energy -111612.816380 kJ/mol
# GULP energy per Si atom -5580.640819 kJ/mol
# Density = 2.584177 g / cm^3
# Si number density = 25.900725 Si / 1000 Ang^3
#
#
#
# Elastic Constant Matrix: (Units=GPa)
#
#
# Indices 1 2 3 4 5 6 
#
# 1 71.7912 4.7313 25.1491 0.0000 -8.3147 0.0000
# 2 4.7313 191.1301 19.4702 0.0000 -8.6471 0.0000
# 3 25.1491 19.4702 187.9760 0.0000 -40.2531 0.0000
# 4 0.0000 0.0000 0.0000 41.0744 0.0000 -8.2768
# 5 -8.3147 -8.6471 -40.2531 0.0000 47.6892 0.0000
# 6 0.0000 0.0000 0.0000 -8.2768 0.0000 40.7076
#
#
#
# Elastic Compliance Matrix: (Units=1/GPa)
#
#
# Indices 1 2 3 4 5 6 
#
# 1 0.014665 -0.000139 -0.001716 0.000000 0.001084 0.000000
# 2 -0.000139 0.005304 -0.000403 0.000000 0.000597 0.000000
# 3 -0.001716 -0.000403 0.006727 0.000000 0.005306 0.000000
# 4 0.000000 0.000000 0.000000 0.025386 0.000000 0.005162
# 5 0.001084 0.000597 0.005306 0.000000 0.025745 0.000000
# 6 0.000000 0.000000 0.000000 0.005162 0.000000 0.025615
#
#
# Mechanical properties :
#
#
# Convention : Reuss Voigt Hill
#
# Bulk Modulus (GPa) = 45.08426 61.06650 53.07538
# Shear Modulus (GPa) = 43.34604 52.66401 48.00503
#
# Velocity S-wave (km/s) = 4.09534 4.51411 4.30981
# Velocity P-wave (km/s) = 6.30926 7.12726 6.73070
#
# Compressibility (1/GPa) = 0.02218069
#
# Stress axis : x y z
#
# Youngs Moduli (GPa) = 68.18990 188.55319 148.64712
#
# Poissons Ratio (x) = 0.02625 0.25501
# Poissons Ratio (y) = 0.00949 0.05987
# Poissons Ratio (z) = 0.11698 0.07594
#
# Static dielectric constant tensor:
#      x y z
#    x 1.805810 0.000000 0.149100 
#    y 0.000000 1.828810 0.000000 
#    z 0.149100 0.000000 1.936790 
# 
# From -- ./inp_files/55479.got.cif
#   From: 2010.05.17/outbox.cif.g08.bks.cpg/sg11_28_cif.got.tgz:55479.got - 2010.06.03 12:22:45.
