data_PCOD9155835
_publ_section_title
;
Structure prediction by ZEFSAII (Michael W. Deem and Ramdas Pophale) SiO2 
 PCOD9155835
Probable space group: P 21/M
;
_chemical_formula_sum "Si O2"
_cell_formula_units_Z 22
_cell_length_a 12.051356
_cell_length_b 12.520577
_cell_length_c 7.982820
_cell_angle_alpha 90.000000
_cell_angle_beta 130.737009
_cell_angle_gamma 90.000000
_cell_volume 912.685848
_symmetry_space_group_name_H-M "P 21/M"
_symmetry_group_IT_number 11
_symmetry_cell_setting 'monoclinic'
loop_
_space_group_symop_operation_xyz
x,y,z
-x,1/2+y,-z
-x,-y,-z
x,1/2-y,z
loop_
_atom_site_type_symbol
_atom_site_label
_atom_site_fract_x
_atom_site_fract_y
_atom_site_fract_z
Si Si1 0.231726 0.750000 0.246566
Si Si2 0.713972 0.250000 0.333585
Si Si3 0.544322 0.250000 0.833826
Si Si4 0.749468 0.478508 0.685327
Si Si5 0.473607 0.982994 0.229605
Si Si6 0.204142 0.969992 0.738763
Si Si7 0.945614 0.878872 0.668416
O O1 0.327415 0.750000 0.512356
O O2 0.313516 0.750000 0.149009
O O3 0.163873 0.867287 0.197611
O O4 0.803344 0.357449 0.371101
O O5 0.584595 0.250000 0.068770
O O6 0.472091 0.360047 0.715813
O O7 0.641513 0.503163 0.733482
O O8 0.625461 0.460109 0.416873
O O9 0.856478 0.571944 0.735723
O O10 0.367676 0.993449 0.965347
O O11 0.100077 0.939228 0.792498
O O12 0.142648 0.071445 0.578727
O O13 0.956580 0.750000 0.682274
#
# Coordination Sequence:
#
# PCOD9155835 Si02
#       7
#     2   2   2   4   4   4   4
#     4  10  18  36  58  85 118 163 194 241 302 364
#     4  10  16  36  61  84 109 162 201 236 294 367
#     4   8  18  32  57  85 117 149 199 241 288 365
#     4  10  21  38  61  88 118 152 201 244 303 360
#     4   9  20  39  60  87 115 158 195 248 301 357
#     4  10  21  40  60  82 120 154 198 244 299 359
#     4  11  23  38  58  88 119 154 197 251 298 355
#
# _framework density 24.104679000000001
#
# number of rings (size 3 to 8) (size 9 to 14) (size 15 to 20)
#    0.000    2.182    2.727    0.000    1.273    1.455 
#    3.273    0.000    0.000    0.000    0.000    0.000 
#    0.000    0.000    0.000    0.000    0.000    0.000 
#
# Total GULP energy -122641.706610 kJ/mol
# GULP energy per Si atom -5574.623028 kJ/mol
# Density = 2.404982 g / cm^3
# Si number density = 24.104679 Si / 1000 Ang^3
#
#
#
# Elastic Constant Matrix: (Units=GPa)
#
#
# Indices 1 2 3 4 5 6 
#
# 1 105.1841 36.3692 23.7785 0.0000 12.4532 0.0000
# 2 36.3692 137.0557 8.8245 0.0000 14.4878 0.0000
# 3 23.7785 8.8245 95.0427 0.0000 5.4209 0.0000
# 4 0.0000 0.0000 0.0000 30.4988 0.0000 -1.9912
# 5 12.4532 14.4878 5.4209 0.0000 38.1904 0.0000
# 6 0.0000 0.0000 0.0000 -1.9912 0.0000 39.6008
#
#
#
# Elastic Compliance Matrix: (Units=1/GPa)
#
#
# Indices 1 2 3 4 5 6 
#
# 1 0.011225 -0.002575 -0.002436 0.000000 -0.002338 0.000000
# 2 -0.002575 0.008220 0.000011 0.000000 -0.002280 0.000000
# 3 -0.002436 0.000011 0.011175 0.000000 -0.000796 0.000000
# 4 0.000000 0.000000 0.000000 0.032896 0.000000 0.001654
# 5 -0.002338 -0.002280 -0.000796 0.000000 0.027925 0.000000
# 6 0.000000 0.000000 0.000000 0.001654 0.000000 0.025335
#
#
# Mechanical properties :
#
#
# Convention : Reuss Voigt Hill
#
# Bulk Modulus (GPa) = 48.49441 52.80297 50.64869
# Shear Modulus (GPa) = 37.41140 39.54537 38.47839
#
# Velocity S-wave (km/s) = 3.94387 4.05479 3.99971
# Velocity P-wave (km/s) = 6.39537 6.62382 6.51059
#
# Compressibility (1/GPa) = 0.02062093
#
# Stress axis : x y z
#
# Youngs Moduli (GPa) = 89.08824 121.65671 89.48222
#
# Poissons Ratio (x) = 0.31323 0.21797
# Poissons Ratio (y) = 0.22937 -0.00099
# Poissons Ratio (z) = 0.21701 -0.00134
#
# Static dielectric constant tensor:
#      x y z
#    x 1.945500 0.000000 -0.067670 
#    y 0.000000 1.938150 0.000000 
#    z -0.067670 0.000000 2.028480 
# 
# From -- ./inp_files/21073.got.cif
#   From: 2010.05.17/outbox.cif.g08.bks.cpg/sg11_11_cif.got.tgz:21073.got - 2010.06.03 12:22:45.
