data_PCOD9155323
_publ_section_title
;
Structure prediction by ZEFSAII (Michael W. Deem and Ramdas Pophale) SiO2 
 PCOD9155323
Probable space group: P 2/M
;
_chemical_formula_sum "Si O2"
_cell_formula_units_Z 32
_cell_length_a 15.000000
_cell_length_b 9.000000
_cell_length_c 24.000000
_cell_angle_alpha 90.000000
_cell_angle_beta 150.000000
_cell_angle_gamma 90.000000
_cell_volume 1620.000000
_symmetry_space_group_name_H-M "P 2/M"
_symmetry_group_IT_number 10
_symmetry_cell_setting 'monoclinic'
loop_
_space_group_symop_operation_xyz
x,y,z
-x,y,-z
-x,-y,-z
x,-y,z
loop_
_atom_site_type_symbol
_atom_site_label
_atom_site_fract_x
_atom_site_fract_y
_atom_site_fract_z
Si Si1 0.736742 0.322274 0.219679
Si Si2 0.640368 0.676690 0.938810
Si Si3 0.076129 0.179192 0.980560
Si Si4 0.212294 0.174375 0.869163
Si Si5 0.366810 0.179553 0.570130
Si Si6 0.784808 0.175539 0.630244
Si Si7 0.067042 0.321004 0.475190
Si Si8 0.737430 0.180765 0.726604
O O1 0.742442 0.500000 0.212663
O O2 0.713045 0.241404 0.147860
O O3 0.918486 0.277062 0.348910
O O4 0.570152 0.292483 0.169993
O O5 0.666139 0.500000 0.951382
O O6 0.740466 0.749767 0.940835
O O7 0.721643 0.741962 0.040140
O O8 0.925804 0.225187 0.854256
O O9 0.093516 0.000000 0.988768
O O10 0.000000 0.220056 0.000000
O O11 0.997956 0.188681 0.748931
O O12 0.255637 0.000000 0.897307
O O13 0.286019 0.233194 0.466861
O O14 0.253198 0.250912 0.557595
O O15 0.574505 0.219880 0.678608
O O16 0.351245 0.000000 0.564862
O O17 0.711178 0.235702 0.649106
O O18 0.738651 0.000000 0.604390
O O19 0.080355 0.500000 0.481892
O O20 0.000000 0.275917 0.500000
O O21 0.740218 0.000000 0.725216
#
# Coordination Sequence:
#
# PCOD9155323 Si02
#       8
#     4   4   4   4   4   4   4   4
#     4  10  22  39  57  80 113 150 186 227 279 336
#     4  11  23  38  57  82 113 150 188 227 277 335
#     4  10  21  38  58  81 111 147 188 232 276 324
#     4  11  20  34  59  87 113 144 183 228 279 334
#     4  10  19  33  57  85 108 137 180 226 272 324
#     4   9  16  29  53  82 109 137 170 214 267 325
#     4  10  22  40  58  76 106 149 189 228 276 325
#     4   9  17  32  55  82 112 142 173 217 275 330
#
# _framework density 19.753086
#
# number of rings (size 3 to 8) (size 9 to 14) (size 15 to 20)
#    0.000    2.000    2.500    1.500    0.000    5.500 
#    0.000    0.625    0.000    0.750    0.000    0.000 
#    0.000    0.000    0.000    0.000    0.000    0.000 
#
# Total GULP energy -178658.887916 kJ/mol
# GULP energy per Si atom -5583.090247 kJ/mol
# Density = 1.970813 g / cm^3
# Si number density = 19.753086 Si / 1000 Ang^3
#
#
#
# Elastic Constant Matrix: (Units=GPa)
#
#
# Indices 1 2 3 4 5 6 
#
# 1 151.0810 30.9153 4.8869 0.0000 19.7142 0.0000
# 2 30.9153 21.1439 6.8927 0.0000 10.4216 0.0000
# 3 4.8869 6.8927 12.6436 0.0000 12.6925 0.0000
# 4 0.0000 0.0000 0.0000 3.5568 0.0000 -21.9833
# 5 19.7142 10.4216 12.6925 0.0000 27.8387 0.0000
# 6 0.0000 0.0000 0.0000 -21.9833 0.0000 -16.8127
#
#
#
# Elastic Compliance Matrix: (Units=1/GPa)
#
#
# Indices 1 2 3 4 5 6 
#
# 1 0.010255 -0.015355 0.010929 0.000000 -0.006497 0.000000
# 2 -0.015355 0.083327 -0.035206 0.000000 -0.004269 0.000000
# 3 0.010929 -0.035206 0.163374 0.000000 -0.069047 0.000000
# 4 0.000000 0.000000 0.000000 0.030959 0.000000 -0.040480
# 5 -0.006497 -0.004269 -0.069047 0.000000 0.073601 0.000000
# 6 0.000000 0.000000 0.000000 -0.040480 0.000000 -0.006549
#
#
# Mechanical properties :
#
#
# Convention : Reuss Voigt Hill
#
# Bulk Modulus (GPa) = 5.62769 30.02868 17.82819
# Shear Modulus (GPa) = 10.13250 12.39481 11.26365
#
# Velocity S-wave (km/s) = 2.26731 2.50769 2.39052
# Velocity P-wave (km/s) = 3.11601 4.86001 4.08223
#
# Compressibility (1/GPa) = 0.17769266
#
# Stress axis : x y z
#
# Youngs Moduli (GPa) = 97.51013 12.00086 6.12093
#
# Poissons Ratio (x) = 0.18428 -0.06690
# Poissons Ratio (y) = 1.49729 0.21549
# Poissons Ratio (z) = -1.06573 0.42250
#
# Static dielectric constant tensor:
#      x y z
#    x 1.699060 0.000000 0.012090 
#    y 0.000000 1.664100 0.000000 
#    z 0.012090 0.000000 1.704460 
# 
# From -- ./inp_files/71639.got.cif
#   From: 2010.05.17/outbox.ucp.g08.bks.cvg/sg10_36_cif.got.tgz:71639.got - 2010.06.11 11:31:16.
