data_PCOD9155677
_publ_section_title
;
Structure prediction by ZEFSAII (Michael W. Deem and Ramdas Pophale) SiO2 
 PCOD9155677
Probable space group: P 2/M
;
_chemical_formula_sum "Si O2"
_cell_formula_units_Z 32
_cell_length_a 15.000000
_cell_length_b 9.000000
_cell_length_c 21.000000
_cell_angle_alpha 90.000000
_cell_angle_beta 40.000000
_cell_angle_gamma 90.000000
_cell_volume 1822.302873
_symmetry_space_group_name_H-M "P 2/M"
_symmetry_group_IT_number 10
_symmetry_cell_setting 'monoclinic'
loop_
_space_group_symop_operation_xyz
x,y,z
-x,y,-z
-x,-y,-z
x,-y,z
loop_
_atom_site_type_symbol
_atom_site_label
_atom_site_fract_x
_atom_site_fract_y
_atom_site_fract_z
Si Si1 0.836033 0.321409 0.605836
Si Si2 0.677724 0.681551 0.201427
Si Si3 0.208713 0.816617 0.997712
Si Si4 0.163266 0.821658 0.626060
Si Si5 0.364460 0.181607 0.395346
Si Si6 0.141745 0.179287 0.266624
Si Si7 0.898447 0.680733 0.199127
Si Si8 0.348176 0.320018 0.049354
O O1 0.808954 0.500000 0.622672
O O2 0.735332 0.246589 0.607155
O O3 0.821578 0.248686 0.684223
O O4 0.000000 0.300552 0.500000
O O5 0.668514 0.500000 0.199576
O O6 0.736635 0.752842 0.101721
O O7 0.521763 0.749051 0.301867
O O8 0.785919 0.709787 0.202423
O O9 0.208958 0.000000 0.997141
O O10 0.307099 0.755461 0.002839
O O11 0.050083 0.755285 0.098946
O O12 0.287143 0.784574 0.506535
O O13 0.152689 0.742097 0.702347
O O14 0.018273 0.792754 0.667483
O O15 0.171739 0.000000 0.633083
O O16 0.371347 0.000000 0.386415
O O17 0.237641 0.254367 0.160301
O O18 0.161098 0.000000 0.257623
O O19 0.914592 0.500000 0.194283
O O20 0.335626 0.500000 0.049415
O O21 0.500000 0.291202 0.000000
#
# Coordination Sequence:
#
# PCOD9155677 Si02
#       8
#     4   4   4   4   4   4   4   4
#     4  11  23  38  61  91 125 168 212 257 308 370
#     4  11  26  46  66  94 130 168 213 266 325 386
#     4  12  25  43  69  98 129 168 214 265 319 382
#     4  10  22  40  65  96 130 167 212 266 320 377
#     4  11  24  43  65  93 130 172 215 266 323 379
#     4  11  22  39  63  92 127 167 212 262 314 377
#     4  11  24  43  70  97 126 166 212 267 325 382
#     4  11  25  43  64  93 130 170 210 258 316 378
#
# _framework density 17.560198
#
# number of rings (size 3 to 8) (size 9 to 14) (size 15 to 20)
#    0.000    1.000    2.500    3.750    1.750    7.000 
#    0.000    2.500    0.000    0.000    0.000    0.000 
#    0.000    0.000    0.000    0.000    0.000    0.000 
#
# Total GULP energy -178544.876760 kJ/mol
# GULP energy per Si atom -5579.527399 kJ/mol
# Density = 1.752023 g / cm^3
# Si number density = 17.560198 Si / 1000 Ang^3
#
#
#
# Elastic Constant Matrix: (Units=GPa)
#
#
# Indices 1 2 3 4 5 6 
#
# 1 176.0590 66.8598 78.9441 0.0000 10.4212 0.0000
# 2 66.8598 144.0024 62.5056 0.0000 4.9230 0.0000
# 3 78.9441 62.5056 167.0401 0.0000 11.1367 0.0000
# 4 0.0000 0.0000 0.0000 40.5184 0.0000 4.2142
# 5 10.4212 4.9230 11.1367 0.0000 49.3195 0.0000
# 6 0.0000 0.0000 0.0000 4.2142 0.0000 43.7849
#
#
#
# Elastic Compliance Matrix: (Units=1/GPa)
#
#
# Indices 1 2 3 4 5 6 
#
# 1 0.007892 -0.002437 -0.002765 0.000000 -0.000800 0.000000
# 2 -0.002437 0.009044 -0.002240 0.000000 0.000118 0.000000
# 3 -0.002765 -0.002240 0.008201 0.000000 -0.001044 0.000000
# 4 0.000000 0.000000 0.000000 0.024930 0.000000 -0.002399
# 5 -0.000800 0.000118 -0.001044 0.000000 0.020669 0.000000
# 6 0.000000 0.000000 0.000000 -0.002399 0.000000 0.023070
#
#
# Mechanical properties :
#
#
# Convention : Reuss Voigt Hill
#
# Bulk Modulus (GPa) = 97.52776 100.41339 98.97057
# Shear Modulus (GPa) = 44.59955 45.31069 44.95512
#
# Velocity S-wave (km/s) = 5.04512 5.08518 5.06519
# Velocity P-wave (km/s) = 9.46559 9.58046 9.52320
#
# Compressibility (1/GPa) = 0.01025349
#
# Stress axis : x y z
#
# Youngs Moduli (GPa) = 126.70325 110.56714 121.93338
#
# Poissons Ratio (x) = 0.26945 0.33712
# Poissons Ratio (y) = 0.30878 0.27319
# Poissons Ratio (z) = 0.35030 0.24772
#
# Static dielectric constant tensor:
#      x y z
#    x 1.605010 0.000000 -0.003730 
#    y 0.000000 1.606090 0.000000 
#    z -0.003730 0.000000 1.616600 
# 
# From -- ./inp_files/84730.got.cif
#   From: 2010.05.17/outbox.ucp.g08.bks.cvg/sg10_43_cif.got.tgz:84730.got - 2010.06.11 11:31:16.
