data_PCOD9155000
_publ_section_title
;
Structure prediction by ZEFSAII (Michael W. Deem and Ramdas Pophale) SiO2 
 PCOD9155000
Probable space group: P 2/M
;
_chemical_formula_sum "Si O2"
_cell_formula_units_Z 24
_cell_length_a 17.763130
_cell_length_b 15.419739
_cell_length_c 10.521638
_cell_angle_alpha 90.000000
_cell_angle_beta 21.475268
_cell_angle_gamma 90.000000
_cell_volume 1055.064706
_symmetry_space_group_name_H-M "P 2/M"
_symmetry_group_IT_number 10
_symmetry_cell_setting 'monoclinic'
loop_
_space_group_symop_operation_xyz
x,y,z
-x,y,-z
-x,-y,-z
x,-y,z
loop_
_atom_site_type_symbol
_atom_site_label
_atom_site_fract_x
_atom_site_fract_y
_atom_site_fract_z
Si Si1 0.112992 0.407792 0.117993
Si Si2 0.678753 0.213680 0.946283
Si Si3 0.748221 0.230900 0.115486
Si Si4 0.670668 0.594335 0.950283
Si Si5 0.721837 0.102010 0.370559
Si Si6 0.248798 0.097451 0.389361
O O1 0.141050 0.500000 0.006208
O O2 0.263591 0.408131 0.004551
O O3 0.883948 0.404511 0.535647
O O4 0.162996 0.319990 0.967421
O O5 0.805912 0.223755 0.876591
O O6 0.503248 0.144577 0.257316
O O7 0.582730 0.309048 0.066462
O O8 0.792497 0.173120 0.646393
O O9 0.500000 0.239623 0.500000
O O10 0.802240 0.150956 0.119951
O O11 0.569095 0.500000 0.081667
O O12 0.817076 0.113034 0.361623
O O13 0.710205 0.000000 0.365582
O O14 0.181099 0.000000 0.457188
O O15 0.500000 0.094350 0.000000
#
# Coordination Sequence:
#
# PCOD9155000 Si02
#       6
#     4   4   4   4   4   4
#     4   8  14  26  42  60  85 112 136 165 204 246
#     4   9  15  24  42  65  82 102 138 176 199 232
#     4   9  17  25  39  66  88 106 133 168 207 243
#     4   8  14  25  42  62  83 109 138 169 204 241
#     4   9  17  28  41  59  86 115 136 161 206 254
#     4   8  14  25  41  59  79 107 140 168 199 244
#
# _framework density 22.747419000000001
#
# number of rings (size 3 to 8) (size 9 to 14) (size 15 to 20)
#    0.000    3.500    0.000    2.500    0.000    4.000 
#    0.000    2.500    0.000    8.500    0.000   22.167 
#    0.000    0.000    0.000    0.000    0.000    0.000 
#
# Total GULP energy -133779.883757 kJ/mol
# GULP energy per Si atom -5574.161823 kJ/mol
# Density = 2.269565 g / cm^3
# Si number density = 22.747419 Si / 1000 Ang^3
#
#
#
# Elastic Constant Matrix: (Units=GPa)
#
#
# Indices 1 2 3 4 5 6 
#
# 1 43.5214 78.1034 19.1085 0.0000 17.7334 0.0000
# 2 78.1034 230.5891 36.0824 0.0000 30.7136 0.0000
# 3 19.1085 36.0824 66.7396 0.0000 20.8692 0.0000
# 4 0.0000 0.0000 0.0000 28.6221 0.0000 9.4580
# 5 17.7334 30.7136 20.8692 0.0000 35.6292 0.0000
# 6 0.0000 0.0000 0.0000 9.4580 0.0000 0.9678
#
#
#
# Elastic Compliance Matrix: (Units=1/GPa)
#
#
# Indices 1 2 3 4 5 6 
#
# 1 0.065897 -0.019932 -0.003927 0.000000 -0.013316 0.000000
# 2 -0.019932 0.011077 -0.000487 0.000000 0.000658 0.000000
# 3 -0.003927 -0.000487 0.019133 0.000000 -0.008832 0.000000
# 4 0.000000 0.000000 0.000000 -0.015673 0.000000 0.153160
# 5 -0.013316 0.000658 -0.008832 0.000000 0.039301 0.000000
# 6 0.000000 0.000000 0.000000 0.153160 0.000000 -0.463498
#
#
# Mechanical properties :
#
#
# Convention : Reuss Voigt Hill
#
# Bulk Modulus (GPa) = 21.09082 67.49319 44.29200
# Shear Modulus (GPa) = -17.90418 26.88089 4.48835
#
# Velocity S-wave (km/s) = -2.80855 3.44133 1.40620
# Velocity P-wave (km/s) = 1.10698 6.74726 4.70638
#
# Compressibility (1/GPa) = 0.04741400
#
# Stress axis : x y z
#
# Youngs Moduli (GPa) = 15.17510 90.28018 52.26481
#
# Poissons Ratio (x) = 1.79947 0.20526
# Poissons Ratio (y) = 0.30247 0.02547
# Poissons Ratio (z) = 0.05960 0.04400
#
# Static dielectric constant tensor:
#      x y z
#    x 1.832460 0.000000 -0.001390 
#    y 0.000000 1.893160 0.000000 
#    z -0.001390 0.000000 1.956210 
# 
# From -- ./inp_files/45645.got.cif
#   From: 2010.05.17/outbox.cif.g08.bks.cpg/sg10_23_cif.got.tgz:45645.got - 2010.06.03 11:33:40.
