data_PCOD9155107
_publ_section_title
;
Structure prediction by ZEFSAII (Michael W. Deem and Ramdas Pophale) SiO2 
 PCOD9155107
Probable space group: P 2/M
;
_chemical_formula_sum "Si O2"
_cell_formula_units_Z 32
_cell_length_a 12.000000
_cell_length_b 9.000000
_cell_length_c 21.000000
_cell_angle_alpha 90.000000
_cell_angle_beta 120.000000
_cell_angle_gamma 90.000000
_cell_volume 1964.145616
_symmetry_space_group_name_H-M "P 2/M"
_symmetry_group_IT_number 10
_symmetry_cell_setting 'monoclinic'
loop_
_space_group_symop_operation_xyz
x,y,z
-x,y,-z
-x,-y,-z
x,-y,z
loop_
_atom_site_type_symbol
_atom_site_label
_atom_site_fract_x
_atom_site_fract_y
_atom_site_fract_z
Si Si1 0.418054 0.678106 0.750135
Si Si2 0.599269 0.823399 0.124346
Si Si3 0.311998 0.823027 0.988764
Si Si4 0.321533 0.669653 0.329593
Si Si5 0.152304 0.668055 0.046500
Si Si6 0.694150 0.824872 0.802741
Si Si7 0.656125 0.169769 0.536608
Si Si8 0.633436 0.670987 0.402539
O O1 0.427077 0.500000 0.752484
O O2 0.364935 0.736626 0.801760
O O3 0.560370 0.746823 0.784032
O O4 0.344291 0.721450 0.663784
O O5 0.450459 0.795406 0.061865
O O6 0.610484 0.000000 0.138850
O O7 0.677232 0.785936 0.082685
O O8 0.209172 0.728701 0.997110
O O9 0.288175 0.000000 0.987487
O O10 0.280034 0.500000 0.310139
O O11 0.270624 0.769688 0.257711
O O12 0.291282 0.731668 0.390646
O O13 0.477587 0.672379 0.366550
O O14 0.199192 0.500000 0.071942
O O15 0.202356 0.773388 0.116586
O O16 0.000000 0.667582 0.000000
O O17 0.675228 0.000000 0.798352
O O18 0.500000 0.173131 0.500000
O O19 0.686552 0.231993 0.475435
O O20 0.696956 0.000000 0.555189
O O21 0.674855 0.500000 0.421562
#
# Coordination Sequence:
#
# PCOD9155107 Si02
#       8
#     4   4   4   4   4   4   4   4
#     4  10  18  27  41  62  86 113 145 179 217 258
#     4   9  17  29  46  67  90 113 141 181 222 260
#     4   9  18  32  48  67  88 112 143 179 221 267
#     4   9  16  26  39  53  74 104 137 175 215 252
#     4  11  23  36  49  66  88 113 145 185 225 266
#     4  11  20  30  44  61  82 108 143 182 218 261
#     4   9  15  22  33  51  73 101 139 175 207 247
#     4   8  15  24  33  49  76 108 139 171 207 249
#
# _framework density 16.292071
#
# number of rings (size 3 to 8) (size 9 to 14) (size 15 to 20)
#    0.000    2.500    1.250    4.125    0.000    6.500 
#    0.000    1.250    0.000    0.000    0.000    0.000 
#    0.000    0.000    0.000    1.125    0.000   21.125 
#
# Total GULP energy -178277.982369 kJ/mol
# GULP energy per Si atom -5571.186949 kJ/mol
# Density = 1.625499 g / cm^3
# Si number density = 16.292071 Si / 1000 Ang^3
#
#
#
# Elastic Constant Matrix: (Units=GPa)
#
#
# Indices 1 2 3 4 5 6 
#
# 1 37.7982 33.7116 35.6833 0.0000 -17.0635 0.0000
# 2 33.7116 64.7439 41.9881 0.0000 -22.5098 0.0000
# 3 35.6833 41.9881 80.5395 0.0000 -42.4163 0.0000
# 4 0.0000 0.0000 0.0000 27.2923 0.0000 -12.4430
# 5 -17.0635 -22.5098 -42.4163 0.0000 24.8496 0.0000
# 6 0.0000 0.0000 0.0000 -12.4430 0.0000 11.4917
#
#
#
# Elastic Compliance Matrix: (Units=1/GPa)
#
#
# Indices 1 2 3 4 5 6 
#
# 1 0.065494 -0.023542 -0.042457 0.000000 -0.048824 0.000000
# 2 -0.023542 0.031832 0.005023 0.000000 0.021242 0.000000
# 3 -0.042457 0.005023 0.154888 0.000000 0.239777 0.000000
# 4 0.000000 0.000000 0.000000 0.072363 0.000000 0.078353
# 5 -0.048824 0.021242 0.239777 0.000000 0.435239 0.000000
# 6 0.000000 0.000000 0.000000 0.078353 0.000000 0.171859
#
#
# Mechanical properties :
#
#
# Convention : Reuss Voigt Hill
#
# Bulk Modulus (GPa) = 7.67696 45.09416 26.38556
# Shear Modulus (GPa) = 4.55769 17.50661 11.03215
#
# Velocity S-wave (km/s) = 1.67438 3.28159 2.60503
# Velocity P-wave (km/s) = 2.90868 6.48823 5.02780
#
# Compressibility (1/GPa) = 0.13025994
#
# Stress axis : x y z
#
# Youngs Moduli (GPa) = 15.26856 31.41517 6.45629
#
# Poissons Ratio (x) = 0.73959 0.27412
# Poissons Ratio (y) = 0.35946 -0.03243
# Poissons Ratio (z) = 0.64826 -0.15779
#
# Static dielectric constant tensor:
#      x y z
#    x 1.536710 0.000000 -0.028130 
#    y 0.000000 1.547370 0.000000 
#    z -0.028130 0.000000 1.556790 
# 
# From -- ./inp_files/56396.got.cif
#   From: 2010.05.17/outbox.ucp.g08.bks.cvg/sg10_29_cif.got.tgz:56396.got - 2010.06.11 11:31:16.
