data_PCOD9155879
_publ_section_title
;
Structure prediction by ZEFSAII (Michael W. Deem and Ramdas Pophale) SiO2 
 PCOD9155879
Probable space group: P 21/M
;
_chemical_formula_sum "Si O2"
_cell_formula_units_Z 32
_cell_length_a 24.700912
_cell_length_b 9.096671
_cell_length_c 12.216549
_cell_angle_alpha 90.000000
_cell_angle_beta 129.847503
_cell_angle_gamma 90.000000
_cell_volume 2107.488862
_symmetry_space_group_name_H-M "P 21/M"
_symmetry_group_IT_number 11
_symmetry_cell_setting 'monoclinic'
loop_
_space_group_symop_operation_xyz
x,y,z
-x,1/2+y,-z
-x,-y,-z
x,1/2-y,z
loop_
_atom_site_type_symbol
_atom_site_label
_atom_site_fract_x
_atom_site_fract_y
_atom_site_fract_z
Si Si1 0.624378 0.079739 0.849061
Si Si2 0.009893 0.076137 0.338915
Si Si3 0.962245 0.573469 0.053948
Si Si4 0.476749 0.073536 0.584356
Si Si5 0.338501 0.920480 0.363248
Si Si6 0.799147 0.924699 0.875881
Si Si7 0.111801 0.576440 0.636207
Si Si8 0.762519 0.575592 0.082304
O O1 0.633731 0.250000 0.893339
O O2 0.541682 0.039776 0.750200
O O3 0.641882 0.071332 0.741306
O O4 0.681964 0.979602 0.982350
O O5 0.019337 0.250000 0.332599
O O6 0.942800 0.056982 0.333063
O O7 0.076133 0.007676 0.488862
O O8 0.994244 0.992150 0.206743
O O9 0.969735 0.750000 0.062180
O O10 0.878626 0.539028 0.945394
O O11 0.000000 0.500000 0.000000
O O12 0.473891 0.250000 0.568184
O O13 0.500000 0.000000 0.500000
O O14 0.399465 0.008673 0.505845
O O15 0.339089 0.750000 0.395011
O O16 0.261091 0.990139 0.268374
O O17 0.787882 0.750000 0.848294
O O18 0.789012 0.956908 0.992287
O O19 0.117193 0.750000 0.621245
O O20 0.185846 0.508592 0.768925
O O21 0.767194 0.750000 0.104777
#
# Coordination Sequence:
#
# PCOD9155879 Si02
#       8
#     4   4   4   4   4   4   4   4
#     4   8  15  24  33  50  76 107 140 173 210 254
#     4  10  20  33  49  68  88 114 147 184 226 270
#     4  11  22  36  51  68  90 117 150 188 231 274
#     4   9  15  23  34  49  72 103 139 175 211 252
#     4   9  16  24  37  54  74 102 138 178 216 255
#     4   9  18  30  43  59  82 110 144 183 220 263
#     4  10  19  30  47  67  90 116 144 184 226 268
#     4  10  17  26  41  61  84 112 145 182 220 260
#
# _framework density 15.183947
#
# number of rings (size 3 to 8) (size 9 to 14) (size 15 to 20)
#    0.000    2.500    1.250    3.000    0.000    6.000 
#    0.000    0.000    0.000    0.000    0.000    0.000 
#    0.000    0.000    0.000    1.125    0.000   14.875 
#
# Total GULP energy -178278.882686 kJ/mol
# GULP energy per Si atom -5571.215084 kJ/mol
# Density = 1.514939 g / cm^3
# Si number density = 15.183947 Si / 1000 Ang^3
#
#
#
# Elastic Constant Matrix: (Units=GPa)
#
#
# Indices 1 2 3 4 5 6 
#
# 1 50.5106 43.1361 55.3719 0.0000 15.4641 0.0000
# 2 43.1361 81.0189 71.5642 0.0000 21.4036 0.0000
# 3 55.3719 71.5642 111.5643 0.0000 37.5608 0.0000
# 4 0.0000 0.0000 0.0000 30.0181 0.0000 6.9094
# 5 15.4641 21.4036 37.5608 0.0000 24.5511 0.0000
# 6 0.0000 0.0000 0.0000 6.9094 0.0000 17.9523
#
#
#
# Elastic Compliance Matrix: (Units=1/GPa)
#
#
# Indices 1 2 3 4 5 6 
#
# 1 0.048076 -0.009612 -0.021285 0.000000 0.010662 0.000000
# 2 -0.009612 0.030903 -0.016539 0.000000 0.004417 0.000000
# 3 -0.021285 -0.016539 0.042829 0.000000 -0.037699 0.000000
# 4 0.000000 0.000000 0.000000 0.036551 0.000000 -0.014068
# 5 0.010662 0.004417 -0.037699 0.000000 0.087840 0.000000
# 6 0.000000 0.000000 0.000000 -0.014068 0.000000 0.061117
#
#
# Mechanical properties :
#
#
# Convention : Reuss Voigt Hill
#
# Bulk Modulus (GPa) = 37.12648 64.80425 50.96537
# Shear Modulus (GPa) = 12.16046 19.37239 15.76642
#
# Velocity S-wave (km/s) = 2.83305 3.57577 3.22586
# Velocity P-wave (km/s) = 5.93344 7.73436 6.89297
#
# Compressibility (1/GPa) = 0.02693495
#
# Stress axis : x y z
#
# Youngs Moduli (GPa) = 20.80038 32.35933 23.34855
#
# Poissons Ratio (x) = 0.31105 0.49697
# Poissons Ratio (y) = 0.19994 0.38617
# Poissons Ratio (z) = 0.44274 0.53520
#
# Static dielectric constant tensor:
#      x y z
#    x 1.492450 0.000000 0.030820 
#    y 0.000000 1.503470 0.000000 
#    z 0.030820 0.000000 1.502570 
# 
# From -- ./inp_files/43808.got.cif
#   From: 2010.05.17/outbox.cif.g08.bks.cpg/sg11_22_cif.got.tgz:43808.got - 2010.06.03 12:22:45.
