data_PCOD9155597
_publ_section_title
;
Structure prediction by ZEFSAII (Michael W. Deem and Ramdas Pophale) SiO2 
 PCOD9155597
Probable space group: P 2/M
;
_chemical_formula_sum "Si O2"
_cell_formula_units_Z 28
_cell_length_a 15.000000
_cell_length_b 9.000000
_cell_length_c 21.000000
_cell_angle_alpha 90.000000
_cell_angle_beta 150.000000
_cell_angle_gamma 90.000000
_cell_volume 1417.500000
_symmetry_space_group_name_H-M "P 2/M"
_symmetry_group_IT_number 10
_symmetry_cell_setting 'monoclinic'
loop_
_space_group_symop_operation_xyz
x,y,z
-x,y,-z
-x,-y,-z
x,-y,z
loop_
_atom_site_type_symbol
_atom_site_label
_atom_site_fract_x
_atom_site_fract_y
_atom_site_fract_z
Si Si1 0.057643 0.671444 0.236333
Si Si2 0.697444 0.824859 0.221806
Si Si3 0.354456 0.335686 0.045492
Si Si4 0.990539 0.677414 0.330567
Si Si5 0.879254 0.323463 0.866513
Si Si6 0.554863 0.331267 0.754777
Si Si7 0.787923 0.173115 0.422830
O O1 0.124426 0.500000 0.277428
O O2 0.089764 0.733986 0.327417
O O3 0.109391 0.737012 0.198864
O O4 0.842942 0.670673 0.102876
O O5 0.491387 0.781375 0.102109
O O6 0.779876 0.785186 0.343019
O O7 0.794754 0.741909 0.224409
O O8 0.718920 0.000000 0.227062
O O9 0.431587 0.500000 0.080520
O O10 0.338345 0.323472 0.112292
O O11 0.982906 0.500000 0.321460
O O12 0.093406 0.729528 0.457174
O O13 0.928215 0.500000 0.891373
O O14 0.681604 0.314019 0.772966
O O15 0.000000 0.262653 0.000000
O O16 0.477017 0.500000 0.704585
O O17 0.408757 0.205426 0.672015
O O18 0.836869 0.000000 0.457376
#
# Coordination Sequence:
#
# PCOD9155597 Si02
#       7
#     4   4   4   4   4   4   4
#     4   9  18  31  49  78 112 138 164 206 259 306
#     4  10  21  36  54  75 100 133 174 216 259 303
#     4   9  16  30  52  79 107 133 166 208 254 303
#     4  11  22  35  52  75 104 137 173 213 255 303
#     4   9  14  26  52  84 110 132 163 207 255 300
#     4   9  16  28  54  85 105 128 168 213 253 297
#     4  10  21  37  55  73 100 136 174 216 259 301
#
# _framework density 19.753086
#
# number of rings (size 3 to 8) (size 9 to 14) (size 15 to 20)
#    0.000    2.429    1.429    1.714    0.000    4.000 
#    0.000    5.000    0.000    7.286    0.000    0.000 
#    0.000    0.000    0.000    0.000    0.000    0.000 
#
# Total GULP energy -155918.879529 kJ/mol
# GULP energy per Si atom -5568.531412 kJ/mol
# Density = 1.970813 g / cm^3
# Si number density = 19.753086 Si / 1000 Ang^3
#
#
#
# Elastic Constant Matrix: (Units=GPa)
#
#
# Indices 1 2 3 4 5 6 
#
# 1 118.2211 28.8738 1.3360 0.0000 -6.9842 0.0000
# 2 28.8738 29.5353 9.4448 0.0000 -4.3610 0.0000
# 3 1.3360 9.4448 16.3322 0.0000 2.6489 0.0000
# 4 0.0000 0.0000 0.0000 839.5425 0.0000 681.9856
# 5 -6.9842 -4.3610 2.6489 0.0000 11.0328 0.0000
# 6 0.0000 0.0000 0.0000 681.9856 0.0000 573.0855
#
#
#
# Elastic Compliance Matrix: (Units=1/GPa)
#
#
# Indices 1 2 3 4 5 6 
#
# 1 0.011724 -0.013584 0.006830 0.000000 0.000412 0.000000
# 2 -0.013584 0.063821 -0.040052 0.000000 0.026244 0.000000
# 3 0.006830 -0.040052 0.089171 0.000000 -0.032917 0.000000
# 4 0.000000 0.000000 0.000000 0.035761 0.000000 -0.042557
# 5 0.000412 0.026244 -0.032917 0.000000 0.109176 0.000000
# 6 0.000000 0.000000 0.000000 -0.042557 0.000000 0.052388
#
#
# Mechanical properties :
#
#
# Convention : Reuss Voigt Hill
#
# Bulk Modulus (GPa) = 14.06439 27.04421 20.55430
# Shear Modulus (GPa) = 10.43068 293.02777 151.72922
#
# Velocity S-wave (km/s) = 2.30043 12.19292 8.77381
# Velocity P-wave (km/s) = 3.76717 14.55830 10.63333
#
# Compressibility (1/GPa) = 0.07110156
#
# Stress axis : x y z
#
# Youngs Moduli (GPa) = 85.29755 15.66885 11.21446
#
# Poissons Ratio (x) = 0.21285 -0.07659
# Poissons Ratio (y) = 1.15871 0.44917
# Poissons Ratio (z) = -0.58257 0.62757
#
# Static dielectric constant tensor:
#      x y z
#    x 1.715670 0.000000 0.007120 
#    y 0.000000 1.666690 0.000000 
#    z 0.007120 0.000000 1.786290 
# 
# From -- ./inp_files/57438.got.cif
#   From: 2010.05.17/outbox.ucp.g08.bks.cvg/sg10_29_cif.got.tgz:57438.got - 2010.06.11 11:31:16.
