data_PCOD9155658
_publ_section_title
;
Structure prediction by ZEFSAII (Michael W. Deem and Ramdas Pophale) SiO2 
 PCOD9155658
Probable space group: P 2/M
;
_chemical_formula_sum "Si O2"
_cell_formula_units_Z 32
_cell_length_a 18.000000
_cell_length_b 15.000000
_cell_length_c 12.000000
_cell_angle_alpha 90.000000
_cell_angle_beta 30.000000
_cell_angle_gamma 90.000000
_cell_volume 1620.000000
_symmetry_space_group_name_H-M "P 2/M"
_symmetry_group_IT_number 10
_symmetry_cell_setting 'monoclinic'
loop_
_space_group_symop_operation_xyz
x,y,z
-x,y,-z
-x,-y,-z
x,-y,z
loop_
_atom_site_type_symbol
_atom_site_label
_atom_site_fract_x
_atom_site_fract_y
_atom_site_fract_z
Si Si1 0.658703 0.606314 0.351884
Si Si2 0.116118 0.288494 0.091997
Si Si3 0.417376 0.397324 0.292936
Si Si4 0.204833 0.713639 0.419865
Si Si5 0.419873 0.106722 0.430018
Si Si6 0.268633 0.108232 0.858799
Si Si7 0.225572 0.605879 0.168698
Si Si8 0.347960 0.105204 0.268888
O O1 0.500000 0.627982 0.500000
O O2 0.684750 0.500000 0.298922
O O3 0.641123 0.621355 0.506432
O O4 0.788083 0.664888 0.129563
O O5 0.168431 0.340842 0.135198
O O6 0.939506 0.298883 0.315586
O O7 0.150335 0.182256 0.049172
O O8 0.378761 0.500000 0.313976
O O9 0.344743 0.331988 0.298447
O O10 0.594992 0.390872 0.065538
O O11 0.177086 0.659840 0.341623
O O12 0.239757 0.818883 0.360060
O O13 0.309873 0.127701 0.675468
O O14 0.584498 0.130986 0.258766
O O15 0.378395 0.133850 0.358603
O O16 0.422184 0.000000 0.422386
O O17 0.238917 0.000000 0.907626
O O18 0.183789 0.500000 0.222795
O O19 0.298819 0.000000 0.331278
O O20 0.500000 0.108393 0.000000
#
# Coordination Sequence:
#
# PCOD9155658 Si02
#       8
#     4   4   4   4   4   4   4   4
#     4  10  21  40  65  94 122 158 214 268 315 376
#     4  12  26  39  64  95 127 173 207 254 329 383
#     4  10  22  41  68  94 120 159 209 266 318 370
#     4  12  27  41  59  96 134 166 210 257 320 386
#     4   8  17  36  62  92 116 154 212 262 306 351
#     4   9  20  37  62  93 124 158 208 264 309 364
#     4  11  24  46  70  91 121 167 218 265 315 381
#     4  10  22  40  65  93 128 172 216 261 313 375
#
# _framework density 19.753086
#
# number of rings (size 3 to 8) (size 9 to 14) (size 15 to 20)
#    0.000    1.750    1.250    3.000    7.000    4.500 
#    0.000    1.250    0.000    3.750    0.000    0.000 
#    0.000    0.000    0.000    0.000    0.000    0.000 
#
# Total GULP energy -178735.073057 kJ/mol
# GULP energy per Si atom -5585.471033 kJ/mol
# Density = 1.970813 g / cm^3
# Si number density = 19.753086 Si / 1000 Ang^3
#
#
#
# Elastic Constant Matrix: (Units=GPa)
#
#
# Indices 1 2 3 4 5 6 
#
# 1 35.5303 20.5618 -1.1077 0.0000 11.4724 0.0000
# 2 20.5618 97.9420 35.8472 0.0000 8.0923 0.0000
# 3 -1.1077 35.8472 84.0859 0.0000 1.3959 0.0000
# 4 0.0000 0.0000 0.0000 22.3372 0.0000 16.6284
# 5 11.4724 8.0923 1.3959 0.0000 25.0142 0.0000
# 6 0.0000 0.0000 0.0000 16.6284 0.0000 17.1570
#
#
#
# Elastic Compliance Matrix: (Units=1/GPa)
#
#
# Indices 1 2 3 4 5 6 
#
# 1 0.037899 -0.008289 0.004281 0.000000 -0.014939 0.000000
# 2 -0.008289 0.014249 -0.006176 0.000000 -0.000463 0.000000
# 3 0.004281 -0.006176 0.014595 0.000000 -0.000780 0.000000
# 4 0.000000 0.000000 0.000000 0.160743 0.000000 -0.155791
# 5 -0.014939 -0.000463 -0.000780 0.000000 0.047022 0.000000
# 6 0.000000 0.000000 0.000000 -0.155791 0.000000 0.209277
#
#
# Mechanical properties :
#
#
# Convention : Reuss Voigt Hill
#
# Bulk Modulus (GPa) = 21.56338 36.46229 29.01284
# Shear Modulus (GPa) = 9.62257 23.71880 16.67068
#
# Velocity S-wave (km/s) = 2.20952 3.46896 2.90824
# Velocity P-wave (km/s) = 4.17726 5.87742 5.09870
#
# Compressibility (1/GPa) = 0.04637492
#
# Stress axis : x y z
#
# Youngs Moduli (GPa) = 26.38580 70.18000 68.51697
#
# Poissons Ratio (x) = 0.58172 -0.29332
# Poissons Ratio (y) = 0.21871 0.42317
# Poissons Ratio (z) = -0.11296 0.43344
#
# Static dielectric constant tensor:
#      x y z
#    x 1.694890 0.000000 0.016490 
#    y 0.000000 1.705100 0.000000 
#    z 0.016490 0.000000 1.695080 
# 
# From -- ./inp_files/53979.got.cif
#   From: 2010.05.17/outbox.ucp.g08.bks.cvg/sg10_27_cif.got.tgz:53979.got - 2010.06.11 11:31:16.
