data_PCOD9155289
_publ_section_title
;
Structure prediction by ZEFSAII (Michael W. Deem and Ramdas Pophale) SiO2 
 PCOD9155289
Probable space group: P 2/M
;
_chemical_formula_sum "Si O2"
_cell_formula_units_Z 32
_cell_length_a 12.000000
_cell_length_b 9.000000
_cell_length_c 30.000000
_cell_angle_alpha 90.000000
_cell_angle_beta 150.000000
_cell_angle_gamma 90.000000
_cell_volume 1620.000000
_symmetry_space_group_name_H-M "P 2/M"
_symmetry_group_IT_number 10
_symmetry_cell_setting 'monoclinic'
loop_
_space_group_symop_operation_xyz
x,y,z
-x,y,-z
-x,-y,-z
x,-y,z
loop_
_atom_site_type_symbol
_atom_site_label
_atom_site_fract_x
_atom_site_fract_y
_atom_site_fract_z
Si Si1 0.760824 0.319217 0.398508
Si Si2 0.719299 0.177835 0.044077
Si Si3 0.508855 0.679300 0.222823
Si Si4 0.733617 0.675693 0.556392
Si Si5 0.002325 0.822883 0.227346
Si Si6 0.190988 0.178304 0.747252
Si Si7 0.973535 0.179133 0.936672
Si Si8 0.470020 0.675547 0.378107
O O1 0.765601 0.500000 0.402332
O O2 0.690756 0.281323 0.324091
O O3 0.564269 0.269346 0.363739
O O4 0.000000 0.267321 0.500000
O O5 0.913139 0.210265 0.147128
O O6 0.830813 0.223314 0.033121
O O7 0.682415 0.000000 0.025995
O O8 0.500000 0.226329 0.000000
O O9 0.494322 0.500000 0.214309
O O10 0.609840 0.746388 0.211863
O O11 0.268365 0.743759 0.154709
O O12 0.500000 0.714911 0.500000
O O13 0.776562 0.500000 0.580507
O O14 0.670290 0.692964 0.482771
O O15 0.950542 0.768255 0.644910
O O16 0.830960 0.779712 0.207742
O O17 0.244709 0.751550 0.316631
O O18 0.024542 0.000000 0.238756
O O19 0.214444 0.000000 0.752069
O O20 0.954984 0.000000 0.925621
O O21 0.000000 0.208363 0.000000
O O22 0.422577 0.500000 0.358793
#
# Coordination Sequence:
#
# PCOD9155289 Si02
#       8
#     4   4   4   4   4   4   4   4
#     4   9  18  34  56  81 109 148 196 240 286 346
#     4   9  19  37  63  90 117 151 192 237 289 352
#     4  11  23  39  61  86 119 158 199 246 298 354
#     4  10  19  33  53  80 113 152 197 240 289 348
#     4  10  21  35  55  83 113 147 189 239 289 344
#     4  11  23  36  55  83 117 156 199 243 291 344
#     4  10  22  40  66  95 122 156 198 245 298 358
#     4  10  19  33  56  80 109 149 190 234 285 347
#
# _framework density 19.753086
#
# number of rings (size 3 to 8) (size 9 to 14) (size 15 to 20)
#    0.000    2.000    1.250    2.250    1.750    3.500 
#    0.000    0.625    0.000    3.375    0.000    0.000 
#    0.000    0.000    0.000    0.000    0.000    0.000 
#
# Total GULP energy -178280.084614 kJ/mol
# GULP energy per Si atom -5571.252644 kJ/mol
# Density = 1.970813 g / cm^3
# Si number density = 19.753086 Si / 1000 Ang^3
#
#
#
# Elastic Constant Matrix: (Units=GPa)
#
#
# Indices 1 2 3 4 5 6 
#
# 1 168.3352 22.5848 27.5459 0.0000 1.3665 0.0000
# 2 22.5848 23.2175 17.2690 0.0000 -2.2634 0.0000
# 3 27.5459 17.2690 59.9074 0.0000 3.6594 0.0000
# 4 0.0000 0.0000 0.0000 22.7086 0.0000 7.5166
# 5 1.3665 -2.2634 3.6594 0.0000 34.5485 0.0000
# 6 0.0000 0.0000 0.0000 7.5166 0.0000 27.9944
#
#
#
# Elastic Compliance Matrix: (Units=1/GPa)
#
#
# Indices 1 2 3 4 5 6 
#
# 1 0.006957 -0.005674 -0.001534 0.000000 -0.000484 0.000000
# 2 -0.005674 0.060435 -0.015166 0.000000 0.005790 0.000000
# 3 -0.001534 -0.015166 0.021968 0.000000 -0.003260 0.000000
# 4 0.000000 0.000000 0.000000 0.048332 0.000000 -0.012977
# 5 -0.000484 0.005790 -0.003260 0.000000 0.029689 0.000000
# 6 0.000000 0.000000 0.000000 -0.012977 0.000000 0.039206
#
#
# Mechanical properties :
#
#
# Convention : Reuss Voigt Hill
#
# Bulk Modulus (GPa) = 22.41474 42.91772 32.66623
# Shear Modulus (GPa) = 18.78265 29.32100 24.05183
#
# Velocity S-wave (km/s) = 3.08697 3.85694 3.49323
# Velocity P-wave (km/s) = 4.90692 6.45050 5.73092
#
# Compressibility (1/GPa) = 0.04461350
#
# Stress axis : x y z
#
# Youngs Moduli (GPa) = 143.74799 16.54683 45.51982
#
# Poissons Ratio (x) = 0.09388 0.06981
# Poissons Ratio (y) = 0.81556 0.69035
# Poissons Ratio (z) = 0.22046 0.25095
#
# Static dielectric constant tensor:
#      x y z
#    x 1.755700 0.000000 -0.029240 
#    y 0.000000 1.663620 0.000000 
#    z -0.029240 0.000000 1.720870 
# 
# From -- ./inp_files/95035.got.cif
#   From: 2010.05.17/outbox.ucp.g08.bks.cvg/sg10_48_cif.got.tgz:95035.got - 2010.06.11 11:31:16.
