data_PCOD9155570
_publ_section_title
;
Structure prediction by ZEFSAII (Michael W. Deem and Ramdas Pophale) SiO2 
 PCOD9155570
Probable space group: P 2/M
;
_chemical_formula_sum "Si O2"
_cell_formula_units_Z 32
_cell_length_a 12.000000
_cell_length_b 15.000000
_cell_length_c 15.000000
_cell_angle_alpha 90.000000
_cell_angle_beta 40.000000
_cell_angle_gamma 90.000000
_cell_volume 1735.526546
_symmetry_space_group_name_H-M "P 2/M"
_symmetry_group_IT_number 10
_symmetry_cell_setting 'monoclinic'
loop_
_space_group_symop_operation_xyz
x,y,z
-x,y,-z
-x,-y,-z
x,-y,z
loop_
_atom_site_type_symbol
_atom_site_label
_atom_site_fract_x
_atom_site_fract_y
_atom_site_fract_z
Si Si1 0.796952 0.601882 0.144141
Si Si2 0.332066 0.769323 0.668666
Si Si3 0.463223 0.109232 0.756288
Si Si4 0.879442 0.105704 0.489463
Si Si5 0.878703 0.393934 0.486677
Si Si6 0.608508 0.224839 0.021410
Si Si7 0.490154 0.398254 0.191642
Si Si8 0.016723 0.757545 0.721893
O O1 0.798121 0.500000 0.178957
O O2 0.703818 0.673460 0.264142
O O3 0.671466 0.601671 0.134988
O O4 0.000000 0.625134 0.000000
O O5 0.500000 0.770811 0.500000
O O6 0.373673 0.840212 0.724879
O O7 0.155816 0.777015 0.716484
O O8 0.672855 0.124507 0.624757
O O9 0.403066 0.156986 0.886061
O O10 0.434702 0.000000 0.772415
O O11 0.955776 0.160021 0.361054
O O12 0.000000 0.129928 0.500000
O O13 0.895655 0.000000 0.466303
O O14 0.898797 0.500000 0.452606
O O15 0.678218 0.380486 0.641798
O O16 0.930215 0.329710 0.371748
O O17 0.000000 0.375796 0.500000
O O18 0.513334 0.317241 0.108890
O O19 0.500000 0.192514 0.000000
O O20 0.813455 0.244126 0.875632
O O21 0.465269 0.500000 0.171360
#
# Coordination Sequence:
#
# PCOD9155570 Si02
#       8
#     4   4   4   4   4   4   4   4
#     4  10  21  39  64  91 128 174 214 256 310 374
#     4  12  24  41  66  95 130 168 216 268 318 382
#     4  11  25  46  68  92 130 171 212 266 330 390
#     4  10  21  41  68  93 121 161 211 267 323 378
#     4  10  21  39  63  92 129 172 218 267 319 377
#     4  12  25  41  65  96 130 167 212 265 326 390
#     4  10  20  38  63  89 126 170 211 256 315 382
#     4  12  24  37  63  96 128 164 211 265 314 386
#
# _framework density 18.438207999999999
#
# number of rings (size 3 to 8) (size 9 to 14) (size 15 to 20)
#    0.000    1.125    2.500    4.125    0.000    3.000 
#    0.000    0.625    0.000    0.000    0.000    0.000 
#    0.000    0.000    0.000    0.000    0.000    0.000 
#
# Total GULP energy -178559.215790 kJ/mol
# GULP energy per Si atom -5579.975493 kJ/mol
# Density = 1.839624 g / cm^3
# Si number density = 18.438208 Si / 1000 Ang^3
#
#
#
# Elastic Constant Matrix: (Units=GPa)
#
#
# Indices 1 2 3 4 5 6 
#
# 1 143.8031 48.3241 43.8071 0.0000 -0.6045 0.0000
# 2 48.3241 101.6003 58.7656 0.0000 14.5245 0.0000
# 3 43.8071 58.7656 137.1369 0.0000 -9.1965 0.0000
# 4 0.0000 0.0000 0.0000 28.0341 0.0000 -2.7191
# 5 -0.6045 14.5245 -9.1965 0.0000 41.4937 0.0000
# 6 0.0000 0.0000 0.0000 -2.7191 0.0000 28.5152
#
#
#
# Elastic Compliance Matrix: (Units=1/GPa)
#
#
# Indices 1 2 3 4 5 6 
#
# 1 0.008493 -0.003555 -0.001114 0.000000 0.001121 0.000000
# 2 -0.003555 0.016178 -0.006273 0.000000 -0.007105 0.000000
# 3 -0.001114 -0.006273 0.010640 0.000000 0.004538 0.000000
# 4 0.000000 0.000000 0.000000 0.036004 0.000000 0.003433
# 5 0.001121 -0.007105 0.004538 0.000000 0.027609 0.000000
# 6 0.000000 0.000000 0.000000 0.003433 0.000000 0.035396
#
#
# Mechanical properties :
#
#
# Convention : Reuss Voigt Hill
#
# Bulk Modulus (GPa) = 74.48534 76.03712 75.26123
# Shear Modulus (GPa) = 31.11761 35.05149 33.08455
#
# Velocity S-wave (km/s) = 4.11258 4.36480 4.24057
# Velocity P-wave (km/s) = 7.93953 8.16887 8.05501
#
# Compressibility (1/GPa) = 0.01342546
#
# Stress axis : x y z
#
# Youngs Moduli (GPa) = 117.74639 61.81399 93.98139
#
# Poissons Ratio (x) = 0.21976 0.10472
# Poissons Ratio (y) = 0.41862 0.58956
# Poissons Ratio (z) = 0.13120 0.38777
#
# Static dielectric constant tensor:
#      x y z
#    x 1.669790 0.000000 0.008560 
#    y 0.000000 1.654280 0.000000 
#    z 0.008560 0.000000 1.623980 
# 
# From -- ./inp_files/65062.got.cif
#   From: 2010.05.17/outbox.ucp.g08.bks.cvg/sg10_33_cif.got.tgz:65062.got - 2010.06.11 11:31:16.
