data_PCOD9155792
_publ_section_title
;
Structure prediction by ZEFSAII (Michael W. Deem and Ramdas Pophale) SiO2 
 PCOD9155792
Probable space group: P 21/M
;
_chemical_formula_sum "Si O2"
_cell_formula_units_Z 24
_cell_length_a 22.043776
_cell_length_b 14.439800
_cell_length_c 12.127283
_cell_angle_alpha 90.000000
_cell_angle_beta 163.171730
_cell_angle_gamma 90.000000
_cell_volume 1117.546003
_symmetry_space_group_name_H-M "P 21/M"
_symmetry_group_IT_number 11
_symmetry_cell_setting 'monoclinic'
loop_
_space_group_symop_operation_xyz
x,y,z
-x,1/2+y,-z
-x,-y,-z
x,1/2-y,z
loop_
_atom_site_type_symbol
_atom_site_label
_atom_site_fract_x
_atom_site_fract_y
_atom_site_fract_z
Si Si1 0.154553 0.352436 0.002218
Si Si2 0.361870 0.643835 0.063533
Si Si3 0.687675 0.356289 0.592071
Si Si4 0.081092 0.353123 0.113955
Si Si5 0.528008 0.982747 0.177068
Si Si6 0.260775 0.964625 0.091964
O O1 0.130672 0.250000 0.911181
O O2 0.395676 0.356655 0.468727
O O3 0.017865 0.359658 0.875698
O O4 0.129603 0.441900 0.883171
O O5 0.303492 0.750000 0.946838
O O6 0.372741 0.587831 0.968688
O O7 0.226485 0.593826 0.922144
O O8 0.616405 0.250000 0.481263
O O9 0.528048 0.424230 0.251009
O O10 0.747031 0.400936 0.812675
O O11 0.889972 0.356826 0.864882
O O12 0.180568 0.250000 0.299455
O O13 0.244785 0.434044 0.419138
O O14 0.500000 0.000000 0.000000
O O15 0.500000 0.000000 0.500000
#
# Coordination Sequence:
#
# PCOD9155792 Si02
#       6
#     4   4   4   4   4   4
#     4   8  14  25  46  71  97 130 161 201 259 308
#     4   9  17  31  48  69 100 137 172 207 257 314
#     4  11  21  32  52  83 107 129 174 229 266 303
#     4   9  18  34  54  76 105 138 172 216 267 311
#     4  11  21  34  53  76 108 143 175 207 261 319
#     4  10  16  29  48  76 104 132 168 222 266 302
#
# _framework density 21.475625000000001
#
# number of rings (size 3 to 8) (size 9 to 14) (size 15 to 20)
#    0.000    2.333    5.000    2.500    0.000    2.000 
#    0.000    0.000    0.000    1.000    0.000    0.000 
#    0.000    0.000    0.000    0.000    0.000    0.000 
#
# Total GULP energy -133969.095512 kJ/mol
# GULP energy per Si atom -5582.045646 kJ/mol
# Density = 2.142675 g / cm^3
# Si number density = 21.475625 Si / 1000 Ang^3
#
#
#
# Elastic Constant Matrix: (Units=GPa)
#
#
# Indices 1 2 3 4 5 6 
#
# 1 169.0316 104.5939 14.4262 0.0000 -3.9415 0.0000
# 2 104.5939 215.7039 16.5803 0.0000 -16.0108 0.0000
# 3 14.4262 16.5803 37.2020 0.0000 -10.4458 0.0000
# 4 0.0000 0.0000 0.0000 -7.9811 0.0000 11.1318
# 5 -3.9415 -16.0108 -10.4458 0.0000 27.1362 0.0000
# 6 0.0000 0.0000 0.0000 11.1318 0.0000 40.7959
#
#
#
# Elastic Compliance Matrix: (Units=1/GPa)
#
#
# Indices 1 2 3 4 5 6 
#
# 1 0.008627 -0.004174 -0.002046 0.000000 -0.001997 0.000000
# 2 -0.004174 0.006946 -0.000557 0.000000 0.003278 0.000000
# 3 -0.002046 -0.000557 0.031108 0.000000 0.011349 0.000000
# 4 0.000000 0.000000 0.000000 -0.090756 0.000000 0.024764
# 5 -0.001997 0.003278 0.011349 0.000000 0.042864 0.000000
# 6 0.000000 0.000000 0.000000 0.024764 0.000000 0.017755
#
#
# Mechanical properties :
#
#
# Convention : Reuss Voigt Hill
#
# Bulk Modulus (GPa) = 30.18600 77.01537 53.60069
# Shear Modulus (GPa) = 121.53382 31.07934 76.30658
#
# Velocity S-wave (km/s) = 7.53089 3.80832 5.96732
# Velocity P-wave (km/s) = 9.47130 7.43488 8.51419
#
# Compressibility (1/GPa) = 0.03312794
#
# Stress axis : x y z
#
# Youngs Moduli (GPa) = 115.91509 143.96522 32.14566
#
# Poissons Ratio (x) = 0.60094 0.06576
# Poissons Ratio (y) = 0.48385 0.01790
# Poissons Ratio (z) = 0.23714 0.08016
#
# Static dielectric constant tensor:
#      x y z
#    x 1.779010 0.000000 -0.010440 
#    y 0.000000 1.840950 0.000000 
#    z -0.010440 0.000000 1.875780 
# 
# From -- ./inp_files/35201.got.cif
#   From: 2010.05.17/outbox.cif.g08.bks.cpg/sg11_18_cif.got.tgz:35201.got - 2010.06.03 12:22:45.
