data_PCOD9155390
_publ_section_title
;
Structure prediction by ZEFSAII (Michael W. Deem and Ramdas Pophale) SiO2 
 PCOD9155390
Probable space group: P 2/M
;
_chemical_formula_sum "Si O2"
_cell_formula_units_Z 32
_cell_length_a 24.000000
_cell_length_b 9.000000
_cell_length_c 15.000000
_cell_angle_alpha 90.000000
_cell_angle_beta 30.000000
_cell_angle_gamma 90.000000
_cell_volume 1620.000000
_symmetry_space_group_name_H-M "P 2/M"
_symmetry_group_IT_number 10
_symmetry_cell_setting 'monoclinic'
loop_
_space_group_symop_operation_xyz
x,y,z
-x,y,-z
-x,-y,-z
x,-y,z
loop_
_atom_site_type_symbol
_atom_site_label
_atom_site_fract_x
_atom_site_fract_y
_atom_site_fract_z
Si Si1 0.267611 0.179363 0.789748
Si Si2 0.789581 0.676756 0.954918
Si Si3 0.030594 0.325565 0.562083
Si Si4 0.602945 0.820174 0.561864
Si Si5 0.733613 0.822126 0.722843
Si Si6 0.217545 0.180147 0.539431
Si Si7 0.612532 0.323811 0.048772
Si Si8 0.020831 0.820186 0.074611
O O1 0.278355 0.243147 0.873260
O O2 0.360471 0.223732 0.588831
O O3 0.267619 0.000000 0.791784
O O4 0.143433 0.231509 0.932252
O O5 0.792189 0.500000 0.967371
O O6 0.723066 0.700889 0.955685
O O7 0.918405 0.727448 0.768302
O O8 0.050759 0.500000 0.555889
O O9 0.141761 0.232934 0.425199
O O10 0.000000 0.319502 0.500000
O O11 0.708145 0.778819 0.478840
O O12 0.492570 0.747430 0.755111
O O13 0.591174 0.000000 0.580644
O O14 0.721867 0.777859 0.635691
O O15 0.727878 0.000000 0.738770
O O16 0.642276 0.749469 0.913284
O O17 0.089610 0.234829 0.721136
O O18 0.210779 0.000000 0.549991
O O19 0.596064 0.500000 0.062582
O O20 0.023623 0.000000 0.079695
O O21 0.000000 0.787252 0.000000
#
# Coordination Sequence:
#
# PCOD9155390 Si02
#       8
#     4   4   4   4   4   4   4   4
#     4  10  20  34  59  90 117 144 184 236 283 330
#     4  10  22  39  59  80 111 154 191 227 280 340
#     4  10  19  37  60  82 115 157 191 224 278 345
#     4  10  21  39  60  84 113 149 189 237 288 333
#     4  11  22  36  59  91 118 144 185 239 286 334
#     4   9  18  33  55  85 120 150 180 223 286 346
#     4  11  24  43  60  77 108 155 199 235 281 341
#     4   9  14  27  54  86 117 149 177 212 272 344
#
# _framework density 19.753086
#
# number of rings (size 3 to 8) (size 9 to 14) (size 15 to 20)
#    0.000    2.000    2.500    1.500    0.000    4.250 
#    0.000    6.250    0.000    1.125    0.000    0.000 
#    0.000    0.000    0.000    0.000    0.000    0.000 
#
# Total GULP energy -178616.046900 kJ/mol
# GULP energy per Si atom -5581.751466 kJ/mol
# Density = 1.970813 g / cm^3
# Si number density = 19.753086 Si / 1000 Ang^3
#
#
#
# Elastic Constant Matrix: (Units=GPa)
#
#
# Indices 1 2 3 4 5 6 
#
# 1 18.4776 10.3697 9.3925 0.0000 20.9854 0.0000
# 2 10.3697 21.9592 29.3243 0.0000 9.5239 0.0000
# 3 9.3925 29.3243 150.3500 0.0000 29.1027 0.0000
# 4 0.0000 0.0000 0.0000 26.1812 0.0000 4.0340
# 5 20.9854 9.5239 29.1027 0.0000 34.4035 0.0000
# 6 0.0000 0.0000 0.0000 4.0340 0.0000 55.9573
#
#
#
# Elastic Compliance Matrix: (Units=1/GPa)
#
#
# Indices 1 2 3 4 5 6 
#
# 1 0.350724 -0.133248 0.045858 0.000000 -0.215840 0.000000
# 2 -0.133248 0.114216 -0.028179 0.000000 0.073498 0.000000
# 3 0.045858 -0.028179 0.015769 0.000000 -0.033511 0.000000
# 4 0.000000 0.000000 0.000000 0.038624 0.000000 -0.002784
# 5 -0.215840 0.073498 -0.033511 0.000000 0.168727 0.000000
# 6 0.000000 0.000000 0.000000 -0.002784 0.000000 0.018071
#
#
# Mechanical properties :
#
#
# Convention : Reuss Voigt Hill
#
# Bulk Modulus (GPa) = 4.00688 32.10662 18.05675
# Shear Modulus (GPa) = 4.89975 32.75509 18.82742
#
# Velocity S-wave (km/s) = 1.57667 4.07655 3.09064
# Velocity P-wave (km/s) = 2.31244 6.20056 4.67944
#
# Compressibility (1/GPa) = 0.24957083
#
# Stress axis : x y z
#
# Youngs Moduli (GPa) = 2.85125 8.75534 63.41538
#
# Poissons Ratio (x) = 1.16663 -2.90810
# Poissons Ratio (y) = 0.37992 1.78700
# Poissons Ratio (z) = -0.13075 0.24672
#
# Static dielectric constant tensor:
#      x y z
#    x 1.713600 0.000000 0.012680 
#    y 0.000000 1.665490 0.000000 
#    z 0.012680 0.000000 1.692650 
# 
# From -- ./inp_files/71408.got.cif
#   From: 2010.05.17/outbox.ucp.g08.bks.cvg/sg10_36_cif.got.tgz:71408.got - 2010.06.11 11:31:16.
