data_PCOD9155485
_publ_section_title
;
Structure prediction by ZEFSAII (Michael W. Deem and Ramdas Pophale) SiO2 
 PCOD9155485
Probable space group: P 2/M
;
_chemical_formula_sum "Si O2"
_cell_formula_units_Z 28
_cell_length_a 15.000000
_cell_length_b 9.000000
_cell_length_c 12.000000
_cell_angle_alpha 90.000000
_cell_angle_beta 120.000000
_cell_angle_gamma 90.000000
_cell_volume 1402.961154
_symmetry_space_group_name_H-M "P 2/M"
_symmetry_group_IT_number 10
_symmetry_cell_setting 'monoclinic'
loop_
_space_group_symop_operation_xyz
x,y,z
-x,y,-z
-x,-y,-z
x,-y,z
loop_
_atom_site_type_symbol
_atom_site_label
_atom_site_fract_x
_atom_site_fract_y
_atom_site_fract_z
Si Si1 0.133986 0.672991 0.338128
Si Si2 0.601353 0.170461 0.854484
Si Si3 0.898747 0.327107 0.119555
Si Si4 0.716950 0.820893 0.142963
Si Si5 0.265506 0.177289 0.589472
Si Si6 0.454365 0.676179 0.592345
Si Si7 0.818592 0.170018 0.859091
O O1 0.163454 0.500000 0.361745
O O2 0.163810 0.752133 0.471976
O O3 0.185576 0.748016 0.261641
O O4 0.012830 0.684151 0.238700
O O5 0.530423 0.279223 0.740056
O O6 0.708931 0.168293 0.854049
O O7 0.559867 0.000000 0.828601
O O8 0.626367 0.215337 0.997602
O O9 0.870743 0.500000 0.090077
O O10 0.818695 0.248942 0.152329
O O11 0.890885 0.251961 0.993490
O O12 0.708290 0.776450 0.266938
O O13 0.725235 0.000000 0.144381
O O14 0.352169 0.235275 0.559237
O O15 0.259530 0.000000 0.583952
O O16 0.500000 0.718688 0.500000
O O17 0.435798 0.500000 0.579229
O O18 0.851230 0.000000 0.861719
#
# Coordination Sequence:
#
# PCOD9155485 Si02
#       7
#     4   4   4   4   4   4   4
#     4  11  23  37  54  82 119 154 191 237 289 341
#     4   9  19  37  60  84 112 146 185 232 282 333
#     4  10  21  36  57  84 116 154 190 233 289 341
#     4   9  21  41  61  84 113 147 192 240 283 334
#     4  11  24  41  61  83 111 150 193 238 286 337
#     4  11  24  40  59  86 118 149 182 226 282 344
#     4  10  20  35  58  87 117 151 193 238 283 336
#
# _framework density 19.957787
#
# number of rings (size 3 to 8) (size 9 to 14) (size 15 to 20)
#    0.000    1.857    0.000    4.286    0.000   12.571 
#    0.000    5.714    0.000    0.000    0.000    0.000 
#    0.000    0.000    0.000    0.000    0.000    0.000 
#
# Total GULP energy -156394.009844 kJ/mol
# GULP energy per Si atom -5585.500352 kJ/mol
# Density = 1.991236 g / cm^3
# Si number density = 19.957787 Si / 1000 Ang^3
#
#
#
# Elastic Constant Matrix: (Units=GPa)
#
#
# Indices 1 2 3 4 5 6 
#
# 1 35.6923 16.7859 26.3211 0.0000 -11.7761 0.0000
# 2 16.7859 59.8845 53.5759 0.0000 -5.2385 0.0000
# 3 26.3211 53.5759 144.6710 0.0000 -18.1702 0.0000
# 4 0.0000 0.0000 0.0000 44.1621 0.0000 -1.0966
# 5 -11.7761 -5.2385 -18.1702 0.0000 30.2092 0.0000
# 6 0.0000 0.0000 0.0000 -1.0966 0.0000 12.6062
#
#
#
# Elastic Compliance Matrix: (Units=1/GPa)
#
#
# Indices 1 2 3 4 5 6 
#
# 1 0.037133 -0.006960 -0.002717 0.000000 0.011634 0.000000
# 2 -0.006960 0.026327 -0.008925 0.000000 -0.003516 0.000000
# 3 -0.002717 -0.008925 0.011233 0.000000 0.004149 0.000000
# 4 0.000000 0.000000 0.000000 0.022693 0.000000 0.001974
# 5 0.011634 -0.003516 0.004149 0.000000 0.039524 0.000000
# 6 0.000000 0.000000 0.000000 0.001974 0.000000 0.079498
#
#
# Mechanical properties :
#
#
# Convention : Reuss Voigt Hill
#
# Bulk Modulus (GPa) = 26.67490 48.17928 37.42709
# Shear Modulus (GPa) = 18.78944 26.96649 22.87796
#
# Velocity S-wave (km/s) = 3.07165 3.67982 3.38940
# Velocity P-wave (km/s) = 5.09654 6.49983 5.84048
#
# Compressibility (1/GPa) = 0.03748843
#
# Stress axis : x y z
#
# Youngs Moduli (GPa) = 26.93057 37.98405 89.02390
#
# Poissons Ratio (x) = 0.26436 0.24190
# Poissons Ratio (y) = 0.18743 0.79453
# Poissons Ratio (z) = 0.07318 0.33901
#
# Static dielectric constant tensor:
#      x y z
#    x 1.721290 0.000000 0.052010 
#    y 0.000000 1.676250 0.000000 
#    z 0.052010 0.000000 1.726820 
# 
# From -- ./inp_files/50048.got.cif
#   From: 2010.05.17/outbox.ucp.g08.bks.cvg/sg10_26_cif.got.tgz:50048.got - 2010.06.11 11:31:16.
