data_PCOD9156426
_publ_section_title
;
Structure prediction by ZEFSAII (Michael W. Deem and Ramdas Pophale) SiO2 
 PCOD9156426
Probable space group: P 21/M
;
_chemical_formula_sum "Si O2"
_cell_formula_units_Z 32
_cell_length_a 15.394593
_cell_length_b 19.853838
_cell_length_c 5.472597
_cell_angle_alpha 90.000000
_cell_angle_beta 89.999990
_cell_angle_gamma 90.000000
_cell_volume 1672.654154
_symmetry_space_group_name_H-M "P 21/M"
_symmetry_group_IT_number 11
_symmetry_cell_setting 'monoclinic'
loop_
_space_group_symop_operation_xyz
x,y,z
-x,1/2+y,-z
-x,-y,-z
x,1/2-y,z
loop_
_atom_site_type_symbol
_atom_site_label
_atom_site_fract_x
_atom_site_fract_y
_atom_site_fract_z
Si Si1 0.889129 0.028147 0.750000
Si Si2 0.308651 0.005506 0.250003
Si Si3 0.396294 0.977967 0.750003
Si Si4 0.201653 0.331654 0.749999
Si Si5 0.891043 0.830150 0.750001
Si Si6 0.556254 0.624491 0.749998
Si Si7 0.045342 0.918726 0.750000
Si Si8 0.596339 0.636398 0.249998
O O1 0.794643 0.994767 0.750000
O O2 0.901804 0.069714 0.499072
O O3 0.966389 0.973313 0.750000
O O4 0.901804 0.069714 0.000929
O O5 0.342328 0.971037 0.499742
O O6 0.355383 0.078736 0.250002
O O7 0.342330 0.971036 0.000266
O O8 0.476745 0.927571 0.749999
O O9 0.427388 0.056340 0.750003
O O10 0.204164 0.250000 0.749999
O O11 0.152884 0.354452 0.503174
O O12 0.299887 0.357332 0.750001
O O13 0.152883 0.354452 0.996824
O O14 0.880253 0.750000 0.750001
O O15 0.991775 0.849764 0.750000
O O16 0.559343 0.664972 0.500073
O O17 0.559343 0.664972 0.999922
#
# Coordination Sequence:
#
# PCOD9156426 Si02
#       8
#     4   4   4   4   4   4   4   4
#     4  10  21  33  47  74  99 135 163 201 253 300
#     4  10  18  29  46  66  97 129 160 195 237 295
#     4  10  19  29  46  71 101 127 164 198 230 295
#     4  10  21  33  48  75  99 124 175 211 235 292
#     4  10  21  36  54  71  96 133 171 212 251 292
#     4  10  19  31  44  73  98 128 166 197 232 295
#     4  10  21  35  49  68 105 128 166 210 241 302
#     4  10  18  28  46  64  94 134 153 196 241 275
#
# _framework density 19.131270000000001
#
# number of rings (size 3 to 8) (size 9 to 14) (size 15 to 20)
#    0.000    2.000    0.000    6.000    7.000    0.000 
#    0.000    0.000    0.000    0.000    0.000    0.000 
#    0.000   34.000    0.000    0.000    0.000    0.000 
#
# Total GULP energy -178609.295062 kJ/mol
# GULP energy per Si atom -5581.540471 kJ/mol
# Density = 1.908773 g / cm^3
# Si number density = 19.131270 Si / 1000 Ang^3
#
#
#
# Elastic Constant Matrix: (Units=GPa)
#
#
# Indices 1 2 3 4 5 6 
#
# 1 66.1960 18.6542 49.3610 0.0000 0.0004 0.0000
# 2 18.6542 22.6173 28.9415 0.0000 0.0001 0.0000
# 3 49.3610 28.9415 220.9251 0.0000 0.0005 0.0000
# 4 0.0000 0.0000 0.0000 6.0180 0.0000 0.0001
# 5 0.0004 0.0001 0.0005 0.0000 38.0882 0.0000
# 6 0.0000 0.0000 0.0000 0.0001 0.0000 -1.9509
#
#
#
# Elastic Compliance Matrix: (Units=1/GPa)
#
#
# Indices 1 2 3 4 5 6 
#
# 1 0.021152 -0.013694 -0.002932 0.000000 0.000000 0.000000
# 2 -0.013694 0.061983 -0.005060 0.000000 0.000000 0.000000
# 3 -0.002932 -0.005060 0.005844 0.000000 0.000000 0.000000
# 4 0.000000 0.000000 0.000000 0.166168 0.000000 0.000008
# 5 0.000000 0.000000 0.000000 0.000000 0.026255 0.000000
# 6 0.000000 0.000000 0.000000 0.000008 0.000000 -0.512571
#
#
# Mechanical properties :
#
#
# Convention : Reuss Voigt Hill
#
# Bulk Modulus (GPa) = 21.92617 55.96131 38.94374
# Shear Modulus (GPa) = -28.96975 22.61649 -3.17663
#
# Velocity S-wave (km/s) = -3.89557 3.44201 -1.28998
# Velocity P-wave (km/s) = 2.95774 6.71649 4.26398
#
# Compressibility (1/GPa) = 0.04560761
#
# Stress axis : x y z
#
# Youngs Moduli (GPa) = 47.27700 16.13337 171.10272
#
# Poissons Ratio (x) = 0.22092 0.50169
# Poissons Ratio (y) = 0.64739 0.86584
# Poissons Ratio (z) = 0.13862 0.08164
#
# Static dielectric constant tensor:
#      x y z
#    x 1.639840 0.000000 0.000000 
#    y 0.000000 1.662000 0.000000 
#    z 0.000000 0.000000 1.775820 
# 
# From -- ./inp_files/5383.got.cif
#   From: 2010.05.17/outbox.cif.g08.bks.cpg/sg11_3_cif.got.tgz:5383.got - 2010.06.03 12:22:45.
