data_PCOD9156643
_publ_section_title
;
Structure prediction by ZEFSAII (Michael W. Deem and Ramdas Pophale) SiO2 
 PCOD9156643
Probable space group: P 21/M
;
_chemical_formula_sum "Si O2"
_cell_formula_units_Z 32
_cell_length_a 5.070699
_cell_length_b 19.910543
_cell_length_c 15.546658
_cell_angle_alpha 90.000000
_cell_angle_beta 65.238918
_cell_angle_gamma 90.000000
_cell_volume 1425.291086
_symmetry_space_group_name_H-M "P 21/M"
_symmetry_group_IT_number 11
_symmetry_cell_setting 'monoclinic'
loop_
_space_group_symop_operation_xyz
x,y,z
-x,1/2+y,-z
-x,-y,-z
x,1/2-y,z
loop_
_atom_site_type_symbol
_atom_site_label
_atom_site_fract_x
_atom_site_fract_y
_atom_site_fract_z
Si Si1 0.652521 0.556502 0.536647
Si Si2 0.990594 0.825143 0.905174
Si Si3 0.362763 0.175215 0.711455
Si Si4 0.299386 0.673272 0.160901
Si Si5 0.804345 0.435632 0.634373
Si Si6 0.216607 0.599587 0.728267
Si Si7 0.626796 0.522962 0.798492
Si Si8 0.397323 0.601968 0.975908
O O1 0.500000 0.500000 0.500000
O O2 0.788912 0.509315 0.592547
O O3 0.418299 0.602373 0.617176
O O4 0.896328 0.591619 0.445582
O O5 0.002924 0.750000 0.935396
O O6 0.665899 0.846654 0.925708
O O7 0.184392 0.836048 0.793345
O O8 0.118131 0.874431 0.959951
O O9 0.450557 0.250000 0.669511
O O10 0.017850 0.169604 0.751826
O O11 0.546794 0.114947 0.645332
O O12 0.452037 0.171571 0.800446
O O13 0.311036 0.750000 0.121029
O O14 0.329360 0.616281 0.084377
O O15 0.756955 0.454911 0.740759
O O16 0.359675 0.544012 0.773009
O O17 0.894794 0.574447 0.750637
O O18 0.511208 0.534606 0.911536
#
# Coordination Sequence:
#
# PCOD9156643 Si02
#       8
#     4   4   4   4   4   4   4   4
#     4  10  19  34  60  85 101 137 183 222 267 328
#     4  10  18  29  49  75 108 144 173 216 274 322
#     4  10  23  39  57  80 111 148 183 224 270 316
#     4  10  20  36  55  77 106 146 191 225 261 318
#     4  10  21  36  58  83 110 141 182 226 275 329
#     4   9  18  31  47  77 108 131 173 216 260 319
#     4   9  18  32  51  78 107 138 169 222 273 312
#     4  10  19  32  53  78 107 139 187 228 263 318
#
# _framework density 22.451554000000002
#
# number of rings (size 3 to 8) (size 9 to 14) (size 15 to 20)
#    0.000    2.250    1.250    1.875    1.750    1.000 
#    0.000    1.875    0.000    0.750    0.000    0.000 
#    0.000    0.000    0.000    0.000    0.000    0.000 
#
# Total GULP energy -178398.126847 kJ/mol
# GULP energy per Si atom -5574.941464 kJ/mol
# Density = 2.240045 g / cm^3
# Si number density = 22.451554 Si / 1000 Ang^3
#
#
#
# Elastic Constant Matrix: (Units=GPa)
#
#
# Indices 1 2 3 4 5 6 
#
# 1 50.0599 -4.0339 -0.4916 0.0000 4.5137 0.0000
# 2 -4.0339 62.8863 18.1349 0.0000 -3.3146 0.0000
# 3 -0.4916 18.1349 108.9313 0.0000 -6.7484 0.0000
# 4 0.0000 0.0000 0.0000 26.2847 0.0000 -3.9756
# 5 4.5137 -3.3146 -6.7484 0.0000 29.6265 0.0000
# 6 0.0000 0.0000 0.0000 -3.9756 0.0000 23.6195
#
#
#
# Elastic Compliance Matrix: (Units=1/GPa)
#
#
# Indices 1 2 3 4 5 6 
#
# 1 0.020346 0.001232 -0.000301 0.000000 -0.003030 0.000000
# 2 0.001232 0.016824 -0.002729 0.000000 0.001073 0.000000
# 3 -0.000301 -0.002729 0.009755 0.000000 0.001962 0.000000
# 4 0.000000 0.000000 0.000000 0.039039 0.000000 0.006571
# 5 -0.003030 0.001073 0.001962 0.000000 0.034782 0.000000
# 6 0.000000 0.000000 0.000000 0.006571 0.000000 0.043444
#
#
# Mechanical properties :
#
#
# Convention : Reuss Voigt Hill
#
# Bulk Modulus (GPa) = 23.07923 27.67737 25.37830
# Shear Modulus (GPa) = 27.43815 29.79069 28.61442
#
# Velocity S-wave (km/s) = 3.49965 3.64660 3.57388
# Velocity P-wave (km/s) = 5.16062 5.48494 5.32525
#
# Compressibility (1/GPa) = 0.04332900
#
# Stress axis : x y z
#
# Youngs Moduli (GPa) = 49.15056 59.43804 102.51553
#
# Poissons Ratio (x) = -0.07324 0.03086
# Poissons Ratio (y) = -0.06056 0.27975
# Poissons Ratio (z) = 0.01480 0.16220
#
# Static dielectric constant tensor:
#      x y z
#    x 1.830230 0.000000 0.040410 
#    y 0.000000 1.835800 0.000000 
#    z 0.040410 0.000000 1.921210 
# 
# From -- ./inp_files/57226.got.cif
#   From: 2010.05.17/outbox.cif.g08.bks.cpg/sg11_29_cif.got.tgz:57226.got - 2010.06.03 12:22:45.
