data_PCOD9156306
_publ_section_title
;
Structure prediction by ZEFSAII (Michael W. Deem and Ramdas Pophale) SiO2 
 PCOD9156306
Probable space group: P 21/M
;
_chemical_formula_sum "Si O2"
_cell_formula_units_Z 32
_cell_length_a 26.617477
_cell_length_b 10.135208
_cell_length_c 14.831188
_cell_angle_alpha 90.000000
_cell_angle_beta 150.063094
_cell_angle_gamma 90.000000
_cell_volume 1996.715089
_symmetry_space_group_name_H-M "P 21/M"
_symmetry_group_IT_number 11
_symmetry_cell_setting 'monoclinic'
loop_
_space_group_symop_operation_xyz
x,y,z
-x,1/2+y,-z
-x,-y,-z
x,1/2-y,z
loop_
_atom_site_type_symbol
_atom_site_label
_atom_site_fract_x
_atom_site_fract_y
_atom_site_fract_z
Si Si1 0.606715 0.890690 0.578389
Si Si2 0.273333 0.597214 0.002910
Si Si3 0.956238 0.402787 0.685810
Si Si4 0.080403 0.597267 0.580403
Si Si5 0.101997 0.400085 0.248818
Si Si6 0.135040 0.890692 0.163362
Si Si7 0.815702 0.500003 0.947104
Si Si8 0.455177 0.400085 0.308362
O O1 0.581954 0.750000 0.496418
O O2 0.725350 0.904419 0.777926
O O3 0.561424 0.888937 0.609326
O O4 0.557400 0.016916 0.454054
O O5 0.307949 0.750000 0.055766
O O6 0.188412 0.578307 0.794978
O O7 0.219634 0.569323 0.015802
O O8 0.363539 0.492791 0.133273
O O9 0.939856 0.250000 0.687663
O O10 0.918152 0.421694 0.524716
O O11 0.906184 0.507206 0.675910
O O12 0.076528 0.430675 0.872698
O O13 0.050350 0.750000 0.550350
O O14 0.000000 0.500000 0.500000
O O15 0.137457 0.250000 0.319190
O O16 0.160746 0.483085 0.264093
O O17 0.986479 0.388941 0.034389
O O18 0.167484 0.750000 0.253015
O O19 0.172776 0.904423 0.120201
O O20 0.455719 0.250000 0.273988
#
# Coordination Sequence:
#
# PCOD9156306 Si02
#       8
#     4   4   4   4   4   4   4   4
#     4   9  17  28  42  62  85 114 149 184 222 265
#     4  10  19  31  46  64  89 120 153 187 223 263
#     4  10  19  31  46  64  89 120 153 187 223 263
#     4  10  20  32  46  66  90 119 152 189 226 260
#     4   9  18  30  44  60  82 114 150 187 225 263
#     4   9  17  28  42  62  85 114 149 184 222 265
#     4  10  18  27  46  66  92 119 152 184 220 260
#     4   9  18  30  44  60  82 114 150 187 225 263
#
# _framework density 16.026322
#
# number of rings (size 3 to 8) (size 9 to 14) (size 15 to 20)
#    0.000    2.500    1.250    1.500    0.000    9.000 
#    0.000    0.000    0.000    0.000    0.000    0.000 
#    0.000    1.000    0.000    2.375    0.000    2.125 
#
# Total GULP energy -178170.139190 kJ/mol
# GULP energy per Si atom -5567.816850 kJ/mol
# Density = 1.598985 g / cm^3
# Si number density = 16.026322 Si / 1000 Ang^3
#
#
#
# Elastic Constant Matrix: (Units=GPa)
#
#
# Indices 1 2 3 4 5 6 
#
# 1 38.8025 33.0560 28.3626 0.0000 -11.1766 0.0000
# 2 33.0560 153.4015 56.0278 0.0000 -17.1467 0.0000
# 3 28.3626 56.0278 64.8362 0.0000 -8.2621 0.0000
# 4 0.0000 0.0000 0.0000 15.7747 0.0000 -8.2786
# 5 -11.1766 -17.1467 -8.2621 0.0000 10.5340 0.0000
# 6 0.0000 0.0000 0.0000 -8.2786 0.0000 4.6947
#
#
#
# Elastic Compliance Matrix: (Units=1/GPa)
#
#
# Indices 1 2 3 4 5 6 
#
# 1 0.049116 -0.000294 -0.016279 0.000000 0.038866 0.000000
# 2 -0.000294 0.010592 -0.007630 0.000000 0.010946 0.000000
# 3 -0.016279 -0.007630 0.028170 0.000000 -0.007598 0.000000
# 4 0.000000 0.000000 0.000000 0.850154 0.000000 1.499157
# 5 0.038866 0.010946 -0.007598 0.000000 0.148026 0.000000
# 6 0.000000 0.000000 0.000000 1.499157 0.000000 2.856614
#
#
# Mechanical properties :
#
#
# Convention : Reuss Voigt Hill
#
# Bulk Modulus (GPa) = 25.33412 54.65923 39.99668
# Shear Modulus (GPa) = 1.24868 15.50692 8.37780
#
# Velocity S-wave (km/s) = 0.88365 3.11399 2.28886
# Velocity P-wave (km/s) = 4.10892 6.86361 5.65652
#
# Compressibility (1/GPa) = 0.03947245
#
# Stress axis : x y z
#
# Youngs Moduli (GPa) = 20.35992 94.40745 35.49856
#
# Poissons Ratio (x) = 0.02773 0.57789
# Poissons Ratio (y) = 0.00598 0.27086
# Poissons Ratio (z) = 0.33145 0.72033
#
# Static dielectric constant tensor:
#      x y z
#    x 1.531500 0.000000 0.008270 
#    y 0.000000 1.281570 0.000000 
#    z 0.008270 0.000000 1.520390 
# 
# From -- ./inp_files/56210.got.cif
#   From: 2010.05.17/outbox.cif.g08.bks.cpg/sg11_29_cif.got.tgz:56210.got - 2010.06.03 12:22:45.
