data_PCOD9156993
_publ_section_title
;
Structure prediction by ZEFSAII (Michael W. Deem and Ramdas Pophale) SiO2 
 PCOD9156993
Probable space group: P 21/M
;
_chemical_formula_sum "Si O2"
_cell_formula_units_Z 28
_cell_length_a 10.224046
_cell_length_b 8.462843
_cell_length_c 18.044344
_cell_angle_alpha 90.000000
_cell_angle_beta 129.782113
_cell_angle_gamma 90.000000
_cell_volume 1199.815926
_symmetry_space_group_name_H-M "P 21/M"
_symmetry_group_IT_number 11
_symmetry_cell_setting 'monoclinic'
loop_
_space_group_symop_operation_xyz
x,y,z
-x,1/2+y,-z
-x,-y,-z
x,1/2-y,z
loop_
_atom_site_type_symbol
_atom_site_label
_atom_site_fract_x
_atom_site_fract_y
_atom_site_fract_z
Si Si1 0.530820 0.560961 0.428103
Si Si2 0.051911 0.073945 0.097106
Si Si3 0.854856 0.063856 0.722686
Si Si4 0.619814 0.069523 0.819690
Si Si5 0.515438 0.064233 0.087782
Si Si6 0.099730 0.436492 0.425329
Si Si7 0.748261 0.933267 0.286885
O O1 0.500000 0.500000 0.500000
O O2 0.549052 0.750000 0.434522
O O3 0.343605 0.532380 0.326632
O O4 0.720520 0.499444 0.478035
O O5 0.986571 0.250000 0.080341
O O6 0.026395 0.980760 0.164595
O O7 0.255645 0.065385 0.161295
O O8 0.000000 0.000000 0.000000
O O9 0.869824 0.250000 0.712002
O O10 0.891739 0.969758 0.660678
O O11 0.677499 0.250000 0.824446
O O12 0.422275 0.053614 0.724620
O O13 0.605395 0.041042 0.903060
O O14 0.475718 0.250000 0.076856
O O15 0.696399 0.033818 0.195123
O O16 0.500000 0.000000 0.000000
O O17 0.086950 0.250000 0.434462
O O18 0.924445 0.516689 0.386322
O O19 0.758206 0.750000 0.268644
#
# Coordination Sequence:
#
# PCOD9156993 Si02
#       7
#     4   4   4   4   4   4   4
#     4   8  16  30  51  79 111 146 179 222 275 326
#     4  12  25  41  60  81 107 143 188 231 274 324
#     4  10  20  36  56  80 113 149 186 226 276 329
#     4   9  20  38  56  76 104 138 178 220 269 322
#     4  10  18  31  50  74 101 133 172 217 267 319
#     4  10  18  31  54  86 118 145 182 228 275 327
#     4   9  19  33  51  76 106 141 177 216 270 324
#
# _framework density 23.336914
#
# number of rings (size 3 to 8) (size 9 to 14) (size 15 to 20)
#    0.857    1.429    0.000    3.857    0.000    2.286 
#    0.000    5.714    0.000    0.857    0.000    0.000 
#    0.000    0.000    0.000    0.000    0.000    0.000 
#
# Total GULP energy -156076.842962 kJ/mol
# GULP energy per Si atom -5574.172963 kJ/mol
# Density = 2.328380 g / cm^3
# Si number density = 23.336914 Si / 1000 Ang^3
#
#
#
# Elastic Constant Matrix: (Units=GPa)
#
#
# Indices 1 2 3 4 5 6 
#
# 1 42.4294 -1.3232 -13.0294 0.0000 19.9387 0.0000
# 2 -1.3232 75.1417 21.9928 0.0000 10.6142 0.0000
# 3 -13.0294 21.9928 91.8777 0.0000 -8.0877 0.0000
# 4 0.0000 0.0000 0.0000 21.8138 0.0000 9.6269
# 5 19.9387 10.6142 -8.0877 0.0000 32.7562 0.0000
# 6 0.0000 0.0000 0.0000 9.6269 0.0000 24.1650
#
#
#
# Elastic Compliance Matrix: (Units=1/GPa)
#
#
# Indices 1 2 3 4 5 6 
#
# 1 0.034382 0.002945 0.002294 0.000000 -0.021316 0.000000
# 2 0.002945 0.015646 -0.004019 0.000000 -0.007855 0.000000
# 3 0.002294 -0.004019 0.012433 0.000000 0.002975 0.000000
# 4 0.000000 0.000000 0.000000 0.055622 0.000000 -0.022159
# 5 -0.021316 -0.007855 0.002975 0.000000 0.046783 0.000000
# 6 0.000000 0.000000 0.000000 -0.022159 0.000000 0.050210
#
#
# Mechanical properties :
#
#
# Convention : Reuss Voigt Hill
#
# Bulk Modulus (GPa) = 15.40788 24.96991 20.18890
# Shear Modulus (GPa) = 21.34299 29.20091 25.27195
#
# Velocity S-wave (km/s) = 3.02745 3.54118 3.29434
# Velocity P-wave (km/s) = 4.34020 5.23859 4.81041
#
# Compressibility (1/GPa) = 0.06490185
#
# Stress axis : x y z
#
# Youngs Moduli (GPa) = 29.08513 63.91474 80.42874
#
# Poissons Ratio (x) = -0.18822 -0.18454
# Poissons Ratio (y) = -0.08565 0.32324
# Poissons Ratio (z) = -0.06674 0.25687
#
# Static dielectric constant tensor:
#      x y z
#    x 1.979330 0.000000 0.017150 
#    y 0.000000 1.777550 0.000000 
#    z 0.017150 0.000000 1.982140 
# 
# From -- ./inp_files/64271.got.cif
#   From: 2010.05.17/outbox.cif.g08.bks.cpg/sg11_33_cif.got.tgz:64271.got - 2010.06.03 12:22:45.
