data_PCOD9156777
_publ_section_title
;
Structure prediction by ZEFSAII (Michael W. Deem and Ramdas Pophale) SiO2 
 PCOD9156777
Probable space group: P 21/M
;
_chemical_formula_sum "Si O2"
_cell_formula_units_Z 32
_cell_length_a 21.598970
_cell_length_b 8.086487
_cell_length_c 15.364331
_cell_angle_alpha 90.000000
_cell_angle_beta 42.226425
_cell_angle_gamma 90.000000
_cell_volume 1803.499576
_symmetry_space_group_name_H-M "P 21/M"
_symmetry_group_IT_number 11
_symmetry_cell_setting 'monoclinic'
loop_
_space_group_symop_operation_xyz
x,y,z
-x,1/2+y,-z
-x,-y,-z
x,1/2-y,z
loop_
_atom_site_type_symbol
_atom_site_label
_atom_site_fract_x
_atom_site_fract_y
_atom_site_fract_z
Si Si1 0.323526 0.948786 0.008011
Si Si2 0.806631 0.557019 0.700982
Si Si3 0.514352 0.448992 0.884304
Si Si4 0.714591 0.059242 0.624353
Si Si5 0.816283 0.057754 0.980027
Si Si6 0.052837 0.446641 0.310840
Si Si7 0.976153 0.049853 0.927582
Si Si8 0.894810 0.555105 0.363599
O O1 0.309218 0.750000 0.030303
O O2 0.278752 0.006422 0.962856
O O3 0.429414 0.987728 0.915427
O O4 0.265681 0.037056 0.144506
O O5 0.813188 0.750000 0.667942
O O6 0.764574 0.456717 0.665681
O O7 0.903489 0.501279 0.642584
O O8 0.515758 0.250000 0.881405
O O9 0.612473 0.511519 0.745555
O O10 0.500000 0.500000 0.000000
O O11 0.705104 0.250000 0.610153
O O12 0.786798 0.979817 0.482675
O O13 0.800426 0.250000 0.016670
O O14 0.876437 0.986414 0.996785
O O15 0.887334 0.040081 0.825077
O O16 0.070217 0.250000 0.285725
O O17 0.948804 0.480583 0.390654
O O18 0.974021 0.250000 0.925887
O O19 0.053497 0.992914 0.777149
O O20 0.000000 0.000000 0.000000
O O21 0.909102 0.750000 0.353302
#
# Coordination Sequence:
#
# PCOD9156777 Si02
#       8
#     4   4   4   4   4   4   4   4
#     4  10  18  30  49  70  96 131 169 211 251 288
#     4  10  19  30  46  67  93 128 168 208 247 287
#     4  11  22  34  49  70  96 129 172 218 258 294
#     4  11  23  35  48  67  93 128 170 211 250 291
#     4   8  16  30  47  71 102 131 161 197 241 292
#     4   9  17  29  46  68  93 125 165 203 240 284
#     4   9  18  33  54  80 105 129 156 190 237 297
#     4  10  21  36  51  69  97 130 161 198 244 295
#
# _framework density 17.743281
#
# number of rings (size 3 to 8) (size 9 to 14) (size 15 to 20)
#    0.000    2.250    1.250    3.000    0.000    6.500 
#    0.000    0.000    0.000    0.000    0.000    0.875 
#    0.000    0.000    0.000    0.000    0.000    0.000 
#
# Total GULP energy -178355.348192 kJ/mol
# GULP energy per Si atom -5573.604631 kJ/mol
# Density = 1.770290 g / cm^3
# Si number density = 17.743281 Si / 1000 Ang^3
#
#
#
# Elastic Constant Matrix: (Units=GPa)
#
#
# Indices 1 2 3 4 5 6 
#
# 1 141.7892 2.9813 63.1638 0.0000 -15.0111 0.0000
# 2 2.9813 27.1767 2.6928 0.0000 -1.7390 0.0000
# 3 63.1638 2.6928 79.5165 0.0000 -20.7447 0.0000
# 4 0.0000 0.0000 0.0000 20.1305 0.0000 -3.1972
# 5 -15.0111 -1.7390 -20.7447 0.0000 30.8876 0.0000
# 6 0.0000 0.0000 0.0000 -3.1972 0.0000 23.3583
#
#
#
# Elastic Compliance Matrix: (Units=1/GPa)
#
#
# Indices 1 2 3 4 5 6 
#
# 1 0.010929 -0.000365 -0.008837 0.000000 -0.000644 0.000000
# 2 -0.000365 0.036990 -0.000565 0.000000 0.001526 0.000000
# 3 -0.008837 -0.000565 0.022413 0.000000 0.010727 0.000000
# 4 0.000000 0.000000 0.000000 0.050780 0.000000 0.006950
# 5 -0.000644 0.001526 0.010727 0.000000 0.039352 0.000000
# 6 0.000000 0.000000 0.000000 0.006950 0.000000 0.043763
#
#
# Mechanical properties :
#
#
# Convention : Reuss Voigt Hill
#
# Bulk Modulus (GPa) = 19.68553 42.90648 31.29601
# Shear Modulus (GPa) = 20.77334 26.85157 23.81246
#
# Velocity S-wave (km/s) = 3.42537 3.89438 3.66738
# Velocity P-wave (km/s) = 5.17329 6.66753 5.96736
#
# Compressibility (1/GPa) = 0.05079873
#
# Stress axis : x y z
#
# Youngs Moduli (GPa) = 91.50047 27.03447 44.61634
#
# Poissons Ratio (x) = 0.00985 0.39428
# Poissons Ratio (y) = 0.03335 0.02521
# Poissons Ratio (z) = 0.80860 0.01528
#
# Static dielectric constant tensor:
#      x y z
#    x 1.641470 0.000000 -0.031290 
#    y 0.000000 1.631620 0.000000 
#    z -0.031290 0.000000 1.616890 
# 
# From -- ./inp_files/54251.got.cif
#   From: 2010.05.17/outbox.cif.g08.bks.cpg/sg11_28_cif.got.tgz:54251.got - 2010.06.03 12:22:45.
