data_PCOD9156892
_publ_section_title
;
Structure prediction by ZEFSAII (Michael W. Deem and Ramdas Pophale) SiO2 
 PCOD9156892
Probable space group: P 21/M
;
_chemical_formula_sum "Si O2"
_cell_formula_units_Z 20
_cell_length_a 5.068714
_cell_length_b 19.088031
_cell_length_c 10.255686
_cell_angle_alpha 90.000000
_cell_angle_beta 75.914409
_cell_angle_gamma 90.000000
_cell_volume 962.421866
_symmetry_space_group_name_H-M "P 21/M"
_symmetry_group_IT_number 11
_symmetry_cell_setting 'monoclinic'
loop_
_space_group_symop_operation_xyz
x,y,z
-x,1/2+y,-z
-x,-y,-z
x,1/2-y,z
loop_
_atom_site_type_symbol
_atom_site_label
_atom_site_fract_x
_atom_site_fract_y
_atom_site_fract_z
Si Si1 0.859881 0.018358 0.721443
Si Si2 0.013089 0.418441 0.955734
Si Si3 0.430117 0.109737 0.110449
Si Si4 0.736201 0.413642 0.469603
Si Si5 0.263559 0.328891 0.395092
O O1 0.975911 0.076755 0.805439
O O2 0.716646 0.050618 0.612592
O O3 0.651125 0.967261 0.822662
O O4 0.108327 0.969280 0.642498
O O5 0.748804 0.383726 0.051578
O O6 0.000000 0.500000 0.000000
O O7 0.276651 0.385615 0.990772
O O8 0.323706 0.161729 0.233948
O O9 0.458578 0.384477 0.444198
O O10 0.953139 0.350744 0.454781
O O11 0.320261 0.250000 0.429750
#
# Coordination Sequence:
#
# PCOD9156892 Si02
#       5
#     4   4   4   4   4
#     4   9  19  34  54  83 115 131 165 220 270 324
#     4  10  18  30  51  78 107 133 159 200 260 319
#     4  10  20  32  52  80 104 136 171 209 266 309
#     4  10  22  34  55  82 105 140 173 213 272 310
#     4  11  22  38  55  73 102 141 186 221 248 306
#
# _framework density 20.780908
#
# number of rings (size 3 to 8) (size 9 to 14) (size 15 to 20)
#    0.000    2.000    0.000    6.600    0.000   13.600 
#    0.000    0.000    0.000    7.200    0.000    0.000 
#    0.000    0.000    0.000    0.000    0.000    0.000 
#
# Total GULP energy -111792.460972 kJ/mol
# GULP energy per Si atom -5589.623049 kJ/mol
# Density = 2.073361 g / cm^3
# Si number density = 20.780908 Si / 1000 Ang^3
#
#
#
# Elastic Constant Matrix: (Units=GPa)
#
#
# Indices 1 2 3 4 5 6 
#
# 1 65.6057 2.8941 -0.3012 0.0000 11.0859 0.0000
# 2 2.8941 46.8354 13.2340 0.0000 5.3521 0.0000
# 3 -0.3012 13.2340 73.1921 0.0000 14.8062 0.0000
# 4 0.0000 0.0000 0.0000 8.8125 0.0000 4.6826
# 5 11.0859 5.3521 14.8062 0.0000 25.1383 0.0000
# 6 0.0000 0.0000 0.0000 4.6826 0.0000 19.1132
#
#
#
# Elastic Compliance Matrix: (Units=1/GPa)
#
#
# Indices 1 2 3 4 5 6 
#
# 1 0.016685 -0.000606 0.001862 0.000000 -0.008326 0.000000
# 2 -0.000606 0.022688 -0.003612 0.000000 -0.002436 0.000000
# 3 0.001862 -0.003612 0.016273 0.000000 -0.009637 0.000000
# 4 0.000000 0.000000 0.000000 0.130458 0.000000 -0.031961
# 5 -0.008326 -0.002436 -0.009637 0.000000 0.049646 0.000000
# 6 0.000000 0.000000 0.000000 -0.031961 0.000000 0.060150
#
#
# Mechanical properties :
#
#
# Convention : Reuss Voigt Hill
#
# Bulk Modulus (GPa) = 19.63297 24.14302 21.88800
# Shear Modulus (GPa) = 15.74364 21.93321 18.83843
#
# Velocity S-wave (km/s) = 2.75544 3.25229 3.01412
# Velocity P-wave (km/s) = 4.42622 5.07408 4.76118
#
# Compressibility (1/GPa) = 0.05093472
#
# Stress axis : x y z
#
# Youngs Moduli (GPa) = 59.93500 44.07658 61.45194
#
# Poissons Ratio (x) = 0.02670 -0.11445
# Poissons Ratio (y) = 0.03631 0.22196
# Poissons Ratio (z) = -0.11163 0.15920
#
# Static dielectric constant tensor:
#      x y z
#    x 1.750800 0.000000 0.015090 
#    y 0.000000 1.750840 0.000000 
#    z 0.015090 0.000000 1.784920 
# 
# From -- ./inp_files/10259.got.cif
#   From: 2010.05.17/outbox.cif.g08.bks.cpg/sg11_6_cif.got.tgz:10259.got - 2010.06.03 12:22:45.
