data_PCOD9156373
_publ_section_title
;
Structure prediction by ZEFSAII (Michael W. Deem and Ramdas Pophale) SiO2 
 PCOD9156373
Probable space group: P 21/M
;
_chemical_formula_sum "Si O2"
_cell_formula_units_Z 32
_cell_length_a 11.985141
_cell_length_b 22.542483
_cell_length_c 12.689835
_cell_angle_alpha 90.000000
_cell_angle_beta 146.778681
_cell_angle_gamma 90.000000
_cell_volume 1878.373655
_symmetry_space_group_name_H-M "P 21/M"
_symmetry_group_IT_number 11
_symmetry_cell_setting 'monoclinic'
loop_
_space_group_symop_operation_xyz
x,y,z
-x,1/2+y,-z
-x,-y,-z
x,1/2-y,z
loop_
_atom_site_type_symbol
_atom_site_label
_atom_site_fract_x
_atom_site_fract_y
_atom_site_fract_z
Si Si1 0.430059 0.011074 0.174205
Si Si2 0.747060 0.181350 0.495438
Si Si3 0.742701 0.065336 0.796391
Si Si4 0.154838 0.927003 0.567924
Si Si5 0.901230 0.022674 0.256517
Si Si6 0.672432 0.622060 0.766012
Si Si7 0.091181 0.817780 0.150459
Si Si8 0.842818 0.541519 0.740160
O O1 0.646245 0.034781 0.307344
O O2 0.320126 0.066615 0.146153
O O3 0.431217 0.959947 0.264409
O O4 0.296848 0.988857 0.970995
O O5 0.730581 0.250000 0.451225
O O6 0.816182 0.137826 0.457415
O O7 0.531861 0.157383 0.370153
O O8 0.897254 0.176710 0.713999
O O9 0.755234 0.133809 0.776629
O O10 0.759523 0.023393 0.706795
O O11 0.951286 0.052547 0.027673
O O12 0.131330 0.931399 0.674613
O O13 0.968681 0.961373 0.365438
O O14 0.078563 0.042381 0.316179
O O15 0.689040 0.590629 0.664769
O O16 0.866918 0.663630 0.935961
O O17 0.139655 0.750000 0.161118
#
# Coordination Sequence:
#
# PCOD9156373 Si02
#       8
#     4   4   4   4   4   4   4   4
#     4   9  17  30  48  68  91 117 143 186 235 265
#     4  10  20  32  46  66  92 119 150 186 218 258
#     4   8  14  26  44  67  91 113 141 177 223 273
#     4  10  20  30  46  69  89 120 157 184 220 262
#     4  10  18  30  46  68  95 116 147 190 222 264
#     4   9  17  30  48  70  92 114 145 182 227 277
#     4  10  18  28  44  65  91 121 147 178 222 268
#     4   8  14  26  46  67  91 116 136 177 230 266
#
# _framework density 17.036014000000002
#
# number of rings (size 3 to 8) (size 9 to 14) (size 15 to 20)
#    0.000    2.750    0.000    4.500    0.000    1.000 
#    0.000    3.750    0.000    7.500    0.000    3.500 
#    0.000    4.000    0.000    0.000    0.000    0.000 
#
# Total GULP energy -178478.678079 kJ/mol
# GULP energy per Si atom -5577.458690 kJ/mol
# Density = 1.699724 g / cm^3
# Si number density = 17.036014 Si / 1000 Ang^3
#
#
#
# Elastic Constant Matrix: (Units=GPa)
#
#
# Indices 1 2 3 4 5 6 
#
# 1 89.6326 50.8120 18.8032 0.0000 -23.9220 0.0000
# 2 50.8120 132.9735 32.2848 0.0000 -16.5202 0.0000
# 3 18.8032 32.2848 42.7693 0.0000 -9.9837 0.0000
# 4 0.0000 0.0000 0.0000 17.5156 0.0000 -1.1040
# 5 -23.9220 -16.5202 -9.9837 0.0000 25.0844 0.0000
# 6 0.0000 0.0000 0.0000 -1.1040 0.0000 22.0097
#
#
#
# Elastic Compliance Matrix: (Units=1/GPa)
#
#
# Indices 1 2 3 4 5 6 
#
# 1 0.017654 -0.004857 -0.001005 0.000000 0.013237 0.000000
# 2 -0.004857 0.010855 -0.006032 0.000000 0.000116 0.000000
# 3 -0.001005 -0.006032 0.030014 0.000000 0.007015 0.000000
# 4 0.000000 0.000000 0.000000 0.057273 0.000000 0.002873
# 5 0.013237 0.000116 0.007015 0.000000 0.055357 0.000000
# 6 0.000000 0.000000 0.000000 0.002873 0.000000 0.045579
#
#
# Mechanical properties :
#
#
# Convention : Reuss Voigt Hill
#
# Bulk Modulus (GPa) = 28.78942 52.13061 40.46002
# Shear Modulus (GPa) = 19.83362 23.82032 21.82697
#
# Velocity S-wave (km/s) = 3.41576 3.74335 3.58330
# Velocity P-wave (km/s) = 5.70021 7.02497 6.39698
#
# Compressibility (1/GPa) = 0.03473498
#
# Stress axis : x y z
#
# Youngs Moduli (GPa) = 56.64490 92.12120 33.31834
#
# Poissons Ratio (x) = 0.44747 0.03348
# Poissons Ratio (y) = 0.27515 0.20096
# Poissons Ratio (z) = 0.05692 0.55563
#
# Static dielectric constant tensor:
#      x y z
#    x 1.583540 0.000000 0.016780 
#    y 0.000000 1.561240 0.000000 
#    z 0.016780 0.000000 1.628250 
# 
# From -- ./inp_files/36365.got.cif
#   From: 2010.05.17/outbox.cif.g08.bks.cpg/sg11_19_cif.got.tgz:36365.got - 2010.06.03 12:22:45.
