data_PCOD9156536
_publ_section_title
;
Structure prediction by ZEFSAII (Michael W. Deem and Ramdas Pophale) SiO2 
 PCOD9156536
Probable space group: P 21/M
;
_chemical_formula_sum "Si O2"
_cell_formula_units_Z 32
_cell_length_a 15.257209
_cell_length_b 7.809483
_cell_length_c 31.456255
_cell_angle_alpha 90.000000
_cell_angle_beta 150.384902
_cell_angle_gamma 90.000000
_cell_volume 1852.173325
_symmetry_space_group_name_H-M "P 21/M"
_symmetry_group_IT_number 11
_symmetry_cell_setting 'monoclinic'
loop_
_space_group_symop_operation_xyz
x,y,z
-x,1/2+y,-z
-x,-y,-z
x,1/2-y,z
loop_
_atom_site_type_symbol
_atom_site_label
_atom_site_fract_x
_atom_site_fract_y
_atom_site_fract_z
Si Si1 0.364645 0.542057 0.623462
Si Si2 0.327442 0.952759 0.378173
Si Si3 0.280381 0.957003 0.105602
Si Si4 0.257827 0.456938 0.255664
Si Si5 0.661634 0.545638 0.288694
Si Si6 0.047205 0.549028 0.430289
Si Si7 0.269538 0.050159 0.446154
Si Si8 0.039699 0.043969 0.084671
O O1 0.365545 0.750000 0.623233
O O2 0.548529 0.484857 0.679340
O O3 0.353714 0.484330 0.667377
O O4 0.195753 0.478545 0.525281
O O5 0.338824 0.750000 0.389912
O O6 0.531082 0.020387 0.461452
O O7 0.235072 0.988093 0.294576
O O8 0.239437 0.028735 0.383244
O O9 0.284658 0.750000 0.105007
O O10 0.481456 0.022694 0.191242
O O11 0.185391 0.002524 0.110045
O O12 0.148111 0.020157 0.012819
O O13 0.258465 0.250000 0.255103
O O14 0.111490 0.518688 0.160188
O O15 0.661446 0.750000 0.280897
O O16 0.850582 0.474754 0.352749
O O17 0.032975 0.750000 0.434863
O O18 0.127242 0.533468 0.417019
O O19 0.270709 0.250000 0.457465
O O20 0.028061 0.250000 0.082313
#
# Coordination Sequence:
#
# PCOD9156536 Si02
#       8
#     4   4   4   4   4   4   4   4
#     4  10  19  30  44  63  92 127 159 189 220 263
#     4  10  20  32  49  70  93 119 148 186 230 273
#     4   9  17  29  44  64  89 118 154 193 228 266
#     4  10  18  29  46  68  93 123 153 184 226 274
#     4  10  20  31  45  65  91 124 160 195 227 262
#     4  10  20  33  46  63  91 126 159 190 226 265
#     4  10  20  33  49  69  91 119 153 188 225 269
#     4   9  17  29  45  64  89 120 152 187 230 272
#
# _framework density 17.276999
#
# number of rings (size 3 to 8) (size 9 to 14) (size 15 to 20)
#    0.000    2.250    2.500    1.125    0.000    3.000 
#    0.000    0.000    0.000    0.000    0.000    0.875 
#    0.000    0.000    0.000    0.000    0.000    0.000 
#
# Total GULP energy -178485.244320 kJ/mol
# GULP energy per Si atom -5577.663885 kJ/mol
# Density = 1.723768 g / cm^3
# Si number density = 17.276999 Si / 1000 Ang^3
#
#
#
# Elastic Constant Matrix: (Units=GPa)
#
#
# Indices 1 2 3 4 5 6 
#
# 1 53.8345 -9.8027 55.8848 0.0000 -1.8109 0.0000
# 2 -9.8027 18.7031 4.9689 0.0000 3.0213 0.0000
# 3 55.8848 4.9689 147.0469 0.0000 -5.0079 0.0000
# 4 0.0000 0.0000 0.0000 7.0902 0.0000 -7.7618
# 5 -1.8109 3.0213 -5.0079 0.0000 25.2535 0.0000
# 6 0.0000 0.0000 0.0000 -7.7618 0.0000 19.2539
#
#
#
# Elastic Compliance Matrix: (Units=1/GPa)
#
#
# Indices 1 2 3 4 5 6 
#
# 1 0.039935 0.025779 -0.016165 0.000000 -0.003426 0.000000
# 2 0.025779 0.071800 -0.012538 0.000000 -0.009228 0.000000
# 3 -0.016165 -0.012538 0.013470 0.000000 0.003012 0.000000
# 4 0.000000 0.000000 0.000000 0.252450 0.000000 0.101770
# 5 -0.003426 -0.009228 0.003012 0.000000 0.041054 0.000000
# 6 0.000000 0.000000 0.000000 0.101770 0.000000 0.092964
#
#
# Mechanical properties :
#
#
# Convention : Reuss Voigt Hill
#
# Bulk Modulus (GPa) = 8.37821 35.74296 22.06059
# Shear Modulus (GPa) = 8.97172 21.55510 15.26341
#
# Velocity S-wave (km/s) = 2.28126 3.53600 2.97552
# Velocity P-wave (km/s) = 3.43493 6.11589 4.95998
#
# Compressibility (1/GPa) = 0.11935728
#
# Stress axis : x y z
#
# Youngs Moduli (GPa) = 25.04080 13.92761 74.23776
#
# Poissons Ratio (x) = -0.35904 1.20005
# Poissons Ratio (y) = -0.64552 0.93077
# Poissons Ratio (z) = 0.40478 0.17462
#
# Static dielectric constant tensor:
#      x y z
#    x 1.555870 0.000000 0.004960 
#    y 0.000000 1.619780 0.000000 
#    z 0.004960 0.000000 1.625890 
# 
# From -- ./inp_files/51226.got.cif
#   From: 2010.05.17/outbox.cif.g08.bks.cpg/sg11_26_cif.got.tgz:51226.got - 2010.06.03 12:22:45.
