data_PCOD9156960
_publ_section_title
;
Structure prediction by ZEFSAII (Michael W. Deem and Ramdas Pophale) SiO2 
 PCOD9156960
Probable space group: P 21/M
;
_chemical_formula_sum "Si O2"
_cell_formula_units_Z 32
_cell_length_a 18.193890
_cell_length_b 8.374397
_cell_length_c 24.396212
_cell_angle_alpha 90.000000
_cell_angle_beta 30.897593
_cell_angle_gamma 90.000000
_cell_volume 1908.738169
_symmetry_space_group_name_H-M "P 21/M"
_symmetry_group_IT_number 11
_symmetry_cell_setting 'monoclinic'
loop_
_space_group_symop_operation_xyz
x,y,z
-x,1/2+y,-z
-x,-y,-z
x,1/2-y,z
loop_
_atom_site_type_symbol
_atom_site_label
_atom_site_fract_x
_atom_site_fract_y
_atom_site_fract_z
Si Si1 0.552665 0.943091 0.025602
Si Si2 0.600730 0.440577 0.565527
Si Si3 0.699279 0.438689 0.733000
Si Si4 0.611757 0.058320 0.382255
Si Si5 0.036422 0.439355 0.369058
Si Si6 0.126201 0.055338 0.188540
Si Si7 0.275947 0.063766 0.401921
Si Si8 0.165741 0.944438 0.675846
O O1 0.554651 0.750000 0.024323
O O2 0.438682 0.994899 0.144223
O O3 0.715874 0.999159 0.929424
O O4 0.500000 0.000000 0.000000
O O5 0.609840 0.250000 0.563885
O O6 0.450324 0.487955 0.634020
O O7 0.631492 0.515061 0.604584
O O8 0.726733 0.493049 0.442357
O O9 0.717701 0.250000 0.730913
O O10 0.840263 0.524466 0.666094
O O11 0.683337 0.470166 0.679021
O O12 0.607909 0.250000 0.381455
O O13 0.763653 0.008085 0.311377
O O14 0.500000 0.000000 0.500000
O O15 0.007581 0.250000 0.385503
O O16 0.092833 0.489639 0.272876
O O17 0.888920 0.524552 0.478201
O O18 0.126685 0.250000 0.186914
O O19 0.993734 0.000531 0.235985
O O20 0.291267 0.250000 0.381033
O O21 0.165440 0.750000 0.675363
#
# Coordination Sequence:
#
# PCOD9156960 Si02
#       8
#     4   4   4   4   4   4   4   4
#     4  10  20  34  54  75  97 128 170 214 255 299
#     4  10  18  31  49  71 100 135 166 200 250 304
#     4  11  23  37  51  72 101 133 173 214 253 299
#     4   9  16  26  43  69 100 135 168 202 243 297
#     4  11  20  34  55  74 100 134 169 208 253 302
#     4   9  16  29  51  76  99 130 165 203 251 298
#     4  12  24  36  51  73 101 133 172 211 252 304
#     4   8  14  26  46  71  99 129 162 196 241 298
#
# _framework density 16.765001999999999
#
# number of rings (size 3 to 8) (size 9 to 14) (size 15 to 20)
#    0.000    2.000    2.500    3.750    0.000    0.500 
#    0.000    0.000    0.000    0.000    0.000    0.875 
#    0.000    0.000    0.000    0.000    0.000    0.000 
#
# Total GULP energy -178496.643678 kJ/mol
# GULP energy per Si atom -5578.020115 kJ/mol
# Density = 1.672684 g / cm^3
# Si number density = 16.765002 Si / 1000 Ang^3
#
#
#
# Elastic Constant Matrix: (Units=GPa)
#
#
# Indices 1 2 3 4 5 6 
#
# 1 114.1510 -13.4298 40.0685 0.0000 -17.5455 0.0000
# 2 -13.4298 12.7348 -4.0531 0.0000 -1.5873 0.0000
# 3 40.0685 -4.0531 48.9983 0.0000 0.9000 0.0000
# 4 0.0000 0.0000 0.0000 9.1004 0.0000 0.6927
# 5 -17.5455 -1.5873 0.9000 0.0000 22.5083 0.0000
# 6 0.0000 0.0000 0.0000 0.6927 0.0000 25.5944
#
#
#
# Elastic Compliance Matrix: (Units=1/GPa)
#
#
# Indices 1 2 3 4 5 6 
#
# 1 0.017838 0.016456 -0.013513 0.000000 0.015606 0.000000
# 2 0.016456 0.096497 -0.005840 0.000000 0.019866 0.000000
# 3 -0.013513 -0.005840 0.031200 0.000000 -0.012193 0.000000
# 4 0.000000 0.000000 0.000000 0.110113 0.000000 -0.002980
# 5 0.015606 0.019866 -0.012193 0.000000 0.058482 0.000000
# 6 0.000000 0.000000 0.000000 -0.002980 0.000000 0.039152
#
#
# Mechanical properties :
#
#
# Convention : Reuss Voigt Hill
#
# Bulk Modulus (GPa) = 7.15603 24.56170 15.85887
# Shear Modulus (GPa) = 12.32576 21.66051 16.99314
#
# Velocity S-wave (km/s) = 2.71441 3.59835 3.18717
# Velocity P-wave (km/s) = 3.75523 5.65213 4.79835
#
# Compressibility (1/GPa) = 0.13974228
#
# Stress axis : x y z
#
# Youngs Moduli (GPa) = 56.05939 10.36301 32.05149
#
# Poissons Ratio (x) = -0.17054 0.43310
# Poissons Ratio (y) = -0.92253 0.18718
# Poissons Ratio (z) = 0.75751 0.06052
#
# Static dielectric constant tensor:
#      x y z
#    x 1.578970 0.000000 -0.019330 
#    y 0.000000 1.570580 0.000000 
#    z -0.019330 0.000000 1.549040 
# 
# From -- ./inp_files/42527.got.cif
#   From: 2010.05.17/outbox.cif.g08.bks.cpg/sg11_22_cif.got.tgz:42527.got - 2010.06.03 12:22:45.
