data_PCOD9156514
_publ_section_title
;
Structure prediction by ZEFSAII (Michael W. Deem and Ramdas Pophale) SiO2 
 PCOD9156514
Probable space group: P 21/M
;
_chemical_formula_sum "Si O2"
_cell_formula_units_Z 32
_cell_length_a 17.492524
_cell_length_b 7.566281
_cell_length_c 24.236229
_cell_angle_alpha 90.000000
_cell_angle_beta 28.997824
_cell_angle_gamma 90.000000
_cell_volume 1555.039640
_symmetry_space_group_name_H-M "P 21/M"
_symmetry_group_IT_number 11
_symmetry_cell_setting 'monoclinic'
loop_
_space_group_symop_operation_xyz
x,y,z
-x,1/2+y,-z
-x,-y,-z
x,1/2-y,z
loop_
_atom_site_type_symbol
_atom_site_label
_atom_site_fract_x
_atom_site_fract_y
_atom_site_fract_z
Si Si1 0.258808 0.041502 0.835241
Si Si2 0.011977 0.034608 0.904554
Si Si3 0.020936 0.967931 0.319223
Si Si4 0.886178 0.956115 0.519722
Si Si5 0.631097 0.039810 0.872204
Si Si6 0.479570 0.536764 0.255712
Si Si7 0.612425 0.964467 0.058868
Si Si8 0.038511 0.545324 0.187318
O O1 0.279323 0.250000 0.812660
O O2 0.167983 0.971966 0.838815
O O3 0.429025 0.971219 0.747424
O O4 0.134373 0.021431 0.964361
O O5 0.008861 0.250000 0.905726
O O6 0.002537 0.969688 0.847286
O O7 0.016815 0.750000 0.319566
O O8 0.199763 0.028748 0.218015
O O9 0.977419 0.027929 0.284547
O O10 0.929792 0.031041 0.431441
O O11 0.911362 0.750000 0.497678
O O12 0.700040 0.988407 0.643870
O O13 0.000000 0.000000 0.500000
O O14 0.650089 0.250000 0.854836
O O15 0.548267 0.975882 0.869074
O O16 0.500000 0.000000 0.000000
O O17 0.481961 0.750000 0.255179
O O18 0.591227 0.479670 0.134887
O O19 0.622303 0.750000 0.049447
O O20 0.770347 0.036875 0.931755
O O21 0.989677 0.750000 0.216348
#
# Coordination Sequence:
#
# PCOD9156514 Si02
#       8
#     4   4   4   4   4   4   4   4
#     4   9  17  30  49  74 107 143 169 202 256 308
#     4   9  17  28  47  78 109 135 169 208 250 306
#     4   9  19  35  52  70  98 135 168 208 261 308
#     4  11  23  40  59  76  99 134 178 221 262 303
#     4  10  18  29  45  66  94 124 157 196 243 298
#     4  10  20  35  54  74 103 140 176 212 256 304
#     4  10  19  30  46  71 102 134 164 203 255 305
#     4  10  18  30  50  74 103 133 165 206 250 305
#
# _framework density 20.578254000000001
#
# number of rings (size 3 to 8) (size 9 to 14) (size 15 to 20)
#    0.000    2.250    2.500    1.125    0.000    3.000 
#    0.000    3.750    0.000    0.750    0.000    0.000 
#    0.000    0.000    0.000    0.000    0.000    0.125 
#
# Total GULP energy -178289.940488 kJ/mol
# GULP energy per Si atom -5571.560640 kJ/mol
# Density = 2.053142 g / cm^3
# Si number density = 20.578254 Si / 1000 Ang^3
#
#
#
# Elastic Constant Matrix: (Units=GPa)
#
#
# Indices 1 2 3 4 5 6 
#
# 1 162.0906 -2.1365 28.9883 0.0000 3.7403 0.0000
# 2 -2.1365 41.5351 -10.4199 0.0000 0.9997 0.0000
# 3 28.9883 -10.4199 61.9689 0.0000 10.3780 0.0000
# 4 0.0000 0.0000 0.0000 12.9435 0.0000 -0.9851
# 5 3.7403 0.9997 10.3780 0.0000 31.9299 0.0000
# 6 0.0000 0.0000 0.0000 -0.9851 0.0000 10.8658
#
#
#
# Elastic Compliance Matrix: (Units=1/GPa)
#
#
# Indices 1 2 3 4 5 6 
#
# 1 0.006744 -0.000484 -0.003285 0.000000 0.000293 0.000000
# 2 -0.000484 0.025330 0.004874 0.000000 -0.002321 0.000000
# 3 -0.003285 0.004874 0.019517 0.000000 -0.006111 0.000000
# 4 0.000000 0.000000 0.000000 0.077796 0.000000 0.007053
# 5 0.000293 -0.002321 -0.006111 0.000000 0.033343 0.000000
# 6 0.000000 0.000000 0.000000 0.007053 0.000000 0.092671
#
#
# Mechanical properties :
#
#
# Convention : Reuss Voigt Hill
#
# Bulk Modulus (GPa) = 18.58727 33.16205 25.87466
# Shear Modulus (GPa) = 18.44169 27.75866 23.10018
#
# Velocity S-wave (km/s) = 2.99686 3.67677 3.35409
# Velocity P-wave (km/s) = 4.58552 5.84593 5.25366
#
# Compressibility (1/GPa) = 0.05380025
#
# Stress axis : x y z
#
# Youngs Moduli (GPa) = 148.28518 39.47919 51.23748
#
# Poissons Ratio (x) = 0.01912 0.16832
# Poissons Ratio (y) = 0.07182 -0.24975
# Poissons Ratio (z) = 0.48714 -0.19243
#
# Static dielectric constant tensor:
#      x y z
#    x 1.845300 0.000000 0.004680 
#    y 0.000000 1.762280 0.000000 
#    z 0.004680 0.000000 1.738580 
# 
# From -- ./inp_files/69442.got.cif
#   From: 2010.05.17/outbox.cif.g08.bks.cpg/sg11_35_cif.got.tgz:69442.got - 2010.06.03 12:22:45.
