data_PCOD9156327
_publ_section_title
;
Structure prediction by ZEFSAII (Michael W. Deem and Ramdas Pophale) SiO2 
 PCOD9156327
Probable space group: P 21/M
;
_chemical_formula_sum "Si O2"
_cell_formula_units_Z 32
_cell_length_a 27.541776
_cell_length_b 8.714600
_cell_length_c 19.216303
_cell_angle_alpha 90.000000
_cell_angle_beta 28.431375
_cell_angle_gamma 90.000000
_cell_volume 2195.900905
_symmetry_space_group_name_H-M "P 21/M"
_symmetry_group_IT_number 11
_symmetry_cell_setting 'monoclinic'
loop_
_space_group_symop_operation_xyz
x,y,z
-x,1/2+y,-z
-x,-y,-z
x,1/2-y,z
loop_
_atom_site_type_symbol
_atom_site_label
_atom_site_fract_x
_atom_site_fract_y
_atom_site_fract_z
Si Si1 0.930162 0.932046 0.985255
Si Si2 0.838555 0.066365 0.696258
Si Si3 0.589611 0.935378 0.796095
Si Si4 0.992627 0.933456 0.247514
Si Si5 0.139291 0.064506 0.783953
Si Si6 0.770491 0.935806 0.469452
Si Si7 0.978394 0.933635 0.636968
Si Si8 0.628620 0.566650 0.907346
O O1 0.926656 0.750000 0.978662
O O2 0.850238 0.973106 0.147566
O O3 0.930842 0.014627 0.910241
O O4 0.038476 0.980372 0.882631
O O5 0.837060 0.250000 0.702164
O O6 0.917608 0.021253 0.534971
O O7 0.886593 0.999285 0.706196
O O8 0.727282 0.004063 0.819073
O O9 0.581971 0.750000 0.802262
O O10 0.673050 0.990428 0.635215
O O11 0.626739 0.975093 0.827452
O O12 0.477777 0.005508 0.927929
O O13 0.991920 0.750000 0.252226
O O14 0.877901 0.984333 0.369144
O O15 0.019482 0.002575 0.288035
O O16 0.122163 0.250000 0.801641
O O17 0.224234 0.025514 0.619288
O O18 0.769229 0.750000 0.475330
O O19 0.972884 0.750000 0.644940
O O20 0.632280 0.750000 0.907656
#
# Coordination Sequence:
#
# PCOD9156327 Si02
#       8
#     4   4   4   4   4   4   4   4
#     4   9  15  23  36  55  80 109 141 174 208 248
#     4  10  20  33  48  64  84 111 140 171 210 253
#     4   9  17  29  44  61  82 110 144 178 212 250
#     4  10  18  28  42  60  85 115 145 175 209 249
#     4   8  14  24  37  54  78 109 142 174 210 251
#     4   8  14  25  41  59  80 110 145 177 209 247
#     4  10  20  32  46  65  86 108 139 176 210 246
#     4  10  19  30  44  62  85 112 142 176 212 248
#
# _framework density 14.572606
#
# number of rings (size 3 to 8) (size 9 to 14) (size 15 to 20)
#    0.000    2.750    0.000    3.375    0.000    3.500 
#    0.000    3.125    0.000    0.000    0.000    0.000 
#    0.000    1.000    0.000    2.750    0.000    4.250 
#
# Total GULP energy -178186.805327 kJ/mol
# GULP energy per Si atom -5568.337666 kJ/mol
# Density = 1.453944 g / cm^3
# Si number density = 14.572606 Si / 1000 Ang^3
#
#
#
# Elastic Constant Matrix: (Units=GPa)
#
#
# Indices 1 2 3 4 5 6 
#
# 1 108.0433 33.2685 70.2281 0.0000 13.7066 0.0000
# 2 33.2685 29.7275 27.9669 0.0000 2.9237 0.0000
# 3 70.2281 27.9669 110.0011 0.0000 15.4890 0.0000
# 4 0.0000 0.0000 0.0000 17.4046 0.0000 1.4020
# 5 13.7066 2.9237 15.4890 0.0000 26.3917 0.0000
# 6 0.0000 0.0000 0.0000 1.4020 0.0000 20.9793
#
#
#
# Elastic Compliance Matrix: (Units=1/GPa)
#
#
# Indices 1 2 3 4 5 6 
#
# 1 0.019282 -0.013302 -0.008422 0.000000 -0.003598 0.000000
# 2 -0.013302 0.053474 -0.005714 0.000000 0.004338 0.000000
# 3 -0.008422 -0.005714 0.016586 0.000000 -0.004727 0.000000
# 4 0.000000 0.000000 0.000000 0.057767 0.000000 -0.003860
# 5 -0.003598 0.004338 -0.004727 0.000000 0.042053 0.000000
# 6 0.000000 0.000000 0.000000 -0.003860 0.000000 0.047924
#
#
# Mechanical properties :
#
#
# Convention : Reuss Voigt Hill
#
# Bulk Modulus (GPa) = 29.01327 56.74434 42.87880
# Shear Modulus (GPa) = 16.47716 20.70899 18.59308
#
# Velocity S-wave (km/s) = 3.36623 3.77383 3.57584
# Velocity P-wave (km/s) = 5.92126 7.61660 6.82180
#
# Compressibility (1/GPa) = 0.03446699
#
# Stress axis : x y z
#
# Youngs Moduli (GPa) = 51.86182 18.70063 60.29253
#
# Poissons Ratio (x) = 0.24876 0.50776
# Poissons Ratio (y) = 0.68987 0.34450
# Poissons Ratio (z) = 0.43676 0.10685
#
# Static dielectric constant tensor:
#      x y z
#    x 1.470720 0.000000 0.036630 
#    y 0.000000 1.485020 0.000000 
#    z 0.036630 0.000000 1.492680 
# 
# From -- ./inp_files/61752.got.cif
#   From: 2010.05.17/outbox.cif.g08.bks.cpg/sg11_31_cif.got.tgz:61752.got - 2010.06.03 12:22:45.
