data_PCOD9156016
_publ_section_title
;
Structure prediction by ZEFSAII (Michael W. Deem and Ramdas Pophale) SiO2 
 PCOD9156016
Probable space group: P 21/M
;
_chemical_formula_sum "Si O2"
_cell_formula_units_Z 32
_cell_length_a 19.589973
_cell_length_b 9.451655
_cell_length_c 12.835004
_cell_angle_alpha 90.000000
_cell_angle_beta 41.147672
_cell_angle_gamma 90.000000
_cell_volume 1563.741369
_symmetry_space_group_name_H-M "P 21/M"
_symmetry_group_IT_number 11
_symmetry_cell_setting 'monoclinic'
loop_
_space_group_symop_operation_xyz
x,y,z
-x,1/2+y,-z
-x,-y,-z
x,1/2-y,z
loop_
_atom_site_type_symbol
_atom_site_label
_atom_site_fract_x
_atom_site_fract_y
_atom_site_fract_z
Si Si1 0.649688 0.913025 0.781545
Si Si2 0.097038 0.578843 0.188526
Si Si3 0.920918 0.092519 0.029342
Si Si4 0.484684 0.414332 0.853095
Si Si5 0.755843 0.411385 0.400057
Si Si6 0.323348 0.919126 0.905654
Si Si7 0.865884 0.580599 0.459264
Si Si8 0.395291 0.580716 0.593676
O O1 0.639302 0.750000 0.757151
O O2 0.772139 0.944438 0.648187
O O3 0.592577 0.015554 0.765515
O O4 0.589118 0.923534 0.959414
O O5 0.099893 0.750000 0.196374
O O6 0.982055 0.532448 0.358801
O O7 0.094315 0.540281 0.069442
O O8 0.213893 0.532043 0.083772
O O9 0.963843 0.250000 0.967784
O O10 0.823221 0.099741 0.216890
O O11 0.000000 0.000000 0.000000
O O12 0.497616 0.250000 0.810779
O O13 0.420829 0.499897 0.841067
O O14 0.743686 0.250000 0.454392
O O15 0.819970 0.504615 0.408624
O O16 0.650790 0.466521 0.465637
O O17 0.333560 0.750000 0.911246
O O18 0.325386 0.940756 0.778291
O O19 0.872546 0.750000 0.433515
O O20 0.500000 0.500000 0.500000
O O21 0.410819 0.750000 0.567268
#
# Coordination Sequence:
#
# PCOD9156016 Si02
#       8
#     4   4   4   4   4   4   4   4
#     4   9  20  39  60  83 109 135 171 222 276 327
#     4   9  17  32  53  76 104 142 182 215 254 313
#     4  10  17  29  48  70  99 136 177 214 249 298
#     4  10  21  38  60  83 107 137 175 223 274 323
#     4  10  20  33  49  74 108 142 175 219 269 308
#     4  10  20  37  58  78 107 147 185 218 261 322
#     4  10  20  34  56  82 107 139 181 222 264 322
#     4  10  22  37  51  72 107 146 182 221 264 313
#
# _framework density 20.463740000000001
#
# number of rings (size 3 to 8) (size 9 to 14) (size 15 to 20)
#    0.000    2.250    2.500    0.375    1.750    2.000 
#    0.000    1.875    0.000    0.000    0.000    0.000 
#    0.000    0.000    0.000    0.000    0.000    0.000 
#
# Total GULP energy -178255.625861 kJ/mol
# GULP energy per Si atom -5570.488308 kJ/mol
# Density = 2.041716 g / cm^3
# Si number density = 20.463740 Si / 1000 Ang^3
#
#
#
# Elastic Constant Matrix: (Units=GPa)
#
#
# Indices 1 2 3 4 5 6 
#
# 1 50.4598 22.9256 5.7852 0.0000 -17.2862 0.0000
# 2 22.9256 31.1168 12.0372 0.0000 -5.6947 0.0000
# 3 5.7852 12.0372 95.7149 0.0000 -28.4235 0.0000
# 4 0.0000 0.0000 0.0000 21.2879 0.0000 -0.2435
# 5 -17.2862 -5.6947 -28.4235 0.0000 34.5579 0.0000
# 6 0.0000 0.0000 0.0000 -0.2435 0.0000 20.7041
#
#
#
# Elastic Compliance Matrix: (Units=1/GPa)
#
#
# Indices 1 2 3 4 5 6 
#
# 1 0.038551 -0.027422 0.007282 0.000000 0.020754 0.000000
# 2 -0.027422 0.053483 -0.008633 0.000000 -0.012004 0.000000
# 3 0.007282 -0.008633 0.015551 0.000000 0.015010 0.000000
# 4 0.000000 0.000000 0.000000 0.046981 0.000000 0.000552
# 5 0.020754 -0.012004 0.015010 0.000000 0.049686 0.000000
# 6 0.000000 0.000000 0.000000 0.000552 0.000000 0.048306
#
#
# Mechanical properties :
#
#
# Convention : Reuss Voigt Hill
#
# Bulk Modulus (GPa) = 19.98478 28.75416 24.36947
# Shear Modulus (GPa) = 15.30057 24.41288 19.85672
#
# Velocity S-wave (km/s) = 2.73736 3.45770 3.11840
# Velocity P-wave (km/s) = 4.44725 5.47930 4.99003
#
# Compressibility (1/GPa) = 0.05003808
#
# Stress axis : x y z
#
# Youngs Moduli (GPa) = 25.93936 18.69746 64.30579
#
# Poissons Ratio (x) = 0.51272 -0.46825
# Poissons Ratio (y) = 0.71130 0.55518
# Poissons Ratio (z) = -0.18888 0.16142
#
# Static dielectric constant tensor:
#      x y z
#    x 1.717700 0.000000 -0.029130 
#    y 0.000000 1.687260 0.000000 
#    z -0.029130 0.000000 1.858390 
# 
# From -- ./inp_files/54270.got.cif
#   From: 2010.05.17/outbox.cif.g08.bks.cpg/sg11_28_cif.got.tgz:54270.got - 2010.06.03 12:22:45.
