data_PCOD9156460
_publ_section_title
;
Structure prediction by ZEFSAII (Michael W. Deem and Ramdas Pophale) SiO2 
 PCOD9156460
Probable space group: P 21/M
;
_chemical_formula_sum "Si O2"
_cell_formula_units_Z 32
_cell_length_a 17.741368
_cell_length_b 13.458026
_cell_length_c 5.740282
_cell_angle_alpha 90.000000
_cell_angle_beta 79.037930
_cell_angle_gamma 90.000000
_cell_volume 1345.563068
_symmetry_space_group_name_H-M "P 21/M"
_symmetry_group_IT_number 11
_symmetry_cell_setting 'monoclinic'
loop_
_space_group_symop_operation_xyz
x,y,z
-x,1/2+y,-z
-x,-y,-z
x,1/2-y,z
loop_
_atom_site_type_symbol
_atom_site_label
_atom_site_fract_x
_atom_site_fract_y
_atom_site_fract_z
Si Si1 0.031313 0.860591 0.473828
Si Si2 0.661058 0.056496 0.655999
Si Si3 0.465058 0.093780 0.271997
Si Si4 0.763898 0.860904 0.611175
Si Si5 0.904778 0.966891 0.298429
Si Si6 0.648049 0.422165 0.164169
Si Si7 0.607638 0.856857 0.186071
Si Si8 0.112475 0.142512 0.086364
O O1 0.058572 0.750000 0.407166
O O2 0.986331 0.912592 0.290049
O O3 0.959861 0.855452 0.697018
O O4 0.092875 0.933264 0.555796
O O5 0.572249 0.017521 0.705896
O O6 0.704400 0.950097 0.633080
O O7 0.678061 0.110279 0.400836
O O8 0.677316 0.110256 0.891996
O O9 0.437388 0.138447 0.537949
O O10 0.556629 0.096094 0.217817
O O11 0.437196 0.137188 0.037683
O O12 0.734967 0.750000 0.573197
O O13 0.835235 0.895201 0.411528
O O14 0.806653 0.856233 0.832441
O O15 0.893239 0.964143 0.032643
O O16 0.656706 0.542413 0.160613
O O17 0.647773 0.750000 0.155759
O O18 0.105775 0.250000 0.962723
#
# Coordination Sequence:
#
# PCOD9156460 Si02
#       8
#     4   4   4   4   4   4   4   4
#     4   9  18  31  51  83 107 135 187 238 273 317
#     4  10  20  32  51  76 102 142 189 221 270 333
#     4  10  19  35  52  72 105 140 176 225 279 327
#     4  10  22  34  47  75 114 150 183 219 270 342
#     4  10  18  32  53  74 111 151 180 218 279 337
#     4  10  20  35  54  74 104 141 180 226 277 327
#     4  10  18  28  47  75 102 127 161 212 273 325
#     4   9  17  31  50  72 108 149 180 220 275 328
#
# _framework density 23.781863999999999
#
# number of rings (size 3 to 8) (size 9 to 14) (size 15 to 20)
#    0.000    2.250    0.000    6.375    1.750    4.000 
#    0.000    0.000    0.000    0.000    0.000    9.625 
#    0.000    0.000    0.000    0.000    0.000    0.000 
#
# Total GULP energy -178268.781791 kJ/mol
# GULP energy per Si atom -5570.899431 kJ/mol
# Density = 2.372774 g / cm^3
# Si number density = 23.781864 Si / 1000 Ang^3
#
#
#
# Elastic Constant Matrix: (Units=GPa)
#
#
# Indices 1 2 3 4 5 6 
#
# 1 41.1117 2.8310 31.5934 0.0000 -0.9521 0.0000
# 2 2.8310 35.9014 20.8238 0.0000 7.4243 0.0000
# 3 31.5934 20.8238 166.1478 0.0000 13.7903 0.0000
# 4 0.0000 0.0000 0.0000 18.2547 0.0000 0.2444
# 5 -0.9521 7.4243 13.7903 0.0000 25.2315 0.0000
# 6 0.0000 0.0000 0.0000 0.2444 0.0000 4.3569
#
#
#
# Elastic Compliance Matrix: (Units=1/GPa)
#
#
# Indices 1 2 3 4 5 6 
#
# 1 0.028926 0.000257 -0.005884 0.000000 0.004232 0.000000
# 2 0.000257 0.031307 -0.003361 0.000000 -0.007365 0.000000
# 3 -0.005884 -0.003361 0.007851 0.000000 -0.003524 0.000000
# 4 0.000000 0.000000 0.000000 0.054822 0.000000 -0.003076
# 5 0.004232 -0.007365 -0.003524 0.000000 0.043886 0.000000
# 6 0.000000 0.000000 0.000000 -0.003076 0.000000 0.229693
#
#
# Mechanical properties :
#
#
# Convention : Reuss Voigt Hill
#
# Bulk Modulus (GPa) = 19.95726 39.29525 29.62625
# Shear Modulus (GPa) = 11.59654 22.09614 16.84634
#
# Velocity S-wave (km/s) = 2.21061 3.05145 2.66441
# Velocity P-wave (km/s) = 3.86338 5.38277 4.68508
#
# Compressibility (1/GPa) = 0.05010708
#
# Stress axis : x y z
#
# Youngs Moduli (GPa) = 34.57119 31.94222 127.36719
#
# Poissons Ratio (x) = -0.00820 0.74939
# Poissons Ratio (y) = -0.00887 0.42811
# Poissons Ratio (z) = 0.20341 0.10737
#
# Static dielectric constant tensor:
#      x y z
#    x 1.924550 0.000000 -0.005090 
#    y 0.000000 1.956880 0.000000 
#    z -0.005090 0.000000 2.085770 
# 
# From -- ./inp_files/8084.got.cif
#   From: 2010.05.17/outbox.cif.g08.bks.cpg/sg11_5_cif.got.tgz:8084.got - 2010.06.03 12:22:45.
