data_PCOD9156772
_publ_section_title
;
Structure prediction by ZEFSAII (Michael W. Deem and Ramdas Pophale) SiO2 
 PCOD9156772
Probable space group: P 21/M
;
_chemical_formula_sum "Si O2"
_cell_formula_units_Z 32
_cell_length_a 16.288045
_cell_length_b 7.772220
_cell_length_c 27.091123
_cell_angle_alpha 90.000000
_cell_angle_beta 29.275807
_cell_angle_gamma 90.000000
_cell_volume 1677.113696
_symmetry_space_group_name_H-M "P 21/M"
_symmetry_group_IT_number 11
_symmetry_cell_setting 'monoclinic'
loop_
_space_group_symop_operation_xyz
x,y,z
-x,1/2+y,-z
-x,-y,-z
x,1/2-y,z
loop_
_atom_site_type_symbol
_atom_site_label
_atom_site_fract_x
_atom_site_fract_y
_atom_site_fract_z
Si Si1 0.787870 0.545379 0.289583
Si Si2 0.345288 0.551370 0.897002
Si Si3 0.969077 0.449467 0.095887
Si Si4 0.554418 0.541579 0.582629
Si Si5 0.242125 0.454384 0.154934
Si Si6 0.134181 0.045143 0.641736
Si Si7 0.372182 0.538767 0.775966
Si Si8 0.427382 0.957759 0.961801
O O1 0.820344 0.750000 0.271128
O O2 0.900805 0.462912 0.187602
O O3 0.595317 0.512603 0.375479
O O4 0.826474 0.477611 0.323910
O O5 0.400972 0.750000 0.868802
O O6 0.409602 0.476646 0.811480
O O7 0.396320 0.474294 0.923024
O O8 0.143453 0.546282 0.999537
O O9 0.999839 0.250000 0.067791
O O10 0.815022 0.514350 0.143085
O O11 0.554764 0.750000 0.583917
O O12 0.731614 0.479153 0.468426
O O13 0.499360 0.483624 0.666196
O O14 0.244964 0.250000 0.157270
O O15 0.398914 0.522237 0.104951
O O16 0.060447 0.515285 0.267054
O O17 0.281143 0.500505 0.077582
O O18 0.160902 0.250000 0.630238
O O19 0.369903 0.750000 0.777568
O O20 0.433622 0.750000 0.956211
#
# Coordination Sequence:
#
# PCOD9156772 Si02
#       8
#     4   4   4   4   4   4   4   4
#     4  10  19  30  45  68  96 125 156 187 224 268
#     4  10  18  30  49  69  90 119 155 191 229 272
#     4  10  19  30  44  67  98 126 154 187 224 269
#     4   9  18  33  49  67  93 123 156 191 226 264
#     4  10  20  33  50  71  94 120 150 186 229 276
#     4  10  20  32  48  69  94 124 155 188 226 272
#     4   8  16  30  47  66  90 122 156 189 224 265
#     4   9  19  34  50  70  95 120 148 186 231 277
#
# _framework density 19.080400000000001
#
# number of rings (size 3 to 8) (size 9 to 14) (size 15 to 20)
#    0.000    2.500    0.000    3.375    0.000    5.500 
#    0.000    2.500    0.000    0.750    0.000    0.000 
#    0.000    0.000    0.000    0.000    0.000    0.375 
#
# Total GULP energy -178558.880109 kJ/mol
# GULP energy per Si atom -5579.965003 kJ/mol
# Density = 1.903697 g / cm^3
# Si number density = 19.080400 Si / 1000 Ang^3
#
#
#
# Elastic Constant Matrix: (Units=GPa)
#
#
# Indices 1 2 3 4 5 6 
#
# 1 94.3690 -4.2901 34.7195 0.0000 24.7006 0.0000
# 2 -4.2901 22.5484 -10.5586 0.0000 3.9275 0.0000
# 3 34.7195 -10.5586 83.4156 0.0000 2.4616 0.0000
# 4 0.0000 0.0000 0.0000 19.4044 0.0000 -4.2764
# 5 24.7006 3.9275 2.4616 0.0000 14.4447 0.0000
# 6 0.0000 0.0000 0.0000 -4.2764 0.0000 12.7087
#
#
#
# Elastic Compliance Matrix: (Units=1/GPa)
#
#
# Indices 1 2 3 4 5 6 
#
# 1 0.025944 0.008940 -0.008328 0.000000 -0.045377 0.000000
# 2 0.008940 0.053177 0.003907 0.000000 -0.030413 0.000000
# 3 -0.008328 0.003907 0.015639 0.000000 0.010513 0.000000
# 4 0.000000 0.000000 0.000000 0.055663 0.000000 0.018730
# 5 -0.045377 -0.030413 0.010513 0.000000 0.153302 0.000000
# 6 0.000000 0.000000 0.000000 0.018730 0.000000 0.084989
#
#
# Mechanical properties :
#
#
# Convention : Reuss Voigt Hill
#
# Bulk Modulus (GPa) = 9.63387 26.67493 18.15440
# Shear Modulus (GPa) = 12.06930 21.34236 16.70583
#
# Velocity S-wave (km/s) = 2.51778 3.34810 2.96218
# Velocity P-wave (km/s) = 3.67592 5.38117 4.60811
#
# Compressibility (1/GPa) = 0.10380042
#
# Stress axis : x y z
#
# Youngs Moduli (GPa) = 38.54428 18.80499 63.94375
#
# Poissons Ratio (x) = -0.16813 0.53251
# Poissons Ratio (y) = -0.34460 -0.24985
# Poissons Ratio (z) = 0.32099 -0.07348
#
# Static dielectric constant tensor:
#      x y z
#    x 1.686750 0.000000 0.018450 
#    y 0.000000 1.691440 0.000000 
#    z 0.018450 0.000000 1.660910 
# 
# From -- ./inp_files/51702.got.cif
#   From: 2010.05.17/outbox.cif.g08.bks.cpg/sg11_26_cif.got.tgz:51702.got - 2010.06.03 12:22:45.
