data_PCOD9156681
_publ_section_title
;
Structure prediction by ZEFSAII (Michael W. Deem and Ramdas Pophale) SiO2 
 PCOD9156681
Probable space group: P 21/M
;
_chemical_formula_sum "Si O2"
_cell_formula_units_Z 32
_cell_length_a 13.827886
_cell_length_b 8.464980
_cell_length_c 24.711328
_cell_angle_alpha 90.000000
_cell_angle_beta 135.029107
_cell_angle_gamma 90.000000
_cell_volume 2044.287979
_symmetry_space_group_name_H-M "P 21/M"
_symmetry_group_IT_number 11
_symmetry_cell_setting 'monoclinic'
loop_
_space_group_symop_operation_xyz
x,y,z
-x,1/2+y,-z
-x,-y,-z
x,1/2-y,z
loop_
_atom_site_type_symbol
_atom_site_label
_atom_site_fract_x
_atom_site_fract_y
_atom_site_fract_z
Si Si1 0.818091 0.563840 0.689165
Si Si2 0.323432 0.941193 0.170146
Si Si3 0.915724 0.437344 0.840304
Si Si4 0.222720 0.442173 0.443313
Si Si5 0.858525 0.940224 0.468328
Si Si6 0.111602 0.561596 0.001273
Si Si7 0.479116 0.937018 0.407233
Si Si8 0.570337 0.063471 0.328713
O O1 0.844879 0.750000 0.702348
O O2 0.892013 0.485010 0.769181
O O3 0.848489 0.504718 0.640267
O O4 0.656403 0.531900 0.632591
O O5 0.335189 0.750000 0.177439
O O6 0.213886 0.991651 0.173715
O O7 0.255352 0.985154 0.085579
O O8 0.468437 0.018678 0.240059
O O9 0.916878 0.250000 0.845489
O O10 0.055592 0.500615 0.922114
O O11 0.223713 0.250000 0.443129
O O12 0.158179 0.489917 0.475059
O O13 0.382818 0.490150 0.507642
O O14 0.851429 0.750000 0.463485
O O15 0.727531 0.011411 0.385358
O O16 0.000000 0.000000 0.500000
O O17 0.107714 0.750000 0.999163
O O18 0.000000 0.500000 0.000000
O O19 0.456304 0.750000 0.407025
O O20 0.513919 0.966733 0.358093
O O21 0.563205 0.250000 0.336986
#
# Coordination Sequence:
#
# PCOD9156681 Si02
#       8
#     4   4   4   4   4   4   4   4
#     4  11  19  28  43  63  87 119 158 190 221 266
#     4   9  17  29  43  60  88 120 152 191 232 264
#     4  10  19  29  41  59  88 124 157 190 232 265
#     4   8  18  32  46  64  87 116 148 187 229 269
#     4  10  20  37  55  70  92 117 146 188 236 280
#     4   9  17  28  42  59  83 117 157 193 228 267
#     4  10  18  30  43  59  89 122 151 189 231 262
#     4  11  20  29  46  70  91 119 157 189 224 272
#
# _framework density 15.653371
#
# number of rings (size 3 to 8) (size 9 to 14) (size 15 to 20)
#    0.000    2.250    1.250    4.875    0.000    2.500 
#    0.000    6.875    0.000    0.000    0.000    0.000 
#    0.000    1.000    0.000    3.000    0.000    4.000 
#
# Total GULP energy -178347.487072 kJ/mol
# GULP energy per Si atom -5573.358971 kJ/mol
# Density = 1.561774 g / cm^3
# Si number density = 15.653371 Si / 1000 Ang^3
#
#
#
# Elastic Constant Matrix: (Units=GPa)
#
#
# Indices 1 2 3 4 5 6 
#
# 1 42.3681 4.4206 44.2024 0.0000 3.0500 0.0000
# 2 4.4206 33.1526 25.6934 0.0000 -0.6328 0.0000
# 3 44.2024 25.6934 151.8986 0.0000 -9.7468 0.0000
# 4 0.0000 0.0000 0.0000 24.2334 0.0000 3.1350
# 5 3.0500 -0.6328 -9.7468 0.0000 16.5510 0.0000
# 6 0.0000 0.0000 0.0000 3.1350 0.0000 13.7306
#
#
#
# Elastic Compliance Matrix: (Units=1/GPa)
#
#
# Indices 1 2 3 4 5 6 
#
# 1 0.037147 0.004435 -0.012459 0.000000 -0.014013 0.000000
# 2 0.004435 0.035322 -0.007515 0.000000 -0.003892 0.000000
# 3 -0.012459 -0.007515 0.012065 0.000000 0.009114 0.000000
# 4 0.000000 0.000000 0.000000 0.042521 0.000000 -0.009709
# 5 -0.014013 -0.003892 0.009114 0.000000 0.068220 0.000000
# 6 0.000000 0.000000 0.000000 -0.009709 0.000000 0.075047
#
#
# Mechanical properties :
#
#
# Convention : Reuss Voigt Hill
#
# Bulk Modulus (GPa) = 18.70697 41.78357 30.24527
# Shear Modulus (GPa) = 15.66323 21.10986 18.38654
#
# Velocity S-wave (km/s) = 3.16671 3.67629 3.43097
# Velocity P-wave (km/s) = 5.03462 6.69112 5.92108
#
# Compressibility (1/GPa) = 0.05345602
#
# Stress axis : x y z
#
# Youngs Moduli (GPa) = 26.91990 28.31095 82.88509
#
# Poissons Ratio (x) = -0.12556 1.03268
# Poissons Ratio (y) = -0.11939 0.62289
# Poissons Ratio (z) = 0.33540 0.21276
#
# Static dielectric constant tensor:
#      x y z
#    x 1.500170 0.000000 -0.021100 
#    y 0.000000 1.532480 0.000000 
#    z -0.021100 0.000000 1.573030 
# 
# From -- ./inp_files/59894.got.cif
#   From: 2010.05.17/outbox.cif.g08.bks.cpg/sg11_30_cif.got.tgz:59894.got - 2010.06.03 12:22:45.
