data_PCOD9156838
_publ_section_title
;
Structure prediction by ZEFSAII (Michael W. Deem and Ramdas Pophale) SiO2 
 PCOD9156838
Probable space group: P 21/M
;
_chemical_formula_sum "Si O2"
_cell_formula_units_Z 32
_cell_length_a 16.066142
_cell_length_b 8.205964
_cell_length_c 15.866955
_cell_angle_alpha 90.000000
_cell_angle_beta 56.958354
_cell_angle_gamma 90.000000
_cell_volume 1753.561648
_symmetry_space_group_name_H-M "P 21/M"
_symmetry_group_IT_number 11
_symmetry_cell_setting 'monoclinic'
loop_
_space_group_symop_operation_xyz
x,y,z
-x,1/2+y,-z
-x,-y,-z
x,1/2-y,z
loop_
_atom_site_type_symbol
_atom_site_label
_atom_site_fract_x
_atom_site_fract_y
_atom_site_fract_z
Si Si1 0.764861 0.939868 0.066751
Si Si2 0.299667 0.054474 0.630303
Si Si3 0.154144 0.946733 0.445764
Si Si4 0.876206 0.061800 0.165920
Si Si5 0.421110 0.051315 0.729150
Si Si6 0.033272 0.946879 0.350171
Si Si7 0.072249 0.941896 0.139487
Si Si8 0.642970 0.446902 0.587911
O O1 0.756006 0.750000 0.050415
O O2 0.657736 0.003626 0.156858
O O3 0.834190 0.957956 0.111481
O O4 0.820758 0.028228 0.960381
O O5 0.290878 0.250000 0.635284
O O6 0.376055 0.006055 0.662670
O O7 0.194023 0.980101 0.715831
O O8 0.335990 0.995972 0.519931
O O9 0.155875 0.750000 0.442795
O O10 0.108491 0.004318 0.382041
O O11 0.264248 0.005236 0.407464
O O12 0.075979 0.998808 0.560612
O O13 0.864364 0.250000 0.149100
O O14 0.988691 0.025759 0.128324
O O15 0.420310 0.250000 0.731964
O O16 0.533916 0.994564 0.675210
O O17 0.035252 0.750000 0.349216
O O18 0.061931 0.002584 0.241027
O O19 0.050291 0.750000 0.150963
O O20 0.641564 0.250000 0.592602
#
# Coordination Sequence:
#
# PCOD9156838 Si02
#       8
#     4   4   4   4   4   4   4   4
#     4  10  20  35  51  69  96 128 163 199 237 279
#     4  10  19  31  46  69 102 133 161 193 235 284
#     4   9  18  32  51  74  97 122 154 193 236 284
#     4  11  21  33  49  71  99 129 162 197 236 281
#     4   8  17  32  48  67  94 128 162 199 237 277
#     4   9  19  34  50  70  98 127 153 188 237 288
#     4  11  21  33  50  71  96 127 162 197 238 286
#     4  10  18  30  50  73  95 123 163 202 239 283
#
# _framework density 18.248574000000001
#
# number of rings (size 3 to 8) (size 9 to 14) (size 15 to 20)
#    0.000    2.250    0.000    4.500    0.000    3.500 
#    0.000    3.125    0.000    0.750    0.000    0.000 
#    0.000    0.000    0.000    0.000    0.000    0.625 
#
# Total GULP energy -178614.649836 kJ/mol
# GULP energy per Si atom -5581.707807 kJ/mol
# Density = 1.820704 g / cm^3
# Si number density = 18.248574 Si / 1000 Ang^3
#
#
#
# Elastic Constant Matrix: (Units=GPa)
#
#
# Indices 1 2 3 4 5 6 
#
# 1 89.3189 2.0458 39.1284 0.0000 -27.7893 0.0000
# 2 2.0458 15.1927 -8.0078 0.0000 -1.9998 0.0000
# 3 39.1284 -8.0078 93.8445 0.0000 -16.2693 0.0000
# 4 0.0000 0.0000 0.0000 22.1213 0.0000 -2.8291
# 5 -27.7893 -1.9998 -16.2693 0.0000 23.5902 0.0000
# 6 0.0000 0.0000 0.0000 -2.8291 0.0000 13.1769
#
#
#
# Elastic Compliance Matrix: (Units=1/GPa)
#
#
# Indices 1 2 3 4 5 6 
#
# 1 0.019423 -0.002725 -0.005002 0.000000 0.019199 0.000000
# 2 -0.002725 0.072033 0.008842 0.000000 0.008995 0.000000
# 3 -0.005002 0.008842 0.014316 0.000000 0.004730 0.000000
# 4 0.000000 0.000000 0.000000 0.046482 0.000000 0.009980
# 5 0.019199 0.008995 0.004730 0.000000 0.069032 0.000000
# 6 0.000000 0.000000 0.000000 0.009980 0.000000 0.078033
#
#
# Mechanical properties :
#
#
# Convention : Reuss Voigt Hill
#
# Bulk Modulus (GPa) = 9.25915 29.40988 19.33452
# Shear Modulus (GPa) = 15.01098 22.79033 18.90065
#
# Velocity S-wave (km/s) = 2.87118 3.53779 3.22177
# Velocity P-wave (km/s) = 4.00955 5.73055 4.94549
#
# Compressibility (1/GPa) = 0.10800128
#
# Stress axis : x y z
#
# Youngs Moduli (GPa) = 51.48513 13.88261 69.85084
#
# Poissons Ratio (x) = 0.03783 0.34943
# Poissons Ratio (y) = 0.14029 -0.61762
# Poissons Ratio (z) = 0.25755 -0.12275
#
# Static dielectric constant tensor:
#      x y z
#    x 1.630140 0.000000 -0.011360 
#    y 0.000000 1.628970 0.000000 
#    z -0.011360 0.000000 1.627430 
# 
# From -- ./inp_files/51706.got.cif
#   From: 2010.05.17/outbox.cif.g08.bks.cpg/sg11_26_cif.got.tgz:51706.got - 2010.06.03 12:22:45.
