data_PCOD9156864
_publ_section_title
;
Structure prediction by ZEFSAII (Michael W. Deem and Ramdas Pophale) SiO2 
 PCOD9156864
Probable space group: P 21/M
;
_chemical_formula_sum "Si O2"
_cell_formula_units_Z 32
_cell_length_a 26.753409
_cell_length_b 9.412765
_cell_length_c 21.780702
_cell_angle_alpha 90.000000
_cell_angle_beta 20.460544
_cell_angle_gamma 90.000000
_cell_volume 1917.311912
_symmetry_space_group_name_H-M "P 21/M"
_symmetry_group_IT_number 11
_symmetry_cell_setting 'monoclinic'
loop_
_space_group_symop_operation_xyz
x,y,z
-x,1/2+y,-z
-x,-y,-z
x,1/2-y,z
loop_
_atom_site_type_symbol
_atom_site_label
_atom_site_fract_x
_atom_site_fract_y
_atom_site_fract_z
Si Si1 0.447532 0.921568 0.499828
Si Si2 0.360433 0.583465 0.183641
Si Si3 0.673337 0.918321 0.654339
Si Si4 0.766995 0.413387 0.432943
Si Si5 0.857973 0.084258 0.678158
Si Si6 0.129009 0.579222 0.818548
Si Si7 0.649726 0.081572 0.024551
Si Si8 0.559882 0.587294 0.241390
O O1 0.456334 0.750000 0.495777
O O2 0.282577 0.955807 0.672654
O O3 0.544451 0.962396 0.329270
O O4 0.500000 0.000000 0.500000
O O5 0.392413 0.750000 0.158873
O O6 0.304700 0.505763 0.308754
O O7 0.246917 0.576448 0.259392
O O8 0.500000 0.500000 0.000000
O O9 0.696822 0.750000 0.635239
O O10 0.766268 0.983337 0.491881
O O11 0.506263 0.938896 0.827367
O O12 0.801010 0.250000 0.410994
O O13 0.859748 0.456438 0.266992
O O14 0.603755 0.412317 0.595340
O O15 0.891587 0.250000 0.649995
O O16 0.770504 0.030854 0.838269
O O17 0.000000 0.000000 0.500000
O O18 0.112293 0.750000 0.841659
O O19 0.000000 0.500000 0.000000
O O20 0.666084 0.250000 0.014282
O O21 0.647998 0.005040 0.091975
O O22 0.610230 0.750000 0.182953
#
# Coordination Sequence:
#
# PCOD9156864 Si02
#       8
#     4   4   4   4   4   4   4   4
#     4   9  18  32  50  75 105 132 165 210 252 296
#     4  11  21  35  54  78 106 133 168 211 253 299
#     4  10  18  30  50  78 106 129 163 212 258 300
#     4   8  15  29  47  71 101 133 166 206 254 298
#     4  10  22  38  53  74 104 135 169 209 250 301
#     4   9  18  32  51  75 105 136 171 210 249 300
#     4   9  17  31  49  73 103 128 160 208 251 293
#     4   8  15  28  47  72  98 126 165 206 246 296
#
# _framework density 16.690033
#
# number of rings (size 3 to 8) (size 9 to 14) (size 15 to 20)
#    0.000    2.750    1.250    2.250    0.000    3.500 
#    0.000    2.500    2.750    0.000    0.000    0.000 
#    0.000    0.000    0.000    0.000    0.000    0.000 
#
# Total GULP energy -178312.859413 kJ/mol
# GULP energy per Si atom -5572.276857 kJ/mol
# Density = 1.665205 g / cm^3
# Si number density = 16.690033 Si / 1000 Ang^3
#
#
#
# Elastic Constant Matrix: (Units=GPa)
#
#
# Indices 1 2 3 4 5 6 
#
# 1 85.6672 49.7146 52.0510 0.0000 38.6919 0.0000
# 2 49.7146 67.7999 59.3284 0.0000 22.8877 0.0000
# 3 52.0510 59.3284 120.7325 0.0000 37.3738 0.0000
# 4 0.0000 0.0000 0.0000 31.3980 0.0000 6.7140
# 5 38.6919 22.8877 37.3738 0.0000 32.7379 0.0000
# 6 0.0000 0.0000 0.0000 6.7140 0.0000 30.9709
#
#
#
# Elastic Compliance Matrix: (Units=1/GPa)
#
#
# Indices 1 2 3 4 5 6 
#
# 1 0.034195 -0.017527 0.004002 0.000000 -0.032729 0.000000
# 2 -0.017527 0.035523 -0.013338 0.000000 0.011106 0.000000
# 3 0.004002 -0.013338 0.018078 0.000000 -0.016043 0.000000
# 4 0.000000 0.000000 0.000000 0.033397 0.000000 -0.007240
# 5 -0.032729 0.011106 -0.016043 0.000000 0.079778 0.000000
# 6 0.000000 0.000000 0.000000 -0.007240 0.000000 0.033858
#
#
# Mechanical properties :
#
#
# Convention : Reuss Voigt Hill
#
# Bulk Modulus (GPa) = 29.35094 66.26529 47.80811
# Shear Modulus (GPa) = 16.67157 26.56173 21.61665
#
# Velocity S-wave (km/s) = 3.16396 3.99365 3.60277
# Velocity P-wave (km/s) = 5.56521 7.81380 6.78332
#
# Compressibility (1/GPa) = 0.03407046
#
# Stress axis : x y z
#
# Youngs Moduli (GPa) = 29.24392 28.15066 55.31610
#
# Poissons Ratio (x) = 0.49340 -0.22138
# Poissons Ratio (y) = 0.51256 0.73780
# Poissons Ratio (z) = -0.11704 0.37547
#
# Static dielectric constant tensor:
#      x y z
#    x 1.558600 0.000000 0.014180 
#    y 0.000000 1.556910 0.000000 
#    z 0.014180 0.000000 1.556480 
# 
# From -- ./inp_files/67105.got.cif
#   From: 2010.05.17/outbox.cif.g08.bks.cpg/sg11_34_cif.got.tgz:67105.got - 2010.06.03 12:22:45.
