data_PCOD9156348
_publ_section_title
;
Structure prediction by ZEFSAII (Michael W. Deem and Ramdas Pophale) SiO2 
 PCOD9156348
Probable space group: P 21/M
;
_chemical_formula_sum "Si O2"
_cell_formula_units_Z 32
_cell_length_a 16.723953
_cell_length_b 8.977666
_cell_length_c 21.178508
_cell_angle_alpha 90.000000
_cell_angle_beta 138.182258
_cell_angle_gamma 90.000000
_cell_volume 2120.163814
_symmetry_space_group_name_H-M "P 21/M"
_symmetry_group_IT_number 11
_symmetry_cell_setting 'monoclinic'
loop_
_space_group_symop_operation_xyz
x,y,z
-x,1/2+y,-z
-x,-y,-z
x,1/2-y,z
loop_
_atom_site_type_symbol
_atom_site_label
_atom_site_fract_x
_atom_site_fract_y
_atom_site_fract_z
Si Si1 0.284590 0.430033 0.014649
Si Si2 0.817052 0.921032 0.914348
Si Si3 0.889399 0.427316 0.472609
Si Si4 0.508052 0.928241 0.074078
Si Si5 0.922815 0.079777 0.862976
Si Si6 0.003205 0.927636 0.651863
Si Si7 0.040846 0.572003 0.819002
Si Si8 0.255760 0.572074 0.731094
O O1 0.287930 0.250000 0.011922
O O2 0.165452 0.490740 0.909781
O O3 0.270544 0.469262 0.080718
O O4 0.399666 0.504274 0.051240
O O5 0.791240 0.750000 0.882195
O O6 0.828683 0.018158 0.858482
O O7 0.948278 0.922688 0.025101
O O8 0.904334 0.250000 0.482526
O O9 0.903111 0.491878 0.550622
O O10 0.775759 0.459025 0.360891
O O11 0.000000 0.500000 0.500000
O O12 0.499190 0.750000 0.065025
O O13 0.633260 0.979226 0.178375
O O14 0.500000 0.000000 0.000000
O O15 0.897797 0.250000 0.830943
O O16 0.944077 0.980592 0.813748
O O17 0.987644 0.750000 0.635948
O O18 0.003355 0.965895 0.725642
O O19 0.135203 0.961801 0.700497
O O20 0.058570 0.750000 0.833501
O O21 0.278837 0.750000 0.751467
#
# Coordination Sequence:
#
# PCOD9156348 Si02
#       8
#     4   4   4   4   4   4   4   4
#     4  10  20  33  47  63  85 115 151 189 223 259
#     4   8  15  27  42  59  80 109 144 180 219 259
#     4   9  17  29  47  66  85 110 140 178 220 261
#     4  12  24  35  48  65  87 118 152 186 221 256
#     4   9  16  25  39  60  85 114 146 179 215 257
#     4   9  18  30  45  65  89 116 145 179 219 261
#     4  10  18  28  43  64  92 122 149 180 218 261
#     4   9  18  33  48  64  87 114 147 185 222 258
#
# _framework density 15.093173999999999
#
# number of rings (size 3 to 8) (size 9 to 14) (size 15 to 20)
#    0.000    2.500    0.000    4.875    0.000    8.000 
#    0.000    0.000    0.000    0.000    0.000    0.000 
#    0.000    1.000    0.000    3.250    0.000    4.250 
#
# Total GULP energy -178298.927218 kJ/mol
# GULP energy per Si atom -5571.841476 kJ/mol
# Density = 1.505882 g / cm^3
# Si number density = 15.093174 Si / 1000 Ang^3
#
#
#
# Elastic Constant Matrix: (Units=GPa)
#
#
# Indices 1 2 3 4 5 6 
#
# 1 108.5497 52.5510 46.2902 0.0000 -15.4869 0.0000
# 2 52.5510 76.0536 49.0436 0.0000 -12.0673 0.0000
# 3 46.2902 49.0436 81.1749 0.0000 -18.5800 0.0000
# 4 0.0000 0.0000 0.0000 23.8320 0.0000 -3.1193
# 5 -15.4869 -12.0673 -18.5800 0.0000 18.4499 0.0000
# 6 0.0000 0.0000 0.0000 -3.1193 0.0000 25.3134
#
#
#
# Elastic Compliance Matrix: (Units=1/GPa)
#
#
# Indices 1 2 3 4 5 6 
#
# 1 0.014762 -0.007734 -0.002687 0.000000 0.004628 0.000000
# 2 -0.007734 0.025616 -0.011329 0.000000 -0.001146 0.000000
# 3 -0.002687 -0.011329 0.024020 0.000000 0.014525 0.000000
# 4 0.000000 0.000000 0.000000 0.042648 0.000000 0.005255
# 5 0.004628 -0.001146 0.014525 0.000000 0.071963 0.000000
# 6 0.000000 0.000000 0.000000 0.005255 0.000000 0.040152
#
#
# Mechanical properties :
#
#
# Convention : Reuss Voigt Hill
#
# Bulk Modulus (GPa) = 47.84511 62.39421 55.11966
# Shear Modulus (GPa) = 18.54417 21.37859 19.96138
#
# Velocity S-wave (km/s) = 3.50901 3.76765 3.64062
# Velocity P-wave (km/s) = 6.94163 7.76891 7.36689
#
# Compressibility (1/GPa) = 0.02090078
#
# Stress axis : x y z
#
# Youngs Moduli (GPa) = 67.74022 39.03841 41.63193
#
# Poissons Ratio (x) = 0.30191 0.11185
# Poissons Ratio (y) = 0.52388 0.47163
# Poissons Ratio (z) = 0.18199 0.44225
#
# Static dielectric constant tensor:
#      x y z
#    x 1.515550 0.000000 -0.019730 
#    y 0.000000 1.502580 0.000000 
#    z -0.019730 0.000000 1.490670 
# 
# From -- ./inp_files/65222.got.cif
#   From: 2010.05.17/outbox.cif.g08.bks.cpg/sg11_33_cif.got.tgz:65222.got - 2010.06.03 12:22:45.
