data_PCOD9156022
_publ_section_title
;
Structure prediction by ZEFSAII (Michael W. Deem and Ramdas Pophale) SiO2 
 PCOD9156022
Probable space group: P 21/M
;
_chemical_formula_sum "Si O2"
_cell_formula_units_Z 28
_cell_length_a 12.675385
_cell_length_b 15.766775
_cell_length_c 5.559255
_cell_angle_alpha 90.000000
_cell_angle_beta 76.021744
_cell_angle_gamma 90.000000
_cell_volume 1078.116775
_symmetry_space_group_name_H-M "P 21/M"
_symmetry_group_IT_number 11
_symmetry_cell_setting 'monoclinic'
loop_
_space_group_symop_operation_xyz
x,y,z
-x,1/2+y,-z
-x,-y,-z
x,1/2-y,z
loop_
_atom_site_type_symbol
_atom_site_label
_atom_site_fract_x
_atom_site_fract_y
_atom_site_fract_z
Si Si1 0.246137 0.348109 0.023448
Si Si2 0.911959 0.082172 0.787392
Si Si3 0.587517 0.088888 0.336112
Si Si4 0.659983 0.064043 0.799398
Si Si5 0.748231 0.250000 0.205676
Si Si6 0.278179 0.750000 0.281451
Si Si7 0.657092 0.647737 0.527849
Si Si8 0.000239 0.106599 0.239958
O O1 0.281037 0.250000 0.998225
O O2 0.299511 0.385776 0.237290
O O3 0.117030 0.353539 0.122164
O O4 0.279781 0.384176 0.745009
O O5 0.788623 0.057954 0.784258
O O6 0.960329 0.129951 0.528788
O O7 0.979850 0.994763 0.763339
O O8 0.923562 0.121181 0.049502
O O9 0.620300 0.036380 0.556896
O O10 0.673139 0.165770 0.258503
O O11 0.469955 0.129911 0.428599
O O12 0.597595 0.039924 0.076883
O O13 0.647026 0.167096 0.772935
O O14 0.796140 0.250000 0.443151
O O15 0.795219 0.250000 0.914517
O O16 0.674489 0.750000 0.526821
#
# Coordination Sequence:
#
# PCOD9156022 Si02
#       8
#     4   4   4   4   2   2   4   4
#     4  10  21  36  56  82 109 138 181 234 275 306
#     4  10  21  38  61  80 102 145 186 218 272 338
#     4  10  17  29  49  74 112 139 173 216 252 314
#     4  10  19  31  49  78 109 139 172 214 264 314
#     4   8  14  24  40  62  93 138 163 196 238 288
#     4   8  16  26  40  66 101 130 159 196 250 302
#     4  10  19  32  54  80 109 149 184 214 266 324
#     4  10  21  40  60  79 104 139 188 231 268 324
#
# _framework density 25.971212000000001
#
# number of rings (size 3 to 8) (size 9 to 14) (size 15 to 20)
#    0.000    2.286    0.714    2.571    0.000    0.000 
#    2.571    0.000    0.000    5.143    0.000    0.000 
#    0.000    0.000    0.000    0.000    0.000    0.000 
#
# Total GULP energy -156597.701515 kJ/mol
# GULP energy per Si atom -5592.775054 kJ/mol
# Density = 2.591210 g / cm^3
# Si number density = 25.971212 Si / 1000 Ang^3
#
#
#
# Elastic Constant Matrix: (Units=GPa)
#
#
# Indices 1 2 3 4 5 6 
#
# 1 107.5928 -6.2037 55.8159 0.0000 21.7574 0.0000
# 2 -6.2037 45.4630 14.7123 0.0000 14.0115 0.0000
# 3 55.8159 14.7123 272.1678 0.0000 29.8991 0.0000
# 4 0.0000 0.0000 0.0000 32.5669 0.0000 6.6245
# 5 21.7574 14.0115 29.8991 0.0000 52.4940 0.0000
# 6 0.0000 0.0000 0.0000 6.6245 0.0000 39.9773
#
#
#
# Elastic Compliance Matrix: (Units=1/GPa)
#
#
# Indices 1 2 3 4 5 6 
#
# 1 0.011492 0.003639 -0.002052 0.000000 -0.004566 0.000000
# 2 0.003639 0.025222 -0.001285 0.000000 -0.007509 0.000000
# 3 -0.002052 -0.001285 0.004303 0.000000 -0.001257 0.000000
# 4 0.000000 0.000000 0.000000 0.031777 0.000000 -0.005266
# 5 -0.004566 -0.007509 -0.001257 0.000000 0.023662 0.000000
# 6 0.000000 0.000000 0.000000 -0.005266 0.000000 0.025887
#
#
# Mechanical properties :
#
#
# Convention : Reuss Voigt Hill
#
# Bulk Modulus (GPa) = 24.02576 61.54141 42.78358
# Shear Modulus (GPa) = 36.86980 49.06757 42.96868
#
# Velocity S-wave (km/s) = 3.77190 4.35133 4.07193
# Velocity P-wave (km/s) = 5.31419 6.99949 6.21424
#
# Compressibility (1/GPa) = 0.04162199
#
# Stress axis : x y z
#
# Youngs Moduli (GPa) = 87.01784 39.64716 232.41909
#
# Poissons Ratio (x) = -0.14429 0.47690
# Poissons Ratio (y) = -0.31668 0.29863
# Poissons Ratio (z) = 0.17855 0.05094
#
# Static dielectric constant tensor:
#      x y z
#    x 1.960950 0.000000 0.059670 
#    y 0.000000 2.150110 0.000000 
#    z 0.059670 0.000000 2.084250 
# 
# From -- ./inp_files/5045.got.cif
#   From: 2010.05.17/outbox.cif.g08.bks.cpg/sg11_3_cif.got.tgz:5045.got - 2010.06.03 12:22:45.
