data_PCOD9156686
_publ_section_title
;
Structure prediction by ZEFSAII (Michael W. Deem and Ramdas Pophale) SiO2 
 PCOD9156686
Probable space group: P 21/M
;
_chemical_formula_sum "Si O2"
_cell_formula_units_Z 32
_cell_length_a 23.923827
_cell_length_b 9.062370
_cell_length_c 12.135313
_cell_angle_alpha 90.000000
_cell_angle_beta 128.415169
_cell_angle_gamma 90.000000
_cell_volume 2061.476984
_symmetry_space_group_name_H-M "P 21/M"
_symmetry_group_IT_number 11
_symmetry_cell_setting 'monoclinic'
loop_
_space_group_symop_operation_xyz
x,y,z
-x,1/2+y,-z
-x,-y,-z
x,1/2-y,z
loop_
_atom_site_type_symbol
_atom_site_label
_atom_site_fract_x
_atom_site_fract_y
_atom_site_fract_z
Si Si1 0.040613 0.573834 0.948046
Si Si2 0.387810 0.579146 0.163141
Si Si3 0.990223 0.076321 0.664281
Si Si4 0.520399 0.073110 0.408150
Si Si5 0.328219 0.579290 0.342458
Si Si6 0.248795 0.425607 0.925451
Si Si7 0.111434 0.075118 0.626142
Si Si8 0.808165 0.924051 0.895620
O O1 0.037854 0.750000 0.950916
O O2 0.005175 0.515760 0.791831
O O3 0.121979 0.516717 0.046175
O O4 0.000000 0.500000 0.000000
O O5 0.399006 0.750000 0.150299
O O6 0.462408 0.491627 0.253125
O O7 0.359072 0.571911 0.254853
O O8 0.323920 0.508771 0.014767
O O9 0.984468 0.250000 0.682465
O O10 0.057373 0.057321 0.663388
O O11 0.921872 0.017295 0.513982
O O12 0.513336 0.250000 0.407492
O O13 0.604553 0.039905 0.497703
O O14 0.500000 0.000000 0.500000
O O15 0.308098 0.750000 0.337353
O O16 0.259575 0.475805 0.259164
O O17 0.260900 0.250000 0.931726
O O18 0.189878 0.469350 0.763270
O O19 0.213664 0.450366 0.003240
O O20 0.111744 0.250000 0.599924
O O21 0.822094 0.750000 0.899969
#
# Coordination Sequence:
#
# PCOD9156686 Si02
#       8
#     4   4   4   4   4   4   4   4
#     4  12  24  37  52  67  88 117 149 188 231 274
#     4   9  16  23  33  52  78 107 143 178 213 256
#     4  10  19  33  49  69  91 113 147 185 225 271
#     4   9  15  23  34  49  72 103 140 176 212 253
#     4   8  15  25  36  53  75 104 140 178 215 256
#     4   9  16  27  42  60  86 116 146 181 218 259
#     4   9  17  30  47  68  92 118 147 183 225 267
#     4  10  18  30  45  63  84 109 144 184 223 266
#
# _framework density 15.522850999999999
#
# number of rings (size 3 to 8) (size 9 to 14) (size 15 to 20)
#    0.000    2.500    1.250    3.375    0.000    5.000 
#    0.000    0.000    0.000    0.000    0.000    0.000 
#    0.000    0.000    0.000    1.125    0.000   14.875 
#
# Total GULP energy -178278.700356 kJ/mol
# GULP energy per Si atom -5571.209386 kJ/mol
# Density = 1.548752 g / cm^3
# Si number density = 15.522851 Si / 1000 Ang^3
#
#
#
# Elastic Constant Matrix: (Units=GPa)
#
#
# Indices 1 2 3 4 5 6 
#
# 1 33.4319 44.3238 46.0156 0.0000 10.9981 0.0000
# 2 44.3238 102.1053 67.3931 0.0000 16.9763 0.0000
# 3 46.0156 67.3931 117.0093 0.0000 41.6964 0.0000
# 4 0.0000 0.0000 0.0000 27.9925 0.0000 7.6954
# 5 10.9981 16.9763 41.6964 0.0000 23.4834 0.0000
# 6 0.0000 0.0000 0.0000 7.6954 0.0000 18.0992
#
#
#
# Elastic Compliance Matrix: (Units=1/GPa)
#
#
# Indices 1 2 3 4 5 6 
#
# 1 0.113270 -0.026403 -0.046928 0.000000 0.049364 0.000000
# 2 -0.026403 0.023533 -0.004124 0.000000 0.002677 0.000000
# 3 -0.046928 -0.004124 0.055769 0.000000 -0.074062 0.000000
# 4 0.000000 0.000000 0.000000 0.040452 0.000000 -0.017199
# 5 0.049364 0.002677 -0.074062 0.000000 0.149033 0.000000
# 6 0.000000 0.000000 0.000000 -0.017199 0.000000 0.062564
#
#
# Mechanical properties :
#
#
# Convention : Reuss Voigt Hill
#
# Bulk Modulus (GPa) = 26.55357 63.11240 44.83298
# Shear Modulus (GPa) = 8.16880 20.23596 14.20238
#
# Velocity S-wave (km/s) = 2.29649 3.61449 3.02807
# Velocity P-wave (km/s) = 4.91681 7.62662 6.41640
#
# Compressibility (1/GPa) = 0.03765973
#
# Stress axis : x y z
#
# Youngs Moduli (GPa) = 8.82849 42.49433 17.93102
#
# Poissons Ratio (x) = 1.12198 0.84148
# Poissons Ratio (y) = 0.23310 0.07395
# Poissons Ratio (z) = 0.41431 0.17526
#
# Static dielectric constant tensor:
#      x y z
#    x 1.494720 0.000000 0.028220 
#    y 0.000000 1.515030 0.000000 
#    z 0.028220 0.000000 1.538220 
# 
# From -- ./inp_files/43801.got.cif
#   From: 2010.05.17/outbox.cif.g08.bks.cpg/sg11_22_cif.got.tgz:43801.got - 2010.06.03 12:22:45.
