data_PCOD9156198
_publ_section_title
;
Structure prediction by ZEFSAII (Michael W. Deem and Ramdas Pophale) SiO2 
 PCOD9156198
Probable space group: P 21/M
;
_chemical_formula_sum "Si O2"
_cell_formula_units_Z 18
_cell_length_a 7.396133
_cell_length_b 12.966512
_cell_length_c 11.157339
_cell_angle_alpha 90.000000
_cell_angle_beta 55.988468
_cell_angle_gamma 90.000000
_cell_volume 886.959416
_symmetry_space_group_name_H-M "P 21/M"
_symmetry_group_IT_number 11
_symmetry_cell_setting 'monoclinic'
loop_
_space_group_symop_operation_xyz
x,y,z
-x,1/2+y,-z
-x,-y,-z
x,1/2-y,z
loop_
_atom_site_type_symbol
_atom_site_label
_atom_site_fract_x
_atom_site_fract_y
_atom_site_fract_z
Si Si1 0.786558 0.250000 0.360626
Si Si2 0.212843 0.250000 0.051256
Si Si3 0.189806 0.426010 0.873439
Si Si4 0.117040 0.250000 0.459177
Si Si5 0.522179 0.101457 0.309670
Si Si6 0.593081 0.250000 0.078466
Si Si7 0.995119 0.250000 0.778216
O O1 0.633879 0.151730 0.386216
O O2 0.966081 0.250000 0.188300
O O3 0.923295 0.250000 0.432733
O O4 0.258790 0.350547 0.955579
O O5 0.350645 0.250000 0.120212
O O6 0.395763 0.486073 0.739437
O O7 0.094878 0.350639 0.806209
O O8 0.000000 0.500000 0.000000
O O9 0.277660 0.148649 0.393356
O O10 0.024943 0.250000 0.626789
O O11 0.628046 0.153991 0.151937
O O12 0.744315 0.250000 0.908601
#
# Coordination Sequence:
#
# PCOD9156198 Si02
#       7
#     2   2   4   2   4   2   2
#     4  10  17  37  62  85 118 162 190 236 302 351
#     4  11  20  34  62  94 118 149 198 258 297 343
#     4  11  20  37  65  89 116 153 201 253 299 342
#     4  10  23  41  59  84 129 159 195 240 298 362
#     4  10  20  38  66  87 115 159 202 240 296 357
#     4  10  19  37  59  93 116 152 202 248 291 345
#     4  11  23  41  58  88 123 154 197 252 292 353
#
# _framework density 20.294049999999999
#
# number of rings (size 3 to 8) (size 9 to 14) (size 15 to 20)
#    0.000    1.778    6.667    1.333    0.000    1.778 
#   12.000    1.111    0.000    0.000    0.000    0.000 
#    0.000    0.000    0.000    0.000    0.000    0.000 
#
# Total GULP energy -100274.644780 kJ/mol
# GULP energy per Si atom -5570.813599 kJ/mol
# Density = 2.024786 g / cm^3
# Si number density = 20.294050 Si / 1000 Ang^3
#
#
#
# Elastic Constant Matrix: (Units=GPa)
#
#
# Indices 1 2 3 4 5 6 
#
# 1 128.2290 23.6485 25.0412 0.0000 35.1573 0.0000
# 2 23.6485 79.6516 16.0010 0.0000 13.8273 0.0000
# 3 25.0412 16.0010 105.6090 0.0000 20.4214 0.0000
# 4 0.0000 0.0000 0.0000 0.5966 0.0000 -1.2240
# 5 35.1573 13.8273 20.4214 0.0000 27.5232 0.0000
# 6 0.0000 0.0000 0.0000 -1.2240 0.0000 4.8890
#
#
#
# Elastic Compliance Matrix: (Units=1/GPa)
#
#
# Indices 1 2 3 4 5 6 
#
# 1 0.012077 -0.001010 0.000204 0.000000 -0.015070 0.000000
# 2 -0.001010 0.013908 -0.000894 0.000000 -0.005033 0.000000
# 3 0.000204 -0.000894 0.011114 0.000000 -0.008057 0.000000
# 4 0.000000 0.000000 0.000000 3.446828 0.000000 0.862932
# 5 -0.015070 -0.005033 -0.008057 0.000000 0.064090 0.000000
# 6 0.000000 0.000000 0.000000 0.862932 0.000000 0.420578
#
#
# Mechanical properties :
#
#
# Convention : Reuss Voigt Hill
#
# Bulk Modulus (GPa) = 29.67646 49.20788 39.44217
# Shear Modulus (GPa) = 1.25526 23.18835 12.22180
#
# Velocity S-wave (km/s) = 0.78732 3.38393 2.45671
# Velocity P-wave (km/s) = 3.93465 6.29031 5.24641
#
# Compressibility (1/GPa) = 0.03369674
#
# Stress axis : x y z
#
# Youngs Moduli (GPa) = 82.80157 71.90077 89.97573
#
# Poissons Ratio (x) = 0.07265 -0.01832
# Poissons Ratio (y) = 0.08366 0.08048
# Poissons Ratio (z) = -0.01686 0.06431
#
# Static dielectric constant tensor:
#      x y z
#    x 1.721380 0.000000 -0.038670 
#    y 0.000000 1.753160 0.000000 
#    z -0.038670 0.000000 1.726270 
# 
# From -- ./inp_files/30942.got.cif
#   From: 2010.05.17/outbox.cif.g08.bks.cpg/sg11_16_cif.got.tgz:30942.got - 2010.06.03 12:22:45.
