data_PCOD9156266
_publ_section_title
;
Structure prediction by ZEFSAII (Michael W. Deem and Ramdas Pophale) SiO2 
 PCOD9156266
Probable space group: P 21/M
;
_chemical_formula_sum "Si O2"
_cell_formula_units_Z 28
_cell_length_a 14.725457
_cell_length_b 9.053783
_cell_length_c 17.582561
_cell_angle_alpha 90.000000
_cell_angle_beta 129.086849
_cell_angle_gamma 90.000000
_cell_volume 1819.490027
_symmetry_space_group_name_H-M "P 21/M"
_symmetry_group_IT_number 11
_symmetry_cell_setting 'monoclinic'
loop_
_space_group_symop_operation_xyz
x,y,z
-x,1/2+y,-z
-x,-y,-z
x,1/2-y,z
loop_
_atom_site_type_symbol
_atom_site_label
_atom_site_fract_x
_atom_site_fract_y
_atom_site_fract_z
Si Si1 0.299866 0.422637 0.915725
Si Si2 0.672111 0.922605 0.248368
Si Si3 0.583823 0.427576 0.882679
Si Si4 0.051330 0.573790 0.764487
Si Si5 0.081372 0.926462 0.605865
Si Si6 0.175056 0.573805 0.068423
Si Si7 0.968731 0.074507 0.862764
O O1 0.279918 0.250000 0.922118
O O2 0.340922 0.433488 0.850199
O O3 0.178501 0.511459 0.854851
O O4 0.386345 0.492201 0.022618
O O5 0.694124 0.750000 0.278016
O O6 0.545850 0.968553 0.213959
O O7 0.785479 0.015657 0.330543
O O8 0.582415 0.250000 0.894341
O O9 0.692099 0.461637 0.884036
O O10 0.050367 0.750000 0.771119
O O11 0.037674 0.534626 0.668380
O O12 0.962905 0.502164 0.777817
O O13 0.079164 0.750000 0.597897
O O14 0.000000 0.000000 0.500000
O O15 0.157662 0.750000 0.046369
O O16 0.137715 0.542978 0.135491
O O17 0.083605 0.487362 0.966959
O O18 0.979248 0.250000 0.859090
#
# Coordination Sequence:
#
# PCOD9156266 Si02
#       7
#     4   4   4   4   4   4   4
#     4  10  18  27  41  64  92 123 159 194 222 262
#     4   9  19  32  46  66  93 123 155 188 227 277
#     4  10  18  29  44  63  92 130 160 187 226 270
#     4  10  19  31  47  67  92 123 155 189 233 282
#     4  10  21  36  54  73  93 117 148 190 239 285
#     4   9  18  29  42  62  93 129 163 195 228 267
#     4  10  18  28  43  65  91 124 163 199 231 264
#
# _framework density 15.388928999999999
#
# number of rings (size 3 to 8) (size 9 to 14) (size 15 to 20)
#    0.000    2.286    1.429    2.143    0.000    3.429 
#    0.000    0.000    0.000    0.000    0.000    1.000 
#    0.000    0.000    0.000    0.000    0.000    0.000 
#
# Total GULP energy -156094.919784 kJ/mol
# GULP energy per Si atom -5574.818564 kJ/mol
# Density = 1.535390 g / cm^3
# Si number density = 15.388929 Si / 1000 Ang^3
#
#
#
# Elastic Constant Matrix: (Units=GPa)
#
#
# Indices 1 2 3 4 5 6 
#
# 1 98.5919 41.6869 49.7474 0.0000 4.8753 0.0000
# 2 41.6869 49.8902 44.6459 0.0000 -1.1791 0.0000
# 3 49.7474 44.6459 90.0779 0.0000 3.3282 0.0000
# 4 0.0000 0.0000 0.0000 24.0732 0.0000 -2.1752
# 5 4.8753 -1.1791 3.3282 0.0000 12.2820 0.0000
# 6 0.0000 0.0000 0.0000 -2.1752 0.0000 20.5385
#
#
#
# Elastic Compliance Matrix: (Units=1/GPa)
#
#
# Indices 1 2 3 4 5 6 
#
# 1 0.017021 -0.011138 -0.003627 0.000000 -0.006843 0.000000
# 2 -0.011138 0.044184 -0.016230 0.000000 0.013061 0.000000
# 3 -0.003627 -0.016230 0.021367 0.000000 -0.005909 0.000000
# 4 0.000000 0.000000 0.000000 0.041941 0.000000 0.004442
# 5 -0.006843 0.013061 -0.005909 0.000000 0.086991 0.000000
# 6 0.000000 0.000000 0.000000 0.004442 0.000000 0.049159
#
#
# Mechanical properties :
#
#
# Convention : Reuss Voigt Hill
#
# Bulk Modulus (GPa) = 48.58858 56.74671 52.66764
# Shear Modulus (GPa) = 15.17385 18.21075 16.69230
#
# Velocity S-wave (km/s) = 3.14351 3.44374 3.29704
# Velocity P-wave (km/s) = 6.69461 7.26413 6.98518
#
# Compressibility (1/GPa) = 0.02058097
#
# Stress axis : x y z
#
# Youngs Moduli (GPa) = 58.75222 22.63272 46.80104
#
# Poissons Ratio (x) = 0.25209 0.16973
# Poissons Ratio (y) = 0.65440 0.75960
# Poissons Ratio (z) = 0.21307 0.36734
#
# Static dielectric constant tensor:
#      x y z
#    x 1.556570 0.000000 -0.019520 
#    y 0.000000 1.517490 0.000000 
#    z -0.019520 0.000000 1.479840 
# 
# From -- ./inp_files/42605.got.cif
#   From: 2010.05.17/outbox.cif.g08.bks.cpg/sg11_22_cif.got.tgz:42605.got - 2010.06.03 12:22:45.
