data_PCOD9156508
_publ_section_title
;
Structure prediction by ZEFSAII (Michael W. Deem and Ramdas Pophale) SiO2 
 PCOD9156508
Probable space group: P 21/M
;
_chemical_formula_sum "Si O2"
_cell_formula_units_Z 32
_cell_length_a 19.767310
_cell_length_b 7.380066
_cell_length_c 28.307385
_cell_angle_alpha 90.000000
_cell_angle_beta 22.140250
_cell_angle_gamma 90.000000
_cell_volume 1556.341722
_symmetry_space_group_name_H-M "P 21/M"
_symmetry_group_IT_number 11
_symmetry_cell_setting 'monoclinic'
loop_
_space_group_symop_operation_xyz
x,y,z
-x,1/2+y,-z
-x,-y,-z
x,1/2-y,z
loop_
_atom_site_type_symbol
_atom_site_label
_atom_site_fract_x
_atom_site_fract_y
_atom_site_fract_z
Si Si1 0.703622 0.966438 0.382099
Si Si2 0.855214 0.527042 0.384727
Si Si3 0.580229 0.971334 0.837481
Si Si4 0.056723 0.962469 0.112951
Si Si5 0.418677 0.527562 0.840238
Si Si6 0.224036 0.962126 0.110925
Si Si7 0.323025 0.455208 0.406117
Si Si8 0.979870 0.534770 0.568759
O O1 0.727752 0.750000 0.367576
O O2 0.756970 0.029083 0.400016
O O3 0.856239 0.037675 0.247373
O O4 0.500000 0.000000 0.500000
O O5 0.860829 0.750000 0.382271
O O6 0.743877 0.462522 0.501668
O O7 0.063949 0.465709 0.247381
O O8 0.577353 0.750000 0.840234
O O9 0.521329 0.023646 0.822273
O O10 0.784535 0.029053 0.712689
O O11 0.425599 0.035272 0.973762
O O12 0.041971 0.750000 0.110444
O O13 0.139310 0.972533 0.112714
O O14 0.213479 0.035494 0.978255
O O15 0.421050 0.750000 0.838430
O O16 0.523342 0.463236 0.726397
O O17 0.243557 0.750000 0.110087
O O18 0.381865 0.250000 0.379073
O O19 0.145708 0.449312 0.488490
O O20 0.989770 0.750000 0.569967
O O21 0.000000 0.500000 0.500000
#
# Coordination Sequence:
#
# PCOD9156508 Si02
#       8
#     4   4   4   4   4   4   4   4
#     4   9  16  28  47  71  91 111 141 177 217 258
#     4   8  15  27  44  66  90 114 144 180 216 260
#     4   8  13  22  38  59  81 107 144 186 219 248
#     4   7  11  20  38  63  85 104 140 183 206 238
#     4   8  12  21  39  62  82 106 144 185 213 242
#     4   7  10  20  38  59  81 107 142 182 214 243
#     4  10  18  29  45  65  89 116 146 183 225 264
#     4  11  20  30  43  63  89 117 151 190 227 263
#
# _framework density 20.561036000000001
#
# number of rings (size 3 to 8) (size 9 to 14) (size 15 to 20)
#    0.000    3.500    1.250    3.375    0.000    0.000 
#    0.000    1.250    0.000    1.500    0.000    0.875 
#    0.000    0.000    0.000    0.000    0.000    0.000 
#
# Total GULP energy -178261.235913 kJ/mol
# GULP energy per Si atom -5570.663622 kJ/mol
# Density = 2.051424 g / cm^3
# Si number density = 20.561036 Si / 1000 Ang^3
#
#
#
# Elastic Constant Matrix: (Units=GPa)
#
#
# Indices 1 2 3 4 5 6 
#
# 1 43.8838 -2.4294 56.2915 0.0000 18.6464 0.0000
# 2 -2.4294 74.5957 6.3643 0.0000 4.2466 0.0000
# 3 56.2915 6.3643 220.8082 0.0000 24.4327 0.0000
# 4 0.0000 0.0000 0.0000 4.0640 0.0000 -9.5010
# 5 18.6464 4.2466 24.4327 0.0000 33.1239 0.0000
# 6 0.0000 0.0000 0.0000 -9.5010 0.0000 -0.3959
#
#
#
# Elastic Compliance Matrix: (Units=1/GPa)
#
#
# Indices 1 2 3 4 5 6 
#
# 1 0.041570 0.003088 -0.008769 0.000000 -0.017329 0.000000
# 2 0.003088 0.013743 -0.000867 0.000000 -0.002861 0.000000
# 3 -0.008769 -0.000867 0.006785 0.000000 0.000043 0.000000
# 4 0.000000 0.000000 0.000000 0.004308 0.000000 -0.103409
# 5 -0.017329 -0.002861 0.000043 0.000000 0.040279 0.000000
# 6 0.000000 0.000000 0.000000 -0.103409 0.000000 -0.044233
#
#
# Mechanical properties :
#
#
# Convention : Reuss Voigt Hill
#
# Bulk Modulus (GPa) = 20.40716 51.08227 35.74472
# Shear Modulus (GPa) = 54.41757 25.96250 40.19003
#
# Velocity S-wave (km/s) = 5.15013 3.55731 4.42596
# Velocity P-wave (km/s) = 6.73140 6.46303 6.59858
#
# Compressibility (1/GPa) = 0.04900241
#
# Stress axis : x y z
#
# Youngs Moduli (GPa) = 24.05584 72.76420 147.39285
#
# Poissons Ratio (x) = -0.22473 1.29251
# Poissons Ratio (y) = -0.07430 0.12777
# Poissons Ratio (z) = 0.21095 0.06308
#
# Static dielectric constant tensor:
#      x y z
#    x 1.694080 0.000000 0.026760 
#    y 0.000000 1.815360 0.000000 
#    z 0.026760 0.000000 1.797820 
# 
# From -- ./inp_files/71896.got.cif
#   From: 2010.05.17/outbox.cif.g08.bks.cpg/sg11_36_cif.got.tgz:71896.got - 2010.06.03 12:22:45.
