data_PCOD9157036
_publ_section_title
;
Structure prediction by ZEFSAII (Michael W. Deem and Ramdas Pophale) SiO2 
 PCOD9157036
Probable space group: P 21/M
;
_chemical_formula_sum "Si O2"
_cell_formula_units_Z 32
_cell_length_a 28.378970
_cell_length_b 8.869786
_cell_length_c 20.117087
_cell_angle_alpha 90.000000
_cell_angle_beta 155.777428
_cell_angle_gamma 90.000000
_cell_volume 2077.579663
_symmetry_space_group_name_H-M "P 21/M"
_symmetry_group_IT_number 11
_symmetry_cell_setting 'monoclinic'
loop_
_space_group_symop_operation_xyz
x,y,z
-x,1/2+y,-z
-x,-y,-z
x,1/2-y,z
loop_
_atom_site_type_symbol
_atom_site_label
_atom_site_fract_x
_atom_site_fract_y
_atom_site_fract_z
Si Si1 0.706393 0.571697 0.510655
Si Si2 0.916899 0.929459 0.699007
Si Si3 0.229449 0.932173 0.885022
Si Si4 0.470724 0.429797 0.168208
Si Si5 0.075233 0.570355 0.155128
Si Si6 0.005654 0.568641 0.670079
Si Si7 0.168740 0.928215 0.657306
Si Si8 0.434132 0.929179 0.976948
O O1 0.694435 0.750000 0.506696
O O2 0.584645 0.492510 0.349780
O O3 0.795323 0.497917 0.677298
O O4 0.779847 0.551668 0.536249
O O5 0.939927 0.750000 0.734977
O O6 0.960008 0.983169 0.683172
O O7 0.970022 0.015907 0.830526
O O8 0.244559 0.750000 0.903706
O O9 0.136127 0.974674 0.820223
O O10 0.176377 0.974280 0.744504
O O11 0.353284 0.008338 0.049541
O O12 0.470643 0.250000 0.167136
O O13 0.470477 0.494110 0.092755
O O14 0.077694 0.750000 0.154280
O O15 0.000000 0.500000 0.000000
O O16 0.001539 0.750000 0.665127
O O17 0.923313 0.512266 0.505640
O O18 0.143874 0.750000 0.623663
O O19 0.297069 0.952150 0.794206
O O20 0.454851 0.750000 0.008163
O O21 0.500000 0.000000 0.000000
#
# Coordination Sequence:
#
# PCOD9157036 Si02
#       8
#     4   4   4   4   4   4   4   4
#     4   9  18  33  51  72 101 130 158 195 241 287
#     4   8  18  32  47  73 102 130 161 195 243 293
#     4   9  19  35  50  66  92 129 169 212 256 293
#     4  11  21  33  49  69  93 125 166 206 245 292
#     4  10  18  31  51  77 107 135 161 191 232 288
#     4  10  19  32  51  71  94 126 166 208 252 298
#     4   9  19  32  45  65  92 123 163 209 255 297
#     4  10  21  34  46  64  91 124 161 203 252 301
#
# _framework density 15.402538
#
# number of rings (size 3 to 8) (size 9 to 14) (size 15 to 20)
#    0.750    1.750    0.000    3.750    1.750    3.500 
#    0.000    0.000    0.000    0.000    0.000    0.875 
#    0.000    0.000    0.000    0.000    0.000    0.000 
#
# Total GULP energy -178209.951744 kJ/mol
# GULP energy per Si atom -5569.060992 kJ/mol
# Density = 1.536748 g / cm^3
# Si number density = 15.402538 Si / 1000 Ang^3
#
#
#
# Elastic Constant Matrix: (Units=GPa)
#
#
# Indices 1 2 3 4 5 6 
#
# 1 57.9200 32.4875 48.5614 0.0000 6.9717 0.0000
# 2 32.4875 75.8402 56.8444 0.0000 6.3977 0.0000
# 3 48.5614 56.8444 122.5922 0.0000 -1.6180 0.0000
# 4 0.0000 0.0000 0.0000 28.1801 0.0000 -1.4268
# 5 6.9717 6.3977 -1.6180 0.0000 7.5266 0.0000
# 6 0.0000 0.0000 0.0000 -1.4268 0.0000 18.0393
#
#
#
# Elastic Compliance Matrix: (Units=1/GPa)
#
#
# Indices 1 2 3 4 5 6 
#
# 1 0.032479 -0.002070 -0.012315 0.000000 -0.030973 0.000000
# 2 -0.002070 0.023565 -0.010375 0.000000 -0.020343 0.000000
# 3 -0.012315 -0.010375 0.018165 0.000000 0.024131 0.000000
# 4 0.000000 0.000000 0.000000 0.035629 0.000000 0.002818
# 5 -0.030973 -0.020343 0.024131 0.000000 0.184031 0.000000
# 6 0.000000 0.000000 0.000000 0.002818 0.000000 0.055657
#
#
# Mechanical properties :
#
#
# Convention : Reuss Voigt Hill
#
# Bulk Modulus (GPa) = 40.50417 59.12656 49.81536
# Shear Modulus (GPa) = 12.27668 18.64647 15.46158
#
# Velocity S-wave (km/s) = 2.82628 3.48316 3.17177
# Velocity P-wave (km/s) = 6.08314 7.39239 6.76949
#
# Compressibility (1/GPa) = 0.02468882
#
# Stress axis : x y z
#
# Youngs Moduli (GPa) = 30.78885 42.43554 55.05210
#
# Poissons Ratio (x) = 0.08785 0.67795
# Poissons Ratio (y) = 0.06374 0.57118
# Poissons Ratio (z) = 0.37915 0.44028
#
# Static dielectric constant tensor:
#      x y z
#    x 1.514370 0.000000 0.017770 
#    y 0.000000 1.510130 0.000000 
#    z 0.017770 0.000000 1.498640 
# 
# From -- ./inp_files/67453.got.cif
#   From: 2010.05.17/outbox.cif.g08.bks.cpg/sg11_34_cif.got.tgz:67453.got - 2010.06.03 12:22:45.
