data_PCOD9157409
_publ_section_title
;
Structure prediction by ZEFSAII (Michael W. Deem and Ramdas Pophale) SiO2 
 PCOD9157409
Probable space group: P 21/M
;
_chemical_formula_sum "Si O2"
_cell_formula_units_Z 32
_cell_length_a 12.256290
_cell_length_b 8.093616
_cell_length_c 21.077416
_cell_angle_alpha 90.000000
_cell_angle_beta 47.535631
_cell_angle_gamma 90.000000
_cell_volume 1542.400659
_symmetry_space_group_name_H-M "P 21/M"
_symmetry_group_IT_number 11
_symmetry_cell_setting 'monoclinic'
loop_
_space_group_symop_operation_xyz
x,y,z
-x,1/2+y,-z
-x,-y,-z
x,1/2-y,z
loop_
_atom_site_type_symbol
_atom_site_label
_atom_site_fract_x
_atom_site_fract_y
_atom_site_fract_z
Si Si1 0.889007 0.552079 0.208129
Si Si2 0.382227 0.446966 0.240045
Si Si3 0.136565 0.559994 0.012167
Si Si4 0.739720 0.069132 0.836950
Si Si5 0.303201 0.951049 0.825986
Si Si6 0.633959 0.566521 0.990448
Si Si7 0.053339 0.550805 0.409804
Si Si8 0.074863 0.063852 0.664763
O O1 0.917356 0.750000 0.203996
O O2 0.743399 0.517998 0.224101
O O3 0.876927 0.489252 0.285780
O O4 0.018549 0.487526 0.108921
O O5 0.388345 0.250000 0.229431
O O6 0.375360 0.528344 0.173002
O O7 0.530776 0.499390 0.218320
O O8 0.223000 0.489923 0.333285
O O9 0.094540 0.750000 0.018917
O O10 0.179955 0.488113 0.926278
O O11 0.295439 0.549923 0.985087
O O12 0.710989 0.250000 0.876958
O O13 0.898818 0.078787 0.743703
O O14 0.750901 0.934993 0.886723
O O15 0.297273 0.750000 0.828140
O O16 0.616089 0.750000 0.022151
O O17 0.500000 0.500000 0.000000
O O18 0.054539 0.750000 0.404180
O O19 0.000000 0.500000 0.500000
O O20 0.935395 0.487434 0.402004
O O21 0.140554 0.250000 0.634638
#
# Coordination Sequence:
#
# PCOD9157409 Si02
#       8
#     4   4   4   4   4   4   4   4
#     4  10  19  34  56  77 105 148 193 233 274 326
#     4  10  20  35  54  80 115 149 185 225 275 331
#     4  10  20  36  53  72 105 146 191 241 284 323
#     4  10  18  33  53  73 102 135 174 221 274 329
#     4  10  22  36  51  75 109 148 190 240 282 316
#     4  12  23  32  46  69  98 135 179 228 282 336
#     4  10  20  36  61  90 117 143 174 218 278 343
#     4   8  16  32  54  80 108 139 171 213 271 325
#
# _framework density 20.746877999999999
#
# number of rings (size 3 to 8) (size 9 to 14) (size 15 to 20)
#    0.000    2.000    1.250    4.125    0.000    3.000 
#    0.000    1.250    0.000    0.750    0.000    0.000 
#    0.000    0.000    0.000    0.000    0.000    0.000 
#
# Total GULP energy -178140.273379 kJ/mol
# GULP energy per Si atom -5566.883543 kJ/mol
# Density = 2.069966 g / cm^3
# Si number density = 20.746878 Si / 1000 Ang^3
#
#
#
# Elastic Constant Matrix: (Units=GPa)
#
#
# Indices 1 2 3 4 5 6 
#
# 1 163.0322 12.0501 39.9089 0.0000 36.4222 0.0000
# 2 12.0501 49.2180 9.1724 0.0000 2.4538 0.0000
# 3 39.9089 9.1724 73.4459 0.0000 30.5072 0.0000
# 4 0.0000 0.0000 0.0000 24.0254 0.0000 2.2535
# 5 36.4222 2.4538 30.5072 0.0000 37.4126 0.0000
# 6 0.0000 0.0000 0.0000 2.2535 0.0000 25.3494
#
#
#
# Elastic Compliance Matrix: (Units=1/GPa)
#
#
# Indices 1 2 3 4 5 6 
#
# 1 0.008062 -0.001369 -0.001492 0.000000 -0.006542 0.000000
# 2 -0.001369 0.021067 -0.002823 0.000000 0.002253 0.000000
# 3 -0.001492 -0.002823 0.021320 0.000000 -0.015746 0.000000
# 4 0.000000 0.000000 0.000000 0.041973 0.000000 -0.003731
# 5 -0.006542 0.002253 -0.015746 0.000000 0.045790 0.000000
# 6 0.000000 0.000000 0.000000 -0.003731 0.000000 0.039780
#
#
# Mechanical properties :
#
#
# Convention : Reuss Voigt Hill
#
# Bulk Modulus (GPa) = 25.58932 45.32877 35.45904
# Shear Modulus (GPa) = 24.70526 32.32846 28.51686
#
# Velocity S-wave (km/s) = 3.45453 3.95173 3.71147
# Velocity P-wave (km/s) = 5.31719 6.53586 5.95777
#
# Compressibility (1/GPa) = 0.03907881
#
# Stress axis : x y z
#
# Youngs Moduli (GPa) = 124.04308 47.46809 46.90539
#
# Poissons Ratio (x) = 0.06501 0.07000
# Poissons Ratio (y) = 0.16988 0.13240
# Poissons Ratio (z) = 0.18512 0.13399
#
# Static dielectric constant tensor:
#      x y z
#    x 1.824500 0.000000 -0.009870 
#    y 0.000000 1.787480 0.000000 
#    z -0.009870 0.000000 1.855590 
# 
# From -- ./inp_files/40636.got.cif
#   From: 2010.05.17/outbox.cif.g08.bks.cpg/sg11_21_cif.got.tgz:40636.got - 2010.06.03 12:22:45.
