data_PCOD9157165
_publ_section_title
;
Structure prediction by ZEFSAII (Michael W. Deem and Ramdas Pophale) SiO2 
 PCOD9157165
Probable space group: P 21/M
;
_chemical_formula_sum "Si O2"
_cell_formula_units_Z 20
_cell_length_a 14.898863
_cell_length_b 14.058106
_cell_length_c 9.258323
_cell_angle_alpha 90.000000
_cell_angle_beta 37.387457
_cell_angle_gamma 90.000000
_cell_volume 1177.457935
_symmetry_space_group_name_H-M "P 21/M"
_symmetry_group_IT_number 11
_symmetry_cell_setting 'monoclinic'
loop_
_space_group_symop_operation_xyz
x,y,z
-x,1/2+y,-z
-x,-y,-z
x,1/2-y,z
loop_
_atom_site_type_symbol
_atom_site_label
_atom_site_fract_x
_atom_site_fract_y
_atom_site_fract_z
Si Si1 0.271259 0.947885 0.809684
Si Si2 0.011669 0.493979 0.655427
Si Si3 0.580134 0.641662 0.461075
Si Si4 0.067043 0.861805 0.833154
Si Si5 0.193295 0.142393 0.595969
O O1 0.406626 0.878469 0.672115
O O2 0.198078 0.917196 0.750036
O O3 0.338809 0.054561 0.723672
O O4 0.136958 0.944782 0.093334
O O5 0.149643 0.429893 0.528367
O O6 0.000000 0.500000 0.500000
O O7 0.075900 0.371742 0.878539
O O8 0.615277 0.750000 0.368081
O O9 0.646252 0.632957 0.537947
O O10 0.099931 0.750000 0.778718
O O11 0.030848 0.910326 0.726578
O O12 0.173088 0.250000 0.570688
#
# Coordination Sequence:
#
# PCOD9157165 Si02
#       5
#     4   4   4   4   4
#     4  10  19  34  54  81 104 131 175 217 260 306
#     4  11  21  34  50  78 110 141 170 208 258 312
#     4  10  18  31  57  81 101 130 173 225 262 297
#     4  10  18  33  54  76 102 134 177 220 255 297
#     4   9  17  33  55  75  99 134 179 217 253 299
#
# _framework density 16.985744
#
# number of rings (size 3 to 8) (size 9 to 14) (size 15 to 20)
#    0.000    2.000    4.000    1.800    0.000    1.600 
#    0.000    1.000    0.000    0.000    0.000    0.000 
#    0.000    0.000    0.000    0.000    0.000    0.000 
#
# Total GULP energy -111407.173566 kJ/mol
# GULP energy per Si atom -5570.358678 kJ/mol
# Density = 1.694708 g / cm^3
# Si number density = 16.985744 Si / 1000 Ang^3
#
#
#
# Elastic Constant Matrix: (Units=GPa)
#
#
# Indices 1 2 3 4 5 6 
#
# 1 119.1141 41.7865 41.2557 0.0000 5.2445 0.0000
# 2 41.7865 89.7789 3.6604 0.0000 6.1391 0.0000
# 3 41.2557 3.6604 28.8212 0.0000 1.8210 0.0000
# 4 0.0000 0.0000 0.0000 13.6778 0.0000 -9.3502
# 5 5.2445 6.1391 1.8210 0.0000 37.0741 0.0000
# 6 0.0000 0.0000 0.0000 -9.3502 0.0000 23.7952
#
#
#
# Elastic Compliance Matrix: (Units=1/GPa)
#
#
# Indices 1 2 3 4 5 6 
#
# 1 0.022171 -0.009064 -0.030577 0.000000 -0.000134 0.000000
# 2 -0.009064 0.015021 0.011177 0.000000 -0.001754 0.000000
# 3 -0.030577 0.011177 0.077130 0.000000 -0.001314 0.000000
# 4 0.000000 0.000000 0.000000 0.099964 0.000000 0.039280
# 5 -0.000134 -0.001754 -0.001314 0.000000 0.027347 0.000000
# 6 0.000000 0.000000 0.000000 0.039280 0.000000 0.057460
#
#
# Mechanical properties :
#
#
# Convention : Reuss Voigt Hill
#
# Bulk Modulus (GPa) = 17.42326 45.67993 31.55159
# Shear Modulus (GPa) = 13.32789 24.97686 19.15238
#
# Velocity S-wave (km/s) = 2.80420 3.83882 3.36155
# Velocity P-wave (km/s) = 4.55682 6.82643 5.80365
#
# Compressibility (1/GPa) = 0.05739455
#
# Stress axis : x y z
#
# Youngs Moduli (GPa) = 45.10304 66.57224 12.96515
#
# Poissons Ratio (x) = 0.60339 0.39644
# Poissons Ratio (y) = 0.40880 -0.14491
# Poissons Ratio (z) = 1.37914 -0.74408
#
# Static dielectric constant tensor:
#      x y z
#    x 1.583990 0.000000 -0.029600 
#    y 0.000000 1.624620 0.000000 
#    z -0.029600 0.000000 1.550640 
# 
# From -- ./inp_files/17333.got.cif
#   From: 2010.05.17/outbox.cif.g08.bks.cpg/sg11_9_cif.got.tgz:17333.got - 2010.06.03 12:22:45.
