data_PCOD9157427
_publ_section_title
;
Structure prediction by ZEFSAII (Michael W. Deem and Ramdas Pophale) SiO2 
 PCOD9157427
Probable space group: P 21/M
;
_chemical_formula_sum "Si O2"
_cell_formula_units_Z 32
_cell_length_a 27.057327
_cell_length_b 7.776261
_cell_length_c 20.999948
_cell_angle_alpha 90.000000
_cell_angle_beta 21.121829
_cell_angle_gamma 90.000000
_cell_volume 1592.212934
_symmetry_space_group_name_H-M "P 21/M"
_symmetry_group_IT_number 11
_symmetry_cell_setting 'monoclinic'
loop_
_space_group_symop_operation_xyz
x,y,z
-x,1/2+y,-z
-x,-y,-z
x,1/2-y,z
loop_
_atom_site_type_symbol
_atom_site_label
_atom_site_fract_x
_atom_site_fract_y
_atom_site_fract_z
Si Si1 0.344667 0.452459 0.703377
Si Si2 0.609179 0.950737 0.962307
Si Si3 0.402142 0.039159 0.883482
Si Si4 0.286402 0.539380 0.520205
Si Si5 0.316230 0.045052 0.264106
Si Si6 0.901204 0.042542 0.372258
Si Si7 0.784407 0.538734 0.010257
Si Si8 0.840150 0.045759 0.194955
O O1 0.500000 0.500000 0.500000
O O2 0.344393 0.250000 0.712403
O O3 0.289312 0.524848 0.836796
O O4 0.242570 0.492021 0.768192
O O5 0.646891 0.750000 0.919794
O O6 0.679299 0.022068 0.813994
O O7 0.636732 0.023712 0.999099
O O8 0.446026 0.964991 0.145035
O O9 0.402610 0.250000 0.884492
O O10 0.557511 0.986368 0.680298
O O11 0.299467 0.985571 0.951320
O O12 0.285302 0.750000 0.521772
O O13 0.187230 0.482758 0.582212
O O14 0.229996 0.478156 0.656041
O O15 0.340448 0.250000 0.233246
O O16 0.179073 0.009119 0.467632
O O17 0.902880 0.250000 0.367858
O O18 0.057654 0.982828 0.181390
O O19 0.784461 0.750000 0.010580
O O20 0.830684 0.250000 0.209671
O O21 0.000000 0.000000 0.000000
#
# Coordination Sequence:
#
# PCOD9157427 Si02
#       8
#     4   4   4   4   4   4   4   4
#     4  11  22  39  60  83 111 146 187 232 281 337
#     4   9  17  31  53  76 102 136 175 213 256 312
#     4   9  15  29  53  78  97 126 177 225 252 291
#     4   9  17  30  53  76  98 132 178 221 258 309
#     4  10  19  30  48  78 109 135 166 213 267 315
#     4  10  18  33  54  76 101 137 179 216 255 308
#     4   9  19  33  54  79 104 137 182 223 256 311
#     4  11  22  37  57  83 112 144 183 232 282 332
#
# _framework density 20.097814
#
# number of rings (size 3 to 8) (size 9 to 14) (size 15 to 20)
#    0.000    2.250    1.250    2.625    0.000    4.500 
#    0.000    4.375    0.000    1.500    0.000    0.000 
#    0.000    0.000    0.000    0.000    0.000    0.000 
#
# Total GULP energy -178663.801170 kJ/mol
# GULP energy per Si atom -5583.243787 kJ/mol
# Density = 2.005207 g / cm^3
# Si number density = 20.097814 Si / 1000 Ang^3
#
#
#
# Elastic Constant Matrix: (Units=GPa)
#
#
# Indices 1 2 3 4 5 6 
#
# 1 196.8472 2.1625 108.4467 0.0000 9.6495 0.0000
# 2 2.1625 26.1670 -3.2746 0.0000 1.1611 0.0000
# 3 108.4467 -3.2746 130.5801 0.0000 7.2571 0.0000
# 4 0.0000 0.0000 0.0000 19.2484 0.0000 3.2771
# 5 9.6495 1.1611 7.2571 0.0000 39.8448 0.0000
# 6 0.0000 0.0000 0.0000 3.2771 0.0000 14.6612
#
#
#
# Elastic Compliance Matrix: (Units=1/GPa)
#
#
# Indices 1 2 3 4 5 6 
#
# 1 0.009471 -0.001731 -0.007864 0.000000 -0.000811 0.000000
# 2 -0.001731 0.038720 0.002473 0.000000 -0.001160 0.000000
# 3 -0.007864 0.002473 0.014294 0.000000 -0.000771 0.000000
# 4 0.000000 0.000000 0.000000 0.054008 0.000000 -0.012072
# 5 -0.000811 -0.001160 -0.000771 0.000000 0.025468 0.000000
# 6 0.000000 0.000000 0.000000 -0.012072 0.000000 0.070905
#
#
# Mechanical properties :
#
#
# Convention : Reuss Voigt Hill
#
# Bulk Modulus (GPa) = 20.72913 63.14036 41.93474
# Shear Modulus (GPa) = 20.55987 31.16820 25.86403
#
# Velocity S-wave (km/s) = 3.20189 3.94232 3.59124
# Velocity P-wave (km/s) = 4.89959 7.22546 6.17306
#
# Compressibility (1/GPa) = 0.04824129
#
# Stress axis : x y z
#
# Youngs Moduli (GPa) = 105.57998 25.82637 69.95753
#
# Poissons Ratio (x) = 0.04470 0.55017
# Poissons Ratio (y) = 0.18275 -0.17300
# Poissons Ratio (z) = 0.83032 -0.06387
#
# Static dielectric constant tensor:
#      x y z
#    x 1.705050 0.000000 0.038450 
#    y 0.000000 1.744150 0.000000 
#    z 0.038450 0.000000 1.678440 
# 
# From -- ./inp_files/66944.got.cif
#   From: 2010.05.17/outbox.cif.g08.bks.cpg/sg11_34_cif.got.tgz:66944.got - 2010.06.03 12:22:45.
