data_PCOD9157996
_publ_section_title
;
Structure prediction by ZEFSAII (Michael W. Deem and Ramdas Pophale) SiO2 
 PCOD9157996
Probable space group: P 21/M
;
_chemical_formula_sum "Si O2"
_cell_formula_units_Z 28
_cell_length_a 11.647527
_cell_length_b 9.110775
_cell_length_c 22.113803
_cell_angle_alpha 90.000000
_cell_angle_beta 49.520462
_cell_angle_gamma 90.000000
_cell_volume 1784.967933
_symmetry_space_group_name_H-M "P 21/M"
_symmetry_group_IT_number 11
_symmetry_cell_setting 'monoclinic'
loop_
_space_group_symop_operation_xyz
x,y,z
-x,1/2+y,-z
-x,-y,-z
x,1/2-y,z
loop_
_atom_site_type_symbol
_atom_site_label
_atom_site_fract_x
_atom_site_fract_y
_atom_site_fract_z
Si Si1 0.106285 0.074163 0.046926
Si Si2 0.779603 0.925335 0.569792
Si Si3 0.758041 0.925928 0.760652
Si Si4 0.658194 0.927090 0.929283
Si Si5 0.016379 0.924002 0.397767
Si Si6 0.511648 0.924629 0.741589
Si Si7 0.798933 0.575065 0.121724
O O1 0.082807 0.250000 0.056708
O O2 0.216433 0.032745 0.063819
O O3 0.183193 0.038832 0.955949
O O4 0.945502 0.994602 0.103111
O O5 0.805504 0.750000 0.572433
O O6 0.607316 0.953525 0.647622
O O7 0.847405 0.956213 0.480287
O O8 0.877888 0.018430 0.583628
O O9 0.774290 0.750000 0.753114
O O10 0.711068 0.970115 0.843998
O O11 0.624565 0.963717 0.758617
O O12 0.913425 0.997018 0.684222
O O13 0.641708 0.750000 0.935898
O O14 0.500000 0.000000 0.000000
O O15 0.031274 0.750000 0.385665
O O16 0.483178 0.750000 0.755128
O O17 0.356458 0.009963 0.800563
O O18 0.801046 0.750000 0.127087
#
# Coordination Sequence:
#
# PCOD9157996 Si02
#       7
#     4   4   4   4   4   4   4
#     4   9  19  34  48  63  86 117 149 179 217 263
#     4   8  15  26  39  59  88 119 148 179 219 264
#     4   9  18  30  43  63  92 123 150 178 219 267
#     4  10  20  33  49  68  91 119 150 183 218 261
#     4   9  15  24  40  61  86 117 151 183 215 257
#     4   9  16  27  43  63  90 120 145 173 215 264
#     4  10  19  30  46  67  88 111 145 187 222 255
#
# _framework density 15.686556
#
# number of rings (size 3 to 8) (size 9 to 14) (size 15 to 20)
#    0.000    2.857    0.000    2.571    0.000    4.571 
#    0.000    0.000    0.000    0.000    0.000    1.000 
#    0.000    0.000    0.000    0.000    0.000    0.000 
#
# Total GULP energy -155902.521851 kJ/mol
# GULP energy per Si atom -5567.947209 kJ/mol
# Density = 1.565085 g / cm^3
# Si number density = 15.686556 Si / 1000 Ang^3
#
#
#
# Elastic Constant Matrix: (Units=GPa)
#
#
# Indices 1 2 3 4 5 6 
#
# 1 76.6433 31.4370 70.7233 0.0000 -12.6992 0.0000
# 2 31.4370 25.5401 50.3465 0.0000 -10.9413 0.0000
# 3 70.7233 50.3465 167.2340 0.0000 -20.3433 0.0000
# 4 0.0000 0.0000 0.0000 29.5717 0.0000 -6.7539
# 5 -12.6992 -10.9413 -20.3433 0.0000 23.0042 0.0000
# 6 0.0000 0.0000 0.0000 -6.7539 0.0000 18.1354
#
#
#
# Elastic Compliance Matrix: (Units=1/GPa)
#
#
# Indices 1 2 3 4 5 6 
#
# 1 0.027173 -0.026972 -0.003482 0.000000 -0.000907 0.000000
# 2 -0.026972 0.134847 -0.025996 0.000000 0.026258 0.000000
# 3 -0.003482 -0.025996 0.015172 0.000000 -0.000869 0.000000
# 4 0.000000 0.000000 0.000000 0.036960 0.000000 0.013764
# 5 -0.000907 0.026258 -0.000869 0.000000 0.054690 0.000000
# 6 0.000000 0.000000 0.000000 0.013764 0.000000 0.060267
#
#
# Mechanical properties :
#
#
# Convention : Reuss Voigt Hill
#
# Bulk Modulus (GPa) = 15.55361 63.82566 39.68963
# Shear Modulus (GPa) = 10.78887 21.93632 16.36259
#
# Velocity S-wave (km/s) = 2.62540 3.74360 3.23320
# Velocity P-wave (km/s) = 4.37345 7.71119 6.26855
#
# Compressibility (1/GPa) = 0.06429377
#
# Stress axis : x y z
#
# Youngs Moduli (GPa) = 36.80070 7.41579 65.90874
#
# Poissons Ratio (x) = 0.20002 0.22948
# Poissons Ratio (y) = 0.99260 1.71333
# Poissons Ratio (z) = 0.12813 0.19278
#
# Static dielectric constant tensor:
#      x y z
#    x 1.493900 0.000000 0.000020 
#    y 0.000000 1.521080 0.000000 
#    z 0.000020 0.000000 1.557370 
# 
# From -- ./inp_files/42375.got.cif
#   From: 2010.05.17/outbox.cif.g08.bks.cpg/sg11_22_cif.got.tgz:42375.got - 2010.06.03 12:22:45.
