data_PCOD9157376
_publ_section_title
;
Structure prediction by ZEFSAII (Michael W. Deem and Ramdas Pophale) SiO2 
 PCOD9157376
Probable space group: P 21/M
;
_chemical_formula_sum "Si O2"
_cell_formula_units_Z 24
_cell_length_a 8.144919
_cell_length_b 18.494228
_cell_length_c 10.143026
_cell_angle_alpha 90.000000
_cell_angle_beta 117.528555
_cell_angle_gamma 90.000000
_cell_volume 1354.898300
_symmetry_space_group_name_H-M "P 21/M"
_symmetry_group_IT_number 11
_symmetry_cell_setting 'monoclinic'
loop_
_space_group_symop_operation_xyz
x,y,z
-x,1/2+y,-z
-x,-y,-z
x,1/2-y,z
loop_
_atom_site_type_symbol
_atom_site_label
_atom_site_fract_x
_atom_site_fract_y
_atom_site_fract_z
Si Si1 0.859544 0.955009 0.535488
Si Si2 0.173068 0.538387 0.218008
Si Si3 0.112266 0.113818 0.044911
Si Si4 0.082923 0.831645 0.774331
Si Si5 0.495639 0.609364 0.906083
Si Si6 0.543504 0.946335 0.214795
O O1 0.700820 0.929093 0.378266
O O2 0.966378 0.889939 0.647375
O O3 0.789514 0.011452 0.620798
O O4 0.000000 0.000000 0.500000
O O5 0.135785 0.463431 0.126807
O O6 0.349836 0.571482 0.212206
O O7 0.000323 0.591690 0.128896
O O8 0.319639 0.141844 0.093310
O O9 0.987715 0.158906 0.100621
O O10 0.046105 0.750000 0.717841
O O11 0.301527 0.848615 0.839302
O O12 0.454577 0.532338 0.819151
O O13 0.553858 0.591978 0.077868
#
# Coordination Sequence:
#
# PCOD9157376 Si02
#       6
#     4   4   4   4   4   4
#     4  11  20  33  55  87 116 148 190 241 286 335
#     4   9  17  30  54  86 115 137 179 237 289 326
#     4   9  18  33  55  84 110 142 184 232 276 335
#     4  11  23  39  56  80 116 154 188 233 292 347
#     4  10  19  34  59  86 110 145 189 235 280 337
#     4  10  18  32  57  89 115 139 188 241 284 328
#
# _framework density 17.713507
#
# number of rings (size 3 to 8) (size 9 to 14) (size 15 to 20)
#    0.000    2.000    3.333    1.500    4.667    0.667 
#    0.000    0.833    0.000    3.000    0.000    0.000 
#    0.000    0.000    0.000    0.000    0.000    0.000 
#
# Total GULP energy -133698.395742 kJ/mol
# GULP energy per Si atom -5570.766489 kJ/mol
# Density = 1.767319 g / cm^3
# Si number density = 17.713507 Si / 1000 Ang^3
#
#
#
# Elastic Constant Matrix: (Units=GPa)
#
#
# Indices 1 2 3 4 5 6 
#
# 1 118.2636 24.6553 24.8785 0.0000 1.1121 0.0000
# 2 24.6553 46.5200 18.9793 0.0000 0.9790 0.0000
# 3 24.8785 18.9793 95.5886 0.0000 6.6667 0.0000
# 4 0.0000 0.0000 0.0000 9.9361 0.0000 2.9150
# 5 1.1121 0.9790 6.6667 0.0000 27.0707 0.0000
# 6 0.0000 0.0000 0.0000 2.9150 0.0000 9.6980
#
#
#
# Elastic Compliance Matrix: (Units=1/GPa)
#
#
# Indices 1 2 3 4 5 6 
#
# 1 0.009738 -0.004490 -0.001655 0.000000 0.000170 0.000000
# 2 -0.004490 0.025463 -0.003903 0.000000 0.000225 0.000000
# 3 -0.001655 -0.003903 0.011856 0.000000 -0.002711 0.000000
# 4 0.000000 0.000000 0.000000 0.110377 0.000000 -0.033177
# 5 0.000170 0.000225 -0.002711 0.000000 0.037593 0.000000
# 6 0.000000 0.000000 0.000000 -0.033177 0.000000 0.113087
#
#
# Mechanical properties :
#
#
# Convention : Reuss Voigt Hill
#
# Bulk Modulus (GPa) = 37.08838 44.15538 40.62188
# Shear Modulus (GPa) = 14.82816 22.13157 18.47986
#
# Velocity S-wave (km/s) = 2.89642 3.53854 3.23346
# Velocity P-wave (km/s) = 5.67178 6.45575 6.07642
#
# Compressibility (1/GPa) = 0.02696262
#
# Stress axis : x y z
#
# Youngs Moduli (GPa) = 102.68835 39.27244 84.34394
#
# Poissons Ratio (x) = 0.17632 0.13959
# Poissons Ratio (y) = 0.46102 0.32919
# Poissons Ratio (z) = 0.16995 0.15328
#
# Static dielectric constant tensor:
#      x y z
#    x 1.690340 0.000000 0.060350 
#    y 0.000000 1.605980 0.000000 
#    z 0.060350 0.000000 1.716970 
# 
# From -- ./inp_files/14107.got.cif
#   From: 2010.05.17/outbox.cif.g08.bks.cpg/sg11_8_cif.got.tgz:14107.got - 2010.06.03 12:22:45.
