data_PCOD9157525
_publ_section_title
;
Structure prediction by ZEFSAII (Michael W. Deem and Ramdas Pophale) SiO2 
 PCOD9157525
Probable space group: P 21/M
;
_chemical_formula_sum "Si O2"
_cell_formula_units_Z 32
_cell_length_a 20.335434
_cell_length_b 16.763557
_cell_length_c 14.170560
_cell_angle_alpha 90.000000
_cell_angle_beta 20.899343
_cell_angle_gamma 90.000000
_cell_volume 1723.228883
_symmetry_space_group_name_H-M "P 21/M"
_symmetry_group_IT_number 11
_symmetry_cell_setting 'monoclinic'
loop_
_space_group_symop_operation_xyz
x,y,z
-x,1/2+y,-z
-x,-y,-z
x,1/2-y,z
loop_
_atom_site_type_symbol
_atom_site_label
_atom_site_fract_x
_atom_site_fract_y
_atom_site_fract_z
Si Si1 0.092333 0.839384 0.470723
Si Si2 0.676568 0.006025 0.828910
Si Si3 0.072659 0.155917 0.517490
Si Si4 0.231719 0.910654 0.940086
Si Si5 0.556698 0.506828 0.192943
Si Si6 0.813808 0.990388 0.191178
Si Si7 0.326196 0.335773 0.916507
Si Si8 0.376302 0.160098 0.630377
O O1 0.175031 0.750000 0.373790
O O2 0.198197 0.917414 0.364489
O O3 0.043732 0.847828 0.424294
O O4 0.893483 0.839356 0.787184
O O5 0.788637 0.921224 0.673966
O O6 0.599949 0.030960 0.035199
O O7 0.500000 0.000000 0.000000
O O8 0.139394 0.250000 0.433833
O O9 0.936767 0.137298 0.787902
O O10 0.290641 0.979456 0.935419
O O11 0.420801 0.859945 0.681030
O O12 0.195360 0.949365 0.886105
O O13 0.358803 0.499516 0.506186
O O14 0.589054 0.599152 0.130890
O O15 0.774466 0.902705 0.202140
O O16 0.000000 0.000000 0.000000
O O17 0.384122 0.250000 0.873363
O O18 0.392584 0.347438 0.721145
O O19 0.324193 0.250000 0.676301
#
# Coordination Sequence:
#
# PCOD9157525 Si02
#       8
#     4   4   4   4   4   4   4   4
#     4  10  21  39  62  90 117 158 210 257 301 358
#     4  12  26  39  61  90 129 166 197 247 312 368
#     4  11  23  39  64  91 120 159 210 256 298 359
#     4  11  20  39  64  86 118 157 207 248 298 353
#     4  11  20  40  60  87 114 160 210 242 293 361
#     4  11  24  38  60  90 126 160 194 245 308 368
#     4  10  18  33  62  89 109 143 203 263 297 338
#     4  10  20  37  60  88 116 155 206 253 298 354
#
# _framework density 18.569790999999999
#
# number of rings (size 3 to 8) (size 9 to 14) (size 15 to 20)
#    0.000    1.250    5.000    2.250    1.750    0.500 
#    0.000    1.875    0.000    0.000    0.000    0.000 
#    0.000    0.000    0.000    0.000    0.000    0.000 
#
# Total GULP energy -178272.905969 kJ/mol
# GULP energy per Si atom -5571.028312 kJ/mol
# Density = 1.852752 g / cm^3
# Si number density = 18.569791 Si / 1000 Ang^3
#
#
#
# Elastic Constant Matrix: (Units=GPa)
#
#
# Indices 1 2 3 4 5 6 
#
# 1 38.5599 4.7442 20.8961 0.0000 -2.4593 0.0000
# 2 4.7442 116.7191 21.1737 0.0000 -12.7090 0.0000
# 3 20.8961 21.1737 58.4093 0.0000 11.8929 0.0000
# 4 0.0000 0.0000 0.0000 15.8219 0.0000 5.9968
# 5 -2.4593 -12.7090 11.8929 0.0000 34.9086 0.0000
# 6 0.0000 0.0000 0.0000 5.9968 0.0000 17.6476
#
#
#
# Elastic Compliance Matrix: (Units=1/GPa)
#
#
# Indices 1 2 3 4 5 6 
#
# 1 0.034136 0.002164 -0.014664 0.000000 0.008189 0.000000
# 2 0.002164 0.010125 -0.005616 0.000000 0.005752 0.000000
# 3 -0.014664 -0.005616 0.026895 0.000000 -0.012240 0.000000
# 4 0.000000 0.000000 0.000000 0.072547 0.000000 -0.024652
# 5 0.008189 0.005752 -0.012240 0.000000 0.035487 0.000000
# 6 0.000000 0.000000 0.000000 -0.024652 0.000000 0.065042
#
#
# Mechanical properties :
#
#
# Convention : Reuss Voigt Hill
#
# Bulk Modulus (GPa) = 28.63317 34.14624 31.38970
# Shear Modulus (GPa) = 17.11713 24.80056 20.95885
#
# Velocity S-wave (km/s) = 3.03937 3.65846 3.36319
# Velocity P-wave (km/s) = 5.26969 6.02277 5.65877
#
# Compressibility (1/GPa) = 0.03492453
#
# Stress axis : x y z
#
# Youngs Moduli (GPa) = 29.29416 98.76938 37.18196
#
# Poissons Ratio (x) = -0.21377 0.54525
# Poissons Ratio (y) = -0.06340 0.20880
# Poissons Ratio (z) = 0.42958 0.55465
#
# Static dielectric constant tensor:
#      x y z
#    x 1.645280 0.000000 0.062210 
#    y 0.000000 1.684880 0.000000 
#    z 0.062210 0.000000 1.677910 
# 
# From -- ./inp_files/54977.got.cif
#   From: 2010.05.17/outbox.cif.g08.bks.cpg/sg11_28_cif.got.tgz:54977.got - 2010.06.03 12:22:45.
