data_PCOD9157514
_publ_section_title
;
Structure prediction by ZEFSAII (Michael W. Deem and Ramdas Pophale) SiO2 
 PCOD9157514
Probable space group: P 21/M
;
_chemical_formula_sum "Si O2"
_cell_formula_units_Z 32
_cell_length_a 15.804296
_cell_length_b 17.421889
_cell_length_c 12.226400
_cell_angle_alpha 90.000000
_cell_angle_beta 25.856176
_cell_angle_gamma 90.000000
_cell_volume 1468.143953
_symmetry_space_group_name_H-M "P 21/M"
_symmetry_group_IT_number 11
_symmetry_cell_setting 'monoclinic'
loop_
_space_group_symop_operation_xyz
x,y,z
-x,1/2+y,-z
-x,-y,-z
x,1/2-y,z
loop_
_atom_site_type_symbol
_atom_site_label
_atom_site_fract_x
_atom_site_fract_y
_atom_site_fract_z
Si Si1 0.621897 0.567659 0.300523
Si Si2 0.704156 0.386374 0.482816
Si Si3 0.448588 0.836469 0.860269
Si Si4 0.433025 0.619937 0.120999
Si Si5 0.777533 0.522346 0.730680
Si Si6 0.927366 0.839204 0.082330
Si Si7 0.826626 0.939759 0.393443
Si Si8 0.812296 0.041933 0.914681
O O1 0.500000 0.500000 0.500000
O O2 0.478126 0.613034 0.387295
O O3 0.736834 0.624454 0.246323
O O4 0.777996 0.518449 0.050458
O O5 0.642466 0.352853 0.673258
O O6 0.764318 0.476260 0.426540
O O7 0.889597 0.346836 0.211803
O O8 0.486611 0.750000 0.783254
O O9 0.640005 0.887508 0.627107
O O10 0.289081 0.875635 0.967705
O O11 0.386013 0.837820 0.061623
O O12 0.322309 0.538731 0.233346
O O13 0.664621 0.602980 0.851562
O O14 0.000000 0.500000 0.500000
O O15 0.703795 0.496793 0.938869
O O16 0.901150 0.750000 0.141776
O O17 0.956173 0.894711 0.153326
O O18 0.956058 0.944831 0.353127
#
# Coordination Sequence:
#
# PCOD9157514 Si02
#       8
#     4   4   4   4   4   4   4   4
#     4  12  22  41  69  97 127 169 225 279 327 389
#     4  12  22  41  72  97 129 174 226 269 326 401
#     4  11  24  41  61  94 138 174 216 280 338 390
#     4  10  21  36  59  93 127 167 210 257 329 398
#     4  10  18  33  59  94 123 150 208 273 318 370
#     4  12  28  44  63  98 139 174 215 279 346 403
#     4  12  22  42  70  96 123 169 229 281 328 389
#     4  11  21  37  65  97 120 162 221 275 321 383
#
# _framework density 21.796227999999999
#
# number of rings (size 3 to 8) (size 9 to 14) (size 15 to 20)
#    0.000    0.750    5.000    4.500    0.000    2.000 
#    0.000    0.000    0.000    0.000    0.000    0.000 
#    0.000    0.000    0.000    0.000    0.000    0.000 
#
# Total GULP energy -178551.855297 kJ/mol
# GULP energy per Si atom -5579.745478 kJ/mol
# Density = 2.174662 g / cm^3
# Si number density = 21.796228 Si / 1000 Ang^3
#
#
#
# Elastic Constant Matrix: (Units=GPa)
#
#
# Indices 1 2 3 4 5 6 
#
# 1 98.0351 1.4788 -8.2440 0.0000 -21.8882 0.0000
# 2 1.4788 81.2429 -13.3895 0.0000 -14.5213 0.0000
# 3 -8.2440 -13.3895 54.0578 0.0000 -18.8710 0.0000
# 4 0.0000 0.0000 0.0000 21.3536 0.0000 -2.9632
# 5 -21.8882 -14.5213 -18.8710 0.0000 45.8925 0.0000
# 6 0.0000 0.0000 0.0000 -2.9632 0.0000 10.8235
#
#
#
# Elastic Compliance Matrix: (Units=1/GPa)
#
#
# Indices 1 2 3 4 5 6 
#
# 1 0.012685 0.002342 0.005704 0.000000 0.009137 0.000000
# 2 0.002342 0.015020 0.007153 0.000000 0.008811 0.000000
# 3 0.005704 0.007153 0.026715 0.000000 0.015969 0.000000
# 4 0.000000 0.000000 0.000000 0.048680 0.000000 0.013327
# 5 0.009137 0.008811 0.015969 0.000000 0.035502 0.000000
# 6 0.000000 0.000000 0.000000 0.013327 0.000000 0.096041
#
#
# Mechanical properties :
#
#
# Convention : Reuss Voigt Hill
#
# Bulk Modulus (GPa) = 11.78979 21.44737 16.61858
# Shear Modulus (GPa) = 21.50388 32.51327 27.00858
#
# Velocity S-wave (km/s) = 3.14441 3.86643 3.52396
# Velocity P-wave (km/s) = 4.31322 5.45836 4.91923
#
# Compressibility (1/GPa) = 0.08481916
#
# Stress axis : x y z
#
# Youngs Moduli (GPa) = 78.83534 66.57793 37.43198
#
# Poissons Ratio (x) = -0.15594 -0.21351
# Poissons Ratio (y) = -0.18465 -0.26777
# Poissons Ratio (z) = -0.44968 -0.47626
#
# Static dielectric constant tensor:
#      x y z
#    x 1.855430 0.000000 0.124080 
#    y 0.000000 1.773250 0.000000 
#    z 0.124080 0.000000 1.987520 
# 
# From -- ./inp_files/39989.got.cif
#   From: 2010.05.17/outbox.cif.g08.bks.cpg/sg11_20_cif.got.tgz:39989.got - 2010.06.03 12:22:45.
