data_PCOD9157937
_publ_section_title
;
Structure prediction by ZEFSAII (Michael W. Deem and Ramdas Pophale) SiO2 
 PCOD9157937
Probable space group: P 21/M
;
_chemical_formula_sum "Si O2"
_cell_formula_units_Z 26
_cell_length_a 11.479125
_cell_length_b 8.141389
_cell_length_c 12.799688
_cell_angle_alpha 90.000000
_cell_angle_beta 63.269820
_cell_angle_gamma 90.000000
_cell_volume 1068.374673
_symmetry_space_group_name_H-M "P 21/M"
_symmetry_group_IT_number 11
_symmetry_cell_setting 'monoclinic'
loop_
_space_group_symop_operation_xyz
x,y,z
-x,1/2+y,-z
-x,-y,-z
x,1/2-y,z
loop_
_atom_site_type_symbol
_atom_site_label
_atom_site_fract_x
_atom_site_fract_y
_atom_site_fract_z
Si Si1 0.604116 0.250000 0.433086
Si Si2 0.375796 0.436468 0.234386
Si Si3 0.217991 0.556481 0.108461
Si Si4 0.145190 0.941397 0.470871
Si Si5 0.918670 0.552442 0.280025
Si Si6 0.460211 0.427516 0.664068
Si Si7 0.147796 0.055324 0.920687
O O1 0.580404 0.389720 0.536841
O O2 0.593672 0.398298 0.350804
O O3 0.420644 0.250000 0.220008
O O4 0.324765 0.477317 0.139852
O O5 0.250046 0.458405 0.361806
O O6 0.484213 0.552254 0.242052
O O7 0.221550 0.750000 0.124481
O O8 0.230695 0.522388 0.980083
O O9 0.070670 0.501643 0.202610
O O10 0.160420 0.750000 0.437898
O O11 0.145536 0.965234 0.595635
O O12 0.000000 0.000000 0.500000
O O13 0.918069 0.750000 0.296122
O O14 0.840661 0.513250 0.205737
O O15 0.386307 0.250000 0.683907
O O16 0.155071 0.250000 0.929570
O O17 0.000000 0.000000 0.000000
#
# Coordination Sequence:
#
# PCOD9157937 Si02
#       7
#     2   4   4   4   4   4   4
#     4   8  16  30  50  68  90 122 148 182 230 284
#     4  12  22  31  46  68  94 126 158 194 234 276
#     4  10  19  30  44  63  88 115 150 196 237 273
#     4  12  23  33  44  60  88 126 162 198 233 269
#     4   9  18  32  46  58  79 116 159 197 231 270
#     4   9  16  30  48  69  92 120 154 184 228 281
#     4   9  17  29  45  61  79 107 151 197 234 272
#
# _framework density 24.336033
#
# number of rings (size 3 to 8) (size 9 to 14) (size 15 to 20)
#    0.462    1.538    2.308    4.615    0.000    3.077 
#    0.000    0.000    0.000    0.000    0.000    0.000 
#    0.000    0.000    0.000    8.308    0.000    4.000 
#
# Total GULP energy -144816.312669 kJ/mol
# GULP energy per Si atom -5569.858180 kJ/mol
# Density = 2.428064 g / cm^3
# Si number density = 24.336033 Si / 1000 Ang^3
#
#
#
# Elastic Constant Matrix: (Units=GPa)
#
#
# Indices 1 2 3 4 5 6 
#
# 1 39.8744 28.1492 32.3601 0.0000 -3.3790 0.0000
# 2 28.1492 118.2094 25.6176 0.0000 12.7273 0.0000
# 3 32.3601 25.6176 104.1196 0.0000 41.8648 0.0000
# 4 0.0000 0.0000 0.0000 61.5920 0.0000 6.7165
# 5 -3.3790 12.7273 41.8648 0.0000 37.2295 0.0000
# 6 0.0000 0.0000 0.0000 6.7165 0.0000 26.9104
#
#
#
# Elastic Compliance Matrix: (Units=1/GPa)
#
#
# Indices 1 2 3 4 5 6 
#
# 1 0.081599 -0.016184 -0.048519 0.000000 0.067498 0.000000
# 2 -0.016184 0.012169 0.007847 0.000000 -0.014453 0.000000
# 3 -0.048519 0.007847 0.046732 0.000000 -0.059637 0.000000
# 4 0.000000 0.000000 0.000000 0.016690 0.000000 -0.004166
# 5 0.067498 -0.014453 -0.059637 0.000000 0.104989 0.000000
# 6 0.000000 0.000000 0.000000 -0.004166 0.000000 0.038200
#
#
# Mechanical properties :
#
#
# Convention : Reuss Voigt Hill
#
# Bulk Modulus (GPa) = 37.32853 48.27305 42.80079
# Shear Modulus (GPa) = 11.81977 36.88481 24.35229
#
# Velocity S-wave (km/s) = 2.20623 3.89735 3.16677
# Velocity P-wave (km/s) = 4.67568 6.33495 5.56748
#
# Compressibility (1/GPa) = 0.02678916
#
# Stress axis : x y z
#
# Youngs Moduli (GPa) = 12.25506 82.17638 21.39859
#
# Poissons Ratio (x) = 1.32993 1.03823
# Poissons Ratio (y) = 0.19833 -0.16792
# Poissons Ratio (z) = 0.59460 -0.64486
#
# Static dielectric constant tensor:
#      x y z
#    x 2.038430 0.000000 0.005190 
#    y 0.000000 1.767880 0.000000 
#    z 0.005190 0.000000 1.960140 
# 
# From -- ./inp_files/37075.got.cif
#   From: 2010.05.17/outbox.cif.g08.bks.cpg/sg11_19_cif.got.tgz:37075.got - 2010.06.03 12:22:45.
