data_PCOD9157967
_publ_section_title
;
Structure prediction by ZEFSAII (Michael W. Deem and Ramdas Pophale) SiO2 
 PCOD9157967
Probable space group: P 21/M
;
_chemical_formula_sum "Si O2"
_cell_formula_units_Z 28
_cell_length_a 18.860731
_cell_length_b 9.060305
_cell_length_c 16.774531
_cell_angle_alpha 90.000000
_cell_angle_beta 142.824440
_cell_angle_gamma 90.000000
_cell_volume 1732.108383
_symmetry_space_group_name_H-M "P 21/M"
_symmetry_group_IT_number 11
_symmetry_cell_setting 'monoclinic'
loop_
_space_group_symop_operation_xyz
x,y,z
-x,1/2+y,-z
-x,-y,-z
x,1/2-y,z
loop_
_atom_site_type_symbol
_atom_site_label
_atom_site_fract_x
_atom_site_fract_y
_atom_site_fract_z
Si Si1 0.409814 0.081173 0.809261
Si Si2 0.675058 0.419449 0.118924
Si Si3 0.834465 0.426082 0.803493
Si Si4 0.091373 0.425493 0.968562
Si Si5 0.583646 0.427136 0.509770
Si Si6 0.505034 0.573080 0.745140
Si Si7 0.250154 0.927775 0.984161
O O1 0.381704 0.250000 0.764418
O O2 0.326616 0.017560 0.803710
O O3 0.420204 0.982735 0.739757
O O4 0.541624 0.079492 0.964813
O O5 0.703043 0.250000 0.164245
O O6 0.751386 0.467802 0.111192
O O7 0.831912 0.250000 0.818810
O O8 0.717889 0.465387 0.650758
O O9 0.953872 0.454825 0.861675
O O10 0.842816 0.513878 0.893781
O O11 0.108902 0.250000 0.976878
O O12 0.143243 0.508474 0.938941
O O13 0.500000 0.500000 0.500000
O O14 0.572960 0.250000 0.506048
O O15 0.544853 0.468653 0.385962
O O16 0.518193 0.750000 0.761335
O O17 0.630839 0.496847 0.872622
O O18 0.256547 0.750000 0.994848
#
# Coordination Sequence:
#
# PCOD9157967 Si02
#       7
#     4   4   4   4   4   4   4
#     4   9  16  26  41  62  89 120 150 182 224 268
#     4   8  15  26  40  60  87 119 150 180 218 267
#     4   9  19  35  50  65  90 121 152 187 227 268
#     4  10  19  31  49  70  90 116 151 189 228 269
#     4  10  21  34  48  67  91 121 153 186 223 263
#     4  10  19  30  45  66  92 122 156 187 220 268
#     4  10  19  30  45  67  95 123 150 184 228 270
#
# _framework density 16.165268999999999
#
# number of rings (size 3 to 8) (size 9 to 14) (size 15 to 20)
#    0.000    2.571    0.000    3.429    0.000    8.571 
#    0.000    0.000    0.000    0.000    0.000    1.000 
#    0.000    0.000    0.000    0.000    0.000    0.000 
#
# Total GULP energy -156082.364116 kJ/mol
# GULP energy per Si atom -5574.370147 kJ/mol
# Density = 1.612848 g / cm^3
# Si number density = 16.165269 Si / 1000 Ang^3
#
#
#
# Elastic Constant Matrix: (Units=GPa)
#
#
# Indices 1 2 3 4 5 6 
#
# 1 127.0334 51.2152 31.7700 0.0000 -22.1487 0.0000
# 2 51.2152 53.7894 22.5713 0.0000 -10.4640 0.0000
# 3 31.7700 22.5713 51.3628 0.0000 -8.3018 0.0000
# 4 0.0000 0.0000 0.0000 16.3117 0.0000 -4.5515
# 5 -22.1487 -10.4640 -8.3018 0.0000 17.9276 0.0000
# 6 0.0000 0.0000 0.0000 -4.5515 0.0000 32.9914
#
#
#
# Elastic Compliance Matrix: (Units=1/GPa)
#
#
# Indices 1 2 3 4 5 6 
#
# 1 0.014786 -0.010895 -0.002630 0.000000 0.010690 0.000000
# 2 -0.010895 0.032377 -0.007145 0.000000 0.002129 0.000000
# 3 -0.002630 -0.007145 0.024900 0.000000 0.004111 0.000000
# 4 0.000000 0.000000 0.000000 0.063760 0.000000 0.008796
# 5 0.010690 0.002129 0.004111 0.000000 0.072134 0.000000
# 6 0.000000 0.000000 0.000000 0.008796 0.000000 0.031525
#
#
# Mechanical properties :
#
#
# Convention : Reuss Voigt Hill
#
# Bulk Modulus (GPa) = 32.54853 49.25540 40.90197
# Shear Modulus (GPa) = 17.17837 21.88807 19.53322
#
# Velocity S-wave (km/s) = 3.26340 3.68369 3.47990
# Velocity P-wave (km/s) = 5.86330 6.97344 6.44232
#
# Compressibility (1/GPa) = 0.03072335
#
# Stress axis : x y z
#
# Youngs Moduli (GPa) = 67.63088 30.88605 40.15994
#
# Poissons Ratio (x) = 0.33651 0.10562
# Poissons Ratio (y) = 0.73685 0.28694
# Poissons Ratio (z) = 0.17787 0.22068
#
# Static dielectric constant tensor:
#      x y z
#    x 1.552950 0.000000 -0.001770 
#    y 0.000000 1.546620 0.000000 
#    z -0.001770 0.000000 1.518240 
# 
# From -- ./inp_files/48732.got.cif
#   From: 2010.05.17/outbox.cif.g08.bks.cpg/sg11_25_cif.got.tgz:48732.got - 2010.06.03 12:22:45.
