data_PCOD9157727
_publ_section_title
;
Structure prediction by ZEFSAII (Michael W. Deem and Ramdas Pophale) SiO2 
 PCOD9157727
Probable space group: P 21/M
;
_chemical_formula_sum "Si O2"
_cell_formula_units_Z 32
_cell_length_a 12.142287
_cell_length_b 19.703195
_cell_length_c 9.391083
_cell_angle_alpha 90.000000
_cell_angle_beta 50.090492
_cell_angle_gamma 90.000000
_cell_volume 1723.381496
_symmetry_space_group_name_H-M "P 21/M"
_symmetry_group_IT_number 11
_symmetry_cell_setting 'monoclinic'
loop_
_space_group_symop_operation_xyz
x,y,z
-x,1/2+y,-z
-x,-y,-z
x,1/2-y,z
loop_
_atom_site_type_symbol
_atom_site_label
_atom_site_fract_x
_atom_site_fract_y
_atom_site_fract_z
Si Si1 0.911459 0.589536 0.841323
Si Si2 0.784598 0.447284 0.426443
Si Si3 0.350098 0.172226 0.587221
Si Si4 0.635581 0.828126 0.081745
Si Si5 0.414699 0.562212 0.143423
Si Si6 0.214244 0.946832 0.067645
Si Si7 0.082616 0.084522 0.819462
Si Si8 0.422456 0.936079 0.637698
O O1 0.798122 0.648933 0.910100
O O2 0.842746 0.520543 0.836926
O O3 0.073198 0.594623 0.650785
O O4 0.924395 0.579107 0.002859
O O5 0.678650 0.461783 0.644096
O O6 0.843370 0.516710 0.305897
O O7 0.691562 0.409563 0.383749
O O8 0.369452 0.250000 0.529967
O O9 0.189001 0.145910 0.695511
O O10 0.461726 0.120940 0.422908
O O11 0.375572 0.165625 0.736930
O O12 0.609504 0.750000 0.064973
O O13 0.525103 0.880267 0.102372
O O14 0.298420 0.588336 0.125275
O O15 0.500000 0.500000 0.000000
O O16 0.075618 0.910386 0.115609
O O17 0.331270 0.959276 0.847795
O O18 0.500000 0.000000 0.500000
#
# Coordination Sequence:
#
# PCOD9157727 Si02
#       8
#     4   4   4   4   4   4   4   4
#     4  10  18  36  59  92 115 144 200 245 292 348
#     4  11  20  34  61  88 116 150 194 246 290 337
#     4  10  21  36  60  89 116 150 200 244 290 355
#     4  10  21  40  60  81 119 161 191 236 296 356
#     4  12  24  38  56  92 122 155 199 243 287 351
#     4  11  21  35  58  88 121 146 189 249 291 334
#     4  10  19  35  59  88 118 150 190 245 301 345
#     4  12  18  34  60  88 112 151 194 241 295 337
#
# _framework density 18.568147
#
# number of rings (size 3 to 8) (size 9 to 14) (size 15 to 20)
#    0.000    1.250    6.250    2.250    0.000    2.000 
#    0.000    3.125    0.000    0.000    0.000    0.000 
#    0.000    0.000    0.000    0.000    0.000    0.000 
#
# Total GULP energy -178642.391856 kJ/mol
# GULP energy per Si atom -5582.574746 kJ/mol
# Density = 1.852588 g / cm^3
# Si number density = 18.568147 Si / 1000 Ang^3
#
#
#
# Elastic Constant Matrix: (Units=GPa)
#
#
# Indices 1 2 3 4 5 6 
#
# 1 111.1339 36.4918 25.6673 0.0000 -17.4504 0.0000
# 2 36.4918 84.2916 16.7290 0.0000 -19.4404 0.0000
# 3 25.6673 16.7290 79.4337 0.0000 -19.8792 0.0000
# 4 0.0000 0.0000 0.0000 15.2149 0.0000 -3.1855
# 5 -17.4504 -19.4404 -19.8792 0.0000 30.0596 0.0000
# 6 0.0000 0.0000 0.0000 -3.1855 0.0000 22.4272
#
#
#
# Elastic Compliance Matrix: (Units=1/GPa)
#
#
# Indices 1 2 3 4 5 6 
#
# 1 0.011151 -0.003803 -0.002154 0.000000 0.002589 0.000000
# 2 -0.003803 0.015284 -0.000082 0.000000 0.007623 0.000000
# 3 -0.002154 -0.000082 0.015550 0.000000 0.008980 0.000000
# 4 0.000000 0.000000 0.000000 0.067740 0.000000 0.009622
# 5 0.002589 0.007623 0.008980 0.000000 0.045639 0.000000
# 6 0.000000 0.000000 0.000000 0.009622 0.000000 0.045955
#
#
# Mechanical properties :
#
#
# Convention : Reuss Voigt Hill
#
# Bulk Modulus (GPa) = 33.43809 48.07057 40.75433
# Shear Modulus (GPa) = 22.38474 26.60509 24.49491
#
# Velocity S-wave (km/s) = 3.47586 3.78939 3.63601
# Velocity P-wave (km/s) = 5.84433 6.71497 6.29472
#
# Compressibility (1/GPa) = 0.02990601
#
# Stress axis : x y z
#
# Youngs Moduli (GPa) = 89.67833 65.42675 64.30934
#
# Poissons Ratio (x) = 0.24880 0.13854
# Poissons Ratio (y) = 0.34102 0.00530
# Poissons Ratio (z) = 0.19319 0.00540
#
# Static dielectric constant tensor:
#      x y z
#    x 1.692520 0.000000 0.002290 
#    y 0.000000 1.622020 0.000000 
#    z 0.002290 0.000000 1.657970 
# 
# From -- ./inp_files/19351.got.cif
#   From: 2010.05.17/outbox.cif.g08.bks.cpg/sg11_10_cif.got.tgz:19351.got - 2010.06.03 12:22:45.
