data_PCOD9157119
_publ_section_title
;
Structure prediction by ZEFSAII (Michael W. Deem and Ramdas Pophale) SiO2 
 PCOD9157119
Probable space group: P 21/M
;
_chemical_formula_sum "Si O2"
_cell_formula_units_Z 28
_cell_length_a 12.002437
_cell_length_b 21.584594
_cell_length_c 7.927835
_cell_angle_alpha 90.000000
_cell_angle_beta 39.493341
_cell_angle_gamma 90.000000
_cell_volume 1306.222648
_symmetry_space_group_name_H-M "P 21/M"
_symmetry_group_IT_number 11
_symmetry_cell_setting 'monoclinic'
loop_
_space_group_symop_operation_xyz
x,y,z
-x,1/2+y,-z
-x,-y,-z
x,1/2-y,z
loop_
_atom_site_type_symbol
_atom_site_label
_atom_site_fract_x
_atom_site_fract_y
_atom_site_fract_z
Si Si1 0.512598 0.679536 0.549587
Si Si2 0.232923 0.627623 0.663272
Si Si3 0.975025 0.063416 0.330797
Si Si4 0.809658 0.928960 0.598266
Si Si5 0.895618 0.820382 0.232469
Si Si6 0.737853 0.994429 0.192514
Si Si7 0.485377 0.937501 0.772152
O O1 0.462553 0.750000 0.641565
O O2 0.419998 0.657438 0.485641
O O3 0.723030 0.675997 0.314404
O O4 0.437700 0.632629 0.779242
O O5 0.233347 0.560551 0.754611
O O6 0.177254 0.611149 0.538905
O O7 0.078046 0.668259 0.924370
O O8 0.103725 0.087234 0.325011
O O9 0.097335 0.049021 0.027112
O O10 0.891157 0.996374 0.463773
O O11 0.869111 0.874936 0.399809
O O12 0.602088 0.937251 0.802846
O O13 0.893914 0.750000 0.304942
O O14 0.609148 0.958672 0.469179
O O15 0.670106 0.014093 0.082894
#
# Coordination Sequence:
#
# PCOD9157119 Si02
#       7
#     4   4   4   4   4   4   4
#     4   9  19  33  52  78 104 132 182 230 263 317
#     4  11  19  33  56  82 105 141 177 230 279 313
#     4  11  20  31  52  78 116 140 173 220 275 333
#     4  10  20  34  49  78 111 148 174 213 275 332
#     4  10  20  37  59  78 103 143 189 229 269 325
#     4  10  18  31  53  81 107 137 177 235 269 322
#     4   9  18  32  53  76 107 143 180 223 284 310
#
# _framework density 21.435856999999999
#
# number of rings (size 3 to 8) (size 9 to 14) (size 15 to 20)
#    0.000    2.000    2.857    2.571    0.000    0.571 
#    0.000    1.429    0.000    0.857    0.000    4.000 
#    0.000    0.000    0.000    0.000    0.000    0.000 
#
# Total GULP energy -156114.230171 kJ/mol
# GULP energy per Si atom -5575.508220 kJ/mol
# Density = 2.138707 g / cm^3
# Si number density = 21.435857 Si / 1000 Ang^3
#
#
#
# Elastic Constant Matrix: (Units=GPa)
#
#
# Indices 1 2 3 4 5 6 
#
# 1 161.7009 51.3794 -2.1282 0.0000 -4.5526 0.0000
# 2 51.3794 112.8492 9.4628 0.0000 -3.1975 0.0000
# 3 -2.1282 9.4628 18.1746 0.0000 -8.0942 0.0000
# 4 0.0000 0.0000 0.0000 17.1557 0.0000 -9.8969
# 5 -4.5526 -3.1975 -8.0942 0.0000 16.9965 0.0000
# 6 0.0000 0.0000 0.0000 -9.8969 0.0000 30.1963
#
#
#
# Elastic Compliance Matrix: (Units=1/GPa)
#
#
# Indices 1 2 3 4 5 6 
#
# 1 0.007505 -0.003682 0.004293 0.000000 0.003362 0.000000
# 2 -0.003682 0.011079 -0.007248 0.000000 -0.002353 0.000000
# 3 0.004293 -0.007248 0.075139 0.000000 0.035570 0.000000
# 4 0.000000 0.000000 0.000000 0.071881 0.000000 0.023559
# 5 0.003362 -0.002353 0.035570 0.000000 0.076233 0.000000
# 6 0.000000 0.000000 0.000000 0.023559 0.000000 0.040838
#
#
# Mechanical properties :
#
#
# Convention : Reuss Voigt Hill
#
# Bulk Modulus (GPa) = 12.42993 45.57253 29.00123
# Shear Modulus (GPa) = 15.49118 28.47041 21.98079
#
# Velocity S-wave (km/s) = 2.69118 3.64836 3.20569
# Velocity P-wave (km/s) = 3.93292 6.24928 5.22117
#
# Compressibility (1/GPa) = 0.08045100
#
# Stress axis : x y z
#
# Youngs Moduli (GPa) = 133.23909 90.26291 13.30862
#
# Poissons Ratio (x) = 0.33233 -0.05714
# Poissons Ratio (y) = 0.49057 0.09646
# Poissons Ratio (z) = -0.57203 0.65419
#
# Static dielectric constant tensor:
#      x y z
#    x 1.923490 0.000000 -0.018830 
#    y 0.000000 1.780750 0.000000 
#    z -0.018830 0.000000 1.792640 
# 
# From -- ./inp_files/19128.got.cif
#   From: 2010.05.17/outbox.cif.g08.bks.cpg/sg11_10_cif.got.tgz:19128.got - 2010.06.03 12:22:45.
