data_PCOD9157506
_publ_section_title
;
Structure prediction by ZEFSAII (Michael W. Deem and Ramdas Pophale) SiO2 
 PCOD9157506
Probable space group: P 21/M
;
_chemical_formula_sum "Si O2"
_cell_formula_units_Z 20
_cell_length_a 6.392159
_cell_length_b 15.950197
_cell_length_c 11.955396
_cell_angle_alpha 90.000000
_cell_angle_beta 58.439407
_cell_angle_gamma 90.000000
_cell_volume 1038.631733
_symmetry_space_group_name_H-M "P 21/M"
_symmetry_group_IT_number 11
_symmetry_cell_setting 'monoclinic'
loop_
_space_group_symop_operation_xyz
x,y,z
-x,1/2+y,-z
-x,-y,-z
x,1/2-y,z
loop_
_atom_site_type_symbol
_atom_site_label
_atom_site_fract_x
_atom_site_fract_y
_atom_site_fract_z
Si Si1 0.560567 0.159256 0.668453
Si Si2 0.952727 0.903404 0.117648
Si Si3 0.680610 0.077302 0.156848
Si Si4 0.314068 0.575318 0.582647
Si Si5 0.797546 0.009864 0.744693
O O1 0.646703 0.250000 0.685807
O O2 0.267739 0.152312 0.772351
O O3 0.618613 0.148312 0.521478
O O4 0.696469 0.080574 0.688477
O O5 0.129966 0.940010 0.163876
O O6 0.799534 0.984338 0.119224
O O7 0.129450 0.869416 0.970498
O O8 0.664993 0.098871 0.292386
O O9 0.411149 0.061078 0.182733
O O10 0.500000 0.500000 0.500000
O O11 0.043969 0.537288 0.638293
#
# Coordination Sequence:
#
# PCOD9157506 Si02
#       5
#     4   4   4   4   4
#     4  11  23  36  54  81 115 147 182 232 286 330
#     4   9  18  34  53  82 108 138 178 226 275 322
#     4   9  18  31  57  83 106 138 181 227 266 317
#     4  11  19  36  57  84 111 145 188 231 272 326
#     4  10  18  33  59  81 111 140 191 229 266 330
#
# _framework density 19.256103
#
# number of rings (size 3 to 8) (size 9 to 14) (size 15 to 20)
#    0.000    2.000    6.000    1.200    0.000    2.400 
#    0.000    1.000    0.000    1.200    0.000    0.000 
#    0.000    0.000    0.000    0.000    0.000    0.000 
#
# Total GULP energy -111369.284350 kJ/mol
# GULP energy per Si atom -5568.464218 kJ/mol
# Density = 1.921227 g / cm^3
# Si number density = 19.256103 Si / 1000 Ang^3
#
#
#
# Elastic Constant Matrix: (Units=GPa)
#
#
# Indices 1 2 3 4 5 6 
#
# 1 100.9960 6.2463 49.2608 0.0000 -19.0361 0.0000
# 2 6.2463 37.2331 17.3933 0.0000 -6.1905 0.0000
# 3 49.2608 17.3933 153.7146 0.0000 -15.7552 0.0000
# 4 0.0000 0.0000 0.0000 -0.0264 0.0000 3.7755
# 5 -19.0361 -6.1905 -15.7552 0.0000 11.2102 0.0000
# 6 0.0000 0.0000 0.0000 3.7755 0.0000 5.2094
#
#
#
# Elastic Compliance Matrix: (Units=1/GPa)
#
#
# Indices 1 2 3 4 5 6 
#
# 1 0.015668 0.002712 -0.002859 0.000000 0.024085 0.000000
# 2 0.002712 0.030553 -0.002483 0.000000 0.017988 0.000000
# 3 -0.002859 -0.002483 0.008254 0.000000 0.005374 0.000000
# 4 0.000000 0.000000 0.000000 -0.361960 0.000000 0.262333
# 5 0.024085 0.017988 0.005374 0.000000 0.147589 0.000000
# 6 0.000000 0.000000 0.000000 0.262333 0.000000 0.001834
#
#
# Mechanical properties :
#
#
# Convention : Reuss Voigt Hill
#
# Bulk Modulus (GPa) = 20.31925 48.63828 34.47876
# Shear Modulus (GPa) = -36.65771 17.88151 -9.38810
#
# Velocity S-wave (km/s) = -4.36787 3.05062 -2.21042
# Velocity P-wave (km/s) = 3.85521 6.14181 3.38077
#
# Compressibility (1/GPa) = 0.04921441
#
# Stress axis : x y z
#
# Youngs Moduli (GPa) = 63.82498 32.72960 121.15985
#
# Poissons Ratio (x) = -0.08875 0.34643
# Poissons Ratio (y) = -0.17307 0.30078
# Poissons Ratio (z) = 0.18250 0.08125
#
# Static dielectric constant tensor:
#      x y z
#    x 1.706980 0.000000 0.008270 
#    y 0.000000 1.661460 0.000000 
#    z 0.008270 0.000000 1.755170 
# 
# From -- ./inp_files/4479.got.cif
#   From: 2010.05.17/outbox.cif.g08.bks.cpg/sg11_3_cif.got.tgz:4479.got - 2010.06.03 12:22:45.
