data_PCOD9157801
_publ_section_title
;
Structure prediction by ZEFSAII (Michael W. Deem and Ramdas Pophale) SiO2 
 PCOD9157801
Probable space group: P 21/M
;
_chemical_formula_sum "Si O2"
_cell_formula_units_Z 32
_cell_length_a 9.921663
_cell_length_b 23.061523
_cell_length_c 15.128066
_cell_angle_alpha 90.000000
_cell_angle_beta 26.319620
_cell_angle_gamma 90.000000
_cell_volume 1534.723546
_symmetry_space_group_name_H-M "P 21/M"
_symmetry_group_IT_number 11
_symmetry_cell_setting 'monoclinic'
loop_
_space_group_symop_operation_xyz
x,y,z
-x,1/2+y,-z
-x,-y,-z
x,1/2-y,z
loop_
_atom_site_type_symbol
_atom_site_label
_atom_site_fract_x
_atom_site_fract_y
_atom_site_fract_z
Si Si1 0.916396 0.311234 0.976086
Si Si2 0.400224 0.370863 0.201655
Si Si3 0.756146 0.906618 0.139723
Si Si4 0.218216 0.821729 0.513402
Si Si5 0.687634 0.912010 0.550580
Si Si6 0.866581 0.011703 0.197233
Si Si7 0.219689 0.960706 0.139084
Si Si8 0.435183 0.315957 0.520350
O O1 0.973309 0.250000 0.986029
O O2 0.592259 0.316309 0.122715
O O3 0.967333 0.361441 0.016345
O O4 0.159154 0.317998 0.754035
O O5 0.333254 0.404868 0.332070
O O6 0.105590 0.347363 0.324699
O O7 0.629252 0.410548 0.009944
O O8 0.464713 0.863808 0.317118
O O9 0.797037 0.947297 0.201336
O O10 0.840590 0.953743 0.015473
O O11 0.246800 0.750000 0.482508
O O12 0.285637 0.831957 0.578373
O O13 0.428064 0.953699 0.661946
O O14 0.641124 0.854856 0.518170
O O15 0.027673 0.933900 0.330981
O O16 0.968587 0.999888 0.236206
O O17 0.500000 0.000000 0.000000
O O18 0.474821 0.250000 0.468178
#
# Coordination Sequence:
#
# PCOD9157801 Si02
#       8
#     4   4   4   4   4   4   4   4
#     4  10  18  38  66  92 128 171 217 274 330 390
#     4  12  24  43  66 103 137 174 228 274 345 401
#     4  10  19  40  65  96 132 167 225 273 325 401
#     4  10  23  41  68  99 138 183 220 275 344 399
#     4  12  25  44  71 101 130 177 227 280 332 407
#     4  11  22  41  66  96 128 178 220 278 334 400
#     4  12  28  43  65 100 141 178 223 278 348 404
#     4   9  20  41  67  94 129 174 224 275 328 392
#
# _framework density 20.850660000000001
#
# number of rings (size 3 to 8) (size 9 to 14) (size 15 to 20)
#    0.000    1.250    3.750    3.375    5.250    1.500 
#    0.000    0.000    0.000    1.500    0.000    0.000 
#    0.000    0.000    0.000    0.000    0.000    0.000 
#
# Total GULP energy -178304.228191 kJ/mol
# GULP energy per Si atom -5572.007131 kJ/mol
# Density = 2.080320 g / cm^3
# Si number density = 20.850660 Si / 1000 Ang^3
#
#
#
# Elastic Constant Matrix: (Units=GPa)
#
#
# Indices 1 2 3 4 5 6 
#
# 1 13.1440 -1.3463 3.1459 0.0000 -13.6959 0.0000
# 2 -1.3463 105.4876 8.9061 0.0000 -7.3451 0.0000
# 3 3.1459 8.9061 65.9499 0.0000 -11.7632 0.0000
# 4 0.0000 0.0000 0.0000 151.3962 0.0000 339.4037
# 5 -13.6959 -7.3451 -11.7632 0.0000 33.4160 0.0000
# 6 0.0000 0.0000 0.0000 339.4037 0.0000 970.8673
#
#
#
# Elastic Compliance Matrix: (Units=1/GPa)
#
#
# Indices 1 2 3 4 5 6 
#
# 1 0.136697 0.005543 0.003139 0.000000 0.058350 0.000000
# 2 0.005543 0.009912 -0.000863 0.000000 0.004147 0.000000
# 3 0.003139 -0.000863 0.016352 0.000000 0.006853 0.000000
# 4 0.000000 0.000000 0.000000 0.030539 0.000000 -0.010676
# 5 0.058350 0.004147 0.006853 0.000000 0.057165 0.000000
# 6 0.000000 0.000000 0.000000 -0.010676 0.000000 0.004762
#
#
# Mechanical properties :
#
#
# Convention : Reuss Voigt Hill
#
# Bulk Modulus (GPa) = 5.59918 22.88809 14.24364
# Shear Modulus (GPa) = 16.70424 242.72762 129.71593
#
# Velocity S-wave (km/s) = 2.83351 10.80116 7.89601
# Velocity P-wave (km/s) = 3.66009 12.90560 9.48554
#
# Compressibility (1/GPa) = 0.17859747
#
# Stress axis : x y z
#
# Youngs Moduli (GPa) = 7.31543 100.88636 61.15371
#
# Poissons Ratio (x) = -0.55917 -0.19194
# Poissons Ratio (y) = -0.04055 0.05280
# Poissons Ratio (z) = -0.02296 0.08710
#
# Static dielectric constant tensor:
#      x y z
#    x 1.750710 0.000000 0.014320 
#    y 0.000000 1.795070 0.000000 
#    z 0.014320 0.000000 1.802490 
# 
# From -- ./inp_files/48453.got.cif
#   From: 2010.05.17/outbox.cif.g08.bks.cpg/sg11_25_cif.got.tgz:48453.got - 2010.06.03 12:22:45.
