data_PCOD9157777
_publ_section_title
;
Structure prediction by ZEFSAII (Michael W. Deem and Ramdas Pophale) SiO2 
 PCOD9157777
Probable space group: P 21/M
;
_chemical_formula_sum "Si O2"
_cell_formula_units_Z 32
_cell_length_a 12.302169
_cell_length_b 17.408537
_cell_length_c 13.995529
_cell_angle_alpha 90.000000
_cell_angle_beta 30.721529
_cell_angle_gamma 90.000000
_cell_volume 1531.229400
_symmetry_space_group_name_H-M "P 21/M"
_symmetry_group_IT_number 11
_symmetry_cell_setting 'monoclinic'
loop_
_space_group_symop_operation_xyz
x,y,z
-x,1/2+y,-z
-x,-y,-z
x,1/2-y,z
loop_
_atom_site_type_symbol
_atom_site_label
_atom_site_fract_x
_atom_site_fract_y
_atom_site_fract_z
Si Si1 0.952826 0.434804 0.614336
Si Si2 0.642231 0.920771 0.568373
Si Si3 0.622239 0.161298 0.756193
Si Si4 0.868596 0.336842 0.372567
Si Si5 0.232474 0.047595 0.092729
Si Si6 0.217007 0.339957 0.730190
Si Si7 0.574303 0.064753 0.518521
Si Si8 0.143167 0.545579 0.970760
O O1 0.826110 0.364060 0.664289
O O2 0.799619 0.477627 0.808078
O O3 0.000000 0.500000 0.500000
O O4 0.179780 0.406480 0.485971
O O5 0.689249 0.864793 0.443947
O O6 0.686340 0.010452 0.510652
O O7 0.386980 0.926929 0.771714
O O8 0.555258 0.250000 0.827409
O O9 0.698712 0.160395 0.587771
O O10 0.450847 0.094106 0.908305
O O11 0.929707 0.250000 0.308764
O O12 0.754326 0.372298 0.364712
O O13 0.069981 0.386641 0.247419
O O14 0.158021 0.010921 0.049324
O O15 0.222902 0.250000 0.740632
O O16 0.364236 0.385817 0.694694
O O17 0.987914 0.377976 0.907395
O O18 0.500000 0.000000 0.500000
O O19 0.000000 0.500000 0.000000
#
# Coordination Sequence:
#
# PCOD9157777 Si02
#       8
#     4   4   4   4   4   4   4   4
#     4  12  22  44  73  99 130 176 237 281 337 406
#     4  11  23  42  69  94 131 180 225 279 329 403
#     4  11  26  44  66 102 140 175 225 287 350 405
#     4  11  22  40  63  97 138 171 219 282 341 400
#     4  12  23  43  70 101 130 179 224 285 332 406
#     4  11  24  42  64  97 139 179 226 281 335 399
#     4  10  18  37  62  89 125 174 222 263 326 391
#     4  12  25  42  72 100 139 181 231 272 330 413
#
# _framework density 20.898240000000001
#
# number of rings (size 3 to 8) (size 9 to 14) (size 15 to 20)
#    0.000    0.750    5.000    3.375    1.750    1.000 
#    0.000    0.625    0.000    0.000    0.000    0.000 
#    0.000    0.000    0.000    0.000    0.000    0.000 
#
# Total GULP energy -178340.000501 kJ/mol
# GULP energy per Si atom -5573.125016 kJ/mol
# Density = 2.085068 g / cm^3
# Si number density = 20.898240 Si / 1000 Ang^3
#
#
#
# Elastic Constant Matrix: (Units=GPa)
#
#
# Indices 1 2 3 4 5 6 
#
# 1 95.9762 24.5896 16.4337 0.0000 -12.8595 0.0000
# 2 24.5896 124.5690 21.1627 0.0000 -7.9743 0.0000
# 3 16.4337 21.1627 92.9668 0.0000 -11.8837 0.0000
# 4 0.0000 0.0000 0.0000 25.1375 0.0000 -4.4079
# 5 -12.8595 -7.9743 -11.8837 0.0000 31.3775 0.0000
# 6 0.0000 0.0000 0.0000 -4.4079 0.0000 23.8639
#
#
#
# Elastic Compliance Matrix: (Units=1/GPa)
#
#
# Indices 1 2 3 4 5 6 
#
# 1 0.011605 -0.001851 -0.001137 0.000000 0.003855 0.000000
# 2 -0.001851 0.008711 -0.001545 0.000000 0.000870 0.000000
# 3 -0.001137 -0.001545 0.011769 0.000000 0.003599 0.000000
# 4 0.000000 0.000000 0.000000 0.041113 0.000000 0.007594
# 5 0.003855 0.000870 0.003599 0.000000 0.035034 0.000000
# 6 0.000000 0.000000 0.000000 0.007594 0.000000 0.043307
#
#
# Mechanical properties :
#
#
# Convention : Reuss Voigt Hill
#
# Bulk Modulus (GPa) = 43.44092 48.65377 46.04735
# Shear Modulus (GPa) = 29.71289 32.83085 31.27187
#
# Velocity S-wave (km/s) = 3.77475 3.96787 3.87251
# Velocity P-wave (km/s) = 6.31113 6.65761 6.48668
#
# Compressibility (1/GPa) = 0.02301977
#
# Stress axis : x y z
#
# Youngs Moduli (GPa) = 86.17236 114.79560 84.96763
#
# Poissons Ratio (x) = 0.21246 0.09663
# Poissons Ratio (y) = 0.15948 0.13124
# Poissons Ratio (z) = 0.09800 0.17731
#
# Static dielectric constant tensor:
#      x y z
#    x 1.839660 0.000000 0.022270 
#    y 0.000000 1.741270 0.000000 
#    z 0.022270 0.000000 1.853760 
# 
# From -- ./inp_files/50677.got.cif
#   From: 2010.05.17/outbox.cif.g08.bks.cpg/sg11_26_cif.got.tgz:50677.got - 2010.06.03 12:22:45.
