data_PCOD9157802
_publ_section_title
;
Structure prediction by ZEFSAII (Michael W. Deem and Ramdas Pophale) SiO2 
 PCOD9157802
Probable space group: P 21/M
;
_chemical_formula_sum "Si O2"
_cell_formula_units_Z 24
_cell_length_a 17.731361
_cell_length_b 11.220981
_cell_length_c 13.528020
_cell_angle_alpha 90.000000
_cell_angle_beta 21.456600
_cell_angle_gamma 90.000000
_cell_volume 984.569799
_symmetry_space_group_name_H-M "P 21/M"
_symmetry_group_IT_number 11
_symmetry_cell_setting 'monoclinic'
loop_
_space_group_symop_operation_xyz
x,y,z
-x,1/2+y,-z
-x,-y,-z
x,1/2-y,z
loop_
_atom_site_type_symbol
_atom_site_label
_atom_site_fract_x
_atom_site_fract_y
_atom_site_fract_z
Si Si1 0.697036 0.750000 0.305164
Si Si2 0.938183 0.750000 0.375241
Si Si3 0.271491 0.609835 0.502893
Si Si4 0.335641 0.510743 0.047700
Si Si5 0.231331 0.750000 0.848915
Si Si6 0.082090 0.514157 0.542373
Si Si7 0.541425 0.750000 0.718716
Si Si8 0.722921 0.492998 0.284948
O O1 0.474264 0.750000 0.521535
O O2 0.612705 0.750000 0.519312
O O3 0.811160 0.624505 0.154155
O O4 0.915164 0.870891 0.461934
O O5 0.753819 0.750000 0.521150
O O6 0.157324 0.750000 0.051780
O O7 0.247245 0.750000 0.553972
O O8 0.109183 0.562247 0.619748
O O9 0.289669 0.534751 0.582819
O O10 0.482897 0.583623 0.185687
O O11 0.261500 0.548272 0.247270
O O12 0.138741 0.455085 0.232933
O O13 0.417126 0.631435 0.897707
O O14 0.156455 0.878154 0.902608
O O15 0.500000 0.500000 0.500000
#
# Coordination Sequence:
#
# PCOD9157802 Si02
#       8
#     2   2   4   4   2   4   2   4
#     4  10  18  38  68  96 133 187 241 283 354 429
#     4  12  24  42  73  98 139 188 248 296 355 428
#     4  12  25  44  73 103 148 187 238 302 358 429
#     4  11  25  44  71 102 147 191 234 294 362 429
#     4  10  22  40  68  97 141 179 238 306 347 421
#     4  11  26  44  69 107 141 188 242 290 360 437
#     4  12  22  42  73  99 135 190 235 291 364 426
#     4  10  21  40  70 101 140 192 241 294 366 421
#
# _framework density 24.376128000000001
#
# number of rings (size 3 to 8) (size 9 to 14) (size 15 to 20)
#    0.000    1.000    4.167    2.000    4.667    0.667 
#    0.000    3.333    1.833    0.000    0.000    0.000 
#    0.000    0.000    0.000    0.000    0.000    0.000 
#
# Total GULP energy -134245.875568 kJ/mol
# GULP energy per Si atom -5593.578149 kJ/mol
# Density = 2.432065 g / cm^3
# Si number density = 24.376128 Si / 1000 Ang^3
#
#
#
# Elastic Constant Matrix: (Units=GPa)
#
#
# Indices 1 2 3 4 5 6 
#
# 1 144.1884 19.0873 31.0570 0.0000 1.8039 0.0000
# 2 19.0873 189.6725 27.3201 0.0000 18.4572 0.0000
# 3 31.0570 27.3201 72.2754 0.0000 8.8554 0.0000
# 4 0.0000 0.0000 0.0000 17.8957 0.0000 13.7981
# 5 1.8039 18.4572 8.8554 0.0000 35.8805 0.0000
# 6 0.0000 0.0000 0.0000 13.7981 0.0000 29.1672
#
#
#
# Elastic Compliance Matrix: (Units=1/GPa)
#
#
# Indices 1 2 3 4 5 6 
#
# 1 0.007672 -0.000365 -0.003232 0.000000 0.000600 0.000000
# 2 -0.000365 0.005805 -0.001726 0.000000 -0.002542 0.000000
# 3 -0.003232 -0.001726 0.016240 0.000000 -0.002958 0.000000
# 4 0.000000 0.000000 0.000000 0.087964 0.000000 -0.041613
# 5 0.000600 -0.002542 -0.002958 0.000000 0.029878 0.000000
# 6 0.000000 0.000000 0.000000 -0.041613 0.000000 0.053971
#
#
# Mechanical properties :
#
#
# Convention : Reuss Voigt Hill
#
# Bulk Modulus (GPa) = 52.43722 62.34056 57.38889
# Shear Modulus (GPa) = 22.87979 38.50014 30.68996
#
# Velocity S-wave (km/s) = 3.06701 3.97850 3.55211
# Velocity P-wave (km/s) = 5.83956 6.83627 6.35748
#
# Compressibility (1/GPa) = 0.01907042
#
# Stress axis : x y z
#
# Youngs Moduli (GPa) = 130.33721 172.26766 61.57722
#
# Poissons Ratio (x) = 0.06285 0.19904
# Poissons Ratio (y) = 0.04756 0.10629
# Poissons Ratio (z) = 0.42130 0.29734
#
# Static dielectric constant tensor:
#      x y z
#    x 1.981230 0.000000 -0.072440 
#    y 0.000000 1.954760 0.000000 
#    z -0.072440 0.000000 1.939730 
# 
# From -- ./inp_files/54805.got.cif
#   From: 2010.05.17/outbox.cif.g08.bks.cpg/sg11_28_cif.got.tgz:54805.got - 2010.06.03 12:22:45.
