data_PCOD9157706
_publ_section_title
;
Structure prediction by ZEFSAII (Michael W. Deem and Ramdas Pophale) SiO2 
 PCOD9157706
Probable space group: P 21/M
;
_chemical_formula_sum "Si O2"
_cell_formula_units_Z 22
_cell_length_a 11.861343
_cell_length_b 13.921204
_cell_length_c 10.147680
_cell_angle_alpha 90.000000
_cell_angle_beta 142.842043
_cell_angle_gamma 90.000000
_cell_volume 1012.103128
_symmetry_space_group_name_H-M "P 21/M"
_symmetry_group_IT_number 11
_symmetry_cell_setting 'monoclinic'
loop_
_space_group_symop_operation_xyz
x,y,z
-x,1/2+y,-z
-x,-y,-z
x,1/2-y,z
loop_
_atom_site_type_symbol
_atom_site_label
_atom_site_fract_x
_atom_site_fract_y
_atom_site_fract_z
Si Si1 0.967863 0.250000 0.851173
Si Si2 0.547145 0.038995 0.834800
Si Si3 0.861277 0.406361 0.963016
Si Si4 0.728962 0.565067 0.644554
Si Si5 0.430050 0.359698 0.986356
Si Si6 0.607769 0.750000 0.673628
Si Si7 0.700669 0.250000 0.383199
O O1 0.887024 0.338071 0.861165
O O2 0.896690 0.250000 0.636472
O O3 0.190030 0.250000 0.067869
O O4 0.702949 0.111081 0.922494
O O5 0.399315 0.014225 0.582274
O O6 0.641674 0.942066 0.981257
O O7 0.440554 0.093206 0.853279
O O8 0.787404 0.504203 0.826989
O O9 0.065978 0.408446 0.218677
O O10 0.613540 0.656647 0.587075
O O11 0.352077 0.250000 0.914107
O O12 0.641395 0.339945 0.238098
O O13 0.446002 0.750000 0.630385
#
# Coordination Sequence:
#
# PCOD9157706 Si02
#       7
#     2   4   4   4   4   2   2
#     4  10  20  33  55  85 113 142 181 230 282 334
#     4  11  20  39  61  77 114 151 178 234 277 311
#     4  10  21  35  57  89 113 140 183 227 281 339
#     4  10  21  35  57  89 113 140 183 227 281 339
#     4   9  23  37  57  83 107 149 200 219 259 337
#     4  10  20  33  55  85 113 142 181 230 282 334
#     4  10  18  36  54  74 114 148 184 224 268 320
#
# _framework density 21.736915
#
# number of rings (size 3 to 8) (size 9 to 14) (size 15 to 20)
#    0.545    1.455    0.000    3.818    2.545    0.000 
#    0.000    5.455    0.000    0.000    0.000    0.000 
#    0.000    0.000    0.000    0.000    0.000    0.000 
#
# Total GULP energy -122648.837332 kJ/mol
# GULP energy per Si atom -5574.947151 kJ/mol
# Density = 2.168744 g / cm^3
# Si number density = 21.736915 Si / 1000 Ang^3
#
#
#
# Elastic Constant Matrix: (Units=GPa)
#
#
# Indices 1 2 3 4 5 6 
#
# 1 52.6816 4.8761 29.6215 0.0000 -6.4703 0.0000
# 2 4.8761 91.5195 -6.8408 0.0000 -9.5035 0.0000
# 3 29.6215 -6.8408 65.0793 0.0000 5.3159 0.0000
# 4 0.0000 0.0000 0.0000 23.6765 0.0000 -8.1738
# 5 -6.4703 -9.5035 5.3159 0.0000 14.9908 0.0000
# 6 0.0000 0.0000 0.0000 -8.1738 0.0000 8.9834
#
#
#
# Elastic Compliance Matrix: (Units=1/GPa)
#
#
# Indices 1 2 3 4 5 6 
#
# 1 0.029678 -0.000879 -0.015037 0.000000 0.017585 0.000000
# 2 -0.000879 0.011749 0.001089 0.000000 0.006682 0.000000
# 3 -0.015037 0.001089 0.023478 0.000000 -0.014125 0.000000
# 4 0.000000 0.000000 0.000000 0.061579 0.000000 0.056030
# 5 0.017585 0.006682 -0.014125 0.000000 0.083543 0.000000
# 6 0.000000 0.000000 0.000000 0.056030 0.000000 0.162298
#
#
# Mechanical properties :
#
#
# Convention : Reuss Voigt Hill
#
# Bulk Modulus (GPa) = 28.36765 29.39933 28.88349
# Shear Modulus (GPa) = 12.08521 21.63838 16.86179
#
# Velocity S-wave (km/s) = 2.36047 3.15852 2.78820
# Velocity P-wave (km/s) = 4.52856 5.18229 4.86642
#
# Compressibility (1/GPa) = 0.03525142
#
# Stress axis : x y z
#
# Youngs Moduli (GPa) = 33.69500 85.11498 42.59226
#
# Poissons Ratio (x) = 0.07483 0.64046
# Poissons Ratio (y) = 0.02962 -0.04640
# Poissons Ratio (z) = 0.50667 -0.09272
#
# Static dielectric constant tensor:
#      x y z
#    x 1.832110 0.000000 0.018900 
#    y 0.000000 1.817830 0.000000 
#    z 0.018900 0.000000 1.789610 
# 
# From -- ./inp_files/39529.got.cif
#   From: 2010.05.17/outbox.cif.g08.bks.cpg/sg11_20_cif.got.tgz:39529.got - 2010.06.03 12:22:45.
