data_PCOD9157678
_publ_section_title
;
Structure prediction by ZEFSAII (Michael W. Deem and Ramdas Pophale) SiO2 
 PCOD9157678
Probable space group: P 21/M
;
_chemical_formula_sum "Si O2"
_cell_formula_units_Z 32
_cell_length_a 20.600604
_cell_length_b 8.707373
_cell_length_c 20.411746
_cell_angle_alpha 90.000000
_cell_angle_beta 29.909662
_cell_angle_gamma 90.000000
_cell_volume 1825.698577
_symmetry_space_group_name_H-M "P 21/M"
_symmetry_group_IT_number 11
_symmetry_cell_setting 'monoclinic'
loop_
_space_group_symop_operation_xyz
x,y,z
-x,1/2+y,-z
-x,-y,-z
x,1/2-y,z
loop_
_atom_site_type_symbol
_atom_site_label
_atom_site_fract_x
_atom_site_fract_y
_atom_site_fract_z
Si Si1 0.326010 0.434689 0.102488
Si Si2 0.622756 0.065871 0.659104
Si Si3 0.601997 0.933204 0.817076
Si Si4 0.858269 0.564654 0.851227
Si Si5 0.657720 0.432373 0.133137
Si Si6 0.853386 0.062840 0.361738
Si Si7 0.187085 0.432580 0.886239
Si Si8 0.887737 0.434594 0.183736
O O1 0.345629 0.250000 0.081415
O O2 0.321471 0.475301 0.183184
O O3 0.201692 0.473954 0.167215
O O4 0.453406 0.513978 0.960375
O O5 0.616511 0.250000 0.663165
O O6 0.735084 0.012873 0.511016
O O7 0.650609 0.011867 0.708625
O O8 0.483034 0.000499 0.760430
O O9 0.605133 0.750000 0.806427
O O10 0.855221 0.750000 0.860850
O O11 0.005929 0.513516 0.733962
O O12 0.762203 0.496637 0.989680
O O13 0.653004 0.250000 0.132659
O O14 0.708064 0.484579 0.160222
O O15 0.853785 0.250000 0.361542
O O16 0.842584 0.016043 0.295249
O O17 0.204788 0.250000 0.875216
O O18 0.185280 0.486679 0.812725
O O19 0.041929 0.469153 0.040793
O O20 0.874275 0.250000 0.189744
#
# Coordination Sequence:
#
# PCOD9157678 Si02
#       8
#     4   4   4   4   4   4   4   4
#     4   9  18  31  54  81 108 142 180 225 275 324
#     4  11  22  37  56  78 108 150 188 221 271 330
#     4  10  19  32  50  79 113 143 180 227 274 320
#     4  10  18  35  59  83 107 138 183 230 273 323
#     4  12  23  35  54  83 112 141 181 231 274 318
#     4   9  19  36  58  81 108 144 185 225 269 326
#     4  10  19  33  56  83 111 142 178 223 272 326
#     4   9  17  33  55  82 112 140 176 225 273 320
#
# _framework density 17.527538
#
# number of rings (size 3 to 8) (size 9 to 14) (size 15 to 20)
#    0.000    2.000    2.500    2.250    0.000    1.000 
#    0.000    3.750    0.000    0.000    0.000    0.000 
#    0.000    0.000    0.000    0.000    0.000    0.000 
#
# Total GULP energy -178601.286954 kJ/mol
# GULP energy per Si atom -5581.290217 kJ/mol
# Density = 1.748764 g / cm^3
# Si number density = 17.527538 Si / 1000 Ang^3
#
#
#
# Elastic Constant Matrix: (Units=GPa)
#
#
# Indices 1 2 3 4 5 6 
#
# 1 140.8903 36.8607 71.8616 0.0000 14.6283 0.0000
# 2 36.8607 32.1026 27.7199 0.0000 2.8707 0.0000
# 3 71.8616 27.7199 115.5733 0.0000 12.0205 0.0000
# 4 0.0000 0.0000 0.0000 5.9936 0.0000 7.3022
# 5 14.6283 2.8707 12.0205 0.0000 25.4062 0.0000
# 6 0.0000 0.0000 0.0000 7.3022 0.0000 28.2912
#
#
#
# Elastic Compliance Matrix: (Units=1/GPa)
#
#
# Indices 1 2 3 4 5 6 
#
# 1 0.012666 -0.009767 -0.005142 0.000000 -0.003756 0.000000
# 2 -0.009767 0.046818 -0.005460 0.000000 0.002917 0.000000
# 3 -0.005142 -0.005460 0.013449 0.000000 -0.002786 0.000000
# 4 0.000000 0.000000 0.000000 0.243376 0.000000 -0.062817
# 5 -0.003756 0.002917 -0.002786 0.000000 0.042512 0.000000
# 6 0.000000 0.000000 0.000000 -0.062817 0.000000 0.051560
#
#
# Mechanical properties :
#
#
# Convention : Reuss Voigt Hill
#
# Bulk Modulus (GPa) = 31.06025 62.38342 46.72183
# Shear Modulus (GPa) = 10.82603 22.07980 16.45292
#
# Velocity S-wave (km/s) = 2.48797 3.55310 3.06713
# Velocity P-wave (km/s) = 5.10026 7.24580 6.26555
#
# Compressibility (1/GPa) = 0.03219549
#
# Stress axis : x y z
#
# Youngs Moduli (GPa) = 78.95272 21.35920 74.35507
#
# Poissons Ratio (x) = 0.20862 0.38234
# Poissons Ratio (y) = 0.77114 0.40595
# Poissons Ratio (z) = 0.40598 0.11661
#
# Static dielectric constant tensor:
#      x y z
#    x 1.609920 0.000000 0.009640 
#    y 0.000000 1.587620 0.000000 
#    z 0.009640 0.000000 1.567000 
# 
# From -- ./inp_files/66452.got.cif
#   From: 2010.05.17/outbox.cif.g08.bks.cpg/sg11_34_cif.got.tgz:66452.got - 2010.06.03 12:22:45.
