data_PCOD9157258
_publ_section_title
;
Structure prediction by ZEFSAII (Michael W. Deem and Ramdas Pophale) SiO2 
 PCOD9157258
Probable space group: P 21/M
;
_chemical_formula_sum "Si O2"
_cell_formula_units_Z 28
_cell_length_a 7.132942
_cell_length_b 18.408158
_cell_length_c 17.214179
_cell_angle_alpha 90.000000
_cell_angle_beta 143.553484
_cell_angle_gamma 90.000000
_cell_volume 1342.778979
_symmetry_space_group_name_H-M "P 21/M"
_symmetry_group_IT_number 11
_symmetry_cell_setting 'monoclinic'
loop_
_space_group_symop_operation_xyz
x,y,z
-x,1/2+y,-z
-x,-y,-z
x,1/2-y,z
loop_
_atom_site_type_symbol
_atom_site_label
_atom_site_fract_x
_atom_site_fract_y
_atom_site_fract_z
Si Si1 0.753536 0.464958 0.303857
Si Si2 0.229134 0.575787 0.410876
Si Si3 0.267909 0.971322 0.028899
Si Si4 0.775219 0.014441 0.754385
Si Si5 0.362483 0.330994 0.813963
Si Si6 0.794128 0.833546 0.567451
Si Si7 0.393808 0.827226 0.276249
O O1 0.569936 0.486129 0.163309
O O2 0.504055 0.475120 0.290585
O O3 0.026613 0.526716 0.402570
O O4 0.908752 0.386432 0.345251
O O5 0.299865 0.521915 0.361700
O O6 0.533980 0.623919 0.533275
O O7 0.980555 0.633806 0.291540
O O8 0.373827 0.887599 0.070103
O O9 0.110004 0.982837 0.892701
O O10 0.000000 0.000000 0.000000
O O11 0.791484 0.097946 0.788988
O O12 0.389342 0.250000 0.855205
O O13 0.407398 0.326473 0.736259
O O14 0.855307 0.750000 0.611594
O O15 0.623034 0.831016 0.426433
O O16 0.216712 0.750000 0.220602
#
# Coordination Sequence:
#
# PCOD9157258 Si02
#       7
#     4   4   4   4   4   4   4
#     4  10  20  36  53  79 108 137 176 216 265 315
#     4  10  20  34  58  81 100 139 183 220 264 307
#     4   9  17  34  54  79 104 137 176 213 261 311
#     4  10  19  36  56  78 109 137 175 226 254 313
#     4  10  18  32  53  80 108 135 175 224 268 312
#     4  10  21  36  53  76 111 142 174 218 264 320
#     4   9  17  31  52  76 102 135 174 216 263 303
#
# _framework density 20.852277999999998
#
# number of rings (size 3 to 8) (size 9 to 14) (size 15 to 20)
#    0.000    2.286    4.286    0.857    0.000    5.143 
#    2.571    3.571    0.000    2.571    0.000    0.000 
#    0.000    0.000    0.000    0.000    0.000    0.000 
#
# Total GULP energy -156069.129909 kJ/mol
# GULP energy per Si atom -5573.897497 kJ/mol
# Density = 2.080482 g / cm^3
# Si number density = 20.852278 Si / 1000 Ang^3
#
#
#
# Elastic Constant Matrix: (Units=GPa)
#
#
# Indices 1 2 3 4 5 6 
#
# 1 56.6579 12.4840 3.6116 0.0000 5.4044 0.0000
# 2 12.4840 185.3511 45.6450 0.0000 25.7497 0.0000
# 3 3.6116 45.6450 58.3177 0.0000 9.9814 0.0000
# 4 0.0000 0.0000 0.0000 19.2709 0.0000 2.1289
# 5 5.4044 25.7497 9.9814 0.0000 20.1649 0.0000
# 6 0.0000 0.0000 0.0000 2.1289 0.0000 23.9075
#
#
#
# Elastic Compliance Matrix: (Units=1/GPa)
#
#
# Indices 1 2 3 4 5 6 
#
# 1 0.018181 -0.000688 0.000105 0.000000 -0.004046 0.000000
# 2 -0.000688 0.007591 -0.004667 0.000000 -0.007199 0.000000
# 3 0.000105 -0.004667 0.021609 0.000000 -0.004765 0.000000
# 4 0.000000 0.000000 0.000000 0.052407 0.000000 -0.004667
# 5 -0.004046 -0.007199 -0.004765 0.000000 0.062227 0.000000
# 6 0.000000 0.000000 0.000000 -0.004667 0.000000 0.042244
#
#
# Mechanical properties :
#
#
# Convention : Reuss Voigt Hill
#
# Bulk Modulus (GPa) = 27.11402 47.08976 37.10189
# Shear Modulus (GPa) = 22.02146 28.57439 25.29793
#
# Velocity S-wave (km/s) = 3.25325 3.70581 3.48688
# Velocity P-wave (km/s) = 5.20986 6.39861 5.83459
#
# Compressibility (1/GPa) = 0.03688129
#
# Stress axis : x y z
#
# Youngs Moduli (GPa) = 55.00349 131.73827 46.27687
#
# Poissons Ratio (x) = 0.09069 -0.00488
# Poissons Ratio (y) = 0.03787 0.21595
# Poissons Ratio (z) = -0.00580 0.61476
#
# Static dielectric constant tensor:
#      x y z
#    x 1.835260 0.000000 0.011250 
#    y 0.000000 1.800340 0.000000 
#    z 0.011250 0.000000 1.773940 
# 
# From -- ./inp_files/68168.got.cif
#   From: 2010.05.17/outbox.cif.g08.bks.cpg/sg11_35_cif.got.tgz:68168.got - 2010.06.03 12:22:45.
