data_PCOD9157073
_publ_section_title
;
Structure prediction by ZEFSAII (Michael W. Deem and Ramdas Pophale) SiO2 
 PCOD9157073
Probable space group: P 21/M
;
_chemical_formula_sum "Si O2"
_cell_formula_units_Z 24
_cell_length_a 9.402598
_cell_length_b 8.552325
_cell_length_c 24.894635
_cell_angle_alpha 90.000000
_cell_angle_beta 41.007067
_cell_angle_gamma 90.000000
_cell_volume 1313.537146
_symmetry_space_group_name_H-M "P 21/M"
_symmetry_group_IT_number 11
_symmetry_cell_setting 'monoclinic'
loop_
_space_group_symop_operation_xyz
x,y,z
-x,1/2+y,-z
-x,-y,-z
x,1/2-y,z
loop_
_atom_site_type_symbol
_atom_site_label
_atom_site_fract_x
_atom_site_fract_y
_atom_site_fract_z
Si Si1 0.979557 0.063810 0.672478
Si Si2 0.913027 0.437781 0.249214
Si Si3 0.912544 0.936684 0.581102
Si Si4 0.571658 0.564043 0.261087
Si Si5 0.407513 0.438170 0.081822
Si Si6 0.496597 0.563710 0.830370
O O1 0.948181 0.250000 0.681899
O O2 0.125783 0.011268 0.680828
O O3 0.041639 0.008525 0.595197
O O4 0.749927 0.977599 0.748737
O O5 0.906476 0.250000 0.255183
O O6 0.156403 0.485368 0.161574
O O7 0.744397 0.497076 0.253456
O O8 0.924001 0.750000 0.579883
O O9 0.663293 0.991116 0.658749
O O10 0.000000 0.000000 0.500000
O O11 0.557459 0.750000 0.269362
O O12 0.624970 0.517755 0.184203
O O13 0.411686 0.250000 0.079997
O O14 0.540332 0.487669 0.097512
O O15 0.500000 0.500000 0.000000
O O16 0.467683 0.750000 0.834504
#
# Coordination Sequence:
#
# PCOD9157073 Si02
#       6
#     4   4   4   4   4   4
#     4  10  18  31  52  78 103 134 174 214 252 304
#     4  10  20  36  54  76 105 140 174 212 260 311
#     4  11  21  36  56  79 107 140 173 212 256 305
#     4  11  21  34  54  81 105 134 174 217 259 306
#     4   9  19  33  53  77 103 134 173 214 259 308
#     4   9  17  32  51  73 101 138 174 209 254 310
#
# _framework density 18.271274999999999
#
# number of rings (size 3 to 8) (size 9 to 14) (size 15 to 20)
#    0.000    2.000    0.000    8.500    0.000    4.000 
#    0.000    1.667    0.000    0.000    0.000    0.000 
#    0.000    0.000    0.000    0.000    0.000    0.000 
#
# Total GULP energy -133870.206670 kJ/mol
# GULP energy per Si atom -5577.925278 kJ/mol
# Density = 1.822969 g / cm^3
# Si number density = 18.271275 Si / 1000 Ang^3
#
#
#
# Elastic Constant Matrix: (Units=GPa)
#
#
# Indices 1 2 3 4 5 6 
#
# 1 139.8676 27.1723 53.8286 0.0000 41.2180 0.0000
# 2 27.1723 66.0046 21.5473 0.0000 6.4321 0.0000
# 3 53.8286 21.5473 99.6065 0.0000 42.3741 0.0000
# 4 0.0000 0.0000 0.0000 29.5153 0.0000 8.5690
# 5 41.2180 6.4321 42.3741 0.0000 33.5692 0.0000
# 6 0.0000 0.0000 0.0000 8.5690 0.0000 25.8484
#
#
#
# Elastic Compliance Matrix: (Units=1/GPa)
#
#
# Indices 1 2 3 4 5 6 
#
# 1 0.011989 -0.003694 0.000608 0.000000 -0.014780 0.000000
# 2 -0.003694 0.017568 -0.004971 0.000000 0.007444 0.000000
# 3 0.000608 -0.004971 0.023107 0.000000 -0.028962 0.000000
# 4 0.000000 0.000000 0.000000 0.037489 0.000000 -0.012428
# 5 -0.014780 0.007444 -0.028962 0.000000 0.083069 0.000000
# 6 0.000000 0.000000 0.000000 -0.012428 0.000000 0.042807
#
#
# Mechanical properties :
#
#
# Convention : Reuss Voigt Hill
#
# Bulk Modulus (GPa) = 27.35954 56.73057 42.04506
# Shear Modulus (GPa) = 20.46439 31.31528 25.88984
#
# Velocity S-wave (km/s) = 3.35032 4.14443 3.76835
# Velocity P-wave (km/s) = 5.47474 7.34971 6.48039
#
# Compressibility (1/GPa) = 0.03655032
#
# Stress axis : x y z
#
# Youngs Moduli (GPa) = 83.41094 56.92023 43.27641
#
# Poissons Ratio (x) = 0.21024 -0.02630
# Poissons Ratio (y) = 0.30808 0.21514
# Poissons Ratio (z) = -0.05069 0.28296
#
# Static dielectric constant tensor:
#      x y z
#    x 1.651650 0.000000 0.033440 
#    y 0.000000 1.604480 0.000000 
#    z 0.033440 0.000000 1.644830 
# 
# From -- ./inp_files/63170.got.cif
#   From: 2010.05.17/outbox.cif.g08.bks.cpg/sg11_32_cif.got.tgz:63170.got - 2010.06.03 12:22:45.
