data_PCOD9157355
_publ_section_title
;
Structure prediction by ZEFSAII (Michael W. Deem and Ramdas Pophale) SiO2 
 PCOD9157355
Probable space group: P 21/M
;
_chemical_formula_sum "Si O2"
_cell_formula_units_Z 18
_cell_length_a 14.074109
_cell_length_b 7.799882
_cell_length_c 24.179324
_cell_angle_alpha 90.000000
_cell_angle_beta 20.584902
_cell_angle_gamma 90.000000
_cell_volume 933.245184
_symmetry_space_group_name_H-M "P 21/M"
_symmetry_group_IT_number 11
_symmetry_cell_setting 'monoclinic'
loop_
_space_group_symop_operation_xyz
x,y,z
-x,1/2+y,-z
-x,-y,-z
x,1/2-y,z
loop_
_atom_site_type_symbol
_atom_site_label
_atom_site_fract_x
_atom_site_fract_y
_atom_site_fract_z
Si Si1 0.818163 0.054559 0.426549
Si Si2 0.751194 0.443787 0.097221
Si Si3 0.174997 0.250000 0.023222
Si Si4 0.806729 0.047201 0.555107
Si Si5 0.585458 0.250000 0.379420
Si Si6 0.958104 0.750000 0.783436
O O1 0.702018 0.250000 0.495252
O O2 0.920312 0.007902 0.432113
O O3 0.044179 0.086368 0.256171
O O4 0.598171 0.916560 0.528623
O O5 0.793287 0.250000 0.054399
O O6 0.478095 0.454513 0.281539
O O7 0.723532 0.580740 0.062885
O O8 0.000000 0.500000 0.000000
O O9 0.845950 0.250000 0.197158
O O10 0.223390 0.250000 0.063017
O O11 0.758150 0.250000 0.584881
O O12 0.000000 0.000000 0.500000
O O13 0.739290 0.250000 0.354369
#
# Coordination Sequence:
#
# PCOD9157355 Si02
#       6
#     4   4   2   4   2   2
#     4   9  20  35  54  85 118 155 200 255 292 360
#     4  12  23  40  59  90 128 164 202 252 312 364
#     4  10  22  35  54  83 120 160 197 243 300 370
#     4  11  23  40  64  92 123 160 208 255 309 360
#     4  10  18  32  56  84 116 161 200 241 307 354
#     4   8  20  37  52  85 124 155 201 252 301 360
#
# _framework density 19.287535999999999
#
# number of rings (size 3 to 8) (size 9 to 14) (size 15 to 20)
#    1.333    0.444    2.222    2.667    3.111    2.667 
#    2.000    0.000    0.000    1.333    0.000    0.000 
#    0.000    0.000    0.000    0.000    0.000    0.000 
#
# Total GULP energy -100217.841675 kJ/mol
# GULP energy per Si atom -5567.657871 kJ/mol
# Density = 1.924364 g / cm^3
# Si number density = 19.287536 Si / 1000 Ang^3
#
#
#
# Elastic Constant Matrix: (Units=GPa)
#
#
# Indices 1 2 3 4 5 6 
#
# 1 123.2156 16.3362 29.7417 0.0000 30.6234 0.0000
# 2 16.3362 106.5754 12.6423 0.0000 18.8432 0.0000
# 3 29.7417 12.6423 35.6517 0.0000 21.2801 0.0000
# 4 0.0000 0.0000 0.0000 21.1171 0.0000 -0.0412
# 5 30.6234 18.8432 21.2801 0.0000 39.7131 0.0000
# 6 0.0000 0.0000 0.0000 -0.0412 0.0000 19.1247
#
#
#
# Elastic Compliance Matrix: (Units=1/GPa)
#
#
# Indices 1 2 3 4 5 6 
#
# 1 0.010838 -0.000045 -0.005954 0.000000 -0.005145 0.000000
# 2 -0.000045 0.010271 -0.001053 0.000000 -0.004274 0.000000
# 3 -0.005954 -0.001053 0.044623 0.000000 -0.018820 0.000000
# 4 0.000000 0.000000 0.000000 0.047355 0.000000 0.000102
# 5 -0.005145 -0.004274 -0.018820 0.000000 0.041261 0.000000
# 6 0.000000 0.000000 0.000000 0.000102 0.000000 0.052289
#
#
# Mechanical properties :
#
#
# Convention : Reuss Voigt Hill
#
# Bulk Modulus (GPa) = 19.36983 42.54257 30.95620
# Shear Modulus (GPa) = 21.01283 29.77249 25.39266
#
# Velocity S-wave (km/s) = 3.30426 3.93315 3.63234
# Velocity P-wave (km/s) = 4.96206 6.53690 5.80315
#
# Compressibility (1/GPa) = 0.05162667
#
# Stress axis : x y z
#
# Youngs Moduli (GPa) = 92.26949 97.36572 22.40990
#
# Poissons Ratio (x) = 0.00441 0.13343
# Poissons Ratio (y) = 0.00418 0.02360
# Poissons Ratio (z) = 0.54937 0.10254
#
# Static dielectric constant tensor:
#      x y z
#    x 1.704810 0.000000 0.050330 
#    y 0.000000 1.679500 0.000000 
#    z 0.050330 0.000000 1.686560 
# 
# From -- ./inp_files/68785.got.cif
#   From: 2010.05.17/outbox.cif.g08.bks.cpg/sg11_35_cif.got.tgz:68785.got - 2010.06.03 12:22:45.
