data_PCOD9157017
_publ_section_title
;
Structure prediction by ZEFSAII (Michael W. Deem and Ramdas Pophale) SiO2 
 PCOD9157017
Probable space group: P 21/M
;
_chemical_formula_sum "Si O2"
_cell_formula_units_Z 28
_cell_length_a 29.489484
_cell_length_b 7.950631
_cell_length_c 10.074873
_cell_angle_alpha 90.000000
_cell_angle_beta 38.587968
_cell_angle_gamma 90.000000
_cell_volume 1473.312468
_symmetry_space_group_name_H-M "P 21/M"
_symmetry_group_IT_number 11
_symmetry_cell_setting 'monoclinic'
loop_
_space_group_symop_operation_xyz
x,y,z
-x,1/2+y,-z
-x,-y,-z
x,1/2-y,z
loop_
_atom_site_type_symbol
_atom_site_label
_atom_site_fract_x
_atom_site_fract_y
_atom_site_fract_z
Si Si1 0.264234 0.448725 0.053830
Si Si2 0.950431 0.453676 0.802739
Si Si3 0.695995 0.545501 0.325106
Si Si4 0.184675 0.949301 0.731768
Si Si5 0.896752 0.050790 0.633641
Si Si6 0.416544 0.452389 0.203120
Si Si7 0.299916 0.450239 0.258556
O O1 0.280670 0.250000 0.016508
O O2 0.177374 0.469129 0.245333
O O3 0.293294 0.521441 0.125761
O O4 0.296302 0.517591 0.842546
O O5 0.950991 0.250000 0.800541
O O6 0.918004 0.509572 0.733713
O O7 0.033067 0.514693 0.617266
O O8 0.895279 0.511146 0.043488
O O9 0.699069 0.750000 0.317351
O O10 0.763229 0.484814 0.261140
O O11 0.623363 0.493005 0.569756
O O12 0.180811 0.750000 0.720141
O O13 0.225834 0.024552 0.511342
O O14 0.884704 0.250000 0.668282
O O15 0.412323 0.250000 0.210527
O O16 0.365818 0.517341 0.198575
O O17 0.500000 0.500000 0.000000
O O18 0.310778 0.250000 0.222743
#
# Coordination Sequence:
#
# PCOD9157017 Si02
#       7
#     4   4   4   4   4   4   4
#     4  10  19  34  54  74 101 136 170 208 254 301
#     4   9  18  31  46  70 101 133 171 213 256 300
#     4   9  18  32  53  77 100 132 170 205 245 300
#     4  10  18  31  51  75 101 131 171 217 255 294
#     4  10  19  30  47  73 103 132 168 216 259 297
#     4   9  18  34  54  77 103 130 165 203 242 294
#     4   9  20  36  53  75 103 135 169 204 249 306
#
# _framework density 19.004795000000001
#
# number of rings (size 3 to 8) (size 9 to 14) (size 15 to 20)
#    0.000    2.571    1.429    1.714    0.000    4.571 
#    0.000    1.429    0.000    0.000    0.000    0.000 
#    0.000    0.000    0.000    0.000    0.000    0.000 
#
# Total GULP energy -156126.460520 kJ/mol
# GULP energy per Si atom -5575.945019 kJ/mol
# Density = 1.896154 g / cm^3
# Si number density = 19.004795 Si / 1000 Ang^3
#
#
#
# Elastic Constant Matrix: (Units=GPa)
#
#
# Indices 1 2 3 4 5 6 
#
# 1 80.5613 2.2428 72.1820 0.0000 15.1401 0.0000
# 2 2.2428 11.3740 -5.8397 0.0000 2.6724 0.0000
# 3 72.1820 -5.8397 134.6799 0.0000 -1.1610 0.0000
# 4 0.0000 0.0000 0.0000 22.0955 0.0000 -7.6262
# 5 15.1401 2.6724 -1.1610 0.0000 30.4193 0.0000
# 6 0.0000 0.0000 0.0000 -7.6262 0.0000 13.7643
#
#
#
# Elastic Compliance Matrix: (Units=1/GPa)
#
#
# Indices 1 2 3 4 5 6 
#
# 1 0.031030 -0.011431 -0.017257 0.000000 -0.015099 0.000000
# 2 -0.011431 0.095999 0.010269 0.000000 -0.002352 0.000000
# 3 -0.017257 0.010269 0.017191 0.000000 0.008343 0.000000
# 4 0.000000 0.000000 0.000000 0.055959 0.000000 0.031005
# 5 -0.015099 -0.002352 0.008343 0.000000 0.040914 0.000000
# 6 0.000000 0.000000 0.000000 0.031005 0.000000 0.089830
#
#
# Mechanical properties :
#
#
# Convention : Reuss Voigt Hill
#
# Bulk Modulus (GPa) = 9.31251 40.42058 24.86654
# Shear Modulus (GPa) = 12.38986 23.79115 18.09051
#
# Velocity S-wave (km/s) = 2.55607 3.54199 3.08862
# Velocity P-wave (km/s) = 3.69080 6.16785 5.08254
#
# Compressibility (1/GPa) = 0.10738247
#
# Stress axis : x y z
#
# Youngs Moduli (GPa) = 32.22647 10.41676 58.17028
#
# Poissons Ratio (x) = 0.11908 1.00382
# Poissons Ratio (y) = 0.36839 -0.59734
# Poissons Ratio (z) = 0.55612 -0.10697
#
# Static dielectric constant tensor:
#      x y z
#    x 1.651420 0.000000 0.021960 
#    y 0.000000 1.672490 0.000000 
#    z 0.021960 0.000000 1.680080 
# 
# From -- ./inp_files/28259.got.cif
#   From: 2010.05.17/outbox.cif.g08.bks.cpg/sg11_15_cif.got.tgz:28259.got - 2010.06.03 12:22:45.
