data_PCOD9157618
_publ_section_title
;
Structure prediction by ZEFSAII (Michael W. Deem and Ramdas Pophale) SiO2 
 PCOD9157618
Probable space group: P 21/M
;
_chemical_formula_sum "Si O2"
_cell_formula_units_Z 26
_cell_length_a 12.842161
_cell_length_b 19.205752
_cell_length_c 9.564436
_cell_angle_alpha 90.000000
_cell_angle_beta 32.627597
_cell_angle_gamma 90.000000
_cell_volume 1271.919850
_symmetry_space_group_name_H-M "P 21/M"
_symmetry_group_IT_number 11
_symmetry_cell_setting 'monoclinic'
loop_
_space_group_symop_operation_xyz
x,y,z
-x,1/2+y,-z
-x,-y,-z
x,1/2-y,z
loop_
_atom_site_type_symbol
_atom_site_label
_atom_site_fract_x
_atom_site_fract_y
_atom_site_fract_z
Si Si1 0.394890 0.250000 0.150063
Si Si2 0.212311 0.609079 0.031013
Si Si3 0.830026 0.960524 0.364645
Si Si4 0.261360 0.750000 0.423812
Si Si5 0.495892 0.403047 0.077650
Si Si6 0.937835 0.250000 0.657256
Si Si7 0.553667 0.918239 0.448069
Si Si8 0.643389 0.394272 0.597185
O O1 0.462458 0.320877 0.146665
O O2 0.168173 0.250000 0.386556
O O3 0.510544 0.250000 0.873828
O O4 0.046249 0.561269 0.153743
O O5 0.125310 0.680762 0.188245
O O6 0.322931 0.572445 0.035156
O O7 0.382749 0.619269 0.726888
O O8 0.695466 0.939233 0.649032
O O9 0.745033 0.918698 0.326596
O O10 0.784730 0.042091 0.397042
O O11 0.236368 0.822636 0.530311
O O12 0.153134 0.750000 0.396172
O O13 0.550385 0.408666 0.854516
O O14 0.531056 0.890730 0.317115
O O15 0.500000 0.000000 0.500000
#
# Coordination Sequence:
#
# PCOD9157618 Si02
#       8
#     2   4   4   2   4   2   4   4
#     4  10  18  34  59  83 121 159 187 249 308 359
#     4  11  21  37  62  91 119 159 204 255 301 360
#     4  10  21  37  61  92 120 157 209 250 305 358
#     4  10  22  41  57  85 122 160 198 251 319 355
#     4  10  19  36  58  90 118 156 201 250 305 353
#     4  12  20  37  60  90 119 155 203 254 307 364
#     4   9  22  41  59  87 124 163 197 246 305 361
#     4  10  20  39  61  83 123 165 196 253 307 368
#
# _framework density 20.441538999999999
#
# number of rings (size 3 to 8) (size 9 to 14) (size 15 to 20)
#    0.000    1.846    4.615    0.462    0.000    3.692 
#    0.000   12.308    0.000    0.000    0.000    0.000 
#    0.000    0.000    0.000    0.000    0.000    0.000 
#
# Total GULP energy -145038.461665 kJ/mol
# GULP energy per Si atom -5578.402372 kJ/mol
# Density = 2.039501 g / cm^3
# Si number density = 20.441539 Si / 1000 Ang^3
#
#
#
# Elastic Constant Matrix: (Units=GPa)
#
#
# Indices 1 2 3 4 5 6 
#
# 1 137.2491 8.8117 49.8227 0.0000 9.3040 0.0000
# 2 8.8117 89.7443 -0.3800 0.0000 -6.1015 0.0000
# 3 49.8227 -0.3800 47.5940 0.0000 -11.8477 0.0000
# 4 0.0000 0.0000 0.0000 21.3393 0.0000 0.6025
# 5 9.3040 -6.1015 -11.8477 0.0000 33.8784 0.0000
# 6 0.0000 0.0000 0.0000 0.6025 0.0000 25.9047
#
#
#
# Elastic Compliance Matrix: (Units=1/GPa)
#
#
# Indices 1 2 3 4 5 6 
#
# 1 0.014753 -0.002260 -0.018152 0.000000 -0.010807 0.000000
# 2 -0.002260 0.011646 0.003435 0.000000 0.003919 0.000000
# 3 -0.018152 0.003435 0.045387 0.000000 0.021476 0.000000
# 4 0.000000 0.000000 0.000000 0.046893 0.000000 -0.001091
# 5 -0.010807 0.003919 0.021476 0.000000 0.040701 0.000000
# 6 0.000000 0.000000 0.000000 -0.001091 0.000000 0.038628
#
#
# Mechanical properties :
#
#
# Convention : Reuss Voigt Hill
#
# Bulk Modulus (GPa) = 26.43402 43.45515 34.94459
# Shear Modulus (GPa) = 20.44375 30.64666 25.54520
#
# Velocity S-wave (km/s) = 3.16588 3.87620 3.53890
# Velocity P-wave (km/s) = 5.13063 6.42943 5.81640
#
# Compressibility (1/GPa) = 0.03783004
#
# Stress axis : x y z
#
# Youngs Moduli (GPa) = 67.78232 85.86876 22.03290
#
# Poissons Ratio (x) = 0.19408 0.39994
# Poissons Ratio (y) = 0.15320 -0.07567
# Poissons Ratio (z) = 1.23039 -0.29492
#
# Static dielectric constant tensor:
#      x y z
#    x 1.762830 0.000000 0.013910 
#    y 0.000000 1.794960 0.000000 
#    z 0.013910 0.000000 1.720750 
# 
# From -- ./inp_files/19106.got.cif
#   From: 2010.05.17/outbox.cif.g08.bks.cpg/sg11_10_cif.got.tgz:19106.got - 2010.06.03 12:22:45.
