data_PCOD9158142
_publ_section_title
;
Structure prediction by ZEFSAII (Michael W. Deem and Ramdas Pophale) SiO2 
 PCOD9158142
Probable space group: P 21/M
;
_chemical_formula_sum "Si O2"
_cell_formula_units_Z 28
_cell_length_a 19.458315
_cell_length_b 9.077226
_cell_length_c 16.394096
_cell_angle_alpha 90.000000
_cell_angle_beta 32.597932
_cell_angle_gamma 90.000000
_cell_volume 1560.002802
_symmetry_space_group_name_H-M "P 21/M"
_symmetry_group_IT_number 11
_symmetry_cell_setting 'monoclinic'
loop_
_space_group_symop_operation_xyz
x,y,z
-x,1/2+y,-z
-x,-y,-z
x,1/2-y,z
loop_
_atom_site_type_symbol
_atom_site_label
_atom_site_fract_x
_atom_site_fract_y
_atom_site_fract_z
Si Si1 0.909863 0.422568 0.846408
Si Si2 0.427839 0.575265 0.997265
Si Si3 0.108116 0.578245 0.943654
Si Si4 0.934766 0.083275 0.441977
Si Si5 0.615080 0.070991 0.135752
Si Si6 0.402516 0.929145 0.661156
Si Si7 0.810072 0.916211 0.703743
O O1 0.918546 0.250000 0.813450
O O2 0.011355 0.516017 0.694922
O O3 0.927548 0.432890 0.925422
O O4 0.763818 0.473369 0.978139
O O5 0.444822 0.750000 0.984174
O O6 0.281969 0.530019 0.159653
O O7 0.500000 0.500000 0.000000
O O8 0.457258 0.524942 0.874691
O O9 0.109189 0.750000 0.920393
O O10 0.255486 0.526572 0.788796
O O11 0.000000 0.500000 0.000000
O O12 0.886193 0.250000 0.481598
O O13 0.058200 0.089306 0.378091
O O14 0.837339 0.976859 0.586106
O O15 0.615392 0.250000 0.136049
O O16 0.570726 0.026533 0.270796
O O17 0.408818 0.750000 0.651201
O O18 0.500000 0.000000 0.500000
O O19 0.756962 0.750000 0.755372
#
# Coordination Sequence:
#
# PCOD9158142 Si02
#       7
#     4   4   4   4   4   4   4
#     4   9  16  31  53  75  99 135 177 216 258 313
#     4  11  21  35  54  74 101 140 180 222 266 313
#     4   9  19  34  54  79 110 142 177 219 271 327
#     4  10  19  30  49  77 103 128 163 212 259 302
#     4   8  16  32  54  74  99 136 178 216 259 313
#     4   9  18  35  57  83 108 138 179 223 268 325
#     4  10  20  33  49  72 102 133 167 208 255 308
#
# _framework density 17.948685999999999
#
# number of rings (size 3 to 8) (size 9 to 14) (size 15 to 20)
#    0.000    2.571    1.429    3.000    0.000    2.286 
#    0.000    5.000    0.000    5.143    0.000    0.000 
#    0.000    0.000    0.000    0.000    0.000    0.000 
#
# Total GULP energy -155958.535913 kJ/mol
# GULP energy per Si atom -5569.947711 kJ/mol
# Density = 1.790783 g / cm^3
# Si number density = 17.948686 Si / 1000 Ang^3
#
#
#
# Elastic Constant Matrix: (Units=GPa)
#
#
# Indices 1 2 3 4 5 6 
#
# 1 103.9498 36.4745 37.6311 0.0000 16.2248 0.0000
# 2 36.4745 43.0029 19.2909 0.0000 7.3567 0.0000
# 3 37.6311 19.2909 88.2340 0.0000 25.6126 0.0000
# 4 0.0000 0.0000 0.0000 30.7907 0.0000 1.4873
# 5 16.2248 7.3567 25.6126 0.0000 14.1517 0.0000
# 6 0.0000 0.0000 0.0000 1.4873 0.0000 27.6893
#
#
#
# Elastic Compliance Matrix: (Units=1/GPa)
#
#
# Indices 1 2 3 4 5 6 
#
# 1 0.015410 -0.010800 -0.001501 0.000000 -0.009337 0.000000
# 2 -0.010800 0.033662 -0.002672 0.000000 -0.000281 0.000000
# 3 -0.001501 -0.002672 0.024556 0.000000 -0.041333 0.000000
# 4 0.000000 0.000000 0.000000 0.032562 0.000000 -0.001749
# 5 -0.009337 -0.000281 -0.041333 0.000000 0.156321 0.000000
# 6 0.000000 0.000000 0.000000 -0.001749 0.000000 0.036209
#
#
# Mechanical properties :
#
#
# Convention : Reuss Voigt Hill
#
# Bulk Modulus (GPa) = 22.89252 46.88664 34.88958
# Shear Modulus (GPa) = 14.56765 23.97902 19.27334
#
# Velocity S-wave (km/s) = 2.85200 3.65907 3.28045
# Velocity P-wave (km/s) = 4.86079 6.63559 5.81628
#
# Compressibility (1/GPa) = 0.04368240
#
# Stress axis : x y z
#
# Youngs Moduli (GPa) = 64.89142 29.70749 40.72338
#
# Poissons Ratio (x) = 0.32085 0.06111
# Poissons Ratio (y) = 0.70085 0.10880
# Poissons Ratio (z) = 0.09738 0.07937
#
# Static dielectric constant tensor:
#      x y z
#    x 1.651190 0.000000 -0.005870 
#    y 0.000000 1.617740 0.000000 
#    z -0.005870 0.000000 1.617800 
# 
# From -- ./inp_files/37216.got.cif
#   From: 2010.05.17/outbox.cif.g08.bks.cpg/sg11_19_cif.got.tgz:37216.got - 2010.06.03 12:22:45.
