data_PCOD9158079
_publ_section_title
;
Structure prediction by ZEFSAII (Michael W. Deem and Ramdas Pophale) SiO2 
 PCOD9158079
Probable space group: P 21/M
;
_chemical_formula_sum "Si O2"
_cell_formula_units_Z 32
_cell_length_a 14.719003
_cell_length_b 14.843430
_cell_length_c 8.210485
_cell_angle_alpha 90.000000
_cell_angle_beta 123.371335
_cell_angle_gamma 90.000000
_cell_volume 1498.069646
_symmetry_space_group_name_H-M "P 21/M"
_symmetry_group_IT_number 11
_symmetry_cell_setting 'monoclinic'
loop_
_space_group_symop_operation_xyz
x,y,z
-x,1/2+y,-z
-x,-y,-z
x,1/2-y,z
loop_
_atom_site_type_symbol
_atom_site_label
_atom_site_fract_x
_atom_site_fract_y
_atom_site_fract_z
Si Si1 0.139496 0.353406 0.260170
Si Si2 0.072583 0.994716 0.411565
Si Si3 0.558909 0.640830 0.587430
Si Si4 0.625206 0.649611 0.315981
Si Si5 0.161916 0.852790 0.279287
Si Si6 0.613313 0.151245 0.302668
Si Si7 0.239765 0.015206 0.127801
Si Si8 0.300858 0.503146 0.818956
O O1 0.107086 0.250000 0.209848
O O2 0.060213 0.415767 0.289466
O O3 0.257752 0.352850 0.470311
O O4 0.157328 0.407350 0.110042
O O5 0.070852 0.905941 0.295794
O O6 0.195558 0.996257 0.599240
O O7 0.000000 0.000000 0.500000
O O8 0.589969 0.750000 0.634346
O O9 0.538474 0.629388 0.373672
O O10 0.464298 0.624639 0.623998
O O11 0.647184 0.563677 0.711494
O O12 0.610017 0.750000 0.242979
O O13 0.633412 0.584574 0.171849
O O14 0.133342 0.750000 0.200497
O O15 0.267587 0.843894 0.498603
O O16 0.202163 0.923912 0.181455
O O17 0.579953 0.250000 0.215423
O O18 0.624352 0.085597 0.161678
O O19 0.254057 0.997951 0.952451
#
# Coordination Sequence:
#
# PCOD9158079 Si02
#       8
#     4   4   4   4   4   4   4   4
#     4   8  15  30  49  69  94 124 156 190 235 286
#     4   9  18  34  55  74  92 122 165 205 238 282
#     4   9  17  31  51  72  95 128 168 202 233 278
#     4   8  15  28  46  67  91 121 159 199 234 275
#     4   9  19  35  52  70  96 130 164 197 237 286
#     4   9  18  33  51  69  92 128 171 205 232 274
#     4  10  19  30  48  72 101 131 154 192 246 293
#     4  10  20  31  47  73 100 125 156 200 250 291
#
# _framework density 21.360823
#
# number of rings (size 3 to 8) (size 9 to 14) (size 15 to 20)
#    0.000    3.000    0.000    3.375    0.000    4.500 
#    0.000    2.500    0.000    4.500    0.000    0.000 
#    0.000    0.000    0.000    0.000    0.000    0.000 
#
# Total GULP energy -178269.504961 kJ/mol
# GULP energy per Si atom -5570.922030 kJ/mol
# Density = 2.131220 g / cm^3
# Si number density = 21.360823 Si / 1000 Ang^3
#
#
#
# Elastic Constant Matrix: (Units=GPa)
#
#
# Indices 1 2 3 4 5 6 
#
# 1 107.0754 72.5309 31.1169 0.0000 -40.2832 0.0000
# 2 72.5309 187.0847 55.7987 0.0000 -50.8565 0.0000
# 3 31.1169 55.7987 65.5296 0.0000 -32.4428 0.0000
# 4 0.0000 0.0000 0.0000 -39.3638 0.0000 -0.4034
# 5 -40.2832 -50.8565 -32.4428 0.0000 53.2186 0.0000
# 6 0.0000 0.0000 0.0000 -0.4034 0.0000 6.7218
#
#
#
# Elastic Compliance Matrix: (Units=1/GPa)
#
#
# Indices 1 2 3 4 5 6 
#
# 1 0.014660 -0.003573 -0.000165 0.000000 0.007581 0.000000
# 2 -0.003573 0.008868 -0.004294 0.000000 0.003152 0.000000
# 3 -0.000165 -0.004294 0.024208 0.000000 0.010529 0.000000
# 4 0.000000 0.000000 0.000000 -0.025388 0.000000 -0.001524
# 5 0.007581 0.003152 0.010529 0.000000 0.033960 0.000000
# 6 0.000000 0.000000 0.000000 -0.001524 0.000000 0.148678
#
#
# Mechanical properties :
#
#
# Convention : Reuss Voigt Hill
#
# Bulk Modulus (GPa) = 31.57485 75.39809 53.48647
# Shear Modulus (GPa) = 21.58832 17.46487 19.52659
#
# Velocity S-wave (km/s) = 3.18252 2.86249 3.02674
# Velocity P-wave (km/s) = 5.32150 6.80435 6.10809
#
# Compressibility (1/GPa) = 0.03167077
#
# Stress axis : x y z
#
# Youngs Moduli (GPa) = 68.21331 112.76487 41.30919
#
# Poissons Ratio (x) = 0.40295 0.00683
# Poissons Ratio (y) = 0.24375 0.17737
# Poissons Ratio (z) = 0.01127 0.48419
#
# Static dielectric constant tensor:
#      x y z
#    x 1.801250 0.000000 0.039330 
#    y 0.000000 1.805880 0.000000 
#    z 0.039330 0.000000 1.803450 
# 
# From -- ./inp_files/21893.got.cif
#   From: 2010.05.17/outbox.cif.g08.bks.cpg/sg11_11_cif.got.tgz:21893.got - 2010.06.03 12:22:45.
