data_PCOD9158028
_publ_section_title
;
Structure prediction by ZEFSAII (Michael W. Deem and Ramdas Pophale) SiO2 
 PCOD9158028
Probable space group: P 21/M
;
_chemical_formula_sum "Si O2"
_cell_formula_units_Z 32
_cell_length_a 15.237040
_cell_length_b 8.828191
_cell_length_c 15.879841
_cell_angle_alpha 90.000000
_cell_angle_beta 118.551352
_cell_angle_gamma 90.000000
_cell_volume 1876.313556
_symmetry_space_group_name_H-M "P 21/M"
_symmetry_group_IT_number 11
_symmetry_cell_setting 'monoclinic'
loop_
_space_group_symop_operation_xyz
x,y,z
-x,1/2+y,-z
-x,-y,-z
x,1/2-y,z
loop_
_atom_site_type_symbol
_atom_site_label
_atom_site_fract_x
_atom_site_fract_y
_atom_site_fract_z
Si Si1 0.921851 0.068680 0.660667
Si Si2 0.419664 0.431859 0.275823
Si Si3 0.622188 0.568372 0.436116
Si Si4 0.349389 0.067821 0.899394
Si Si5 0.809987 0.068588 0.435995
Si Si6 0.263500 0.068378 0.339705
Si Si7 0.140429 0.066858 0.719872
Si Si8 0.548256 0.069145 0.892002
O O1 0.917326 0.250000 0.666330
O O2 0.879565 0.029686 0.548114
O O3 0.037173 0.021188 0.717262
O O4 0.845149 0.998834 0.691972
O O5 0.424014 0.250000 0.277489
O O6 0.515686 0.495476 0.369223
O O7 0.320488 0.479329 0.281399
O O8 0.425030 0.493439 0.183866
O O9 0.615756 0.750000 0.427081
O O10 0.702856 0.506424 0.406263
O O11 0.666549 0.526887 0.548096
O O12 0.352068 0.250000 0.912523
O O13 0.240362 0.024619 0.816166
O O14 0.435324 0.030104 0.870359
O O15 0.381046 0.988458 0.000370
O O16 0.800171 0.250000 0.427718
O O17 0.853629 0.004933 0.369774
O O18 0.255626 0.250000 0.336240
O O19 0.139738 0.250000 0.710762
O O20 0.554083 0.250000 0.886753
#
# Coordination Sequence:
#
# PCOD9158028 Si02
#       8
#     4   4   4   4   4   4   4   4
#     4   9  19  33  49  71 100 134 171 210 247 287
#     4  11  21  33  51  75 101 130 166 205 247 295
#     4  10  19  32  49  71 101 135 169 204 244 290
#     4   9  19  35  53  73 100 130 158 196 246 296
#     4  10  19  30  46  72 104 136 169 204 244 290
#     4   9  20  35  50  70  99 135 170 206 247 289
#     4  10  19  32  51  74 100 132 169 206 249 297
#     4  10  20  34  53  77 102 129 160 195 243 300
#
# _framework density 17.05472
#
# number of rings (size 3 to 8) (size 9 to 14) (size 15 to 20)
#    0.000    2.250    0.000    3.000    0.000    4.500 
#    0.000    0.000    0.000    0.750    0.000    0.000 
#    0.000    0.000    0.000    0.000    0.000    0.000 
#
# Total GULP energy -178618.787540 kJ/mol
# GULP energy per Si atom -5581.837111 kJ/mol
# Density = 1.701590 g / cm^3
# Si number density = 17.054720 Si / 1000 Ang^3
#
#
#
# Elastic Constant Matrix: (Units=GPa)
#
#
# Indices 1 2 3 4 5 6 
#
# 1 169.3186 45.5280 77.5576 0.0000 -0.1090 0.0000
# 2 45.5280 31.6070 32.1664 0.0000 -1.4140 0.0000
# 3 77.5576 32.1664 68.3304 0.0000 0.4725 0.0000
# 4 0.0000 0.0000 0.0000 23.5065 0.0000 -2.6996
# 5 -0.1090 -1.4140 0.4725 0.0000 25.8232 0.0000
# 6 0.0000 0.0000 0.0000 -2.6996 0.0000 28.0103
#
#
#
# Elastic Compliance Matrix: (Units=1/GPa)
#
#
# Indices 1 2 3 4 5 6 
#
# 1 0.013098 -0.007187 -0.011483 0.000000 -0.000128 0.000000
# 2 -0.007187 0.065064 -0.022499 0.000000 0.003944 0.000000
# 3 -0.011483 -0.022499 0.038273 0.000000 -0.001981 0.000000
# 4 0.000000 0.000000 0.000000 0.043017 0.000000 0.004146
# 5 -0.000128 0.003944 -0.001981 0.000000 0.038976 0.000000
# 6 0.000000 0.000000 0.000000 0.004146 0.000000 0.036101
#
#
# Mechanical properties :
#
#
# Convention : Reuss Voigt Hill
#
# Bulk Modulus (GPa) = 29.32668 64.41778 46.87223
# Shear Modulus (GPa) = 15.23303 23.06828 19.15066
#
# Velocity S-wave (km/s) = 2.99186 3.68177 3.35460
# Velocity P-wave (km/s) = 5.40074 7.47844 6.52285
#
# Compressibility (1/GPa) = 0.03409865
#
# Stress axis : x y z
#
# Youngs Moduli (GPa) = 76.34619 15.36940 26.12785
#
# Poissons Ratio (x) = 0.11046 0.30002
# Poissons Ratio (y) = 0.54869 0.58785
# Poissons Ratio (z) = 0.87668 0.34579
#
# Static dielectric constant tensor:
#      x y z
#    x 1.578770 0.000000 0.005260 
#    y 0.000000 1.571820 0.000000 
#    z 0.005260 0.000000 1.555470 
# 
# From -- ./inp_files/51608.got.cif
#   From: 2010.05.17/outbox.cif.g08.bks.cpg/sg11_26_cif.got.tgz:51608.got - 2010.06.03 12:22:45.
