data_PCOD9158108
_publ_section_title
;
Structure prediction by ZEFSAII (Michael W. Deem and Ramdas Pophale) SiO2 
 PCOD9158108
Probable space group: P 21/M
;
_chemical_formula_sum "Si O2"
_cell_formula_units_Z 32
_cell_length_a 15.423621
_cell_length_b 8.733480
_cell_length_c 15.478412
_cell_angle_alpha 90.000000
_cell_angle_beta 101.449968
_cell_angle_gamma 90.000000
_cell_volume 2043.477066
_symmetry_space_group_name_H-M "P 21/M"
_symmetry_group_IT_number 11
_symmetry_cell_setting 'monoclinic'
loop_
_space_group_symop_operation_xyz
x,y,z
-x,1/2+y,-z
-x,-y,-z
x,1/2-y,z
loop_
_atom_site_type_symbol
_atom_site_label
_atom_site_fract_x
_atom_site_fract_y
_atom_site_fract_z
Si Si1 0.068913 0.933214 0.393690
Si Si2 0.587053 0.932485 0.129177
Si Si3 0.919945 0.933614 0.791193
Si Si4 0.610420 0.434116 0.943469
Si Si5 0.872025 0.566835 0.418104
Si Si6 0.198458 0.565174 0.081582
Si Si7 0.247279 0.933386 0.751328
Si Si8 0.117873 0.564028 0.881774
O O1 0.074602 0.750000 0.394015
O O2 0.966154 0.976483 0.392237
O O3 0.096040 0.000424 0.307132
O O4 0.123910 0.999024 0.484965
O O5 0.596103 0.750000 0.136744
O O6 0.483312 0.972579 0.118886
O O7 0.654294 0.011089 0.208075
O O8 0.612055 0.987344 0.037485
O O9 0.919975 0.750000 0.787640
O O10 0.018173 0.985257 0.841140
O O11 0.849437 0.991324 0.846676
O O12 0.612059 0.250000 0.958282
O O13 0.698057 0.474288 0.907908
O O14 0.867641 0.750000 0.421042
O O15 0.794503 0.501468 0.343521
O O16 0.191381 0.750000 0.086184
O O17 0.151056 0.515605 0.982741
O O18 0.244378 0.750000 0.747325
O O19 0.184892 0.985165 0.819431
O O20 0.119175 0.750000 0.882019
#
# Coordination Sequence:
#
# PCOD9158108 Si02
#       8
#     4   4   4   4   4   4   4   4
#     4  10  20  34  51  72  97 131 166 201 247 297
#     4  10  19  30  48  74  99 125 164 210 251 295
#     4  11  21  33  48  71  99 132 170 211 247 282
#     4   9  18  33  50  68  96 132 166 205 253 297
#     4  10  20  33  51  75 100 126 162 208 248 289
#     4  10  19  34  50  67  94 135 175 206 244 293
#     4  11  19  32  51  72 100 136 167 198 247 302
#     4   9  18  31  47  66  96 134 170 201 237 285
#
# _framework density 15.659583
#
# number of rings (size 3 to 8) (size 9 to 14) (size 15 to 20)
#    0.000    2.000    2.500    2.250    0.000    2.000 
#    0.000    0.625    0.000    0.000    0.000    0.875 
#    0.000    0.000    0.000    0.000    0.000    0.000 
#
# Total GULP energy -178586.991967 kJ/mol
# GULP energy per Si atom -5580.843499 kJ/mol
# Density = 1.562394 g / cm^3
# Si number density = 15.659583 Si / 1000 Ang^3
#
#
#
# Elastic Constant Matrix: (Units=GPa)
#
#
# Indices 1 2 3 4 5 6 
#
# 1 99.9497 35.4572 75.7422 0.0000 9.1827 0.0000
# 2 35.4572 36.9505 41.5354 0.0000 6.5274 0.0000
# 3 75.7422 41.5354 138.3906 0.0000 10.3190 0.0000
# 4 0.0000 0.0000 0.0000 26.2965 0.0000 1.0199
# 5 9.1827 6.5274 10.3190 0.0000 24.7271 0.0000
# 6 0.0000 0.0000 0.0000 1.0199 0.0000 20.7692
#
#
#
# Elastic Compliance Matrix: (Units=1/GPa)
#
#
# Indices 1 2 3 4 5 6 
#
# 1 0.019323 -0.009840 -0.007515 0.000000 -0.001442 0.000000
# 2 -0.009840 0.046689 -0.008237 0.000000 -0.005233 0.000000
# 3 -0.007515 -0.008237 0.013873 0.000000 -0.000824 0.000000
# 4 0.000000 0.000000 0.000000 0.038100 0.000000 -0.001871
# 5 -0.001442 -0.005233 -0.000824 0.000000 0.042702 0.000000
# 6 0.000000 0.000000 0.000000 -0.001871 0.000000 0.048240
#
#
# Mechanical properties :
#
#
# Convention : Reuss Voigt Hill
#
# Bulk Modulus (GPa) = 34.84220 64.52892 49.68556
# Shear Modulus (GPa) = 18.54055 22.52896 20.53476
#
# Velocity S-wave (km/s) = 3.44463 3.79709 3.62515
# Velocity P-wave (km/s) = 6.17403 7.77950 7.02280
#
# Compressibility (1/GPa) = 0.02870083
#
# Stress axis : x y z
#
# Youngs Moduli (GPa) = 51.75161 21.41810 72.08502
#
# Poissons Ratio (x) = 0.21076 0.54170
# Poissons Ratio (y) = 0.50924 0.59378
# Poissons Ratio (z) = 0.38890 0.17642
#
# Static dielectric constant tensor:
#      x y z
#    x 1.520520 0.000000 0.013650 
#    y 0.000000 1.522140 0.000000 
#    z 0.013650 0.000000 1.496540 
# 
# From -- ./inp_files/51223.got.cif
#   From: 2010.05.17/outbox.cif.g08.bks.cpg/sg11_26_cif.got.tgz:51223.got - 2010.06.03 12:22:45.
