data_PCOD9158582
_publ_section_title
;
Structure prediction by ZEFSAII (Michael W. Deem and Ramdas Pophale) SiO2 
 PCOD9158582
Probable space group: P 21/M
;
_chemical_formula_sum "Si O2"
_cell_formula_units_Z 32
_cell_length_a 27.326957
_cell_length_b 8.734935
_cell_length_c 21.243299
_cell_angle_alpha 90.000000
_cell_angle_beta 19.914597
_cell_angle_gamma 90.000000
_cell_volume 1727.197100
_symmetry_space_group_name_H-M "P 21/M"
_symmetry_group_IT_number 11
_symmetry_cell_setting 'monoclinic'
loop_
_space_group_symop_operation_xyz
x,y,z
-x,1/2+y,-z
-x,-y,-z
x,1/2-y,z
loop_
_atom_site_type_symbol
_atom_site_label
_atom_site_fract_x
_atom_site_fract_y
_atom_site_fract_z
Si Si1 0.160265 0.067425 0.633404
Si Si2 0.268515 0.432333 0.293154
Si Si3 0.067435 0.566921 0.981716
Si Si4 0.966476 0.433180 0.341131
Si Si5 0.526577 0.934008 0.063717
Si Si6 0.286299 0.063688 0.921671
Si Si7 0.471574 0.934790 0.273419
Si Si8 0.346432 0.065966 0.705072
O O1 0.165363 0.250000 0.619003
O O2 0.314675 0.007345 0.468833
O O3 0.116944 0.990893 0.619965
O O4 0.039386 0.030027 0.831249
O O5 0.255824 0.250000 0.311896
O O6 0.391053 0.487133 0.194048
O O7 0.119774 0.506237 0.494405
O O8 0.332706 0.474812 0.147186
O O9 0.079404 0.750000 0.962435
O O10 0.221723 0.495713 0.810664
O O11 0.000000 0.500000 0.000000
O O12 0.964236 0.250000 0.344285
O O13 0.131255 0.486210 0.135174
O O14 0.506920 0.750000 0.082123
O O15 0.530501 0.972619 0.132381
O O16 0.285654 0.250000 0.923237
O O17 0.416982 0.013890 0.808045
O O18 0.308435 0.017045 0.822588
O O19 0.457857 0.750000 0.293600
O O20 0.349563 0.250000 0.699278
O O21 0.500000 0.000000 0.500000
#
# Coordination Sequence:
#
# PCOD9158582 Si02
#       8
#     4   4   4   4   4   4   4   4
#     4  11  23  38  58  88 118 146 189 245 293 335
#     4  10  19  31  51  81 116 148 189 244 291 339
#     4  11  25  43  63  90 122 156 195 244 297 351
#     4  11  20  36  59  83 111 153 198 234 283 346
#     4   9  18  32  52  80 113 151 191 235 292 347
#     4   9  21  39  60  84 113 151 195 237 282 345
#     4  10  20  37  60  85 113 151 195 238 287 348
#     4  11  23  42  63  88 120 159 200 240 293 353
#
# _framework density 18.527128000000001
#
# number of rings (size 3 to 8) (size 9 to 14) (size 15 to 20)
#    0.000    1.750    2.500    1.875    1.750    2.000 
#    0.000    2.500    0.000    0.000    0.000    0.000 
#    0.000    0.000    0.000    0.000    0.000    0.000 
#
# Total GULP energy -178743.181515 kJ/mol
# GULP energy per Si atom -5585.724422 kJ/mol
# Density = 1.848496 g / cm^3
# Si number density = 18.527128 Si / 1000 Ang^3
#
#
#
# Elastic Constant Matrix: (Units=GPa)
#
#
# Indices 1 2 3 4 5 6 
#
# 1 77.8573 24.9982 48.4270 0.0000 -16.1701 0.0000
# 2 24.9982 34.6456 44.5109 0.0000 4.4355 0.0000
# 3 48.4270 44.5109 162.1819 0.0000 -10.6687 0.0000
# 4 0.0000 0.0000 0.0000 31.9358 0.0000 4.3402
# 5 -16.1701 4.4355 -10.6687 0.0000 31.8563 0.0000
# 6 0.0000 0.0000 0.0000 4.3402 0.0000 13.9734
#
#
#
# Elastic Compliance Matrix: (Units=1/GPa)
#
#
# Indices 1 2 3 4 5 6 
#
# 1 0.021083 -0.015057 -0.001351 0.000000 0.012346 0.000000
# 2 -0.015057 0.059089 -0.013052 0.000000 -0.020242 0.000000
# 3 -0.001351 -0.013052 0.010456 0.000000 0.004634 0.000000
# 4 0.000000 0.000000 0.000000 0.032693 0.000000 -0.010155
# 5 0.012346 -0.020242 0.004634 0.000000 0.042028 0.000000
# 6 0.000000 0.000000 0.000000 -0.010155 0.000000 0.074719
#
#
# Mechanical properties :
#
#
# Convention : Reuss Voigt Hill
#
# Bulk Modulus (GPa) = 31.53890 56.72856 44.13373
# Shear Modulus (GPa) = 16.15213 26.00301 21.07757
#
# Velocity S-wave (km/s) = 2.95585 3.75041 3.37658
# Velocity P-wave (km/s) = 5.35812 7.03134 6.25097
#
# Compressibility (1/GPa) = 0.03170688
#
# Stress axis : x y z
#
# Youngs Moduli (GPa) = 47.43217 16.92373 95.63690
#
# Poissons Ratio (x) = 0.25483 0.12917
# Poissons Ratio (y) = 0.71421 1.24828
# Poissons Ratio (z) = 0.06406 0.22089
#
# Static dielectric constant tensor:
#      x y z
#    x 1.616280 0.000000 0.020720 
#    y 0.000000 1.626710 0.000000 
#    z 0.020720 0.000000 1.641270 
# 
# From -- ./inp_files/66922.got.cif
#   From: 2010.05.17/outbox.cif.g08.bks.cpg/sg11_34_cif.got.tgz:66922.got - 2010.06.03 12:22:45.
