data_PCOD9158534
_publ_section_title
;
Structure prediction by ZEFSAII (Michael W. Deem and Ramdas Pophale) SiO2 
 PCOD9158534
Probable space group: P 21/M
;
_chemical_formula_sum "Si O2"
_cell_formula_units_Z 28
_cell_length_a 14.053777
_cell_length_b 8.889357
_cell_length_c 15.323732
_cell_angle_alpha 90.000000
_cell_angle_beta 48.793755
_cell_angle_gamma 90.000000
_cell_volume 1440.269958
_symmetry_space_group_name_H-M "P 21/M"
_symmetry_group_IT_number 11
_symmetry_cell_setting 'monoclinic'
loop_
_space_group_symop_operation_xyz
x,y,z
-x,1/2+y,-z
-x,-y,-z
x,1/2-y,z
loop_
_atom_site_type_symbol
_atom_site_label
_atom_site_fract_x
_atom_site_fract_y
_atom_site_fract_z
Si Si1 0.392774 0.922679 0.620351
Si Si2 0.774407 0.419764 0.440177
Si Si3 0.635959 0.068022 0.165765
Si Si4 0.373620 0.926882 0.299754
Si Si5 0.978791 0.074465 0.732049
Si Si6 0.074936 0.931417 0.037489
Si Si7 0.119866 0.429059 0.374867
O O1 0.431043 0.750000 0.608996
O O2 0.271812 0.926202 0.630943
O O3 0.367879 0.984013 0.730868
O O4 0.500000 0.000000 0.500000
O O5 0.825067 0.250000 0.427101
O O6 0.659362 0.440983 0.576792
O O7 0.880113 0.544070 0.388238
O O8 0.627569 0.250000 0.165957
O O9 0.510227 0.999017 0.198724
O O10 0.776279 0.025879 0.049906
O O11 0.374918 0.750000 0.277739
O O12 0.253025 0.005636 0.328427
O O13 0.945096 0.250000 0.746643
O O14 0.976347 0.028562 0.835199
O O15 0.893873 0.978089 0.717853
O O16 0.067876 0.750000 0.032521
O O17 0.000000 0.000000 0.000000
O O18 0.115489 0.250000 0.387430
O O19 0.000000 0.500000 0.500000
#
# Coordination Sequence:
#
# PCOD9158534 Si02
#       7
#     4   4   4   4   4   4   4
#     4  10  19  31  50  78 113 151 190 235 290 356
#     4  10  20  34  54  83 120 158 195 244 305 364
#     4  10  21  38  59  84 121 164 203 251 308 363
#     4  11  22  37  59  89 123 157 199 249 304 366
#     4  11  23  39  62  91 121 158 207 257 306 363
#     4  10  23  43  66  92 124 165 212 259 304 362
#     4  12  24  40  63  91 124 162 203 252 311 371
#
# _framework density 19.440798000000001
#
# number of rings (size 3 to 8) (size 9 to 14) (size 15 to 20)
#    0.000    1.429    2.857    3.000    0.000    4.000 
#    0.000    0.714    0.000    0.000    0.000    0.000 
#    0.000    0.000    0.000    0.000    0.000    0.000 
#
# Total GULP energy -156221.984488 kJ/mol
# GULP energy per Si atom -5579.356589 kJ/mol
# Density = 1.939655 g / cm^3
# Si number density = 19.440798 Si / 1000 Ang^3
#
#
#
# Elastic Constant Matrix: (Units=GPa)
#
#
# Indices 1 2 3 4 5 6 
#
# 1 99.8061 51.7362 37.4301 0.0000 -10.0712 0.0000
# 2 51.7362 73.1011 34.9656 0.0000 -9.8616 0.0000
# 3 37.4301 34.9656 83.3935 0.0000 -16.0978 0.0000
# 4 0.0000 0.0000 0.0000 21.9981 0.0000 -3.2904
# 5 -10.0712 -9.8616 -16.0978 0.0000 34.2961 0.0000
# 6 0.0000 0.0000 0.0000 -3.2904 0.0000 33.5997
#
#
#
# Elastic Compliance Matrix: (Units=1/GPa)
#
#
# Indices 1 2 3 4 5 6 
#
# 1 0.016461 -0.010126 -0.003048 0.000000 0.000492 0.000000
# 2 -0.010126 0.023432 -0.005007 0.000000 0.001414 0.000000
# 3 -0.003048 -0.005007 0.016503 0.000000 0.005412 0.000000
# 4 0.000000 0.000000 0.000000 0.046134 0.000000 0.004518
# 5 0.000492 0.001414 0.005412 0.000000 0.032249 0.000000
# 6 0.000000 0.000000 0.000000 0.004518 0.000000 0.030205
#
#
# Mechanical properties :
#
#
# Convention : Reuss Voigt Hill
#
# Bulk Modulus (GPa) = 49.91238 56.06270 52.98754
# Shear Modulus (GPa) = 24.03587 26.79004 25.41295
#
# Velocity S-wave (km/s) = 3.52001 3.71621 3.61944
# Velocity P-wave (km/s) = 6.50003 6.87851 6.69195
#
# Compressibility (1/GPa) = 0.02003511
#
# Stress axis : x y z
#
# Youngs Moduli (GPa) = 60.74986 42.67734 60.59459
#
# Poissons Ratio (x) = 0.43214 0.18468
# Poissons Ratio (y) = 0.61514 0.30338
# Poissons Ratio (z) = 0.18515 0.21367
#
# Static dielectric constant tensor:
#      x y z
#    x 1.719300 0.000000 0.006310 
#    y 0.000000 1.672740 0.000000 
#    z 0.006310 0.000000 1.680720 
# 
# From -- ./inp_files/60096.got.cif
#   From: 2010.05.17/outbox.cif.g08.bks.cpg/sg11_31_cif.got.tgz:60096.got - 2010.06.03 12:22:45.
