data_PCOD9158946
_publ_section_title
;
Structure prediction by ZEFSAII (Michael W. Deem and Ramdas Pophale) SiO2 
 PCOD9158946
Probable space group: P 21/M
;
_chemical_formula_sum "Si O2"
_cell_formula_units_Z 32
_cell_length_a 33.406204
_cell_length_b 8.745382
_cell_length_c 25.985030
_cell_angle_alpha 90.000000
_cell_angle_beta 13.987001
_cell_angle_gamma 90.000000
_cell_volume 1834.885363
_symmetry_space_group_name_H-M "P 21/M"
_symmetry_group_IT_number 11
_symmetry_cell_setting 'monoclinic'
loop_
_space_group_symop_operation_xyz
x,y,z
-x,1/2+y,-z
-x,-y,-z
x,1/2-y,z
loop_
_atom_site_type_symbol
_atom_site_label
_atom_site_fract_x
_atom_site_fract_y
_atom_site_fract_z
Si Si1 0.747248 0.432301 0.160084
Si Si2 0.153452 0.934782 0.776416
Si Si3 0.384566 0.934452 0.289690
Si Si4 0.761138 0.933557 0.823410
Si Si5 0.092822 0.932089 0.463468
Si Si6 0.345774 0.431881 0.224475
Si Si7 0.105861 0.565341 0.718158
Si Si8 0.573990 0.066158 0.484187
O O1 0.240913 0.750000 0.856581
O O2 0.604212 0.490423 0.300477
O O3 0.682956 0.475816 0.297751
O O4 0.925357 0.504842 0.928370
O O5 0.143873 0.750000 0.789812
O O6 0.143988 0.984761 0.729076
O O7 0.321908 0.979076 0.595625
O O8 0.000000 0.000000 0.000000
O O9 0.375076 0.750000 0.296655
O O10 0.248003 0.984368 0.501320
O O11 0.353469 0.006107 0.272729
O O12 0.572516 0.971345 0.072209
O O13 0.771708 0.750000 0.801139
O O14 0.900831 0.970919 0.691436
O O15 0.811438 0.016954 0.707855
O O16 0.107803 0.750000 0.451318
O O17 0.179690 0.014834 0.402539
O O18 0.358328 0.250000 0.208324
O O19 0.500000 0.500000 0.000000
O O20 0.102406 0.750000 0.722324
O O21 0.554544 0.250000 0.507904
#
# Coordination Sequence:
#
# PCOD9158946 Si02
#       8
#     4   4   4   4   4   4   4   4
#     4  10  19  32  52  78 109 144 181 224 272 322
#     4  10  19  33  54  81 109 139 181 227 272 322
#     4  10  21  38  57  80 110 145 182 223 272 329
#     4   9  18  33  54  79 110 145 182 223 270 323
#     4  10  19  32  54  84 112 140 179 228 276 320
#     4  12  23  36  56  83 111 144 184 230 274 323
#     4  10  21  36  56  80 110 145 180 222 275 330
#     4   9  18  32  51  78 109 141 180 227 272 319
#
# _framework density 17.439779999999999
#
# number of rings (size 3 to 8) (size 9 to 14) (size 15 to 20)
#    0.000    2.000    2.500    1.875    0.000    2.000 
#    0.000    1.250    0.000    4.500    0.000    0.000 
#    0.000    0.000    0.000    0.000    0.000    0.000 
#
# Total GULP energy -178599.192109 kJ/mol
# GULP energy per Si atom -5581.224753 kJ/mol
# Density = 1.740009 g / cm^3
# Si number density = 17.439780 Si / 1000 Ang^3
#
#
#
# Elastic Constant Matrix: (Units=GPa)
#
#
# Indices 1 2 3 4 5 6 
#
# 1 125.9533 35.8935 93.5192 0.0000 -12.4568 0.0000
# 2 35.8935 29.2429 43.0184 0.0000 -3.1688 0.0000
# 3 93.5192 43.0184 162.3521 0.0000 -12.9151 0.0000
# 4 0.0000 0.0000 0.0000 23.9103 0.0000 -2.2557
# 5 -12.4568 -3.1688 -12.9151 0.0000 29.6359 0.0000
# 6 0.0000 0.0000 0.0000 -2.2557 0.0000 23.6281
#
#
#
# Elastic Compliance Matrix: (Units=1/GPa)
#
#
# Indices 1 2 3 4 5 6 
#
# 1 0.015570 -0.009737 -0.006165 0.000000 0.002817 0.000000
# 2 -0.009737 0.062137 -0.011035 0.000000 -0.002258 0.000000
# 3 -0.006165 -0.011035 0.012777 0.000000 0.001797 0.000000
# 4 0.000000 0.000000 0.000000 0.042203 0.000000 0.004029
# 5 0.002817 -0.002258 0.001797 0.000000 0.035469 0.000000
# 6 0.000000 0.000000 0.000000 0.004029 0.000000 0.042707
#
#
# Mechanical properties :
#
#
# Convention : Reuss Voigt Hill
#
# Bulk Modulus (GPa) = 27.31461 73.60116 50.45789
# Shear Modulus (GPa) = 18.05440 25.10934 21.58187
#
# Velocity S-wave (km/s) = 3.22101 3.79855 3.52164
# Velocity P-wave (km/s) = 5.43410 7.84432 6.74769
#
# Compressibility (1/GPa) = 0.03661044
#
# Stress axis : x y z
#
# Youngs Moduli (GPa) = 64.22564 16.09346 78.26328
#
# Poissons Ratio (x) = 0.15671 0.48246
# Poissons Ratio (y) = 0.62538 0.86364
# Poissons Ratio (z) = 0.39593 0.17759
#
# Static dielectric constant tensor:
#      x y z
#    x 1.584780 0.000000 -0.019160 
#    y 0.000000 1.583290 0.000000 
#    z -0.019160 0.000000 1.581180 
# 
# From -- ./inp_files/67011.got.cif
#   From: 2010.05.17/outbox.cif.g08.bks.cpg/sg11_34_cif.got.tgz:67011.got - 2010.06.03 12:22:45.
