data_PCOD9158097
_publ_section_title
;
Structure prediction by ZEFSAII (Michael W. Deem and Ramdas Pophale) SiO2 
 PCOD9158097
Probable space group: P 21/M
;
_chemical_formula_sum "Si O2"
_cell_formula_units_Z 32
_cell_length_a 7.411360
_cell_length_b 22.722309
_cell_length_c 7.332056
_cell_angle_alpha 90.000000
_cell_angle_beta 77.579496
_cell_angle_gamma 90.000000
_cell_volume 1205.843107
_symmetry_space_group_name_H-M "P 21/M"
_symmetry_group_IT_number 11
_symmetry_cell_setting 'monoclinic'
loop_
_space_group_symop_operation_xyz
x,y,z
-x,1/2+y,-z
-x,-y,-z
x,1/2-y,z
loop_
_atom_site_type_symbol
_atom_site_label
_atom_site_fract_x
_atom_site_fract_y
_atom_site_fract_z
Si Si1 0.478908 0.937383 0.821052
Si Si2 0.943699 0.057979 0.201535
Si Si3 0.848382 0.688087 0.323419
Si Si4 0.879248 0.563028 0.221164
Si Si5 0.581104 0.314241 0.705759
Si Si6 0.450939 0.187059 0.136998
Si Si7 0.049525 0.313367 0.276597
Si Si8 0.540236 0.440161 0.736371
O O1 0.265436 0.947752 0.824253
O O2 0.523392 0.871297 0.751317
O O3 0.594936 0.991068 0.709263
O O4 0.494111 0.935973 0.037387
O O5 0.957246 0.123306 0.277905
O O6 0.970577 0.994455 0.292056
O O7 0.084530 0.056478 0.002221
O O8 0.926150 0.750000 0.232952
O O9 0.949492 0.628498 0.243860
O O10 0.632080 0.686977 0.316483
O O11 0.875106 0.689481 0.534169
O O12 0.662060 0.564069 0.309128
O O13 0.663919 0.250000 0.632058
O O14 0.647844 0.381441 0.648908
O O15 0.573531 0.313707 0.928386
O O16 0.480429 0.250000 0.224348
O O17 0.237921 0.184917 0.117588
O O18 0.955864 0.250000 0.256442
#
# Coordination Sequence:
#
# PCOD9158097 Si02
#       8
#     4   4   4   4   4   4   4   4
#     4   9  16  26  44  68  95 122 148 188 239 283
#     4  10  19  30  48  74 100 126 158 196 241 287
#     4   9  17  30  49  70  92 123 161 198 236 278
#     4   9  18  32  50  72  97 126 161 200 238 281
#     4   8  13  24  45  67  85 109 147 193 231 265
#     4   9  17  30  48  69  90 116 155 199 237 278
#     4  10  20  32  48  70  94 123 161 200 237 282
#     4   8  14  26  44  66  93 119 149 188 231 274
#
# _framework density 26.537451999999998
#
# number of rings (size 3 to 8) (size 9 to 14) (size 15 to 20)
#    0.000    3.000    0.000    2.250    0.000    3.500 
#    0.000    0.000    0.000   11.250    0.000    8.750 
#    0.000    0.000    0.000    0.000    0.000    0.000 
#
# Total GULP energy -178453.142540 kJ/mol
# GULP energy per Si atom -5576.660704 kJ/mol
# Density = 2.647705 g / cm^3
# Si number density = 26.537452 Si / 1000 Ang^3
#
#
#
# Elastic Constant Matrix: (Units=GPa)
#
#
# Indices 1 2 3 4 5 6 
#
# 1 56.2892 20.4674 -1.7682 0.0000 -0.8585 0.0000
# 2 20.4674 357.8923 25.9063 0.0000 0.5693 0.0000
# 3 -1.7682 25.9063 61.8009 0.0000 -1.6375 0.0000
# 4 0.0000 0.0000 0.0000 31.8156 0.0000 17.0656
# 5 -0.8585 0.5693 -1.6375 0.0000 18.0400 0.0000
# 6 0.0000 0.0000 0.0000 17.0656 0.0000 25.0171
#
#
#
# Elastic Compliance Matrix: (Units=1/GPa)
#
#
# Indices 1 2 3 4 5 6 
#
# 1 0.018219 -0.001117 0.001016 0.000000 0.000994 0.000000
# 2 -0.001117 0.002951 -0.001276 0.000000 -0.000262 0.000000
# 3 0.001016 -0.001276 0.016788 0.000000 0.001612 0.000000
# 4 0.000000 0.000000 0.000000 0.049568 0.000000 -0.033813
# 5 0.000994 -0.000262 0.001612 0.000000 0.055634 0.000000
# 6 0.000000 0.000000 0.000000 -0.033813 0.000000 0.063039
#
#
# Mechanical properties :
#
#
# Convention : Reuss Voigt Hill
#
# Bulk Modulus (GPa) = 28.40664 62.79925 45.60294
# Shear Modulus (GPa) = 22.65655 43.73299 33.19477
#
# Velocity S-wave (km/s) = 2.92508 4.06393 3.54059
# Velocity P-wave (km/s) = 4.70486 6.76287 5.82547
#
# Compressibility (1/GPa) = 0.03520304
#
# Stress axis : x y z
#
# Youngs Moduli (GPa) = 54.88884 338.89259 59.56775
#
# Poissons Ratio (x) = 0.37855 -0.06051
# Poissons Ratio (y) = 0.06131 0.07600
# Poissons Ratio (z) = -0.05576 0.43237
#
# Static dielectric constant tensor:
#      x y z
#    x 2.056980 0.000000 0.020330 
#    y 0.000000 2.254780 0.000000 
#    z 0.020330 0.000000 2.035140 
# 
# From -- ./inp_files/14811.got.cif
#   From: 2010.05.17/outbox.cif.g08.bks.cpg/sg11_8_cif.got.tgz:14811.got - 2010.06.03 12:22:45.
