data_PCOD9158993
_publ_section_title
;
Structure prediction by ZEFSAII (Michael W. Deem and Ramdas Pophale) SiO2 
 PCOD9158993
Probable space group: P 21/M
;
_chemical_formula_sum "Si O2"
_cell_formula_units_Z 28
_cell_length_a 6.304117
_cell_length_b 13.583025
_cell_length_c 18.211562
_cell_angle_alpha 90.000000
_cell_angle_beta 66.652983
_cell_angle_gamma 90.000000
_cell_volume 1431.753036
_symmetry_space_group_name_H-M "P 21/M"
_symmetry_group_IT_number 11
_symmetry_cell_setting 'monoclinic'
loop_
_space_group_symop_operation_xyz
x,y,z
-x,1/2+y,-z
-x,-y,-z
x,1/2-y,z
loop_
_atom_site_type_symbol
_atom_site_label
_atom_site_fract_x
_atom_site_fract_y
_atom_site_fract_z
Si Si1 0.287716 0.144918 0.850230
Si Si2 0.429749 0.037194 0.121156
Si Si3 0.736665 0.365959 0.438436
Si Si4 0.851834 0.961000 0.701751
Si Si5 0.605904 0.488388 0.583987
Si Si6 0.817859 0.863402 0.306759
Si Si7 0.839903 0.431547 0.971872
O O1 0.398988 0.250000 0.852729
O O2 0.431959 0.056419 0.864758
O O3 0.263437 0.133892 0.766476
O O4 0.025125 0.143915 0.915466
O O5 0.259788 0.995345 0.082027
O O6 0.292787 0.080061 0.209397
O O7 0.622282 0.100938 0.051413
O O8 0.720479 0.250000 0.454583
O O9 0.779583 0.430991 0.506003
O O10 0.502449 0.413704 0.437489
O O11 0.941166 0.390495 0.353171
O O12 0.701060 0.984767 0.650635
O O13 0.966028 0.064289 0.711897
O O14 0.392473 0.412024 0.620170
O O15 0.863394 0.750000 0.320852
O O16 0.000000 0.500000 0.000000
#
# Coordination Sequence:
#
# PCOD9158993 Si02
#       7
#     4   4   4   4   4   4   4
#     4  10  19  32  52  82 115 145 183 233 282 333
#     4  10  19  34  55  80 110 148 189 226 280 337
#     4  10  23  40  59  84 115 150 192 239 286 342
#     4  11  21  36  60  87 115 152 193 238 283 346
#     4  10  21  40  60  82 115 154 192 234 290 343
#     4  10  20  32  53  87 120 149 185 234 287 339
#     4   9  19  34  54  77 106 151 185 226 275 334
#
# _framework density 19.556445
#
# number of rings (size 3 to 8) (size 9 to 14) (size 15 to 20)
#    0.000    2.000    2.857    0.857    0.000    2.857 
#    0.000    0.714    0.000    8.571    0.000    0.000 
#    0.000    0.000    0.000    0.000    0.000    0.000 
#
# Total GULP energy -156125.516952 kJ/mol
# GULP energy per Si atom -5575.911320 kJ/mol
# Density = 1.951193 g / cm^3
# Si number density = 19.556445 Si / 1000 Ang^3
#
#
#
# Elastic Constant Matrix: (Units=GPa)
#
#
# Indices 1 2 3 4 5 6 
#
# 1 60.5604 13.2807 24.8291 0.0000 10.1317 0.0000
# 2 13.2807 66.1567 14.3922 0.0000 -1.6007 0.0000
# 3 24.8291 14.3922 137.9913 0.0000 -11.3659 0.0000
# 4 0.0000 0.0000 0.0000 2.3056 0.0000 0.3331
# 5 10.1317 -1.6007 -11.3659 0.0000 37.3244 0.0000
# 6 0.0000 0.0000 0.0000 0.3331 0.0000 13.4337
#
#
#
# Elastic Compliance Matrix: (Units=1/GPa)
#
#
# Indices 1 2 3 4 5 6 
#
# 1 0.019919 -0.003337 -0.003788 0.000000 -0.006704 0.000000
# 2 -0.003337 0.016027 -0.000964 0.000000 0.001299 0.000000
# 3 -0.003788 -0.000964 0.008319 0.000000 0.003520 0.000000
# 4 0.000000 0.000000 0.000000 0.435279 0.000000 -0.010794
# 5 -0.006704 0.001299 0.003520 0.000000 0.029739 0.000000
# 6 0.000000 0.000000 0.000000 -0.010794 0.000000 0.074707
#
#
# Mechanical properties :
#
#
# Convention : Reuss Voigt Hill
#
# Bulk Modulus (GPa) = 35.60447 41.07915 38.34181
# Shear Modulus (GPa) = 8.20304 24.75985 16.48145
#
# Velocity S-wave (km/s) = 2.05028 3.56205 2.90619
# Velocity P-wave (km/s) = 4.88369 6.16187 5.55963
#
# Compressibility (1/GPa) = 0.02808636
#
# Stress axis : x y z
#
# Youngs Moduli (GPa) = 50.20388 62.39607 120.20746
#
# Poissons Ratio (x) = 0.20820 0.45537
# Poissons Ratio (y) = 0.16752 0.11590
# Poissons Ratio (z) = 0.19018 0.06016
#
# Static dielectric constant tensor:
#      x y z
#    x 1.687050 0.000000 -0.044540 
#    y 0.000000 1.729750 0.000000 
#    z -0.044540 0.000000 1.740840 
# 
# From -- ./inp_files/56921.got.cif
#   From: 2010.05.17/outbox.cif.g08.bks.cpg/sg11_29_cif.got.tgz:56921.got - 2010.06.03 12:22:45.
