data_PCOD9158522
_publ_section_title
;
Structure prediction by ZEFSAII (Michael W. Deem and Ramdas Pophale) SiO2 
 PCOD9158522
Probable space group: P 21/M
;
_chemical_formula_sum "Si O2"
_cell_formula_units_Z 28
_cell_length_a 13.161777
_cell_length_b 7.897429
_cell_length_c 16.215367
_cell_angle_alpha 90.000000
_cell_angle_beta 124.397696
_cell_angle_gamma 90.000000
_cell_volume 1390.761597
_symmetry_space_group_name_H-M "P 21/M"
_symmetry_group_IT_number 11
_symmetry_cell_setting 'monoclinic'
loop_
_space_group_symop_operation_xyz
x,y,z
-x,1/2+y,-z
-x,-y,-z
x,1/2-y,z
loop_
_atom_site_type_symbol
_atom_site_label
_atom_site_fract_x
_atom_site_fract_y
_atom_site_fract_z
Si Si1 0.029604 0.046370 0.272359
Si Si2 0.782008 0.053596 0.229327
Si Si3 0.511322 0.953237 0.637120
Si Si4 0.692813 0.451301 0.584743
Si Si5 0.320304 0.448623 0.991114
Si Si6 0.071639 0.547324 0.950370
Si Si7 0.456387 0.958394 0.795307
O O1 0.019316 0.250000 0.267237
O O2 0.918178 0.978958 0.278459
O O3 0.001511 0.989860 0.165576
O O4 0.166495 0.002118 0.361455
O O5 0.797790 0.250000 0.259864
O O6 0.680628 0.981168 0.244798
O O7 0.719736 0.043585 0.110121
O O8 0.501063 0.750000 0.635806
O O9 0.400259 0.019392 0.528088
O O10 0.499224 0.015081 0.724763
O O11 0.637053 0.993471 0.647046
O O12 0.686023 0.250000 0.578524
O O13 0.332322 0.250000 0.976419
O O14 0.207989 0.470626 0.004042
O O15 0.445560 0.510662 0.090359
O O16 0.083788 0.750000 0.952605
O O17 0.000000 0.500000 0.000000
O O18 0.456426 0.750000 0.796515
#
# Coordination Sequence:
#
# PCOD9158522 Si02
#       7
#     4   4   4   4   4   4   4
#     4   9  19  34  53  72  99 139 171 203 256 312
#     4   9  18  35  54  75 102 138 179 211 250 307
#     4   9  19  36  55  76 103 134 169 213 263 315
#     4  10  20  34  54  78 103 132 170 216 263 308
#     4  10  19  31  50  77 106 138 172 209 257 306
#     4  10  21  35  50  73 105 139 174 214 255 306
#     4   9  18  33  55  77 101 136 176 213 255 312
#
# _framework density 20.132854999999999
#
# number of rings (size 3 to 8) (size 9 to 14) (size 15 to 20)
#    0.000    2.571    0.000    2.571    2.000    3.429 
#    0.000    2.857    0.000    0.000    0.000    0.000 
#    0.000    0.000    0.000    0.000    0.000    0.000 
#
# Total GULP energy -156215.678371 kJ/mol
# GULP energy per Si atom -5579.131370 kJ/mol
# Density = 2.008703 g / cm^3
# Si number density = 20.132855 Si / 1000 Ang^3
#
#
#
# Elastic Constant Matrix: (Units=GPa)
#
#
# Indices 1 2 3 4 5 6 
#
# 1 102.0485 -8.4498 27.3492 0.0000 21.1543 0.0000
# 2 -8.4498 22.4491 -3.6113 0.0000 0.8409 0.0000
# 3 27.3492 -3.6113 28.9742 0.0000 17.8365 0.0000
# 4 0.0000 0.0000 0.0000 17.7858 0.0000 3.8707
# 5 21.1543 0.8409 17.8365 0.0000 25.0610 0.0000
# 6 0.0000 0.0000 0.0000 3.8707 0.0000 17.6714
#
#
#
# Elastic Compliance Matrix: (Units=1/GPa)
#
#
# Indices 1 2 3 4 5 6 
#
# 1 0.013655 0.003828 -0.009321 0.000000 -0.005021 0.000000
# 2 0.003828 0.047951 0.009509 0.000000 -0.011608 0.000000
# 3 -0.009321 0.009509 0.070924 0.000000 -0.042929 0.000000
# 4 0.000000 0.000000 0.000000 0.059039 0.000000 -0.012932
# 5 -0.005021 -0.011608 -0.042929 0.000000 0.075084 0.000000
# 6 0.000000 0.000000 0.000000 -0.012932 0.000000 0.059421
#
#
# Mechanical properties :
#
#
# Convention : Reuss Voigt Hill
#
# Bulk Modulus (GPa) = 7.11432 20.44978 13.78205
# Shear Modulus (GPa) = 13.70251 21.31587 17.50919
#
# Velocity S-wave (km/s) = 2.61167 3.25739 2.95224
# Velocity P-wave (km/s) = 3.55469 4.93223 4.29899
#
# Compressibility (1/GPa) = 0.14056151
#
# Stress axis : x y z
#
# Youngs Moduli (GPa) = 73.23216 20.85472 14.09958
#
# Poissons Ratio (x) = -0.07984 0.13143
# Poissons Ratio (y) = -0.28036 -0.13407
# Poissons Ratio (z) = 0.68263 -0.19830
#
# Static dielectric constant tensor:
#      x y z
#    x 1.732920 0.000000 0.010270 
#    y 0.000000 1.713010 0.000000 
#    z 0.010270 0.000000 1.703740 
# 
# From -- ./inp_files/38502.got.cif
#   From: 2010.05.17/outbox.cif.g08.bks.cpg/sg11_20_cif.got.tgz:38502.got - 2010.06.03 12:22:45.
