data_PCOD9158281
_publ_section_title
;
Structure prediction by ZEFSAII (Michael W. Deem and Ramdas Pophale) SiO2 
 PCOD9158281
Probable space group: P 21/M
;
_chemical_formula_sum "Si O2"
_cell_formula_units_Z 28
_cell_length_a 25.671281
_cell_length_b 8.611310
_cell_length_c 9.804107
_cell_angle_alpha 90.000000
_cell_angle_beta 34.878447
_cell_angle_gamma 90.000000
_cell_volume 1239.359497
_symmetry_space_group_name_H-M "P 21/M"
_symmetry_group_IT_number 11
_symmetry_cell_setting 'monoclinic'
loop_
_space_group_symop_operation_xyz
x,y,z
-x,1/2+y,-z
-x,-y,-z
x,1/2-y,z
loop_
_atom_site_type_symbol
_atom_site_label
_atom_site_fract_x
_atom_site_fract_y
_atom_site_fract_z
Si Si1 0.956637 0.562949 0.776840
Si Si2 0.591906 0.063343 0.875098
Si Si3 0.898628 0.934183 0.189229
Si Si4 0.158753 0.934893 0.425097
Si Si5 0.669120 0.929762 0.448741
Si Si6 0.801818 0.561912 0.928356
Si Si7 0.522573 0.071823 0.302643
O O1 0.965227 0.750000 0.747268
O O2 0.056701 0.505630 0.601764
O O3 0.889341 0.532985 0.049430
O O4 0.901915 0.506088 0.763382
O O5 0.589273 0.250000 0.886251
O O6 0.664775 0.011644 0.604528
O O7 0.591521 0.007937 0.035200
O O8 0.500000 0.000000 0.000000
O O9 0.899498 0.750000 0.206332
O O10 0.830702 0.007655 0.443983
O O11 0.000000 0.000000 0.000000
O O12 0.160608 0.750000 0.420569
O O13 0.220990 0.999214 0.171413
O O14 0.694163 0.750000 0.421219
O O15 0.734232 0.993302 0.190865
O O16 0.571412 0.929732 0.582061
O O17 0.800515 0.750000 0.927340
O O18 0.549601 0.250000 0.271453
O O19 0.500000 0.000000 0.500000
#
# Coordination Sequence:
#
# PCOD9158281 Si02
#       7
#     4   4   4   4   4   4   4
#     4   8  16  30  49  71  93 122 166 210 247 290
#     4   9  17  31  52  75  99 125 157 192 230 280
#     4   9  16  29  48  69  92 119 155 201 247 292
#     4  10  19  31  47  71  99 128 167 209 246 292
#     4   9  19  34  51  73 100 128 163 200 240 291
#     4  10  19  33  51  70  96 130 163 203 250 291
#     4   9  18  32  51  77 101 124 157 195 232 280
#
# _framework density 22.592314999999999
#
# number of rings (size 3 to 8) (size 9 to 14) (size 15 to 20)
#    0.000    2.857    0.000    3.429    0.000    3.429 
#    0.000    5.000    0.000    6.857    0.000    0.000 
#    0.000    0.000    0.000    0.000    0.000    0.000 
#
# Total GULP energy -156020.172886 kJ/mol
# GULP energy per Si atom -5572.149032 kJ/mol
# Density = 2.254089 g / cm^3
# Si number density = 22.592315 Si / 1000 Ang^3
#
#
#
# Elastic Constant Matrix: (Units=GPa)
#
#
# Indices 1 2 3 4 5 6 
#
# 1 65.1375 11.2998 30.3375 0.0000 28.6598 0.0000
# 2 11.2998 41.5738 41.7606 0.0000 24.3898 0.0000
# 3 30.3375 41.7606 168.3993 0.0000 54.3336 0.0000
# 4 0.0000 0.0000 0.0000 36.5896 0.0000 13.6286
# 5 28.6598 24.3898 54.3336 0.0000 46.8407 0.0000
# 6 0.0000 0.0000 0.0000 13.6286 0.0000 11.8258
#
#
#
# Elastic Compliance Matrix: (Units=1/GPa)
#
#
# Indices 1 2 3 4 5 6 
#
# 1 0.021217 0.002541 0.000261 0.000000 -0.014607 0.000000
# 2 0.002541 0.037133 -0.004676 0.000000 -0.015465 0.000000
# 3 0.000261 -0.004676 0.010095 0.000000 -0.009434 0.000000
# 4 0.000000 0.000000 0.000000 0.047885 0.000000 -0.055185
# 5 -0.014607 -0.015465 -0.009434 0.000000 0.049282 0.000000
# 6 0.000000 0.000000 0.000000 -0.055185 0.000000 0.148158
#
#
# Mechanical properties :
#
#
# Convention : Reuss Voigt Hill
#
# Bulk Modulus (GPa) = 15.45713 49.10070 32.27892
# Shear Modulus (GPa) = 14.74552 31.83206 23.28879
#
# Velocity S-wave (km/s) = 2.55753 3.75771 3.21413
# Velocity P-wave (km/s) = 3.94688 6.37242 5.30026
#
# Compressibility (1/GPa) = 0.06469505
#
# Stress axis : x y z
#
# Youngs Moduli (GPa) = 47.13222 26.92992 99.05962
#
# Poissons Ratio (x) = -0.06842 -0.02581
# Poissons Ratio (y) = -0.11976 0.46325
# Poissons Ratio (z) = -0.01228 0.12594
#
# Static dielectric constant tensor:
#      x y z
#    x 1.877780 0.000000 -0.062100 
#    y 0.000000 1.796330 0.000000 
#    z -0.062100 0.000000 1.973930 
# 
# From -- ./inp_files/29027.got.cif
#   From: 2010.05.17/outbox.cif.g08.bks.cpg/sg11_15_cif.got.tgz:29027.got - 2010.06.03 12:22:45.
