data_PCOD9158505
_publ_section_title
;
Structure prediction by ZEFSAII (Michael W. Deem and Ramdas Pophale) SiO2 
 PCOD9158505
Probable space group: P 21/M
;
_chemical_formula_sum "Si O2"
_cell_formula_units_Z 32
_cell_length_a 17.192403
_cell_length_b 7.420153
_cell_length_c 22.087211
_cell_angle_alpha 90.000000
_cell_angle_beta 27.517176
_cell_angle_gamma 90.000000
_cell_volume 1301.804977
_symmetry_space_group_name_H-M "P 21/M"
_symmetry_group_IT_number 11
_symmetry_cell_setting 'monoclinic'
loop_
_space_group_symop_operation_xyz
x,y,z
-x,1/2+y,-z
-x,-y,-z
x,1/2-y,z
loop_
_atom_site_type_symbol
_atom_site_label
_atom_site_fract_x
_atom_site_fract_y
_atom_site_fract_z
Si Si1 0.506582 0.036456 0.815925
Si Si2 0.837709 0.465450 0.652354
Si Si3 0.301377 0.534374 0.639633
Si Si4 0.154080 0.964732 0.104558
Si Si5 0.671820 0.464748 0.509687
Si Si6 0.001711 0.544459 0.917387
Si Si7 0.348655 0.029440 0.797533
Si Si8 0.007018 0.534165 0.331752
O O1 0.531230 0.250000 0.789603
O O2 0.675412 0.961915 0.729137
O O3 0.438492 0.969531 0.798171
O O4 0.351850 0.004815 0.967681
O O5 0.812516 0.250000 0.675851
O O6 0.000000 0.500000 0.500000
O O7 0.887584 0.535599 0.684286
O O8 0.500000 0.500000 0.500000
O O9 0.277534 0.750000 0.658773
O O10 0.253466 0.464917 0.605395
O O11 0.184162 0.459916 0.774862
O O12 0.129565 0.750000 0.117083
O O13 0.075635 0.035701 0.220582
O O14 0.078818 0.045930 0.094957
O O15 0.656521 0.250000 0.513635
O O16 0.483839 0.531909 0.654183
O O17 0.806786 0.497277 0.469454
O O18 0.023946 0.750000 0.921357
O O19 0.847040 0.468971 0.064719
O O20 0.342585 0.250000 0.801079
O O21 0.024579 0.750000 0.319163
#
# Coordination Sequence:
#
# PCOD9158505 Si02
#       8
#     4   4   4   4   4   4   4   4
#     4   9  18  33  51  71 101 140 177 214 260 312
#     4  10  21  36  51  71 102 140 179 220 270 319
#     4  10  21  35  55  80 107 137 172 211 256 310
#     4  10  19  31  50  76 103 134 171 216 265 308
#     4  10  19  34  56  81 102 132 181 219 248 311
#     4   9  17  34  55  77 104 137 173 209 255 312
#     4   8  15  29  53  77  99 130 172 218 254 288
#     4  10  21  34  50  75 107 137 168 219 274 310
#
# _framework density 24.581254999999999
#
# number of rings (size 3 to 8) (size 9 to 14) (size 15 to 20)
#    0.000    2.500    1.250    1.875    0.000    4.000 
#    0.000    4.375    0.000    0.000    0.000    0.000 
#    0.000    0.000    0.000    0.000    0.000    0.000 
#
# Total GULP energy -178748.655636 kJ/mol
# GULP energy per Si atom -5585.895489 kJ/mol
# Density = 2.452531 g / cm^3
# Si number density = 24.581255 Si / 1000 Ang^3
#
#
#
# Elastic Constant Matrix: (Units=GPa)
#
#
# Indices 1 2 3 4 5 6 
#
# 1 90.4155 13.8782 41.4701 0.0000 -12.9363 0.0000
# 2 13.8782 85.1153 -2.6501 0.0000 -1.2564 0.0000
# 3 41.4701 -2.6501 187.2804 0.0000 -9.7241 0.0000
# 4 0.0000 0.0000 0.0000 18.3927 0.0000 -5.6055
# 5 -12.9363 -1.2564 -9.7241 0.0000 50.2817 0.0000
# 6 0.0000 0.0000 0.0000 -5.6055 0.0000 13.1669
#
#
#
# Elastic Compliance Matrix: (Units=1/GPa)
#
#
# Indices 1 2 3 4 5 6 
#
# 1 0.013065 -0.002176 -0.002780 0.000000 0.002769 0.000000
# 2 -0.002176 0.012122 0.000647 0.000000 -0.000132 0.000000
# 3 -0.002780 0.000647 0.005988 0.000000 0.000459 0.000000
# 4 0.000000 0.000000 0.000000 0.062476 0.000000 0.026598
# 5 0.002769 -0.000132 0.000459 0.000000 0.020686 0.000000
# 6 0.000000 0.000000 0.000000 0.026598 0.000000 0.087271
#
#
# Mechanical properties :
#
#
# Convention : Reuss Voigt Hill
#
# Bulk Modulus (GPa) = 44.33385 52.02305 48.17845
# Shear Modulus (GPa) = 22.96251 37.04245 30.00248
#
# Velocity S-wave (km/s) = 3.05970 3.88614 3.49742
# Velocity P-wave (km/s) = 5.52785 6.43007 5.99595
#
# Compressibility (1/GPa) = 0.02255613
#
# Stress axis : x y z
#
# Youngs Moduli (GPa) = 76.53789 82.49633 166.99571
#
# Poissons Ratio (x) = 0.17951 0.46427
# Poissons Ratio (y) = 0.16655 -0.10797
# Poissons Ratio (z) = 0.21278 -0.05334
#
# Static dielectric constant tensor:
#      x y z
#    x 1.993060 0.000000 -0.007550 
#    y 0.000000 1.911610 0.000000 
#    z -0.007550 0.000000 1.989810 
# 
# From -- ./inp_files/67029.got.cif
#   From: 2010.05.17/outbox.cif.g08.bks.cpg/sg11_34_cif.got.tgz:67029.got - 2010.06.03 12:22:45.
