data_PCOD9158020
_publ_section_title
;
Structure prediction by ZEFSAII (Michael W. Deem and Ramdas Pophale) SiO2 
 PCOD9158020
Probable space group: P 21/M
;
_chemical_formula_sum "Si O2"
_cell_formula_units_Z 32
_cell_length_a 22.816873
_cell_length_b 8.664746
_cell_length_c 29.238492
_cell_angle_alpha 90.000000
_cell_angle_beta 161.355701
_cell_angle_gamma 90.000000
_cell_volume 1847.986061
_symmetry_space_group_name_H-M "P 21/M"
_symmetry_group_IT_number 11
_symmetry_cell_setting 'monoclinic'
loop_
_space_group_symop_operation_xyz
x,y,z
-x,1/2+y,-z
-x,-y,-z
x,1/2-y,z
loop_
_atom_site_type_symbol
_atom_site_label
_atom_site_fract_x
_atom_site_fract_y
_atom_site_fract_z
Si Si1 0.148417 0.436370 0.074820
Si Si2 0.281038 0.065065 0.566414
Si Si3 0.701043 0.432398 0.275297
Si Si4 0.574534 0.433820 0.861690
Si Si5 0.557037 0.435937 0.403818
Si Si6 0.059776 0.436174 0.905927
Si Si7 0.650019 0.436969 0.575547
Si Si8 0.004211 0.063738 0.435625
O O1 0.144539 0.250000 0.073090
O O2 0.351405 0.487841 0.239175
O O3 0.102048 0.486252 0.989089
O O4 0.000000 0.500000 0.000000
O O5 0.294569 0.250000 0.572738
O O6 0.441403 0.014179 0.720912
O O7 0.086458 0.028495 0.446667
O O8 0.313136 0.993210 0.540824
O O9 0.668564 0.250000 0.251797
O O10 0.522681 0.515641 0.163108
O O11 0.858662 0.476869 0.428532
O O12 0.797611 0.474818 0.298429
O O13 0.580741 0.250000 0.864427
O O14 0.775627 0.501558 0.003328
O O15 0.559285 0.250000 0.405267
O O16 0.607810 0.487088 0.492406
O O17 0.064805 0.250000 0.908218
O O18 0.855884 0.485581 0.741171
O O19 0.500000 0.500000 0.500000
O O20 0.642833 0.250000 0.571766
O O21 0.026531 0.250000 0.459047
#
# Coordination Sequence:
#
# PCOD9158020 Si02
#       8
#     4   4   4   4   4   4   4   4
#     4  10  20  32  49  71  95 121 156 195 237 292
#     4   9  17  29  46  70  99 130 164 202 241 286
#     4   9  15  24  41  64  96 135 166 199 244 292
#     4  10  19  30  46  71 101 130 165 208 247 290
#     4  10  20  34  50  72  99 127 160 201 245 290
#     4  10  20  35  52  72  97 129 165 200 244 298
#     4  10  22  38  55  74  99 128 162 205 248 296
#     4   8  15  26  39  63  98 132 168 203 240 287
#
# _framework density 17.316147999999998
#
# number of rings (size 3 to 8) (size 9 to 14) (size 15 to 20)
#    0.000    2.500    1.250    2.250    0.000    4.500 
#    0.000    0.000    0.000    0.000    0.000    0.875 
#    0.000    0.000    0.000    0.000    0.000    0.000 
#
# Total GULP energy -178317.028668 kJ/mol
# GULP energy per Si atom -5572.407146 kJ/mol
# Density = 1.727674 g / cm^3
# Si number density = 17.316148 Si / 1000 Ang^3
#
#
#
# Elastic Constant Matrix: (Units=GPa)
#
#
# Indices 1 2 3 4 5 6 
#
# 1 160.5145 25.8789 84.7268 0.0000 28.1095 0.0000
# 2 25.8789 7.3521 23.0820 0.0000 4.1681 0.0000
# 3 84.7268 23.0820 110.4173 0.0000 12.8746 0.0000
# 4 0.0000 0.0000 0.0000 11.9045 0.0000 11.0192
# 5 28.1095 4.1681 12.8746 0.0000 31.9209 0.0000
# 6 0.0000 0.0000 0.0000 11.0192 0.0000 29.2941
#
#
#
# Elastic Compliance Matrix: (Units=1/GPa)
#
#
# Indices 1 2 3 4 5 6 
#
# 1 0.015879 -0.047098 -0.001496 0.000000 -0.007230 0.000000
# 2 -0.047098 0.546979 -0.078397 0.000000 0.001671 0.000000
# 3 -0.001496 -0.078397 0.026492 0.000000 0.000870 0.000000
# 4 0.000000 0.000000 0.000000 0.128873 0.000000 -0.048476
# 5 -0.007230 0.001671 0.000870 0.000000 0.037125 0.000000
# 6 0.000000 0.000000 0.000000 -0.048476 0.000000 0.052371
#
#
# Mechanical properties :
#
#
# Convention : Reuss Voigt Hill
#
# Bulk Modulus (GPa) = 2.98180 60.62882 31.80531
# Shear Modulus (GPa) = 4.26079 24.26365 14.26222
#
# Velocity S-wave (km/s) = 1.57033 3.74734 2.87302
# Velocity P-wave (km/s) = 2.23911 7.33569 5.42337
#
# Compressibility (1/GPa) = 0.33536755
#
# Stress axis : x y z
#
# Youngs Moduli (GPa) = 62.97585 1.82822 37.74779
#
# Poissons Ratio (x) = 0.08610 0.05648
# Poissons Ratio (y) = 2.96601 2.95933
# Poissons Ratio (z) = 0.09422 0.14333
#
# Static dielectric constant tensor:
#      x y z
#    x 1.606720 0.000000 0.013510 
#    y 0.000000 1.594520 0.000000 
#    z 0.013510 0.000000 1.584760 
# 
# From -- ./inp_files/72168.got.cif
#   From: 2010.05.17/outbox.cif.g08.bks.cpg/sg11_37_cif.got.tgz:72168.got - 2010.06.03 12:22:45.
