data_PCOD9158504
_publ_section_title
;
Structure prediction by ZEFSAII (Michael W. Deem and Ramdas Pophale) SiO2 
 PCOD9158504
Probable space group: P 21/M
;
_chemical_formula_sum "Si O2"
_cell_formula_units_Z 28
_cell_length_a 9.697856
_cell_length_b 9.089420
_cell_length_c 19.190240
_cell_angle_alpha 90.000000
_cell_angle_beta 84.637049
_cell_angle_gamma 90.000000
_cell_volume 1684.174391
_symmetry_space_group_name_H-M "P 21/M"
_symmetry_group_IT_number 11
_symmetry_cell_setting 'monoclinic'
loop_
_space_group_symop_operation_xyz
x,y,z
-x,1/2+y,-z
-x,-y,-z
x,1/2-y,z
loop_
_atom_site_type_symbol
_atom_site_label
_atom_site_fract_x
_atom_site_fract_y
_atom_site_fract_z
Si Si1 0.306120 0.424418 0.320984
Si Si2 0.626481 0.425499 0.906459
Si Si3 0.576422 0.920818 0.282712
Si Si4 0.540757 0.421522 0.568981
Si Si5 0.335923 0.574988 0.933482
Si Si6 0.165489 0.073730 0.826381
Si Si7 0.864311 0.073161 0.783991
O O1 0.298887 0.250000 0.326219
O O2 0.445305 0.476329 0.272832
O O3 0.334785 0.498207 0.395049
O O4 0.179233 0.492828 0.284833
O O5 0.600948 0.250000 0.902993
O O6 0.481658 0.507122 0.900901
O O7 0.748326 0.462870 0.847405
O O8 0.672221 0.458574 0.983726
O O9 0.540369 0.750000 0.267538
O O10 0.581667 0.929761 0.366777
O O11 0.715557 0.959273 0.236389
O O12 0.500000 0.500000 0.500000
O O13 0.571781 0.250000 0.556260
O O14 0.337275 0.750000 0.924871
O O15 0.213271 0.504738 0.894565
O O16 0.165035 0.250000 0.837188
O O17 0.015100 0.031137 0.805301
O O18 0.862071 0.250000 0.773439
#
# Coordination Sequence:
#
# PCOD9158504 Si02
#       7
#     4   4   4   4   4   4   4
#     4  10  19  31  50  76 103 131 163 203 246 291
#     4   9  19  35  52  70  96 130 168 210 256 300
#     4   8  17  32  50  72  99 129 161 201 244 291
#     4   9  17  31  53  80 106 129 161 203 243 287
#     4  10  20  33  50  73  98 127 166 213 257 298
#     4  10  20  34  51  71  98 134 169 203 251 303
#     4  10  20  34  51  70  97 134 172 207 246 298
#
# _framework density 16.625356
#
# number of rings (size 3 to 8) (size 9 to 14) (size 15 to 20)
#    0.857    1.714    0.000    2.571    0.000    6.286 
#    0.000    0.000    0.000    0.857    0.000    0.000 
#    0.000    0.000    0.000    0.000    0.000    0.000 
#
# Total GULP energy -155941.656389 kJ/mol
# GULP energy per Si atom -5569.344871 kJ/mol
# Density = 1.658752 g / cm^3
# Si number density = 16.625356 Si / 1000 Ang^3
#
#
#
# Elastic Constant Matrix: (Units=GPa)
#
#
# Indices 1 2 3 4 5 6 
#
# 1 90.7391 44.5651 45.8159 0.0000 36.9463 0.0000
# 2 44.5651 62.5227 43.1169 0.0000 22.7895 0.0000
# 3 45.8159 43.1169 88.3897 0.0000 33.9514 0.0000
# 4 0.0000 0.0000 0.0000 23.4692 0.0000 12.6510
# 5 36.9463 22.7895 33.9514 0.0000 27.7518 0.0000
# 6 0.0000 0.0000 0.0000 12.6510 0.0000 19.8139
#
#
#
# Elastic Compliance Matrix: (Units=1/GPa)
#
#
# Indices 1 2 3 4 5 6 
#
# 1 0.027411 -0.009895 0.002857 0.000000 -0.031863 0.000000
# 2 -0.009895 0.029309 -0.009401 0.000000 0.000605 0.000000
# 3 0.002857 -0.009401 0.024363 0.000000 -0.025889 0.000000
# 4 0.000000 0.000000 0.000000 0.064970 0.000000 -0.041483
# 5 -0.031863 0.000605 -0.025889 0.000000 0.109628 0.000000
# 6 0.000000 0.000000 0.000000 -0.041483 0.000000 0.076956
#
#
# Mechanical properties :
#
#
# Convention : Reuss Voigt Hill
#
# Bulk Modulus (GPa) = 20.74417 56.51637 38.63027
# Shear Modulus (GPa) = 13.10330 21.41723 17.26026
#
# Velocity S-wave (km/s) = 2.81045 3.59308 3.22559
# Velocity P-wave (km/s) = 4.79959 7.16111 6.09580
#
# Compressibility (1/GPa) = 0.04820630
#
# Stress axis : x y z
#
# Youngs Moduli (GPa) = 36.48148 34.11886 41.04665
#
# Poissons Ratio (x) = 0.33759 -0.11728
# Poissons Ratio (y) = 0.36097 0.38588
# Poissons Ratio (z) = -0.10423 0.32075
#
# Static dielectric constant tensor:
#      x y z
#    x 1.542080 0.000000 0.003420 
#    y 0.000000 1.555080 0.000000 
#    z 0.003420 0.000000 1.578010 
# 
# From -- ./inp_files/63066.got.cif
#   From: 2010.05.17/outbox.cif.g08.bks.cpg/sg11_32_cif.got.tgz:63066.got - 2010.06.03 12:22:45.
