data_PCOD9158435
_publ_section_title
;
Structure prediction by ZEFSAII (Michael W. Deem and Ramdas Pophale) SiO2 
 PCOD9158435
Probable space group: P 21/M
;
_chemical_formula_sum "Si O2"
_cell_formula_units_Z 32
_cell_length_a 23.037647
_cell_length_b 8.690565
_cell_length_c 15.579380
_cell_angle_alpha 90.000000
_cell_angle_beta 31.246237
_cell_angle_gamma 90.000000
_cell_volume 1617.956626
_symmetry_space_group_name_H-M "P 21/M"
_symmetry_group_IT_number 11
_symmetry_cell_setting 'monoclinic'
loop_
_space_group_symop_operation_xyz
x,y,z
-x,1/2+y,-z
-x,-y,-z
x,1/2-y,z
loop_
_atom_site_type_symbol
_atom_site_label
_atom_site_fract_x
_atom_site_fract_y
_atom_site_fract_z
Si Si1 0.819436 0.075873 0.663899
Si Si2 0.445948 0.070356 0.806945
Si Si3 0.172868 0.432403 0.531509
Si Si4 0.447985 0.575404 0.982989
Si Si5 0.690553 0.434746 0.490414
Si Si6 0.799063 0.064638 0.878314
Si Si7 0.923670 0.065174 0.893735
Si Si8 0.879167 0.932589 0.127087
O O1 0.865543 0.250000 0.598779
O O2 0.843787 0.008084 0.728450
O O3 0.842834 0.984735 0.547157
O O4 0.684823 0.086558 0.836753
O O5 0.431486 0.250000 0.806146
O O6 0.565504 0.014859 0.619284
O O7 0.466546 0.039498 0.881362
O O8 0.328099 0.986472 0.940348
O O9 0.189862 0.250000 0.511232
O O10 0.271277 0.509100 0.462857
O O11 0.055816 0.468822 0.726663
O O12 0.489555 0.750000 0.913549
O O13 0.500000 0.500000 0.000000
O O14 0.690761 0.250000 0.491153
O O15 0.782654 0.497166 0.308254
O O16 0.798406 0.250000 0.871370
O O17 0.875251 0.020854 0.862191
O O18 0.910319 0.250000 0.920554
O O19 0.864035 0.979810 0.047035
O O20 0.880979 0.750000 0.135756
O O21 0.000000 0.000000 0.000000
#
# Coordination Sequence:
#
# PCOD9158435 Si02
#       8
#     4   4   4   4   4   4   4   4
#     4   9  19  34  51  76 113 155 196 238 285 337
#     4  10  21  36  56  83 114 150 193 241 290 343
#     4  11  22  34  55  87 119 153 196 243 292 348
#     4  10  19  31  49  74 108 151 195 239 290 343
#     4  11  23  39  60  87 121 154 188 239 298 348
#     4   9  20  40  62  82 114 160 201 241 290 341
#     4  10  22  41  62  86 117 153 195 243 294 346
#     4  12  24  40  64  92 119 150 189 234 290 351
#
# _framework density 19.778033000000001
#
# number of rings (size 3 to 8) (size 9 to 14) (size 15 to 20)
#    0.000    1.750    1.250    4.125    0.000    9.000 
#    0.000    0.625    0.000    0.000    0.000    0.000 
#    0.000    0.000    0.000    0.000    0.000    0.000 
#
# Total GULP energy -178574.276810 kJ/mol
# GULP energy per Si atom -5580.446150 kJ/mol
# Density = 1.973302 g / cm^3
# Si number density = 19.778033 Si / 1000 Ang^3
#
#
#
# Elastic Constant Matrix: (Units=GPa)
#
#
# Indices 1 2 3 4 5 6 
#
# 1 63.7410 12.7042 2.5025 0.0000 9.9293 0.0000
# 2 12.7042 33.2535 13.9063 0.0000 3.9806 0.0000
# 3 2.5025 13.9063 75.9900 0.0000 8.8286 0.0000
# 4 0.0000 0.0000 0.0000 28.8928 0.0000 4.9650
# 5 9.9293 3.9806 8.8286 0.0000 26.9551 0.0000
# 6 0.0000 0.0000 0.0000 4.9650 0.0000 22.6732
#
#
#
# Elastic Compliance Matrix: (Units=1/GPa)
#
#
# Indices 1 2 3 4 5 6 
#
# 1 0.017909 -0.006676 0.001335 0.000000 -0.006048 0.000000
# 2 -0.006676 0.035283 -0.006151 0.000000 -0.000736 0.000000
# 3 0.001335 -0.006151 0.014754 0.000000 -0.004416 0.000000
# 4 0.000000 0.000000 0.000000 0.035964 0.000000 -0.007875
# 5 -0.006048 -0.000736 -0.004416 0.000000 0.040882 0.000000
# 6 0.000000 0.000000 0.000000 -0.007875 0.000000 0.045830
#
#
# Mechanical properties :
#
#
# Convention : Reuss Voigt Hill
#
# Bulk Modulus (GPa) = 22.24165 25.69006 23.96586
# Shear Modulus (GPa) = 21.87278 25.29562 23.58420
#
# Velocity S-wave (km/s) = 3.32913 3.58016 3.45692
# Velocity P-wave (km/s) = 5.10368 5.48702 5.29882
#
# Compressibility (1/GPa) = 0.04496069
#
# Stress axis : x y z
#
# Youngs Moduli (GPa) = 55.83830 28.34210 67.77623
#
# Poissons Ratio (x) = 0.18921 -0.09046
# Poissons Ratio (y) = 0.37278 0.41692
# Poissons Ratio (z) = -0.07452 0.17435
#
# Static dielectric constant tensor:
#      x y z
#    x 1.674940 0.000000 -0.013000 
#    y 0.000000 1.677880 0.000000 
#    z -0.013000 0.000000 1.711750 
# 
# From -- ./inp_files/55518.got.cif
#   From: 2010.05.17/outbox.cif.g08.bks.cpg/sg11_28_cif.got.tgz:55518.got - 2010.06.03 12:22:45.
