data_PCOD9158715
_publ_section_title
;
Structure prediction by ZEFSAII (Michael W. Deem and Ramdas Pophale) SiO2 
 PCOD9158715
Probable space group: P 21/M
;
_chemical_formula_sum "Si O2"
_cell_formula_units_Z 32
_cell_length_a 15.189007
_cell_length_b 13.913314
_cell_length_c 10.959842
_cell_angle_alpha 90.000000
_cell_angle_beta 136.640998
_cell_angle_gamma 90.000000
_cell_volume 1590.184302
_symmetry_space_group_name_H-M "P 21/M"
_symmetry_group_IT_number 11
_symmetry_cell_setting 'monoclinic'
loop_
_space_group_symop_operation_xyz
x,y,z
-x,1/2+y,-z
-x,-y,-z
x,1/2-y,z
loop_
_atom_site_type_symbol
_atom_site_label
_atom_site_fract_x
_atom_site_fract_y
_atom_site_fract_z
Si Si1 0.374078 0.862588 0.146731
Si Si2 0.186046 0.139080 0.144957
Si Si3 0.110363 0.633620 0.755636
Si Si4 0.768672 0.363419 0.375135
Si Si5 0.323756 0.543019 0.335654
Si Si6 0.913509 0.136894 0.776965
Si Si7 0.154966 0.361282 0.402739
Si Si8 0.400860 0.006916 0.679739
O O1 0.397793 0.750000 0.145994
O O2 0.386760 0.885681 0.302812
O O3 0.471525 0.931844 0.174283
O O4 0.228408 0.886875 0.964115
O O5 0.221709 0.250000 0.153119
O O6 0.142877 0.136567 0.243763
O O7 0.299043 0.061514 0.251320
O O8 0.061749 0.110048 0.941280
O O9 0.099028 0.750000 0.740949
O O10 0.154793 0.602022 0.666490
O O11 0.973869 0.598546 0.666038
O O12 0.741719 0.250000 0.332953
O O13 0.856538 0.374715 0.584185
O O14 0.638576 0.421878 0.269333
O O15 0.182466 0.581192 0.230748
O O16 0.398289 0.533401 0.538143
O O17 0.906491 0.250000 0.801654
O O18 0.172170 0.250000 0.455156
O O19 0.280080 0.420681 0.562818
#
# Coordination Sequence:
#
# PCOD9158715 Si02
#       8
#     4   4   4   4   4   4   4   4
#     4  11  22  36  55  78 103 131 170 215 255 303
#     4   9  17  29  48  75 106 139 170 206 254 302
#     4   9  19  35  55  77 102 135 172 212 255 297
#     4   9  19  35  52  73 103 137 174 212 250 299
#     4  10  19  32  49  74 104 135 169 207 253 307
#     4   9  16  28  49  75 104 137 171 208 251 301
#     4   9  17  32  53  78 108 135 166 210 256 300
#     4  10  21  35  53  78 104 137 171 205 256 306
#
# _framework density 20.123453000000001
#
# number of rings (size 3 to 8) (size 9 to 14) (size 15 to 20)
#    0.000    2.500    0.000    2.250    0.000    6.000 
#    0.000    0.625    0.000    0.000    0.000    1.750 
#    0.000    0.000    0.000    0.000    0.000    0.000 
#
# Total GULP energy -178640.482435 kJ/mol
# GULP energy per Si atom -5582.515076 kJ/mol
# Density = 2.007765 g / cm^3
# Si number density = 20.123453 Si / 1000 Ang^3
#
#
#
# Elastic Constant Matrix: (Units=GPa)
#
#
# Indices 1 2 3 4 5 6 
#
# 1 59.8835 19.5609 16.2443 0.0000 7.9336 0.0000
# 2 19.5609 57.1187 5.3324 0.0000 -0.1165 0.0000
# 3 16.2443 5.3324 16.2482 0.0000 6.5959 0.0000
# 4 0.0000 0.0000 0.0000 22.0504 0.0000 9.2235
# 5 7.9336 -0.1165 6.5959 0.0000 17.7577 0.0000
# 6 0.0000 0.0000 0.0000 9.2235 0.0000 28.7237
#
#
#
# Elastic Compliance Matrix: (Units=1/GPa)
#
#
# Indices 1 2 3 4 5 6 
#
# 1 0.025164 -0.006600 -0.021679 0.000000 -0.003233 0.000000
# 2 -0.006600 0.019905 -0.001394 0.000000 0.003597 0.000000
# 3 -0.021679 -0.001394 0.093909 0.000000 -0.025205 0.000000
# 4 0.000000 0.000000 0.000000 0.052387 0.000000 -0.016822
# 5 -0.003233 0.003597 -0.025205 0.000000 0.067144 0.000000
# 6 0.000000 0.000000 0.000000 -0.016822 0.000000 0.040216
#
#
# Mechanical properties :
#
#
# Convention : Reuss Voigt Hill
#
# Bulk Modulus (GPa) = 12.55806 23.94729 18.25268
# Shear Modulus (GPa) = 12.99996 19.84722 16.42359
#
# Velocity S-wave (km/s) = 2.54443 3.14391 2.85992
# Velocity P-wave (km/s) = 3.85827 5.01048 4.47164
#
# Compressibility (1/GPa) = 0.07963012
#
# Stress axis : x y z
#
# Youngs Moduli (GPa) = 39.73876 50.23792 10.64866
#
# Poissons Ratio (x) = 0.33159 0.23086
# Poissons Ratio (y) = 0.26229 0.01485
# Poissons Ratio (z) = 0.86152 0.07004
#
# Static dielectric constant tensor:
#      x y z
#    x 1.707660 0.000000 0.001870 
#    y 0.000000 1.756430 0.000000 
#    z 0.001870 0.000000 1.714010 
# 
# From -- ./inp_files/39677.got.cif
#   From: 2010.05.17/outbox.cif.g08.bks.cpg/sg11_20_cif.got.tgz:39677.got - 2010.06.03 12:22:45.
