data_PCOD9158410
_publ_section_title
;
Structure prediction by ZEFSAII (Michael W. Deem and Ramdas Pophale) SiO2 
 PCOD9158410
Probable space group: P 21/M
;
_chemical_formula_sum "Si O2"
_cell_formula_units_Z 32
_cell_length_a 16.231634
_cell_length_b 11.381529
_cell_length_c 18.779810
_cell_angle_alpha 90.000000
_cell_angle_beta 157.027383
_cell_angle_gamma 90.000000
_cell_volume 1354.075099
_symmetry_space_group_name_H-M "P 21/M"
_symmetry_group_IT_number 11
_symmetry_cell_setting 'monoclinic'
loop_
_space_group_symop_operation_xyz
x,y,z
-x,1/2+y,-z
-x,-y,-z
x,1/2-y,z
loop_
_atom_site_type_symbol
_atom_site_label
_atom_site_fract_x
_atom_site_fract_y
_atom_site_fract_z
Si Si1 0.263662 0.044739 0.963073
Si Si2 0.309226 0.388588 0.693660
Si Si3 0.550001 0.125731 0.696614
Si Si4 0.775627 0.620579 0.758984
Si Si5 0.919372 0.619543 0.627554
Si Si6 0.369273 0.378744 0.896388
Si Si7 0.705756 0.121869 0.658271
Si Si8 0.732305 0.878535 0.880663
O O1 0.485506 0.972767 0.147045
O O2 0.203324 0.115480 0.985664
O O3 0.084364 0.952279 0.802818
O O4 0.271827 0.120262 0.897156
O O5 0.359141 0.250000 0.716984
O O6 0.234203 0.389074 0.716101
O O7 0.144382 0.426526 0.501808
O O8 0.627406 0.250000 0.790745
O O9 0.628371 0.127159 0.678361
O O10 0.299560 0.125120 0.504014
O O11 0.621947 0.004698 0.787188
O O12 0.826547 0.750000 0.769112
O O13 0.517893 0.616062 0.561528
O O14 0.824278 0.504199 0.751630
O O15 0.864240 0.618487 0.910535
O O16 0.003985 0.750000 0.684299
O O17 0.479689 0.250000 0.976435
O O18 0.500000 0.500000 0.000000
O O19 0.805814 0.250000 0.721830
O O20 0.622876 0.750000 0.787071
#
# Coordination Sequence:
#
# PCOD9158410 Si02
#       8
#     4   4   4   4   4   4   4   4
#     4  11  20  32  53  75 108 140 174 209 261 308
#     4   9  18  35  55  76 103 132 170 218 262 307
#     4   9  17  31  51  76 104 135 176 221 260 305
#     4   8  14  24  40  66  96 131 169 205 253 308
#     4  10  20  33  53  81 107 136 176 217 263 314
#     4   9  19  35  56  79 106 138 175 217 262 309
#     4   8  13  23  42  67  96 128 167 214 256 296
#     4  10  19  31  49  73 106 140 172 211 260 316
#
# _framework density 23.632368
#
# number of rings (size 3 to 8) (size 9 to 14) (size 15 to 20)
#    0.000    2.750    1.250    0.750    0.000    1.500 
#    0.000    1.250    0.000    0.750    0.000    0.000 
#    0.000    0.000    0.000    0.000    0.000    0.875 
#
# Total GULP energy -178211.669073 kJ/mol
# GULP energy per Si atom -5569.114659 kJ/mol
# Density = 2.357858 g / cm^3
# Si number density = 23.632368 Si / 1000 Ang^3
#
#
#
# Elastic Constant Matrix: (Units=GPa)
#
#
# Indices 1 2 3 4 5 6 
#
# 1 89.7371 26.7836 29.0706 0.0000 -30.4547 0.0000
# 2 26.7836 208.5669 45.9625 0.0000 -5.6942 0.0000
# 3 29.0706 45.9625 70.9555 0.0000 -23.0998 0.0000
# 4 0.0000 0.0000 0.0000 29.9357 0.0000 -10.9093
# 5 -30.4547 -5.6942 -23.0998 0.0000 33.0447 0.0000
# 6 0.0000 0.0000 0.0000 -10.9093 0.0000 18.9097
#
#
#
# Elastic Compliance Matrix: (Units=1/GPa)
#
#
# Indices 1 2 3 4 5 6 
#
# 1 0.016897 -0.001500 -0.001250 0.000000 0.014441 0.000000
# 2 -0.001500 0.005834 -0.004255 0.000000 -0.003352 0.000000
# 3 -0.001250 -0.004255 0.021683 0.000000 0.013272 0.000000
# 4 0.000000 0.000000 0.000000 0.042298 0.000000 0.024402
# 5 0.014441 -0.003352 0.013272 0.000000 0.052271 0.000000
# 6 0.000000 0.000000 0.000000 0.024402 0.000000 0.066961
#
#
# Mechanical properties :
#
#
# Convention : Reuss Voigt Hill
#
# Bulk Modulus (GPa) = 32.89212 63.65476 48.27344
# Shear Modulus (GPa) = 21.73088 34.20756 27.96922
#
# Velocity S-wave (km/s) = 3.03568 3.80871 3.44395
# Velocity P-wave (km/s) = 5.12207 6.80703 6.02375
#
# Compressibility (1/GPa) = 0.03040242
#
# Stress axis : x y z
#
# Youngs Moduli (GPa) = 59.18176 171.42253 46.11976
#
# Poissons Ratio (x) = 0.25717 0.05764
# Poissons Ratio (y) = 0.08878 0.19626
# Poissons Ratio (z) = 0.07397 0.72948
#
# Static dielectric constant tensor:
#      x y z
#    x 1.901630 0.000000 -0.023580 
#    y 0.000000 2.143550 0.000000 
#    z -0.023580 0.000000 1.958370 
# 
# From -- ./inp_files/66566.got.cif
#   From: 2010.05.17/outbox.cif.g08.bks.cpg/sg11_34_cif.got.tgz:66566.got - 2010.06.03 12:22:45.
