data_PCOD9158040
_publ_section_title
;
Structure prediction by ZEFSAII (Michael W. Deem and Ramdas Pophale) SiO2 
 PCOD9158040
Probable space group: P 21/M
;
_chemical_formula_sum "Si O2"
_cell_formula_units_Z 28
_cell_length_a 14.381248
_cell_length_b 7.691192
_cell_length_c 14.072712
_cell_angle_alpha 90.000000
_cell_angle_beta 119.645225
_cell_angle_gamma 90.000000
_cell_volume 1352.820470
_symmetry_space_group_name_H-M "P 21/M"
_symmetry_group_IT_number 11
_symmetry_cell_setting 'monoclinic'
loop_
_space_group_symop_operation_xyz
x,y,z
-x,1/2+y,-z
-x,-y,-z
x,1/2-y,z
loop_
_atom_site_type_symbol
_atom_site_label
_atom_site_fract_x
_atom_site_fract_y
_atom_site_fract_z
Si Si1 0.949183 0.454116 0.341199
Si Si2 0.833248 0.546046 0.473759
Si Si3 0.766686 0.543789 0.127007
Si Si4 0.358684 0.959320 0.127311
Si Si5 0.564015 0.958492 0.128970
Si Si6 0.379132 0.538405 0.343092
Si Si7 0.622636 0.950638 0.450840
O O1 0.955825 0.250000 0.365361
O O2 0.877842 0.532921 0.389895
O O3 0.884252 0.478195 0.211639
O O4 0.069659 0.525175 0.412220
O O5 0.820722 0.750000 0.490776
O O6 0.715395 0.470543 0.432102
O O7 0.769015 0.750000 0.138993
O O8 0.681642 0.472503 0.162800
O O9 0.718691 0.507135 0.998726
O O10 0.364521 0.750000 0.130351
O O11 0.480367 0.022585 0.165679
O O12 0.325385 0.012629 0.216245
O O13 0.574076 0.750000 0.146766
O O14 0.500000 0.000000 0.000000
O O15 0.377162 0.750000 0.350988
O O16 0.336099 0.462712 0.419594
O O17 0.502846 0.476195 0.395159
O O18 0.605736 0.750000 0.413021
#
# Coordination Sequence:
#
# PCOD9158040 Si02
#       7
#     4   4   4   4   4   4   4
#     4  10  20  33  50  75 101 128 164 204 244 291
#     4   9  19  35  54  73  97 130 165 202 247 291
#     4  10  19  30  47  70  98 132 164 199 242 291
#     4   9  17  30  47  68  97 131 163 199 241 287
#     4   8  15  26  41  61  89 124 159 189 226 277
#     4   9  18  31  50  75 101 129 162 199 243 291
#     4   9  18  33  53  73  98 130 162 200 244 292
#
# _framework density 20.697498
#
# number of rings (size 3 to 8) (size 9 to 14) (size 15 to 20)
#    0.000    2.857    0.000    0.857    2.000    2.286 
#    0.000    0.000    0.000    0.857    0.000    0.000 
#    0.000    0.000    0.000    0.000    0.000    0.000 
#
# Total GULP energy -155978.349636 kJ/mol
# GULP energy per Si atom -5570.655344 kJ/mol
# Density = 2.065039 g / cm^3
# Si number density = 20.697498 Si / 1000 Ang^3
#
#
#
# Elastic Constant Matrix: (Units=GPa)
#
#
# Indices 1 2 3 4 5 6 
#
# 1 37.3310 2.0769 -3.4954 0.0000 1.9666 0.0000
# 2 2.0769 37.3870 -4.6584 0.0000 2.7224 0.0000
# 3 -3.4954 -4.6584 77.5283 0.0000 3.9313 0.0000
# 4 0.0000 0.0000 0.0000 19.1480 0.0000 -3.6738
# 5 1.9666 2.7224 3.9313 0.0000 29.1737 0.0000
# 6 0.0000 0.0000 0.0000 -3.6738 0.0000 9.6195
#
#
#
# Elastic Compliance Matrix: (Units=1/GPa)
#
#
# Indices 1 2 3 4 5 6 
#
# 1 0.027070 -0.001212 0.001243 0.000000 -0.001879 0.000000
# 2 -0.001212 0.027225 0.001718 0.000000 -0.002690 0.000000
# 3 0.001243 0.001718 0.013160 0.000000 -0.002017 0.000000
# 4 0.000000 0.000000 0.000000 0.056354 0.000000 0.021522
# 5 -0.001879 -0.002690 -0.002017 0.000000 0.034927 0.000000
# 6 0.000000 0.000000 0.000000 0.021522 0.000000 0.112176
#
#
# Mechanical properties :
#
#
# Convention : Reuss Voigt Hill
#
# Bulk Modulus (GPa) = 14.09409 15.56582 14.82995
# Shear Modulus (GPa) = 17.17827 22.14311 19.66069
#
# Velocity S-wave (km/s) = 2.88404 3.27440 3.08540
# Velocity P-wave (km/s) = 4.23257 4.67253 4.45798
#
# Compressibility (1/GPa) = 0.07095173
#
# Stress axis : x y z
#
# Youngs Moduli (GPa) = 36.94097 36.73160 75.98745
#
# Poissons Ratio (x) = 0.04452 -0.09445
# Poissons Ratio (y) = 0.04478 -0.13052
# Poissons Ratio (z) = -0.04592 -0.06309
#
# Static dielectric constant tensor:
#      x y z
#    x 1.765260 0.000000 0.016500 
#    y 0.000000 1.777630 0.000000 
#    z 0.016500 0.000000 1.778020 
# 
# From -- ./inp_files/51788.got.cif
#   From: 2010.05.17/outbox.cif.g08.bks.cpg/sg11_26_cif.got.tgz:51788.got - 2010.06.03 12:22:45.
