data_PCOD9158297
_publ_section_title
;
Structure prediction by ZEFSAII (Michael W. Deem and Ramdas Pophale) SiO2 
 PCOD9158297
Probable space group: P 21/M
;
_chemical_formula_sum "Si O2"
_cell_formula_units_Z 28
_cell_length_a 14.067452
_cell_length_b 9.535486
_cell_length_c 14.096310
_cell_angle_alpha 90.000000
_cell_angle_beta 39.921795
_cell_angle_gamma 90.000000
_cell_volume 1213.455296
_symmetry_space_group_name_H-M "P 21/M"
_symmetry_group_IT_number 11
_symmetry_cell_setting 'monoclinic'
loop_
_space_group_symop_operation_xyz
x,y,z
-x,1/2+y,-z
-x,-y,-z
x,1/2-y,z
loop_
_atom_site_type_symbol
_atom_site_label
_atom_site_fract_x
_atom_site_fract_y
_atom_site_fract_z
Si Si1 0.716276 0.596542 0.084944
Si Si2 0.882709 0.580215 0.521183
Si Si3 0.889202 0.902379 0.139939
Si Si4 0.694674 0.094505 0.397363
Si Si5 0.068328 0.087089 0.243845
Si Si6 0.514047 0.406744 0.334605
Si Si7 0.638289 0.584870 0.850340
O O1 0.657355 0.750000 0.096894
O O2 0.758845 0.614196 0.162321
O O3 0.611105 0.461994 0.171856
O O4 0.865991 0.570164 0.911859
O O5 0.899824 0.750000 0.511458
O O6 0.717575 0.548153 0.688295
O O7 0.000000 0.500000 0.500000
O O8 0.939873 0.515116 0.378760
O O9 0.952001 0.750000 0.114108
O O10 0.820002 0.982912 0.279503
O O11 0.000000 0.000000 0.000000
O O12 0.750098 0.250000 0.374780
O O13 0.602687 0.104802 0.368069
O O14 0.598013 0.031028 0.555112
O O15 0.025325 0.250000 0.291477
O O16 0.220782 0.066168 0.187181
O O17 0.453562 0.250000 0.363585
O O18 0.600156 0.750000 0.876772
O O19 0.500000 0.500000 0.000000
#
# Coordination Sequence:
#
# PCOD9158297 Si02
#       7
#     4   4   4   4   4   4   4
#     4   9  18  32  50  70  95 127 163 202 244 291
#     4   9  17  30  49  75 102 131 168 206 244 291
#     4  10  19  31  48  69  93 123 162 206 250 296
#     4   9  16  27  44  65  89 118 152 195 241 287
#     4   9  18  33  52  75 102 132 170 209 245 293
#     4   9  16  26  43  68  93 116 151 194 240 287
#     4   9  18  31  50  76 104 131 163 201 242 289
#
# _framework density 23.074604999999998
#
# number of rings (size 3 to 8) (size 9 to 14) (size 15 to 20)
#    0.000    2.857    0.000    2.571    0.000    7.429 
#    0.000    0.000    3.143    0.000    0.000    0.000 
#    0.000    0.000    0.000    0.000    0.000    0.000 
#
# Total GULP energy -156084.472626 kJ/mol
# GULP energy per Si atom -5574.445451 kJ/mol
# Density = 2.302209 g / cm^3
# Si number density = 23.074605 Si / 1000 Ang^3
#
#
#
# Elastic Constant Matrix: (Units=GPa)
#
#
# Indices 1 2 3 4 5 6 
#
# 1 55.0458 6.0003 15.1210 0.0000 4.0173 0.0000
# 2 6.0003 170.2291 96.1307 0.0000 -2.9220 0.0000
# 3 15.1210 96.1307 168.8465 0.0000 4.5644 0.0000
# 4 0.0000 0.0000 0.0000 46.7918 0.0000 -2.5141
# 5 4.0173 -2.9220 4.5644 0.0000 30.7128 0.0000
# 6 0.0000 0.0000 0.0000 -2.5141 0.0000 -0.6420
#
#
#
# Elastic Compliance Matrix: (Units=1/GPa)
#
#
# Indices 1 2 3 4 5 6 
#
# 1 0.018786 0.000321 -0.001807 0.000000 -0.002158 0.000000
# 2 0.000321 0.008739 -0.005046 0.000000 0.001539 0.000000
# 3 -0.001807 -0.005046 0.009000 0.000000 -0.001581 0.000000
# 4 0.000000 0.000000 0.000000 0.017657 0.000000 -0.069139
# 5 -0.002158 0.001539 -0.001581 0.000000 0.033223 0.000000
# 6 0.000000 0.000000 0.000000 -0.069139 0.000000 -1.286818
#
#
# Mechanical properties :
#
#
# Convention : Reuss Voigt Hill
#
# Bulk Modulus (GPa) = 42.62322 69.84726 56.23524
# Shear Modulus (GPa) = -4.24257 33.83047 14.79395
#
# Velocity S-wave (km/s) = -1.35743 3.83317 2.53481
# Velocity P-wave (km/s) = 4.00689 7.06589 5.74378
#
# Compressibility (1/GPa) = 0.02346139
#
# Stress axis : x y z
#
# Youngs Moduli (GPa) = 53.23245 114.42993 111.11283
#
# Poissons Ratio (x) = -0.03675 0.20076
# Poissons Ratio (y) = -0.01709 0.56065
# Poissons Ratio (z) = 0.09618 0.57739
#
# Static dielectric constant tensor:
#      x y z
#    x 2.507940 0.000000 -0.414220 
#    y 0.000000 1.880540 0.000000 
#    z -0.414220 0.000000 2.308560 
# 
# From -- ./inp_files/61248.got.cif
#   From: 2010.05.17/outbox.cif.g08.bks.cpg/sg11_31_cif.got.tgz:61248.got - 2010.06.03 12:22:45.
