data_PCOD9158337
_publ_section_title
;
Structure prediction by ZEFSAII (Michael W. Deem and Ramdas Pophale) SiO2 
 PCOD9158337
Probable space group: P 21/M
;
_chemical_formula_sum "Si O2"
_cell_formula_units_Z 32
_cell_length_a 17.036332
_cell_length_b 9.888439
_cell_length_c 21.737320
_cell_angle_alpha 90.000000
_cell_angle_beta 23.603134
_cell_angle_gamma 90.000000
_cell_volume 1466.232986
_symmetry_space_group_name_H-M "P 21/M"
_symmetry_group_IT_number 11
_symmetry_cell_setting 'monoclinic'
loop_
_space_group_symop_operation_xyz
x,y,z
-x,1/2+y,-z
-x,-y,-z
x,1/2-y,z
loop_
_atom_site_type_symbol
_atom_site_label
_atom_site_fract_x
_atom_site_fract_y
_atom_site_fract_z
Si Si1 0.787789 0.586594 0.901797
Si Si2 0.769153 0.091833 0.404533
Si Si3 0.581348 0.099101 0.371393
Si Si4 0.197179 0.595677 0.227660
Si Si5 0.011228 0.411790 0.054584
Si Si6 0.339372 0.605248 0.832849
Si Si7 0.762656 0.516409 0.547290
Si Si8 0.363863 0.590065 0.237453
O O1 0.793719 0.750000 0.889307
O O2 0.758194 0.508292 0.858882
O O3 0.004929 0.549874 0.770580
O O4 0.592191 0.549896 0.079669
O O5 0.746259 0.250000 0.407501
O O6 0.748470 0.069305 0.493940
O O7 0.594308 0.007238 0.498357
O O8 0.519520 0.250000 0.435265
O O9 0.800802 0.070149 0.238456
O O10 0.627156 0.105302 0.265127
O O11 0.268421 0.750000 0.165048
O O12 0.277512 0.539870 0.234765
O O13 0.961309 0.599252 0.400112
O O14 0.037148 0.250000 0.026465
O O15 0.000000 0.500000 0.000000
O O16 0.200623 0.479735 0.949129
O O17 0.247116 0.750000 0.916048
O O18 0.560181 0.596921 0.697552
O O19 0.763427 0.438641 0.611142
O O20 0.365479 0.750000 0.228953
#
# Coordination Sequence:
#
# PCOD9158337 Si02
#       8
#     4   4   4   4   4   4   4   4
#     4   9  19  35  52  73 100 129 165 208 249 294
#     4   9  17  28  46  70  95 125 161 198 238 285
#     4   8  15  26  41  63  92 123 155 192 234 279
#     4  10  20  35  54  74  97 129 167 207 251 298
#     4   9  16  25  39  62  92 125 159 195 236 283
#     4   9  17  28  41  61  93 128 157 193 240 288
#     4  10  19  31  48  71  99 129 162 202 247 294
#     4  10  20  34  52  74 100 130 166 207 251 299
#
# _framework density 21.824635000000001
#
# number of rings (size 3 to 8) (size 9 to 14) (size 15 to 20)
#    0.000    2.750    0.000    2.625    0.000    9.000 
#    0.000    2.500    0.000    0.000    0.000    0.875 
#    0.000    0.000    0.000    0.250    0.000    0.000 
#
# Total GULP energy -178376.379160 kJ/mol
# GULP energy per Si atom -5574.261849 kJ/mol
# Density = 2.177496 g / cm^3
# Si number density = 21.824635 Si / 1000 Ang^3
#
#
#
# Elastic Constant Matrix: (Units=GPa)
#
#
# Indices 1 2 3 4 5 6 
#
# 1 77.6869 13.7099 15.6301 0.0000 -8.6069 0.0000
# 2 13.7099 74.1795 48.7283 0.0000 -8.1240 0.0000
# 3 15.6301 48.7283 79.2726 0.0000 3.6943 0.0000
# 4 0.0000 0.0000 0.0000 25.2159 0.0000 -13.6073
# 5 -8.6069 -8.1240 3.6943 0.0000 31.3618 0.0000
# 6 0.0000 0.0000 0.0000 -13.6073 0.0000 6.9960
#
#
#
# Elastic Compliance Matrix: (Units=1/GPa)
#
#
# Indices 1 2 3 4 5 6 
#
# 1 0.013930 -0.000339 -0.002727 0.000000 0.004057 0.000000
# 2 -0.000339 0.024541 -0.015395 0.000000 0.008078 0.000000
# 3 -0.002727 -0.015395 0.022962 0.000000 -0.007441 0.000000
# 4 0.000000 0.000000 0.000000 -0.799684 0.000000 -1.555396
# 5 0.004057 0.008078 -0.007441 0.000000 0.035968 0.000000
# 6 0.000000 0.000000 0.000000 -1.555396 0.000000 -2.882327
#
#
# Mechanical properties :
#
#
# Convention : Reuss Voigt Hill
#
# Bulk Modulus (GPa) = 40.79712 43.03062 41.91387
# Shear Modulus (GPa) = -1.41262 22.91944 10.75341
#
# Velocity S-wave (km/s) = -0.80540 3.24414 2.22214
# Velocity P-wave (km/s) = 4.22716 5.81308 5.08236
#
# Compressibility (1/GPa) = 0.02451153
#
# Stress axis : x y z
#
# Youngs Moduli (GPa) = 71.78690 40.74846 43.54965
#
# Poissons Ratio (x) = 0.01380 0.11878
# Poissons Ratio (y) = 0.02431 0.67044
# Poissons Ratio (z) = 0.19580 0.62731
#
# Static dielectric constant tensor:
#      x y z
#    x 1.880590 0.000000 -0.037790 
#    y 0.000000 1.795520 0.000000 
#    z -0.037790 0.000000 1.806440 
# 
# From -- ./inp_files/71974.got.cif
#   From: 2010.05.17/outbox.cif.g08.bks.cpg/sg11_36_cif.got.tgz:71974.got - 2010.06.03 12:22:45.
