data_PCOD9158768
_publ_section_title
;
Structure prediction by ZEFSAII (Michael W. Deem and Ramdas Pophale) SiO2 
 PCOD9158768
Probable space group: P 21/M
;
_chemical_formula_sum "Si O2"
_cell_formula_units_Z 32
_cell_length_a 19.924480
_cell_length_b 10.229635
_cell_length_c 18.149956
_cell_angle_alpha 90.000000
_cell_angle_beta 157.614390
_cell_angle_gamma 90.000000
_cell_volume 1408.844857
_symmetry_space_group_name_H-M "P 21/M"
_symmetry_group_IT_number 11
_symmetry_cell_setting 'monoclinic'
loop_
_space_group_symop_operation_xyz
x,y,z
-x,1/2+y,-z
-x,-y,-z
x,1/2-y,z
loop_
_atom_site_type_symbol
_atom_site_label
_atom_site_fract_x
_atom_site_fract_y
_atom_site_fract_z
Si Si1 0.667125 0.896170 0.632049
Si Si2 0.908379 0.113290 0.828952
Si Si3 0.309299 0.395222 0.184417
Si Si4 0.499042 0.899953 0.297025
Si Si5 0.270719 0.102324 0.721634
Si Si6 0.777659 0.400139 0.533107
Si Si7 0.978757 0.099239 0.297295
Si Si8 0.327057 0.598644 0.906366
O O1 0.739085 0.750000 0.713796
O O2 0.581255 0.914622 0.627111
O O3 0.580426 0.890027 0.462955
O O4 0.826518 0.995931 0.789616
O O5 0.877255 0.250000 0.837838
O O6 0.799498 0.116260 0.642433
O O7 0.107224 0.104417 0.003270
O O8 0.356052 0.250000 0.203124
O O9 0.334620 0.509180 0.151218
O O10 0.475902 0.750000 0.247334
O O11 0.621398 0.991744 0.370164
O O12 0.274208 0.250000 0.755886
O O13 0.112748 0.095959 0.503214
O O14 0.255802 0.997438 0.771151
O O15 0.461922 0.080465 0.877501
O O16 0.756944 0.250000 0.482006
O O17 0.947286 0.480123 0.676082
O O18 0.990988 0.250000 0.278922
O O19 0.783040 0.078224 0.130775
O O20 0.294908 0.750000 0.852917
#
# Coordination Sequence:
#
# PCOD9158768 Si02
#       8
#     4   4   4   4   4   4   4   4
#     4   9  18  31  50  74 100 129 164 207 258 318
#     4   9  19  34  51  71  99 132 167 213 263 311
#     4  10  19  32  50  75 103 129 162 210 264 317
#     4  10  20  34  51  73 100 131 169 211 257 314
#     4   9  18  33  54  82 115 144 175 217 262 312
#     4  10  21  38  55  71  97 136 177 217 261 310
#     4  10  20  35  55  78 108 145 182 222 265 312
#     4   9  18  33  54  82 114 144 175 215 265 312
#
# _framework density 22.713643999999999
#
# number of rings (size 3 to 8) (size 9 to 14) (size 15 to 20)
#    0.000    2.500    0.000    1.875    0.000    3.000 
#    2.250    0.000    0.000    0.000    0.000    0.000 
#    0.000    0.000    0.000    0.000    0.000    0.000 
#
# Total GULP energy -178382.566402 kJ/mol
# GULP energy per Si atom -5574.455200 kJ/mol
# Density = 2.266195 g / cm^3
# Si number density = 22.713644 Si / 1000 Ang^3
#
#
#
# Elastic Constant Matrix: (Units=GPa)
#
#
# Indices 1 2 3 4 5 6 
#
# 1 65.5356 74.9282 8.2471 0.0000 13.7737 0.0000
# 2 74.9282 153.5510 4.4183 0.0000 27.1204 0.0000
# 3 8.2471 4.4183 29.8948 0.0000 8.3537 0.0000
# 4 0.0000 0.0000 0.0000 19.8220 0.0000 6.5145
# 5 13.7737 27.1204 8.3537 0.0000 37.8069 0.0000
# 6 0.0000 0.0000 0.0000 6.5145 0.0000 23.4872
#
#
#
# Elastic Compliance Matrix: (Units=1/GPa)
#
#
# Indices 1 2 3 4 5 6 
#
# 1 0.036109 -0.017606 -0.007687 0.000000 0.001173 0.000000
# 2 -0.017606 0.016047 0.004167 0.000000 -0.006017 0.000000
# 3 -0.007687 0.004167 0.037312 0.000000 -0.008433 0.000000
# 4 0.000000 0.000000 0.000000 0.055509 0.000000 -0.015396
# 5 0.001173 -0.006017 -0.008433 0.000000 0.032203 0.000000
# 6 0.000000 0.000000 0.000000 -0.015396 0.000000 0.046847
#
#
# Mechanical properties :
#
#
# Convention : Reuss Voigt Hill
#
# Bulk Modulus (GPa) = 21.17971 47.12982 34.15477
# Shear Modulus (GPa) = 17.72942 26.98243 22.35593
#
# Velocity S-wave (km/s) = 2.79689 3.45039 3.14068
# Velocity P-wave (km/s) = 4.44691 6.05543 5.31240
#
# Compressibility (1/GPa) = 0.04721499
#
# Stress axis : x y z
#
# Youngs Moduli (GPa) = 27.69377 62.31825 26.80112
#
# Poissons Ratio (x) = 1.09719 0.20602
# Poissons Ratio (y) = 0.48758 -0.11168
# Poissons Ratio (z) = 0.21288 -0.25967
#
# Static dielectric constant tensor:
#      x y z
#    x 1.826360 0.000000 -0.003940 
#    y 0.000000 1.876110 0.000000 
#    z -0.003940 0.000000 1.933460 
# 
# From -- ./inp_files/70010.got.cif
#   From: 2010.05.17/outbox.cif.g08.bks.cpg/sg11_36_cif.got.tgz:70010.got - 2010.06.03 12:22:45.
