data_PCOD9159235
_publ_section_title
;
Structure prediction by ZEFSAII (Michael W. Deem and Ramdas Pophale) SiO2 
 PCOD9159235
Probable space group: P 21/M
;
_chemical_formula_sum "Si O2"
_cell_formula_units_Z 14
_cell_length_a 12.450713
_cell_length_b 12.318497
_cell_length_c 8.789669
_cell_angle_alpha 90.000000
_cell_angle_beta 31.945582
_cell_angle_gamma 90.000000
_cell_volume 713.301877
_symmetry_space_group_name_H-M "P 21/M"
_symmetry_group_IT_number 11
_symmetry_cell_setting 'monoclinic'
loop_
_space_group_symop_operation_xyz
x,y,z
-x,1/2+y,-z
-x,-y,-z
x,1/2-y,z
loop_
_atom_site_type_symbol
_atom_site_label
_atom_site_fract_x
_atom_site_fract_y
_atom_site_fract_z
Si Si1 0.911560 0.750000 0.577999
Si Si2 0.787491 0.579794 0.144290
Si Si3 0.549051 0.750000 0.256918
Si Si4 0.887300 0.250000 0.365628
Si Si5 0.004410 0.372386 0.809096
O O1 0.715528 0.750000 0.920687
O O2 0.100974 0.750000 0.465531
O O3 0.921741 0.852810 0.451811
O O4 0.982940 0.646134 0.844763
O O5 0.824824 0.458026 0.044748
O O6 0.599811 0.644616 0.299403
O O7 0.817404 0.590884 0.289573
O O8 0.331797 0.750000 0.442885
O O9 0.941015 0.250000 0.931837
#
# Coordination Sequence:
#
# PCOD9159235 Si02
#       5
#     2   4   2   2   4
#     4   8  18  34  50  76 104 134 166 208 248 304
#     4   9  18  35  58  74  98 136 169 210 257 293
#     4  10  19  33  51  77 107 136 166 202 250 306
#     4  10  19  33  51  77 107 136 166 202 250 306
#     4   9  16  35  59  73  99 134 169 215 254 291
#
# _framework density 19.627034999999999
#
# number of rings (size 3 to 8) (size 9 to 14) (size 15 to 20)
#    0.857    2.286    2.857    0.000    0.000    4.571 
#    0.000   17.143    0.000    0.000    0.000    0.000 
#    0.000    0.000    0.000    0.000    0.000    0.000 
#
# Total GULP energy -77960.303503 kJ/mol
# GULP energy per Si atom -5568.593107 kJ/mol
# Density = 1.958236 g / cm^3
# Si number density = 19.627035 Si / 1000 Ang^3
#
#
#
# Elastic Constant Matrix: (Units=GPa)
#
#
# Indices 1 2 3 4 5 6 
#
# 1 137.8650 -6.5311 50.7301 0.0000 -0.1545 0.0000
# 2 -6.5311 76.5649 7.4732 0.0000 -11.9164 0.0000
# 3 50.7301 7.4732 47.0830 0.0000 0.8005 0.0000
# 4 0.0000 0.0000 0.0000 4.2864 0.0000 5.0652
# 5 -0.1545 -11.9164 0.8005 0.0000 37.6973 0.0000
# 6 0.0000 0.0000 0.0000 5.0652 0.0000 13.2495
#
#
#
# Elastic Compliance Matrix: (Units=1/GPa)
#
#
# Indices 1 2 3 4 5 6 
#
# 1 0.012489 0.002603 -0.013889 0.000000 0.001169 0.000000
# 2 0.002603 0.014523 -0.005190 0.000000 0.004712 0.000000
# 3 -0.013889 -0.005190 0.037070 0.000000 -0.002485 0.000000
# 4 0.000000 0.000000 0.000000 0.425525 0.000000 -0.162674
# 5 0.001169 0.004712 -0.002485 0.000000 0.028074 0.000000
# 6 0.000000 0.000000 0.000000 -0.162674 0.000000 0.137663
#
#
# Mechanical properties :
#
#
# Convention : Reuss Voigt Hill
#
# Bulk Modulus (GPa) = 32.12379 40.53970 36.33174
# Shear Modulus (GPa) = 7.15642 25.03603 16.09622
#
# Velocity S-wave (km/s) = 1.91158 3.57541 2.86685
# Velocity P-wave (km/s) = 4.61246 6.14367 5.43229
#
# Compressibility (1/GPa) = 0.03112958
#
# Stress axis : x y z
#
# Youngs Moduli (GPa) = 80.07071 68.85766 26.97571
#
# Poissons Ratio (x) = -0.17923 0.37468
# Poissons Ratio (y) = -0.20842 0.14000
# Poissons Ratio (z) = 1.11213 0.35736
#
# Static dielectric constant tensor:
#      x y z
#    x 1.727140 0.000000 0.028390 
#    y 0.000000 1.734200 0.000000 
#    z 0.028390 0.000000 1.694850 
# 
# From -- ./inp_files/16281.got.cif
#   From: 2010.05.17/outbox.cif.g08.bks.cpg/sg11_9_cif.got.tgz:16281.got - 2010.06.03 12:22:45.
