data_PCOD9159424
_publ_section_title
;
Structure prediction by ZEFSAII (Michael W. Deem and Ramdas Pophale) SiO2 
 PCOD9159424
Probable space group: P 21/M
;
_chemical_formula_sum "Si O2"
_cell_formula_units_Z 32
_cell_length_a 12.780280
_cell_length_b 7.655785
_cell_length_c 32.423525
_cell_angle_alpha 90.000000
_cell_angle_beta 28.522845
_cell_angle_gamma 90.000000
_cell_volume 1514.858265
_symmetry_space_group_name_H-M "P 21/M"
_symmetry_group_IT_number 11
_symmetry_cell_setting 'monoclinic'
loop_
_space_group_symop_operation_xyz
x,y,z
-x,1/2+y,-z
-x,-y,-z
x,1/2-y,z
loop_
_atom_site_type_symbol
_atom_site_label
_atom_site_fract_x
_atom_site_fract_y
_atom_site_fract_z
Si Si1 0.750079 0.049189 0.581153
Si Si2 0.217687 0.041535 0.696232
Si Si3 0.230568 0.460794 0.194767
Si Si4 0.105103 0.456559 0.826213
Si Si5 0.492115 0.943536 0.746120
Si Si6 0.865510 0.535298 0.678905
Si Si7 0.338075 0.954195 0.485429
Si Si8 0.386796 0.539830 0.995623
O O1 0.707618 0.250000 0.607737
O O2 0.697399 0.034606 0.551521
O O3 0.615670 0.936643 0.659575
O O4 0.000000 0.000000 0.500000
O O5 0.259105 0.250000 0.684311
O O6 0.204630 0.974446 0.748159
O O7 0.414149 0.971181 0.598658
O O8 0.981959 0.012711 0.757855
O O9 0.237813 0.250000 0.192517
O O10 0.199037 0.516400 0.252719
O O11 0.450609 0.525795 0.096332
O O12 0.082306 0.250000 0.826795
O O13 0.262059 0.476845 0.811354
O O14 0.861641 0.528484 0.918098
O O15 0.444958 0.750000 0.778593
O O16 0.673589 0.024074 0.713993
O O17 0.871912 0.750000 0.673142
O O18 0.113397 0.473271 0.582708
O O19 0.345381 0.750000 0.495998
O O20 0.375528 0.750000 0.995203
O O21 0.500000 0.500000 0.000000
#
# Coordination Sequence:
#
# PCOD9159424 Si02
#       8
#     4   4   4   4   4   4   4   4
#     4  11  19  31  51  78 109 143 184 228 273 316
#     4  10  19  33  54  79 109 143 174 215 276 329
#     4  10  21  37  57  79 105 140 183 226 266 324
#     4  10  20  35  54  81 114 141 169 223 288 332
#     4  11  21  34  55  81 109 145 187 227 270 321
#     4   9  19  36  54  74 107 149 185 218 264 320
#     4   9  17  31  51  74 105 145 178 209 263 321
#     4  10  20  35  58  84 107 137 176 222 279 333
#
# _framework density 21.124089000000001
#
# number of rings (size 3 to 8) (size 9 to 14) (size 15 to 20)
#    0.000    2.000    3.750    0.750    0.000    1.500 
#    0.000    1.875    0.000    0.000    0.000    0.000 
#    0.000    0.000    0.000    0.000    0.000    0.000 
#
# Total GULP energy -178430.318787 kJ/mol
# GULP energy per Si atom -5575.947462 kJ/mol
# Density = 2.107601 g / cm^3
# Si number density = 21.124089 Si / 1000 Ang^3
#
#
#
# Elastic Constant Matrix: (Units=GPa)
#
#
# Indices 1 2 3 4 5 6 
#
# 1 72.7498 0.2304 77.0632 0.0000 -5.3353 0.0000
# 2 0.2304 35.0927 8.1659 0.0000 6.1402 0.0000
# 3 77.0632 8.1659 193.5694 0.0000 -17.5011 0.0000
# 4 0.0000 0.0000 0.0000 -8.3292 0.0000 51.4098
# 5 -5.3353 6.1402 -17.5011 0.0000 36.1692 0.0000
# 6 0.0000 0.0000 0.0000 51.4098 0.0000 -139.5343
#
#
#
# Elastic Compliance Matrix: (Units=1/GPa)
#
#
# Indices 1 2 3 4 5 6 
#
# 1 0.024005 0.002406 -0.009804 0.000000 -0.001611 0.000000
# 2 0.002406 0.030199 -0.002785 0.000000 -0.006119 0.000000
# 3 -0.009804 -0.002785 0.009515 0.000000 0.003631 0.000000
# 4 0.000000 0.000000 0.000000 0.094232 0.000000 0.034719
# 5 -0.001611 -0.006119 0.003631 0.000000 0.030206 0.000000
# 6 0.000000 0.000000 0.000000 0.034719 0.000000 0.005625
#
#
# Mechanical properties :
#
#
# Convention : Reuss Voigt Hill
#
# Bulk Modulus (GPa) = 23.06675 52.48122 37.77398
# Shear Modulus (GPa) = 21.87230 -7.94205 6.96512
#
# Velocity S-wave (km/s) = 3.22128 -1.94110 1.81780
# Velocity P-wave (km/s) = 4.97784 4.45807 4.72511
#
# Compressibility (1/GPa) = 0.04335245
#
# Stress axis : x y z
#
# Youngs Moduli (GPa) = 41.65743 33.11378 105.09710
#
# Poissons Ratio (x) = -0.07966 1.03038
# Poissons Ratio (y) = -0.10021 0.29269
# Poissons Ratio (z) = 0.40841 0.09222
#
# Static dielectric constant tensor:
#      x y z
#    x 1.742460 0.000000 -0.039120 
#    y 0.000000 2.038000 0.000000 
#    z -0.039120 0.000000 1.792410 
# 
# From -- ./inp_files/65217.got.cif
#   From: 2010.05.17/outbox.cif.g08.bks.cpg/sg11_33_cif.got.tgz:65217.got - 2010.06.03 12:22:45.
