data_PCOD9159211
_publ_section_title
;
Structure prediction by ZEFSAII (Michael W. Deem and Ramdas Pophale) SiO2 
 PCOD9159211
Probable space group: P 21/M
;
_chemical_formula_sum "Si O2"
_cell_formula_units_Z 32
_cell_length_a 13.899267
_cell_length_b 11.812219
_cell_length_c 13.149136
_cell_angle_alpha 90.000000
_cell_angle_beta 137.609047
_cell_angle_gamma 90.000000
_cell_volume 1455.459722
_symmetry_space_group_name_H-M "P 21/M"
_symmetry_group_IT_number 11
_symmetry_cell_setting 'monoclinic'
loop_
_space_group_symop_operation_xyz
x,y,z
-x,1/2+y,-z
-x,-y,-z
x,1/2-y,z
loop_
_atom_site_type_symbol
_atom_site_label
_atom_site_fract_x
_atom_site_fract_y
_atom_site_fract_z
Si Si1 0.254441 0.623309 0.331491
Si Si2 0.675072 0.618382 0.213868
Si Si3 0.102634 0.119804 0.449760
Si Si4 0.651805 0.623680 0.532851
Si Si5 0.434337 0.583188 0.191549
Si Si6 0.335170 0.376061 0.017054
Si Si7 0.125341 0.630246 0.006124
Si Si8 0.981259 0.552603 0.216155
O O1 0.324174 0.750000 0.395087
O O2 0.333348 0.500478 0.402647
O O3 0.177041 0.622123 0.161633
O O4 0.128108 0.618603 0.317120
O O5 0.709883 0.750000 0.220846
O O6 0.810504 0.576058 0.384174
O O7 0.540418 0.616448 0.184054
O O8 0.644081 0.569575 0.078739
O O9 0.052938 0.250000 0.426101
O O10 0.221298 0.124277 0.452136
O O11 0.989028 0.030737 0.319144
O O12 0.658685 0.750000 0.589272
O O13 0.507184 0.619178 0.353153
O O14 0.273660 0.627910 0.058889
O O15 0.411921 0.449213 0.162691
O O16 0.392114 0.250000 0.063304
O O17 0.164468 0.378129 0.898336
O O18 0.050066 0.750000 0.931312
O O19 0.030814 0.529921 0.890946
#
# Coordination Sequence:
#
# PCOD9159211 Si02
#       8
#     4   4   4   4   4   4   4   4
#     4  10  21  36  53  76 107 141 175 215 263 310
#     4   9  17  32  53  75 100 129 165 213 264 310
#     4   8  15  29  51  76  99 130 173 217 258 300
#     4   9  18  34  56  79 102 134 175 217 261 309
#     4  10  19  34  54  74 100 132 170 215 262 310
#     4  10  21  33  48  73 103 137 173 209 257 314
#     4  10  20  33  52  78 104 134 174 217 260 305
#     4  10  19  33  51  72 104 141 174 210 253 305
#
# _framework density 21.986180000000001
#
# number of rings (size 3 to 8) (size 9 to 14) (size 15 to 20)
#    0.000    2.500    0.000    3.375    0.000    2.000 
#    0.000    3.125    0.000    0.750    0.000    0.000 
#    0.000    0.000    0.000    0.000    0.000    0.000 
#
# Total GULP energy -178303.662520 kJ/mol
# GULP energy per Si atom -5571.989454 kJ/mol
# Density = 2.193614 g / cm^3
# Si number density = 21.986180 Si / 1000 Ang^3
#
#
#
# Elastic Constant Matrix: (Units=GPa)
#
#
# Indices 1 2 3 4 5 6 
#
# 1 48.7572 11.2148 -6.4456 0.0000 0.7580 0.0000
# 2 11.2148 150.8263 40.4184 0.0000 -14.3608 0.0000
# 3 -6.4456 40.4184 46.7703 0.0000 0.3069 0.0000
# 4 0.0000 0.0000 0.0000 6.6137 0.0000 -3.3201
# 5 0.7580 -14.3608 0.3069 0.0000 20.5598 0.0000
# 6 0.0000 0.0000 0.0000 -3.3201 0.0000 3.2314
#
#
#
# Elastic Compliance Matrix: (Units=1/GPa)
#
#
# Indices 1 2 3 4 5 6 
#
# 1 0.022231 -0.003657 0.006247 0.000000 -0.003467 0.000000
# 2 -0.003657 0.010081 -0.009264 0.000000 0.007315 0.000000
# 3 0.006247 -0.009264 0.030295 0.000000 -0.007153 0.000000
# 4 0.000000 0.000000 0.000000 0.312259 0.000000 0.320832
# 5 -0.003467 0.007315 -0.007153 0.000000 0.053982 0.000000
# 6 0.000000 0.000000 0.000000 0.320832 0.000000 0.639107
#
#
# Mechanical properties :
#
#
# Convention : Reuss Voigt Hill
#
# Bulk Modulus (GPa) = 20.30122 37.41433 28.85778
# Shear Modulus (GPa) = 4.55488 19.49206 12.02347
#
# Velocity S-wave (km/s) = 1.44090 2.98075 2.34105
# Velocity P-wave (km/s) = 3.46727 5.37593 4.52341
#
# Compressibility (1/GPa) = 0.04925812
#
# Stress axis : x y z
#
# Youngs Moduli (GPa) = 44.98285 99.19560 33.00897
#
# Poissons Ratio (x) = 0.36277 -0.20620
# Poissons Ratio (y) = 0.16451 0.30579
# Poissons Ratio (z) = -0.28100 0.91895
#
# Static dielectric constant tensor:
#      x y z
#    x 1.834820 0.000000 -0.009200 
#    y 0.000000 1.860800 0.000000 
#    z -0.009200 0.000000 1.804670 
# 
# From -- ./inp_files/52339.got.cif
#   From: 2010.05.17/outbox.cif.g08.bks.cpg/sg11_27_cif.got.tgz:52339.got - 2010.06.03 12:22:45.
