data_PCOD9159346
_publ_section_title
;
Structure prediction by ZEFSAII (Michael W. Deem and Ramdas Pophale) SiO2 
 PCOD9159346
Probable space group: P 21/M
;
_chemical_formula_sum "Si O2"
_cell_formula_units_Z 28
_cell_length_a 10.085077
_cell_length_b 13.768560
_cell_length_c 14.588220
_cell_angle_alpha 90.000000
_cell_angle_beta 54.374726
_cell_angle_gamma 90.000000
_cell_volume 1646.558611
_symmetry_space_group_name_H-M "P 21/M"
_symmetry_group_IT_number 11
_symmetry_cell_setting 'monoclinic'
loop_
_space_group_symop_operation_xyz
x,y,z
-x,1/2+y,-z
-x,-y,-z
x,1/2-y,z
loop_
_atom_site_type_symbol
_atom_site_label
_atom_site_fract_x
_atom_site_fract_y
_atom_site_fract_z
Si Si1 0.872167 0.502209 0.859260
Si Si2 0.273782 0.639067 0.233161
Si Si3 0.164838 0.636762 0.680849
Si Si4 0.595802 0.516126 0.367637
Si Si5 0.334081 0.138570 0.931723
Si Si6 0.690175 0.362650 0.580961
Si Si7 0.138852 0.137053 0.819465
O O1 0.799587 0.437470 0.807112
O O2 0.998605 0.581207 0.768853
O O3 0.979317 0.429802 0.879552
O O4 0.735687 0.559608 0.970441
O O5 0.234343 0.750000 0.221221
O O6 0.470887 0.630834 0.156346
O O7 0.214957 0.625602 0.361966
O O8 0.154923 0.750000 0.705747
O O9 0.305044 0.583646 0.685106
O O10 0.213104 0.626242 0.553555
O O11 0.500000 0.500000 0.500000
O O12 0.455727 0.559364 0.359772
O O13 0.738535 0.596908 0.308495
O O14 0.299681 0.250000 0.975610
O O15 0.238660 0.125219 0.873963
O O16 0.626437 0.250000 0.607171
O O17 0.101630 0.250000 0.821929
#
# Coordination Sequence:
#
# PCOD9159346 Si02
#       7
#     4   4   4   4   4   4   4
#     4  11  21  33  50  78 109 135 170 215 260 303
#     4  10  20  34  54  77 100 132 175 217 255 303
#     4   9  19  32  49  73 104 140 170 208 261 310
#     4   9  16  28  51  78  99 126 169 214 252 297
#     4  10  20  35  55  74  98 138 178 211 253 309
#     4   9  16  31  53  76 102 133 172 212 255 310
#     4  10  19  33  53  78 104 133 173 217 258 301
#
# _framework density 17.005164000000001
#
# number of rings (size 3 to 8) (size 9 to 14) (size 15 to 20)
#    0.000    2.286    1.429    2.143    0.000    1.143 
#    0.000    0.000    0.000    2.571    0.000    0.000 
#    0.000    0.000    0.000    0.000    0.000    0.000 
#
# Total GULP energy -155903.495023 kJ/mol
# GULP energy per Si atom -5567.981965 kJ/mol
# Density = 1.696646 g / cm^3
# Si number density = 17.005164 Si / 1000 Ang^3
#
#
#
# Elastic Constant Matrix: (Units=GPa)
#
#
# Indices 1 2 3 4 5 6 
#
# 1 43.3617 31.5007 -4.8546 0.0000 7.1492 0.0000
# 2 31.5007 113.0018 29.4023 0.0000 7.8202 0.0000
# 3 -4.8546 29.4023 34.1968 0.0000 3.1022 0.0000
# 4 0.0000 0.0000 0.0000 23.8451 0.0000 3.7088
# 5 7.1492 7.8202 3.1022 0.0000 17.4999 0.0000
# 6 0.0000 0.0000 0.0000 3.7088 0.0000 29.7948
#
#
#
# Elastic Compliance Matrix: (Units=1/GPa)
#
#
# Indices 1 2 3 4 5 6 
#
# 1 0.037907 -0.014693 0.019131 0.000000 -0.012312 0.000000
# 2 -0.014693 0.017299 -0.017077 0.000000 0.001299 0.000000
# 3 0.019131 -0.017077 0.047421 0.000000 -0.008591 0.000000
# 4 0.000000 0.000000 0.000000 0.042765 0.000000 -0.005323
# 5 -0.012312 0.001299 -0.008591 0.000000 0.063115 0.000000
# 6 0.000000 0.000000 0.000000 -0.005323 0.000000 0.034226
#
#
# Mechanical properties :
#
#
# Convention : Reuss Voigt Hill
#
# Bulk Modulus (GPa) = 12.92839 33.62858 23.27848
# Shear Modulus (GPa) = 17.01878 23.19543 20.10710
#
# Velocity S-wave (km/s) = 3.16698 3.69727 3.44235
# Velocity P-wave (km/s) = 4.58171 6.16805 5.43309
#
# Compressibility (1/GPa) = 0.07734915
#
# Stress axis : x y z
#
# Youngs Moduli (GPa) = 26.38002 57.80777 21.08787
#
# Poissons Ratio (x) = 0.84937 -0.40344
# Poissons Ratio (y) = 0.38760 0.36012
# Poissons Ratio (z) = -0.50468 0.98719
#
# Static dielectric constant tensor:
#      x y z
#    x 1.568530 0.000000 -0.001440 
#    y 0.000000 1.572390 0.000000 
#    z -0.001440 0.000000 1.585420 
# 
# From -- ./inp_files/18157.got.cif
#   From: 2010.05.17/outbox.cif.g08.bks.cpg/sg11_10_cif.got.tgz:18157.got - 2010.06.03 12:22:45.
