data_PCOD9159180
_publ_section_title
;
Structure prediction by ZEFSAII (Michael W. Deem and Ramdas Pophale) SiO2 
 PCOD9159180
Probable space group: P 21/M
;
_chemical_formula_sum "Si O2"
_cell_formula_units_Z 30
_cell_length_a 9.307250
_cell_length_b 14.557087
_cell_length_c 9.469580
_cell_angle_alpha 90.000000
_cell_angle_beta 105.784280
_cell_angle_gamma 90.000000
_cell_volume 1234.621252
_symmetry_space_group_name_H-M "P 21/M"
_symmetry_group_IT_number 11
_symmetry_cell_setting 'monoclinic'
loop_
_space_group_symop_operation_xyz
x,y,z
-x,1/2+y,-z
-x,-y,-z
x,1/2-y,z
loop_
_atom_site_type_symbol
_atom_site_label
_atom_site_fract_x
_atom_site_fract_y
_atom_site_fract_z
Si Si1 0.544109 0.109852 0.799893
Si Si2 0.074384 0.952269 0.339547
Si Si3 0.599409 0.093969 0.503283
Si Si4 0.855965 0.149025 0.928233
Si Si5 0.923564 0.646360 0.748243
Si Si6 0.213384 0.143267 0.809667
Si Si7 0.339763 0.091446 0.122908
Si Si8 0.517555 0.250000 0.247968
O O1 0.580249 0.140133 0.650754
O O2 0.683240 0.147211 0.926500
O O3 0.374527 0.132918 0.782979
O O4 0.572528 0.000989 0.823836
O O5 0.224980 0.930050 0.464157
O O6 0.116313 0.926842 0.185524
O O7 0.923205 0.895340 0.318418
O O8 0.044717 0.060599 0.342723
O O9 0.557236 0.166860 0.372535
O O10 0.500000 0.000000 0.500000
O O11 0.885934 0.250000 0.873103
O O12 0.960145 0.140057 0.091476
O O13 0.929262 0.750000 0.691541
O O14 0.760271 0.628697 0.773422
O O15 0.188769 0.250000 0.836628
O O16 0.229056 0.085662 0.959517
O O17 0.456463 0.170651 0.122195
#
# Coordination Sequence:
#
# PCOD9159180 Si02
#       8
#     4   4   4   4   4   4   4   2
#     4  11  24  41  63  98 136 177 222 277 334 391
#     4  11  22  38  64  96 129 169 224 275 329 386
#     4  11  24  44  70  97 128 173 236 282 317 385
#     4  10  19  32  58  92 132 163 211 268 328 392
#     4  11  19  34  62  94 131 165 213 277 338 396
#     4  12  25  40  66 102 140 179 211 271 358 409
#     4  12  21  41  64  98 136 173 217 277 339 411
#     4  12  24  40  68  94 128 174 228 272 328 392
#
# _framework density 24.298949
#
# number of rings (size 3 to 8) (size 9 to 14) (size 15 to 20)
#    0.000    0.800    6.667    2.400    5.600    0.000 
#    0.000    0.667    1.467    0.000    3.467    0.000 
#    0.000    0.000    0.000    0.000    0.000    0.000 
#
# Total GULP energy -167233.169241 kJ/mol
# GULP energy per Si atom -5574.438975 kJ/mol
# Density = 2.424364 g / cm^3
# Si number density = 24.298949 Si / 1000 Ang^3
#
#
#
# Elastic Constant Matrix: (Units=GPa)
#
#
# Indices 1 2 3 4 5 6 
#
# 1 153.7936 23.4469 23.3460 0.0000 38.3476 0.0000
# 2 23.4469 156.0649 15.0616 0.0000 21.3870 0.0000
# 3 23.3460 15.0616 58.0257 0.0000 28.0287 0.0000
# 4 0.0000 0.0000 0.0000 48.3260 0.0000 28.2532
# 5 38.3476 21.3870 28.0287 0.0000 31.1738 0.0000
# 6 0.0000 0.0000 0.0000 28.2532 0.0000 25.9797
#
#
#
# Elastic Compliance Matrix: (Units=1/GPa)
#
#
# Indices 1 2 3 4 5 6 
#
# 1 0.009736 0.000295 0.003339 0.000000 -0.015181 0.000000
# 2 0.000295 0.007108 0.001003 0.000000 -0.006142 0.000000
# 3 0.003339 0.001003 0.031725 0.000000 -0.033320 0.000000
# 4 0.000000 0.000000 0.000000 0.056817 0.000000 -0.061789
# 5 -0.015181 -0.006142 -0.033320 0.000000 0.084925 0.000000
# 6 0.000000 0.000000 0.000000 -0.061789 0.000000 0.105688
#
#
# Mechanical properties :
#
#
# Convention : Reuss Voigt Hill
#
# Bulk Modulus (GPa) = 17.28798 54.62146 35.95472
# Shear Modulus (GPa) = 16.33967 41.49789 28.91878
#
# Velocity S-wave (km/s) = 2.59597 4.13704 3.45356
# Velocity P-wave (km/s) = 4.01441 6.73409 5.54362
#
# Compressibility (1/GPa) = 0.05784367
#
# Stress axis : x y z
#
# Youngs Moduli (GPa) = 102.71583 140.68527 31.52114
#
# Poissons Ratio (x) = -0.04157 -0.10526
# Poissons Ratio (y) = -0.03035 -0.03161
# Poissons Ratio (z) = -0.34301 -0.14107
#
# Static dielectric constant tensor:
#      x y z
#    x 2.019600 0.000000 0.011930 
#    y 0.000000 1.981040 0.000000 
#    z 0.011930 0.000000 1.959730 
# 
# From -- ./inp_files/31939.got.cif
#   From: 2010.05.17/outbox.cif.g08.bks.cpg/sg11_16_cif.got.tgz:31939.got - 2010.06.03 12:22:45.
