data_PCOD9159571
_publ_section_title
;
Structure prediction by ZEFSAII (Michael W. Deem and Ramdas Pophale) SiO2 
 PCOD9159571
Probable space group: P 21/M
;
_chemical_formula_sum "Si O2"
_cell_formula_units_Z 24
_cell_length_a 6.946241
_cell_length_b 25.194627
_cell_length_c 5.593127
_cell_angle_alpha 90.000000
_cell_angle_beta 105.292775
_cell_angle_gamma 90.000000
_cell_volume 944.181582
_symmetry_space_group_name_H-M "P 21/M"
_symmetry_group_IT_number 11
_symmetry_cell_setting 'monoclinic'
loop_
_space_group_symop_operation_xyz
x,y,z
-x,1/2+y,-z
-x,-y,-z
x,1/2-y,z
loop_
_atom_site_type_symbol
_atom_site_label
_atom_site_fract_x
_atom_site_fract_y
_atom_site_fract_z
Si Si1 0.147491 0.977221 0.255144
Si Si2 0.323395 0.309268 0.442593
Si Si3 0.178571 0.080101 0.544889
Si Si4 0.534197 0.438620 0.977426
Si Si5 0.737919 0.189843 0.812377
Si Si6 0.685748 0.151293 0.302734
O O1 0.301134 0.937915 0.177326
O O2 0.021811 0.944734 0.409722
O O3 0.245395 0.030542 0.398559
O O4 0.000000 0.000000 0.000000
O O5 0.232106 0.250000 0.411431
O O6 0.495359 0.311149 0.706023
O O7 0.478218 0.316119 0.271622
O O8 0.191735 0.362626 0.422196
O O9 0.330358 0.084969 0.814488
O O10 0.500000 0.500000 0.000000
O O11 0.615006 0.408515 0.233313
O O12 0.807674 0.250000 0.822553
O O13 0.803545 0.162777 0.585123
O O14 0.786744 0.167724 0.087933
#
# Coordination Sequence:
#
# PCOD9159571 Si02
#       6
#     4   4   4   4   4   4
#     4  11  25  42  63 100 136 173 227 285 337 408
#     4   9  19  35  63  94 125 171 226 276 332 407
#     4  11  23  43  66  96 135 178 223 282 344 405
#     4  12  22  38  66  93 131 178 222 270 341 404
#     4   9  17  31  54  89 124 157 212 271 319 387
#     4  10  19  33  55  93 123 161 215 267 320 392
#
# _framework density 25.418842000000001
#
# number of rings (size 3 to 8) (size 9 to 14) (size 15 to 20)
#    1.000    0.667    3.333    2.500    0.000    1.333 
#    0.000    0.000    0.000    4.000    0.000    0.000 
#    0.000    0.000    0.000    0.000    0.000    0.000 
#
# Total GULP energy -134053.358411 kJ/mol
# GULP energy per Si atom -5585.556600 kJ/mol
# Density = 2.536099 g / cm^3
# Si number density = 25.418842 Si / 1000 Ang^3
#
#
#
# Elastic Constant Matrix: (Units=GPa)
#
#
# Indices 1 2 3 4 5 6 
#
# 1 60.1128 18.5878 20.7890 0.0000 -3.0200 0.0000
# 2 18.5878 156.6083 26.8064 0.0000 -4.8212 0.0000
# 3 20.7890 26.8064 132.3323 0.0000 -6.7284 0.0000
# 4 0.0000 0.0000 0.0000 33.4115 0.0000 -13.1313
# 5 -3.0200 -4.8212 -6.7284 0.0000 36.3597 0.0000
# 6 0.0000 0.0000 0.0000 -13.1313 0.0000 26.3382
#
#
#
# Elastic Compliance Matrix: (Units=1/GPa)
#
#
# Indices 1 2 3 4 5 6 
#
# 1 0.018049 -0.001698 -0.002450 0.000000 0.000821 0.000000
# 2 -0.001698 0.006789 -0.001080 0.000000 0.000559 0.000000
# 3 -0.002450 -0.001080 0.008220 0.000000 0.001174 0.000000
# 4 0.000000 0.000000 0.000000 0.037224 0.000000 0.018558
# 5 0.000821 0.000559 0.001174 0.000000 0.027863 0.000000
# 6 0.000000 0.000000 0.000000 0.018558 0.000000 0.047220
#
#
# Mechanical properties :
#
#
# Convention : Reuss Voigt Hill
#
# Bulk Modulus (GPa) = 44.24234 53.49109 48.86671
# Shear Modulus (GPa) = 30.60846 38.07989 34.34418
#
# Velocity S-wave (km/s) = 3.47387 3.87472 3.67976
# Velocity P-wave (km/s) = 5.79081 6.41152 6.10905
#
# Compressibility (1/GPa) = 0.02260278
#
# Stress axis : x y z
#
# Youngs Moduli (GPa) = 55.40545 147.29827 121.65303
#
# Poissons Ratio (x) = 0.25006 0.29803
# Poissons Ratio (y) = 0.09406 0.13140
# Poissons Ratio (z) = 0.13573 0.15910
#
# Static dielectric constant tensor:
#      x y z
#    x 2.086790 0.000000 -0.015420 
#    y 0.000000 2.029650 0.000000 
#    z -0.015420 0.000000 2.010190 
# 
# From -- ./inp_files/2787.got.cif
#   From: 2010.05.17/outbox.cif.g08.bks.cpg/sg11_2_cif.got.tgz:2787.got - 2010.06.03 12:22:45.
