data_PCOD9159871
_publ_section_title
;
Structure prediction by ZEFSAII (Michael W. Deem and Ramdas Pophale) SiO2 
 PCOD9159871
Probable space group: P 21/M
;
_chemical_formula_sum "Si O2"
_cell_formula_units_Z 26
_cell_length_a 19.218461
_cell_length_b 9.740165
_cell_length_c 8.813260
_cell_angle_alpha 90.000000
_cell_angle_beta 43.882380
_cell_angle_gamma 90.000000
_cell_volume 1143.582909
_symmetry_space_group_name_H-M "P 21/M"
_symmetry_group_IT_number 11
_symmetry_cell_setting 'monoclinic'
loop_
_space_group_symop_operation_xyz
x,y,z
-x,1/2+y,-z
-x,-y,-z
x,1/2-y,z
loop_
_atom_site_type_symbol
_atom_site_label
_atom_site_fract_x
_atom_site_fract_y
_atom_site_fract_z
Si Si1 0.556693 0.972297 0.717310
Si Si2 0.871410 0.906369 0.071357
Si Si3 0.266688 0.905311 0.117735
Si Si4 0.460774 0.750000 0.072577
Si Si5 0.650125 0.593023 0.259084
Si Si6 0.768337 0.906627 0.541286
Si Si7 0.053364 0.904866 0.291988
O O1 0.475884 0.872511 0.919863
O O2 0.576185 0.954610 0.508402
O O3 0.659549 0.916332 0.634138
O O4 0.544721 0.128160 0.788115
O O5 0.910382 0.750000 0.997953
O O6 0.762141 0.906509 0.159486
O O7 0.847202 0.938358 0.284241
O O8 0.940429 0.015003 0.876644
O O9 0.294266 0.750000 0.117638
O O10 0.167288 0.893586 0.171037
O O11 0.234331 0.989138 0.316729
O O12 0.343066 0.993662 0.895940
O O13 0.628327 0.750000 0.248824
O O14 0.782646 0.750000 0.571343
O O15 0.011507 0.750000 0.347913
O O16 0.000000 0.000000 0.500000
#
# Coordination Sequence:
#
# PCOD9159871 Si02
#       7
#     4   4   4   2   4   4   4
#     4  10  19  34  55  82 104 138 175 221 259 312
#     4   8  16  31  53  77 101 134 177 217 250 304
#     4  10  22  34  52  81 108 135 177 220 259 308
#     4  10  20  32  54  82 110 132 176 216 264 316
#     4   9  16  32  53  75 102 137 178 215 258 305
#     4  10  19  35  55  79 108 139 177 216 264 309
#     4  10  20  35  54  79 108 138 173 215 259 310
#
# _framework density 22.735562000000002
#
# number of rings (size 3 to 8) (size 9 to 14) (size 15 to 20)
#    0.000    2.462    1.538    1.846    2.154    2.462 
#    2.769    0.769    0.000    5.538    0.000    0.000 
#    0.000    0.000    0.000    0.000    0.000    0.000 
#
# Total GULP energy -144887.315395 kJ/mol
# GULP energy per Si atom -5572.589054 kJ/mol
# Density = 2.268381 g / cm^3
# Si number density = 22.735562 Si / 1000 Ang^3
#
#
#
# Elastic Constant Matrix: (Units=GPa)
#
#
# Indices 1 2 3 4 5 6 
#
# 1 56.9592 21.9917 13.7240 0.0000 4.3989 0.0000
# 2 21.9917 269.2657 157.9456 0.0000 30.7408 0.0000
# 3 13.7240 157.9456 159.1994 0.0000 30.1034 0.0000
# 4 0.0000 0.0000 0.0000 37.9942 0.0000 11.8991
# 5 4.3989 30.7408 30.1034 0.0000 30.7599 0.0000
# 6 0.0000 0.0000 0.0000 11.8991 0.0000 23.3046
#
#
#
# Elastic Compliance Matrix: (Units=1/GPa)
#
#
# Indices 1 2 3 4 5 6 
#
# 1 0.018171 -0.001342 0.000004 0.000000 -0.001261 0.000000
# 2 -0.001342 0.008985 -0.008758 0.000000 -0.000217 0.000000
# 3 0.000004 -0.008758 0.016339 0.000000 -0.007238 0.000000
# 4 0.000000 0.000000 0.000000 0.031330 0.000000 -0.015997
# 5 -0.001261 -0.000217 -0.007238 0.000000 0.039990 0.000000
# 6 0.000000 0.000000 0.000000 -0.015997 0.000000 0.051078
#
#
# Mechanical properties :
#
#
# Convention : Reuss Voigt Hill
#
# Bulk Modulus (GPa) = 42.91449 96.97186 69.94317
# Shear Modulus (GPa) = 25.79270 37.86263 31.82766
#
# Velocity S-wave (km/s) = 3.37184 4.08530 3.74559
# Velocity P-wave (km/s) = 5.83742 8.06210 7.03822
#
# Compressibility (1/GPa) = 0.02330216
#
# Stress axis : x y z
#
# Youngs Moduli (GPa) = 55.03225 111.29177 61.20442
#
# Poissons Ratio (x) = 0.14939 -0.00022
# Poissons Ratio (y) = 0.07387 0.53602
# Poissons Ratio (z) = -0.00020 0.97468
#
# Static dielectric constant tensor:
#      x y z
#    x 1.970610 0.000000 -0.046170 
#    y 0.000000 1.791370 0.000000 
#    z -0.046170 0.000000 1.805210 
# 
# From -- ./inp_files/23940.got.cif
#   From: 2010.05.17/outbox.cif.g08.bks.cpg/sg11_12_cif.got.tgz:23940.got - 2010.06.03 12:22:45.
