data_PCOD9159962
_publ_section_title
;
Structure prediction by ZEFSAII (Michael W. Deem and Ramdas Pophale) SiO2 
 PCOD9159962
Probable space group: P 21/M
;
_chemical_formula_sum "Si O2"
_cell_formula_units_Z 28
_cell_length_a 15.003924
_cell_length_b 7.970520
_cell_length_c 21.242423
_cell_angle_alpha 90.000000
_cell_angle_beta 148.890928
_cell_angle_gamma 90.000000
_cell_volume 1312.525910
_symmetry_space_group_name_H-M "P 21/M"
_symmetry_group_IT_number 11
_symmetry_cell_setting 'monoclinic'
loop_
_space_group_symop_operation_xyz
x,y,z
-x,1/2+y,-z
-x,-y,-z
x,1/2-y,z
loop_
_atom_site_type_symbol
_atom_site_label
_atom_site_fract_x
_atom_site_fract_y
_atom_site_fract_z
Si Si1 0.360427 0.944937 0.763797
Si Si2 0.821569 0.547293 0.859809
Si Si3 0.533024 0.052928 0.303603
Si Si4 0.716422 0.050470 0.037074
Si Si5 0.772135 0.944816 0.558025
Si Si6 0.896930 0.954829 0.766120
Si Si7 0.146020 0.444663 0.750036
O O1 0.307631 0.750000 0.731092
O O2 0.369217 0.016827 0.698359
O O3 0.235312 0.035449 0.736906
O O4 0.554816 0.960785 0.908046
O O5 0.809714 0.750000 0.850956
O O6 0.656883 0.481172 0.798450
O O7 0.824557 0.488792 0.789179
O O8 0.000000 0.500000 0.000000
O O9 0.511306 0.250000 0.276036
O O10 0.642065 0.035560 0.432928
O O11 0.696684 0.250000 0.015775
O O12 0.902050 0.996809 0.120994
O O13 0.730985 0.013834 0.120284
O O14 0.722142 0.750000 0.530118
O O15 0.790715 0.011276 0.640598
O O16 0.965003 0.960294 0.646634
O O17 0.895923 0.750000 0.763738
O O18 0.112161 0.250000 0.742520
#
# Coordination Sequence:
#
# PCOD9159962 Si02
#       7
#     4   4   4   4   4   4   4
#     4  11  22  36  53  78 113 150 188 229 277 329
#     4  10  20  37  59  85 116 146 181 223 271 326
#     4  10  23  39  56  81 114 149 185 230 276 323
#     4  10  19  34  56  84 115 146 184 228 277 330
#     4  10  21  39  60  82 109 144 187 230 275 329
#     4   8  17  34  57  82 111 146 180 223 274 323
#     4  11  22  37  58  82 109 144 185 230 281 332
#
# _framework density 21.332913000000001
#
# number of rings (size 3 to 8) (size 9 to 14) (size 15 to 20)
#    0.000    2.000    0.000    4.714    0.000    2.857 
#    0.000    3.571    0.000    0.000    0.000    0.000 
#    0.000    0.000    0.000    0.000    0.000    0.000 
#
# Total GULP energy -156451.501008 kJ/mol
# GULP energy per Si atom -5587.553607 kJ/mol
# Density = 2.128436 g / cm^3
# Si number density = 21.332913 Si / 1000 Ang^3
#
#
#
# Elastic Constant Matrix: (Units=GPa)
#
#
# Indices 1 2 3 4 5 6 
#
# 1 74.4530 -0.2390 -7.7675 0.0000 -21.5219 0.0000
# 2 -0.2390 31.0991 -17.8267 0.0000 0.6419 0.0000
# 3 -7.7675 -17.8267 51.4121 0.0000 -14.6941 0.0000
# 4 0.0000 0.0000 0.0000 28.7694 0.0000 -0.9025
# 5 -21.5219 0.6419 -14.6941 0.0000 15.5223 0.0000
# 6 0.0000 0.0000 0.0000 -0.9025 0.0000 5.5442
#
#
#
# Elastic Compliance Matrix: (Units=1/GPa)
#
#
# Indices 1 2 3 4 5 6 
#
# 1 0.058834 0.031161 0.058456 0.000000 0.135623 0.000000
# 2 0.031161 0.059670 0.050780 0.000000 0.088808 0.000000
# 3 0.058456 0.050780 0.093846 0.000000 0.167789 0.000000
# 4 0.000000 0.000000 0.000000 0.034938 0.000000 0.005687
# 5 0.135623 0.088808 0.167789 0.000000 0.407630 0.000000
# 6 0.000000 0.000000 0.000000 0.005687 0.000000 0.181293
#
#
# Mechanical properties :
#
#
# Convention : Reuss Voigt Hill
#
# Bulk Modulus (GPa) = 2.02781 11.69977 6.86379
# Shear Modulus (GPa) = 6.94640 22.15368 14.55004
#
# Velocity S-wave (km/s) = 1.80645 3.22603 2.61444
# Velocity P-wave (km/s) = 2.30296 4.40144 3.51257
#
# Compressibility (1/GPa) = 0.49314356
#
# Stress axis : x y z
#
# Youngs Moduli (GPa) = 16.99701 16.75885 10.65579
#
# Poissons Ratio (x) = -0.52222 -0.62289
# Poissons Ratio (y) = -0.52964 -0.54110
# Poissons Ratio (z) = -0.99357 -0.85102
#
# Static dielectric constant tensor:
#      x y z
#    x 1.794880 0.000000 -0.007000 
#    y 0.000000 1.739420 0.000000 
#    z -0.007000 0.000000 1.732150 
# 
# From -- ./inp_files/49180.got.cif
#   From: 2010.05.17/outbox.cif.g08.bks.cpg/sg11_25_cif.got.tgz:49180.got - 2010.06.03 12:22:45.
