data_PCOD9159163
_publ_section_title
;
Structure prediction by ZEFSAII (Michael W. Deem and Ramdas Pophale) SiO2 
 PCOD9159163
Probable space group: P 21/M
;
_chemical_formula_sum "Si O2"
_cell_formula_units_Z 28
_cell_length_a 10.441111
_cell_length_b 8.841537
_cell_length_c 30.674310
_cell_angle_alpha 90.000000
_cell_angle_beta 146.240926
_cell_angle_gamma 90.000000
_cell_volume 1573.588492
_symmetry_space_group_name_H-M "P 21/M"
_symmetry_group_IT_number 11
_symmetry_cell_setting 'monoclinic'
loop_
_space_group_symop_operation_xyz
x,y,z
-x,1/2+y,-z
-x,-y,-z
x,1/2-y,z
loop_
_atom_site_type_symbol
_atom_site_label
_atom_site_fract_x
_atom_site_fract_y
_atom_site_fract_z
Si Si1 0.581386 0.931708 0.589023
Si Si2 0.651886 0.931742 0.162408
Si Si3 0.327854 0.068279 0.729658
Si Si4 0.090804 0.431384 0.239260
Si Si5 0.824048 0.431750 0.831278
Si Si6 0.875091 0.068642 0.006989
Si Si7 0.847627 0.569478 0.575606
O O1 0.557239 0.750000 0.581161
O O2 0.709819 0.974853 0.669704
O O3 0.743219 0.975114 0.593596
O O4 0.334248 0.005890 0.510666
O O5 0.685191 0.750000 0.168940
O O6 0.664174 0.974547 0.216961
O O7 0.396374 0.966805 0.072800
O O8 0.850380 0.014445 0.191911
O O9 0.308801 0.250000 0.722240
O O10 0.567691 0.024676 0.774989
O O11 0.102877 0.996083 0.644534
O O12 0.091228 0.250000 0.235209
O O13 0.131350 0.507302 0.204285
O O14 0.840194 0.250000 0.836984
O O15 0.005615 0.501006 0.916601
O O16 0.899665 0.250000 0.013181
O O17 0.000000 0.000000 0.000000
O O18 0.853454 0.750000 0.575176
#
# Coordination Sequence:
#
# PCOD9159163 Si02
#       7
#     4   4   4   4   4   4   4
#     4   9  19  35  54  82 119 152 187 236 291 345
#     4  10  21  38  61  87 116 153 195 239 290 350
#     4  10  20  37  59  85 117 152 194 239 289 345
#     4  11  23  40  60  88 120 155 196 241 295 349
#     4  11  24  42  61  86 119 159 198 239 296 353
#     4  11  22  39  62  90 120 153 197 245 294 345
#     4  10  19  32  56  89 116 146 193 241 289 341
#
# _framework density 17.793724000000001
#
# number of rings (size 3 to 8) (size 9 to 14) (size 15 to 20)
#    0.000    1.714    2.857    1.714    0.000    4.571 
#    0.000    0.714    0.000    0.000    0.000    0.000 
#    0.000    0.000    0.000    0.000    0.000    0.000 
#
# Total GULP energy -156414.627143 kJ/mol
# GULP energy per Si atom -5586.236684 kJ/mol
# Density = 1.775322 g / cm^3
# Si number density = 17.793724 Si / 1000 Ang^3
#
#
#
# Elastic Constant Matrix: (Units=GPa)
#
#
# Indices 1 2 3 4 5 6 
#
# 1 125.0383 47.8535 88.4980 0.0000 -1.7437 0.0000
# 2 47.8535 44.5557 64.9418 0.0000 3.7284 0.0000
# 3 88.4980 64.9418 188.2245 0.0000 6.0413 0.0000
# 4 0.0000 0.0000 0.0000 32.8184 0.0000 0.8758
# 5 -1.7437 3.7284 6.0413 0.0000 30.6253 0.0000
# 6 0.0000 0.0000 0.0000 0.8758 0.0000 23.7134
#
#
#
# Elastic Compliance Matrix: (Units=1/GPa)
#
#
# Indices 1 2 3 4 5 6 
#
# 1 0.014546 -0.011583 -0.002933 0.000000 0.002817 0.000000
# 2 -0.011583 0.054554 -0.013226 0.000000 -0.004692 0.000000
# 3 -0.002933 -0.013226 0.011280 0.000000 -0.000782 0.000000
# 4 0.000000 0.000000 0.000000 0.030501 0.000000 -0.001127
# 5 0.002817 -0.004692 -0.000782 0.000000 0.033539 0.000000
# 6 0.000000 0.000000 0.000000 -0.001127 0.000000 0.042212
#
#
# Mechanical properties :
#
#
# Convention : Reuss Voigt Hill
#
# Bulk Modulus (GPa) = 40.16687 84.48945 62.32816
# Shear Modulus (GPa) = 19.96701 27.86644 23.91673
#
# Velocity S-wave (km/s) = 3.35347 3.96167 3.67019
# Velocity P-wave (km/s) = 6.13327 8.27721 7.28454
#
# Compressibility (1/GPa) = 0.02489614
#
# Stress axis : x y z
#
# Youngs Moduli (GPa) = 68.74908 18.33049 88.65195
#
# Poissons Ratio (x) = 0.21232 0.26001
# Poissons Ratio (y) = 0.79633 1.17248
# Poissons Ratio (z) = 0.20164 0.24243
#
# Static dielectric constant tensor:
#      x y z
#    x 1.579440 0.000000 0.000420 
#    y 0.000000 1.593120 0.000000 
#    z 0.000420 0.000000 1.591810 
# 
# From -- ./inp_files/28251.got.cif
#   From: 2010.05.17/outbox.cif.g08.bks.cpg/sg11_15_cif.got.tgz:28251.got - 2010.06.03 12:22:45.
