data_PCOD9159684
_publ_section_title
;
Structure prediction by ZEFSAII (Michael W. Deem and Ramdas Pophale) SiO2 
 PCOD9159684
Probable space group: P 21/M
;
_chemical_formula_sum "Si O2"
_cell_formula_units_Z 20
_cell_length_a 6.554581
_cell_length_b 26.119523
_cell_length_c 5.244111
_cell_angle_alpha 90.000000
_cell_angle_beta 73.220004
_cell_angle_gamma 90.000000
_cell_volume 859.576841
_symmetry_space_group_name_H-M "P 21/M"
_symmetry_group_IT_number 11
_symmetry_cell_setting 'monoclinic'
loop_
_space_group_symop_operation_xyz
x,y,z
-x,1/2+y,-z
-x,-y,-z
x,1/2-y,z
loop_
_atom_site_type_symbol
_atom_site_label
_atom_site_fract_x
_atom_site_fract_y
_atom_site_fract_z
Si Si1 0.981567 0.622203 0.354704
Si Si2 0.657244 0.046730 0.576226
Si Si3 0.519166 0.867212 0.694943
Si Si4 0.193944 0.464741 0.832409
Si Si5 0.353938 0.809976 0.249977
O O1 0.159360 0.581242 0.372994
O O2 0.103877 0.675547 0.313233
O O3 0.771825 0.626085 0.598476
O O4 0.890603 0.593400 0.138817
O O5 0.590080 0.079151 0.347273
O O6 0.443354 0.040581 0.823525
O O7 0.754575 0.992588 0.458484
O O8 0.446013 0.830556 0.485186
O O9 0.451967 0.842104 0.982131
O O10 0.000000 0.500000 0.000000
O O11 0.391527 0.750000 0.210942
#
# Coordination Sequence:
#
# PCOD9159684 Si02
#       5
#     4   4   4   4   4
#     4  10  22  39  61  89 126 166 208 258 312 367
#     4   9  20  36  56  90 126 162 208 250 297 368
#     4  10  23  42  63  90 124 161 205 258 314 372
#     4  10  19  33  57  89 127 169 205 246 302 364
#     4  11  24  42  64  91 121 158 209 264 318 378
#
# _framework density 23.267264999999998
#
# number of rings (size 3 to 8) (size 9 to 14) (size 15 to 20)
#    0.000    2.000    0.000    2.400    0.000   10.400 
#    0.000    0.000    0.000    0.000    0.000    0.000 
#    0.000    0.000    0.000    0.000    0.000    0.000 
#
# Total GULP energy -111547.678335 kJ/mol
# GULP energy per Si atom -5577.383917 kJ/mol
# Density = 2.321431 g / cm^3
# Si number density = 23.267265 Si / 1000 Ang^3
#
#
#
# Elastic Constant Matrix: (Units=GPa)
#
#
# Indices 1 2 3 4 5 6 
#
# 1 144.3064 17.0146 39.3407 0.0000 -29.4938 0.0000
# 2 17.0146 96.2133 15.7860 0.0000 10.7993 0.0000
# 3 39.3407 15.7860 76.1498 0.0000 -0.8180 0.0000
# 4 0.0000 0.0000 0.0000 32.6036 0.0000 2.6426
# 5 -29.4938 10.7993 -0.8180 0.0000 28.7055 0.0000
# 6 0.0000 0.0000 0.0000 2.6426 0.0000 30.3879
#
#
#
# Elastic Compliance Matrix: (Units=1/GPa)
#
#
# Indices 1 2 3 4 5 6 
#
# 1 0.011106 -0.002499 -0.005089 0.000000 0.012207 0.000000
# 2 -0.002499 0.011830 -0.001237 0.000000 -0.007054 0.000000
# 3 -0.005089 -0.001237 0.015971 0.000000 -0.004308 0.000000
# 4 0.000000 0.000000 0.000000 0.030889 0.000000 -0.002686
# 5 0.012207 -0.007054 -0.004308 0.000000 0.049909 0.000000
# 6 0.000000 0.000000 0.000000 -0.002686 0.000000 0.033141
#
#
# Mechanical properties :
#
#
# Convention : Reuss Voigt Hill
#
# Bulk Modulus (GPa) = 47.04128 51.21690 49.12909
# Shear Modulus (GPa) = 28.15572 34.64127 31.39849
#
# Velocity S-wave (km/s) = 3.48242 3.86274 3.67750
# Velocity P-wave (km/s) = 6.03584 6.47723 6.26043
#
# Compressibility (1/GPa) = 0.02125793
#
# Stress axis : x y z
#
# Youngs Moduli (GPa) = 90.03750 84.52886 62.61327
#
# Poissons Ratio (x) = 0.21126 0.31861
# Poissons Ratio (y) = 0.22503 0.07745
# Poissons Ratio (z) = 0.45817 0.10456
#
# Static dielectric constant tensor:
#      x y z
#    x 1.948690 0.000000 0.014360 
#    y 0.000000 1.888140 0.000000 
#    z 0.014360 0.000000 1.952600 
# 
# From -- ./inp_files/776.got.cif
#   From: 2010.05.17/outbox.cif.g08.bks.cpg/sg11_1_cif.got.tgz:776.got - 2010.06.03 12:22:45.
