data_PCOD9159816
_publ_section_title
;
Structure prediction by ZEFSAII (Michael W. Deem and Ramdas Pophale) SiO2 
 PCOD9159816
Probable space group: P 21/M
;
_chemical_formula_sum "Si O2"
_cell_formula_units_Z 30
_cell_length_a 25.584996
_cell_length_b 11.870472
_cell_length_c 7.152206
_cell_angle_alpha 90.000000
_cell_angle_beta 32.148108
_cell_angle_gamma 90.000000
_cell_volume 1155.831455
_symmetry_space_group_name_H-M "P 21/M"
_symmetry_group_IT_number 11
_symmetry_cell_setting 'monoclinic'
loop_
_space_group_symop_operation_xyz
x,y,z
-x,1/2+y,-z
-x,-y,-z
x,1/2-y,z
loop_
_atom_site_type_symbol
_atom_site_label
_atom_site_fract_x
_atom_site_fract_y
_atom_site_fract_z
Si Si1 0.285450 0.413035 0.542528
Si Si2 0.488403 0.624796 0.779917
Si Si3 0.859880 0.946588 0.295652
Si Si4 0.703174 0.372518 0.897153
Si Si5 0.783675 0.122037 0.050105
Si Si6 0.944714 0.550741 0.430188
Si Si7 0.485520 0.877651 0.227654
Si Si8 0.164326 0.250000 0.088753
O O1 0.202118 0.367183 0.652493
O O2 0.394074 0.388738 0.146609
O O3 0.259983 0.542271 0.658957
O O4 0.252913 0.347599 0.826322
O O5 0.535068 0.750000 0.606260
O O6 0.397906 0.619417 0.909748
O O7 0.541181 0.502405 0.607406
O O8 0.457887 0.626328 0.091440
O O9 0.910944 0.901875 0.328235
O O10 0.775687 0.029692 0.621404
O O11 0.943713 0.012739 0.929268
O O12 0.746647 0.250000 0.716775
O O13 0.704794 0.374334 0.118718
O O14 0.802266 0.250000 0.051495
O O15 0.880000 0.059226 0.677761
O O16 0.919108 0.650137 0.646704
O O17 0.469193 0.750000 0.355779
#
# Coordination Sequence:
#
# PCOD9159816 Si02
#       8
#     4   4   4   4   4   4   4   2
#     4  11  21  36  55  84 110 149 182 226 284 347
#     4   9  18  33  58  84 112 147 189 239 280 328
#     4  10  20  36  57  81 106 141 201 231 275 328
#     4   9  17  33  57  81 106 145 188 233 282 328
#     4   9  20  37  54  77 113 147 181 232 284 333
#     4   9  21  40  54  78 108 148 189 235 272 328
#     4  10  19  34  54  84 118 145 185 236 289 332
#     4  10  22  38  54  76 118 148 178 222 288 338
#
# _framework density 25.95534
#
# number of rings (size 3 to 8) (size 9 to 14) (size 15 to 20)
#    0.000    2.400    2.000    0.000    0.933    3.733 
#    7.200    0.667    0.000    0.000    0.000    0.000 
#    0.000    0.000    0.000    0.000    0.000    0.000 
#
# Total GULP energy -167138.513589 kJ/mol
# GULP energy per Si atom -5571.283786 kJ/mol
# Density = 2.589626 g / cm^3
# Si number density = 25.955340 Si / 1000 Ang^3
#
#
#
# Elastic Constant Matrix: (Units=GPa)
#
#
# Indices 1 2 3 4 5 6 
#
# 1 123.2425 21.4499 10.4171 0.0000 -10.0137 0.0000
# 2 21.4499 222.1680 38.5351 0.0000 -0.7852 0.0000
# 3 10.4171 38.5351 58.8640 0.0000 -7.6071 0.0000
# 4 0.0000 0.0000 0.0000 -75.6409 0.0000 -7.3339
# 5 -10.0137 -0.7852 -7.6071 0.0000 35.7506 0.0000
# 6 0.0000 0.0000 0.0000 -7.3339 0.0000 49.1582
#
#
#
# Elastic Compliance Matrix: (Units=1/GPa)
#
#
# Indices 1 2 3 4 5 6 
#
# 1 0.008475 -0.000676 -0.000774 0.000000 0.002195 0.000000
# 2 -0.000676 0.005145 -0.003350 0.000000 -0.000789 0.000000
# 3 -0.000774 -0.003350 0.019826 0.000000 0.003928 0.000000
# 4 0.000000 0.000000 0.000000 -0.013032 0.000000 -0.001944
# 5 0.002195 -0.000789 0.003928 0.000000 0.029405 0.000000
# 6 0.000000 0.000000 0.000000 -0.001944 0.000000 0.020052
#
#
# Mechanical properties :
#
#
# Convention : Reuss Voigt Hill
#
# Bulk Modulus (GPa) = 41.93573 60.56430 51.25001
# Shear Modulus (GPa) = 57.19470 24.11175 40.65322
#
# Velocity S-wave (km/s) = 4.69932 3.05121 3.96191
# Velocity P-wave (km/s) = 6.75550 5.98313 6.38101
#
# Compressibility (1/GPa) = 0.02384602
#
# Stress axis : x y z
#
# Youngs Moduli (GPa) = 117.98718 194.37417 50.43853
#
# Poissons Ratio (x) = 0.13147 0.03901
# Poissons Ratio (y) = 0.07980 0.16898
# Poissons Ratio (z) = 0.09126 0.65121
#
# Static dielectric constant tensor:
#      x y z
#    x 2.214760 0.000000 0.102160 
#    y 0.000000 2.118730 0.000000 
#    z 0.102160 0.000000 2.127960 
# 
# From -- ./inp_files/29208.got.cif
#   From: 2010.05.17/outbox.cif.g08.bks.cpg/sg11_15_cif.got.tgz:29208.got - 2010.06.03 12:22:45.
