data_PCOD9159305
_publ_section_title
;
Structure prediction by ZEFSAII (Michael W. Deem and Ramdas Pophale) SiO2 
 PCOD9159305
Probable space group: P 21/M
;
_chemical_formula_sum "Si O2"
_cell_formula_units_Z 32
_cell_length_a 13.437867
_cell_length_b 7.474509
_cell_length_c 14.475794
_cell_angle_alpha 90.000000
_cell_angle_beta 68.391943
_cell_angle_gamma 90.000000
_cell_volume 1351.791700
_symmetry_space_group_name_H-M "P 21/M"
_symmetry_group_IT_number 11
_symmetry_cell_setting 'monoclinic'
loop_
_space_group_symop_operation_xyz
x,y,z
-x,1/2+y,-z
-x,-y,-z
x,1/2-y,z
loop_
_atom_site_type_symbol
_atom_site_label
_atom_site_fract_x
_atom_site_fract_y
_atom_site_fract_z
Si Si1 0.537517 0.952209 0.146305
Si Si2 0.360857 0.958023 0.337164
Si Si3 0.720460 0.029924 0.447370
Si Si4 0.876935 0.538225 0.061526
Si Si5 0.819447 0.533177 0.733460
Si Si6 0.301791 0.955992 0.750898
Si Si7 0.960255 0.463635 0.409538
Si Si8 0.286087 0.469066 0.042009
O O1 0.506529 0.750000 0.130815
O O2 0.437938 0.040595 0.232897
O O3 0.627845 0.947105 0.195954
O O4 0.600366 0.032700 0.037607
O O5 0.393038 0.750000 0.333622
O O6 0.355214 0.030774 0.442655
O O7 0.241968 0.968896 0.336510
O O8 0.720327 0.250000 0.448253
O O9 0.687547 0.973715 0.356187
O O10 0.842006 0.968817 0.426779
O O11 0.864591 0.750000 0.072375
O O12 0.821246 0.461933 0.172368
O O13 0.805007 0.475617 0.999814
O O14 0.000000 0.500000 0.000000
O O15 0.818831 0.750000 0.733020
O O16 0.942467 0.473003 0.688972
O O17 0.751838 0.471948 0.844863
O O18 0.337011 0.750000 0.740163
O O19 0.954140 0.250000 0.401187
O O20 0.000000 0.500000 0.500000
O O21 0.289974 0.250000 0.041017
#
# Coordination Sequence:
#
# PCOD9159305 Si02
#       8
#     4   4   4   4   4   4   4   4
#     4   9  19  37  57  76 104 141 177 220 273 321
#     4  10  20  36  56  76 104 142 179 219 269 323
#     4   9  19  34  53  77 106 141 177 212 266 330
#     4  10  20  35  55  79 109 144 181 220 264 317
#     4  10  20  33  53  79 104 136 177 216 260 318
#     4  10  20  35  56  79 106 140 179 222 267 317
#     4  10  19  33  53  74 103 139 174 214 263 316
#     4   8  17  34  53  73 103 138 172 211 263 321
#
# _framework density 23.672284999999999
#
# number of rings (size 3 to 8) (size 9 to 14) (size 15 to 20)
#    0.000    2.500    1.250    1.500    1.750    1.500 
#    0.000    5.625    0.000    0.000    0.000    0.000 
#    0.000    0.000    0.000    0.000    0.000    0.000 
#
# Total GULP energy -178719.220746 kJ/mol
# GULP energy per Si atom -5584.975648 kJ/mol
# Density = 2.361841 g / cm^3
# Si number density = 23.672285 Si / 1000 Ang^3
#
#
#
# Elastic Constant Matrix: (Units=GPa)
#
#
# Indices 1 2 3 4 5 6 
#
# 1 47.5673 -3.3078 10.7429 0.0000 -15.1586 0.0000
# 2 -3.3078 76.3379 3.7319 0.0000 -0.5350 0.0000
# 3 10.7429 3.7319 148.3188 0.0000 -10.2498 0.0000
# 4 0.0000 0.0000 0.0000 5.2588 0.0000 5.3584
# 5 -15.1586 -0.5350 -10.2498 0.0000 40.3020 0.0000
# 6 0.0000 0.0000 0.0000 5.3584 0.0000 9.9028
#
#
#
# Elastic Compliance Matrix: (Units=1/GPa)
#
#
# Indices 1 2 3 4 5 6 
#
# 1 0.024176 0.001167 -0.001172 0.000000 0.008811 0.000000
# 2 0.001167 0.013172 -0.000380 0.000000 0.000517 0.000000
# 3 -0.001172 -0.000380 0.006928 0.000000 0.001316 0.000000
# 4 0.000000 0.000000 0.000000 0.423833 0.000000 -0.229334
# 5 0.008811 0.000517 0.001316 0.000000 0.028468 0.000000
# 6 0.000000 0.000000 0.000000 -0.229334 0.000000 0.225073
#
#
# Mechanical properties :
#
#
# Convention : Reuss Voigt Hill
#
# Bulk Modulus (GPa) = 22.98530 32.72867 27.85699
# Shear Modulus (GPa) = 6.78496 28.49654 17.64075
#
# Velocity S-wave (km/s) = 1.69482 3.47334 2.73281
# Velocity P-wave (km/s) = 3.68250 5.47185 4.66379
#
# Compressibility (1/GPa) = 0.04350606
#
# Stress axis : x y z
#
# Youngs Moduli (GPa) = 41.36268 75.91625 144.34983
#
# Poissons Ratio (x) = -0.08857 0.16912
# Poissons Ratio (y) = -0.04825 0.05488
# Poissons Ratio (z) = 0.04846 0.02886
#
# Static dielectric constant tensor:
#      x y z
#    x 1.880720 0.000000 -0.040740 
#    y 0.000000 1.892430 0.000000 
#    z -0.040740 0.000000 1.929140 
# 
# From -- ./inp_files/51688.got.cif
#   From: 2010.05.17/outbox.cif.g08.bks.cpg/sg11_26_cif.got.tgz:51688.got - 2010.06.03 12:22:45.
