data_PCOD9159557
_publ_section_title
;
Structure prediction by ZEFSAII (Michael W. Deem and Ramdas Pophale) SiO2 
 PCOD9159557
Probable space group: P 21/M
;
_chemical_formula_sum "Si O2"
_cell_formula_units_Z 24
_cell_length_a 12.590650
_cell_length_b 8.724794
_cell_length_c 23.953398
_cell_angle_alpha 90.000000
_cell_angle_beta 153.702500
_cell_angle_gamma 90.000000
_cell_volume 1165.750559
_symmetry_space_group_name_H-M "P 21/M"
_symmetry_group_IT_number 11
_symmetry_cell_setting 'monoclinic'
loop_
_space_group_symop_operation_xyz
x,y,z
-x,1/2+y,-z
-x,-y,-z
x,1/2-y,z
loop_
_atom_site_type_symbol
_atom_site_label
_atom_site_fract_x
_atom_site_fract_y
_atom_site_fract_z
Si Si1 0.529709 0.066966 0.952497
Si Si2 0.286830 0.065750 0.361762
Si Si3 0.618755 0.067525 0.421276
Si Si4 0.124027 0.933576 0.978091
Si Si5 0.042140 0.933909 0.695800
Si Si6 0.635985 0.429765 0.795445
O O1 0.534717 0.250000 0.958306
O O2 0.767301 0.020583 0.030224
O O3 0.297504 0.011955 0.808816
O O4 0.500000 0.000000 0.000000
O O5 0.285000 0.250000 0.362002
O O6 0.376749 0.022920 0.342463
O O7 0.053354 0.019220 0.286860
O O8 0.500000 0.000000 0.500000
O O9 0.648335 0.250000 0.439573
O O10 0.842902 0.987994 0.557426
O O11 0.568821 0.018953 0.334509
O O12 0.070938 0.750000 0.952150
O O13 0.325595 0.959316 0.120817
O O14 0.890091 0.021537 0.888123
O O15 0.063204 0.750000 0.704119
O O16 0.596455 0.250000 0.768884
#
# Coordination Sequence:
#
# PCOD9159557 Si02
#       6
#     4   4   4   4   4   4
#     4  11  24  41  60  83 114 154 193 232 283 342
#     4   8  16  29  47  72 106 143 177 218 269 321
#     4  10  19  33  55  84 116 151 187 231 288 340
#     4   9  21  41  60  81 115 152 190 237 285 336
#     4  10  20  36  55  81 115 151 191 236 281 334
#     4  10  20  36  61  89 113 145 191 240 286 335
#
# _framework density 20.587596000000001
#
# number of rings (size 3 to 8) (size 9 to 14) (size 15 to 20)
#    0.000    2.333    0.000    2.000    2.333    3.333 
#    0.000    0.833    0.000    0.000    0.000    0.000 
#    0.000    0.000    0.000    0.000    0.000    0.000 
#
# Total GULP energy -133889.366925 kJ/mol
# GULP energy per Si atom -5578.723622 kJ/mol
# Density = 2.054074 g / cm^3
# Si number density = 20.587596 Si / 1000 Ang^3
#
#
#
# Elastic Constant Matrix: (Units=GPa)
#
#
# Indices 1 2 3 4 5 6 
#
# 1 71.5940 24.0056 13.3126 0.0000 -4.8740 0.0000
# 2 24.0056 25.3990 9.7542 0.0000 -5.1100 0.0000
# 3 13.3126 9.7542 55.9584 0.0000 -7.3032 0.0000
# 4 0.0000 0.0000 0.0000 31.7828 0.0000 -4.3522
# 5 -4.8740 -5.1100 -7.3032 0.0000 32.8268 0.0000
# 6 0.0000 0.0000 0.0000 -4.3522 0.0000 20.2449
#
#
#
# Elastic Compliance Matrix: (Units=1/GPa)
#
#
# Indices 1 2 3 4 5 6 
#
# 1 0.020585 -0.018876 -0.001639 0.000000 -0.000247 0.000000
# 2 -0.018876 0.060344 -0.005322 0.000000 0.005407 0.000000
# 3 -0.001639 -0.005322 0.019618 0.000000 0.003293 0.000000
# 4 0.000000 0.000000 0.000000 0.032418 0.000000 0.006969
# 5 -0.000247 0.005407 0.003293 0.000000 0.032000 0.000000
# 6 0.000000 0.000000 0.000000 0.006969 0.000000 0.050893
#
#
# Mechanical properties :
#
#
# Convention : Reuss Voigt Hill
#
# Bulk Modulus (GPa) = 20.46167 27.45515 23.95841
# Shear Modulus (GPa) = 17.61664 24.02948 20.82306
#
# Velocity S-wave (km/s) = 2.92839 3.42011 3.18376
# Velocity P-wave (km/s) = 4.62541 5.38154 5.01774
#
# Compressibility (1/GPa) = 0.04887187
#
# Stress axis : x y z
#
# Youngs Moduli (GPa) = 48.57985 16.57178 50.97396
#
# Poissons Ratio (x) = 0.31280 0.08355
# Poissons Ratio (y) = 0.91697 0.27131
# Poissons Ratio (z) = 0.07963 0.08820
#
# Static dielectric constant tensor:
#      x y z
#    x 1.778490 0.000000 -0.007520 
#    y 0.000000 1.681700 0.000000 
#    z -0.007520 0.000000 1.751160 
# 
# From -- ./inp_files/68466.got.cif
#   From: 2010.05.17/outbox.cif.g08.bks.cpg/sg11_35_cif.got.tgz:68466.got - 2010.06.03 12:22:45.
