data_PCOD9159260
_publ_section_title
;
Structure prediction by ZEFSAII (Michael W. Deem and Ramdas Pophale) SiO2 
 PCOD9159260
Probable space group: P 21/M
;
_chemical_formula_sum "Si O2"
_cell_formula_units_Z 32
_cell_length_a 23.856661
_cell_length_b 7.354132
_cell_length_c 10.478317
_cell_angle_alpha 90.000000
_cell_angle_beta 135.976357
_cell_angle_gamma 90.000000
_cell_volume 1277.583776
_symmetry_space_group_name_H-M "P 21/M"
_symmetry_group_IT_number 11
_symmetry_cell_setting 'monoclinic'
loop_
_space_group_symop_operation_xyz
x,y,z
-x,1/2+y,-z
-x,-y,-z
x,1/2-y,z
loop_
_atom_site_type_symbol
_atom_site_label
_atom_site_fract_x
_atom_site_fract_y
_atom_site_fract_z
Si Si1 0.481161 0.533649 0.115579
Si Si2 0.869032 0.542429 0.444322
Si Si3 0.912654 0.529686 0.245227
Si Si4 0.810444 0.527448 0.613262
Si Si5 0.652969 0.971897 0.478930
Si Si6 0.730142 0.969305 0.870471
Si Si7 0.311360 0.958406 0.924543
Si Si8 0.060031 0.034141 0.981562
O O1 0.475995 0.750000 0.133039
O O2 0.561422 0.464535 0.316992
O O3 0.392689 0.459487 0.001099
O O4 0.500000 0.500000 0.000000
O O5 0.895195 0.750000 0.500105
O O6 0.916925 0.461474 0.399781
O O7 0.859648 0.459640 0.570255
O O8 0.774392 0.547575 0.247212
O O9 0.916881 0.750000 0.262476
O O10 0.822279 0.478184 0.050743
O O11 0.961064 0.469881 0.196548
O O12 0.812758 0.750000 0.610969
O O13 0.716808 0.474144 0.472669
O O14 0.856004 0.471525 0.817489
O O15 0.651419 0.750000 0.473059
O O16 0.692198 0.029380 0.676168
O O17 0.730460 0.750000 0.869084
O O18 0.679663 0.034225 0.908530
O O19 0.302305 0.750000 0.867395
O O20 0.067416 0.250000 0.978877
O O21 0.000000 0.000000 0.000000
#
# Coordination Sequence:
#
# PCOD9159260 Si02
#       8
#     4   4   4   4   4   4   4   4
#     4  10  21  34  48  68  98 133 168 209 257 301
#     4   9  17  31  55  79  94 128 179 214 236 281
#     4   8  14  28  50  73  97 124 162 204 242 282
#     4   9  16  29  53  79  98 120 167 219 246 276
#     4   9  16  29  51  74  94 124 170 217 247 278
#     4   9  16  30  53  74  90 124 174 212 240 284
#     4  10  20  32  45  70 108 137 157 199 263 308
#     4  10  19  33  52  75 102 130 158 200 252 299
#
# _framework density 25.047280000000001
#
# number of rings (size 3 to 8) (size 9 to 14) (size 15 to 20)
#    0.000    2.750    1.250    1.875    0.000    2.500 
#    0.000    4.375    0.000    1.500    0.000    0.000 
#    0.000    0.000    0.000    0.000    0.000    0.000 
#
# Total GULP energy -178712.828310 kJ/mol
# GULP energy per Si atom -5584.775885 kJ/mol
# Density = 2.499027 g / cm^3
# Si number density = 25.047280 Si / 1000 Ang^3
#
#
#
# Elastic Constant Matrix: (Units=GPa)
#
#
# Indices 1 2 3 4 5 6 
#
# 1 179.8629 5.3981 41.8676 0.0000 -13.9732 0.0000
# 2 5.3981 100.8072 14.8142 0.0000 3.9605 0.0000
# 3 41.8676 14.8142 98.1063 0.0000 -16.7786 0.0000
# 4 0.0000 0.0000 0.0000 5.9245 0.0000 -2.3392
# 5 -13.9732 3.9605 -16.7786 0.0000 58.6877 0.0000
# 6 0.0000 0.0000 0.0000 -2.3392 0.0000 11.8592
#
#
#
# Elastic Compliance Matrix: (Units=1/GPa)
#
#
# Indices 1 2 3 4 5 6 
#
# 1 0.006205 0.000008 -0.002520 0.000000 0.000756 0.000000
# 2 0.000008 0.010223 -0.001751 0.000000 -0.001188 0.000000
# 3 -0.002520 -0.001751 0.012039 0.000000 0.002960 0.000000
# 4 0.000000 0.000000 0.000000 0.183045 0.000000 0.036105
# 5 0.000756 -0.001188 0.002960 0.000000 0.018146 0.000000
# 6 0.000000 0.000000 0.000000 0.036105 0.000000 0.091444
#
#
# Mechanical properties :
#
#
# Convention : Reuss Voigt Hill
#
# Bulk Modulus (GPa) = 50.14272 55.88180 53.01226
# Shear Modulus (GPa) = 14.86885 36.40741 25.63813
#
# Velocity S-wave (km/s) = 2.43910 3.81668 3.20283
# Velocity P-wave (km/s) = 5.29103 6.46387 5.90663
#
# Compressibility (1/GPa) = 0.01994307
#
# Stress axis : x y z
#
# Youngs Moduli (GPa) = 161.16388 97.81460 83.06348
#
# Poissons Ratio (x) = -0.00082 0.20931
# Poissons Ratio (y) = -0.00134 0.14541
# Poissons Ratio (z) = 0.40611 0.17123
#
# Static dielectric constant tensor:
#      x y z
#    x 1.926550 0.000000 0.112390 
#    y 0.000000 1.935180 0.000000 
#    z 0.112390 0.000000 1.900720 
# 
# From -- ./inp_files/42945.got.cif
#   From: 2010.05.17/outbox.cif.g08.bks.cpg/sg11_22_cif.got.tgz:42945.got - 2010.06.03 12:22:45.
