data_PCOD9159488
_publ_section_title
;
Structure prediction by ZEFSAII (Michael W. Deem and Ramdas Pophale) SiO2 
 PCOD9159488
Probable space group: P 21/M
;
_chemical_formula_sum "Si O2"
_cell_formula_units_Z 28
_cell_length_a 13.673152
_cell_length_b 13.697040
_cell_length_c 13.356284
_cell_angle_alpha 90.000000
_cell_angle_beta 29.834155
_cell_angle_gamma 90.000000
_cell_volume 1244.418278
_symmetry_space_group_name_H-M "P 21/M"
_symmetry_group_IT_number 11
_symmetry_cell_setting 'monoclinic'
loop_
_space_group_symop_operation_xyz
x,y,z
-x,1/2+y,-z
-x,-y,-z
x,1/2-y,z
loop_
_atom_site_type_symbol
_atom_site_label
_atom_site_fract_x
_atom_site_fract_y
_atom_site_fract_z
Si Si1 0.259285 0.560706 0.865727
Si Si2 0.695409 0.137272 0.964272
Si Si3 0.736115 0.643653 0.226169
Si Si4 0.742287 0.142611 0.346328
Si Si5 0.097370 0.860237 0.434478
Si Si6 0.735393 0.559501 0.658033
Si Si7 0.737404 0.936177 0.437187
O O1 0.202724 0.595120 0.026450
O O2 0.201935 0.449327 0.893472
O O3 0.199801 0.623752 0.821402
O O4 0.498165 0.564455 0.652298
O O5 0.644257 0.250000 0.031892
O O6 0.493459 0.079200 0.123900
O O7 0.817489 0.134954 0.754074
O O8 0.797406 0.750000 0.136003
O O9 0.497054 0.641903 0.439367
O O10 0.796293 0.625338 0.287852
O O11 0.804645 0.250000 0.325313
O O12 0.799649 0.047731 0.359115
O O13 0.119228 0.750000 0.452758
O O14 0.870055 0.891468 0.623300
O O15 0.211994 0.944898 0.390569
O O16 0.791919 0.600358 0.498314
#
# Coordination Sequence:
#
# PCOD9159488 Si02
#       7
#     4   4   4   4   4   4   4
#     4   8  14  24  40  67  99 128 161 200 244 288
#     4  10  19  33  55  79 102 133 172 209 250 303
#     4   8  13  22  38  64  98 130 163 201 238 288
#     4   8  12  20  36  62  95 126 159 199 241 289
#     4  10  22  37  54  77 102 131 170 214 259 306
#     4  10  20  36  55  75 103 133 167 213 260 301
#     4   8  15  24  40  67  92 124 164 199 242 296
#
# _framework density 22.500473
#
# number of rings (size 3 to 8) (size 9 to 14) (size 15 to 20)
#    0.000    3.143    0.000    3.000    0.000    4.571 
#    0.000    2.143    0.000    7.714    0.000    2.000 
#    0.000    0.000    0.000    0.000    0.000    0.000 
#
# Total GULP energy -156413.568647 kJ/mol
# GULP energy per Si atom -5586.198880 kJ/mol
# Density = 2.244926 g / cm^3
# Si number density = 22.500473 Si / 1000 Ang^3
#
#
#
# Elastic Constant Matrix: (Units=GPa)
#
#
# Indices 1 2 3 4 5 6 
#
# 1 49.3488 7.8313 5.6367 0.0000 -7.3818 0.0000
# 2 7.8313 84.8065 -14.2589 0.0000 -10.3434 0.0000
# 3 5.6367 -14.2589 58.6747 0.0000 -12.5784 0.0000
# 4 0.0000 0.0000 0.0000 6.8904 0.0000 8.2664
# 5 -7.3818 -10.3434 -12.5784 0.0000 30.3389 0.0000
# 6 0.0000 0.0000 0.0000 8.2664 0.0000 7.8556
#
#
#
# Elastic Compliance Matrix: (Units=1/GPa)
#
#
# Indices 1 2 3 4 5 6 
#
# 1 0.021316 -0.001768 -0.001641 0.000000 0.003903 0.000000
# 2 -0.001768 0.013508 0.004771 0.000000 0.006153 0.000000
# 3 -0.001641 0.004771 0.020440 0.000000 0.009702 0.000000
# 4 0.000000 0.000000 0.000000 -0.552993 0.000000 0.581913
# 5 0.003903 0.006153 0.009702 0.000000 0.040031 0.000000
# 6 0.000000 0.000000 0.000000 0.581913 0.000000 -0.485047
#
#
# Mechanical properties :
#
#
# Convention : Reuss Voigt Hill
#
# Bulk Modulus (GPa) = 17.24471 21.24982 19.24727
# Shear Modulus (GPa) = -5.39874 21.92504 8.26315
#
# Velocity S-wave (km/s) = -1.55068 3.12497 1.91844
# Velocity P-wave (km/s) = 2.11534 4.74186 3.67150
#
# Compressibility (1/GPa) = 0.05798878
#
# Stress axis : x y z
#
# Youngs Moduli (GPa) = 46.91360 74.03273 48.92340
#
# Poissons Ratio (x) = 0.13090 0.08027
# Poissons Ratio (y) = 0.08295 -0.23344
# Poissons Ratio (z) = 0.07697 -0.35325
#
# Static dielectric constant tensor:
#      x y z
#    x 1.798210 0.000000 -0.032810 
#    y 0.000000 1.817150 0.000000 
#    z -0.032810 0.000000 1.888760 
# 
# From -- ./inp_files/52437.got.cif
#   From: 2010.05.17/outbox.cif.g08.bks.cpg/sg11_27_cif.got.tgz:52437.got - 2010.06.03 12:22:45.
