data_PCOD9159010
_publ_section_title
;
Structure prediction by ZEFSAII (Michael W. Deem and Ramdas Pophale) SiO2 
 PCOD9159010
Probable space group: P 21/M
;
_chemical_formula_sum "Si O2"
_cell_formula_units_Z 28
_cell_length_a 10.373467
_cell_length_b 9.897878
_cell_length_c 13.037618
_cell_angle_alpha 90.000000
_cell_angle_beta 68.960970
_cell_angle_gamma 90.000000
_cell_volume 1249.402404
_symmetry_space_group_name_H-M "P 21/M"
_symmetry_group_IT_number 11
_symmetry_cell_setting 'monoclinic'
loop_
_space_group_symop_operation_xyz
x,y,z
-x,1/2+y,-z
-x,-y,-z
x,1/2-y,z
loop_
_atom_site_type_symbol
_atom_site_label
_atom_site_fract_x
_atom_site_fract_y
_atom_site_fract_z
Si Si1 0.032611 0.106306 0.403637
Si Si2 0.688532 0.594119 0.363678
Si Si3 0.359346 0.606303 0.448598
Si Si4 0.904945 0.408561 0.213055
Si Si5 0.700411 0.490815 0.745093
Si Si6 0.846674 0.092873 0.915876
Si Si7 0.440659 0.590422 0.924579
O O1 0.994760 0.250000 0.459087
O O2 0.955475 0.088589 0.317521
O O3 0.191349 0.101699 0.323449
O O4 0.000000 0.000000 0.500000
O O5 0.737858 0.750000 0.350647
O O6 0.524506 0.594792 0.392676
O O7 0.698577 0.518878 0.470639
O O8 0.768986 0.501654 0.258861
O O9 0.329106 0.750000 0.510808
O O10 0.304523 0.607302 0.349632
O O11 0.888024 0.250000 0.188367
O O12 0.027069 0.487577 0.117995
O O13 0.766723 0.427622 0.829199
O O14 0.547260 0.549512 0.805677
O O15 0.890812 0.250000 0.910843
O O16 0.724013 0.066104 0.033107
O O17 0.456326 0.750000 0.941657
O O18 0.500000 0.500000 0.000000
#
# Coordination Sequence:
#
# PCOD9159010 Si02
#       7
#     4   4   4   4   4   4   4
#     4  10  21  32  45  69 101 133 164 202 247 297
#     4  10  21  36  54  75 101 136 176 217 257 301
#     4  10  21  36  53  76 105 136 173 215 258 304
#     4  10  20  34  51  71  99 134 170 209 253 304
#     4  10  19  32  53  77 104 135 170 208 254 305
#     4   9  18  32  52  78 104 132 165 205 255 308
#     4   9  18  32  51  76 106 137 171 211 256 308
#
# _framework density 22.410715
#
# number of rings (size 3 to 8) (size 9 to 14) (size 15 to 20)
#    0.000    2.286    0.000    2.571    0.000   11.429 
#    0.000    0.000    0.000    0.857    0.000    0.000 
#    0.000    0.000    0.000    0.000    0.000    0.000 
#
# Total GULP energy -156226.011591 kJ/mol
# GULP energy per Si atom -5579.500414 kJ/mol
# Density = 2.235971 g / cm^3
# Si number density = 22.410715 Si / 1000 Ang^3
#
#
#
# Elastic Constant Matrix: (Units=GPa)
#
#
# Indices 1 2 3 4 5 6 
#
# 1 50.2430 33.7429 38.0167 0.0000 -30.0251 0.0000
# 2 33.7429 171.5726 58.5396 0.0000 -29.5633 0.0000
# 3 38.0167 58.5396 97.6340 0.0000 -26.0522 0.0000
# 4 0.0000 0.0000 0.0000 22.0244 0.0000 -9.6988
# 5 -30.0251 -29.5633 -26.0522 0.0000 54.0788 0.0000
# 6 0.0000 0.0000 0.0000 -9.6988 0.0000 17.1604
#
#
#
# Elastic Compliance Matrix: (Units=1/GPa)
#
#
# Indices 1 2 3 4 5 6 
#
# 1 0.037231 -0.001425 -0.009564 0.000000 0.015284 0.000000
# 2 -0.001425 0.007610 -0.003568 0.000000 0.001650 0.000000
# 3 -0.009564 -0.003568 0.016258 0.000000 0.000572 0.000000
# 4 0.000000 0.000000 0.000000 0.060449 0.000000 0.034165
# 5 0.015284 0.001650 0.000572 0.000000 0.028155 0.000000
# 6 0.000000 0.000000 0.000000 0.034165 0.000000 0.077583
#
#
# Mechanical properties :
#
#
# Convention : Reuss Voigt Hill
#
# Bulk Modulus (GPa) = 31.26416 64.44978 47.85697
# Shear Modulus (GPa) = 18.72213 31.26274 24.99243
#
# Velocity S-wave (km/s) = 2.89348 3.73901 3.34308
# Velocity P-wave (km/s) = 5.01436 6.88921 6.02515
#
# Compressibility (1/GPa) = 0.03198551
#
# Stress axis : x y z
#
# Youngs Moduli (GPa) = 26.85920 131.39926 61.50779
#
# Poissons Ratio (x) = 0.18729 0.58826
# Poissons Ratio (y) = 0.03828 0.21944
# Poissons Ratio (z) = 0.25688 0.46879
#
# Static dielectric constant tensor:
#      x y z
#    x 1.876220 0.000000 -0.021860 
#    y 0.000000 1.807850 0.000000 
#    z -0.021860 0.000000 1.826670 
# 
# From -- ./inp_files/49146.got.cif
#   From: 2010.05.17/outbox.cif.g08.bks.cpg/sg11_25_cif.got.tgz:49146.got - 2010.06.03 12:22:45.
