data_PCOD9159363
_publ_section_title
;
Structure prediction by ZEFSAII (Michael W. Deem and Ramdas Pophale) SiO2 
 PCOD9159363
Probable space group: P 21/M
;
_chemical_formula_sum "Si O2"
_cell_formula_units_Z 32
_cell_length_a 12.652573
_cell_length_b 8.230243
_cell_length_c 21.881837
_cell_angle_alpha 90.000000
_cell_angle_beta 132.029472
_cell_angle_gamma 90.000000
_cell_volume 1692.573347
_symmetry_space_group_name_H-M "P 21/M"
_symmetry_group_IT_number 11
_symmetry_cell_setting 'monoclinic'
loop_
_space_group_symop_operation_xyz
x,y,z
-x,1/2+y,-z
-x,-y,-z
x,1/2-y,z
loop_
_atom_site_type_symbol
_atom_site_label
_atom_site_fract_x
_atom_site_fract_y
_atom_site_fract_z
Si Si1 0.988862 0.051275 0.300513
Si Si2 0.291475 0.935795 0.740344
Si Si3 0.450147 0.553428 0.360261
Si Si4 0.866512 0.554020 0.764278
Si Si5 0.156623 0.435394 0.571094
Si Si6 0.120604 0.056945 0.092750
Si Si7 0.271756 0.436438 0.478771
Si Si8 0.565676 0.442598 0.787117
O O1 0.986622 0.250000 0.306823
O O2 0.837327 0.993957 0.268252
O O3 0.017657 0.009001 0.241457
O O4 0.131723 0.993137 0.391495
O O5 0.314292 0.750000 0.767660
O O6 0.227958 0.948691 0.647615
O O7 0.444490 0.016484 0.789400
O O8 0.462880 0.750000 0.365344
O O9 0.290020 0.506227 0.315627
O O10 0.570204 0.489031 0.453811
O O11 0.467518 0.497469 0.295662
O O12 0.860245 0.750000 0.763193
O O13 0.897550 0.493046 0.844696
O O14 0.159018 0.250000 0.596075
O O15 0.230850 0.431140 0.534493
O O16 0.000000 0.500000 0.500000
O O17 0.113531 0.250000 0.093037
O O18 0.279867 0.008169 0.135309
O O19 0.000000 0.000000 0.000000
O O20 0.284743 0.250000 0.460506
O O21 0.573912 0.250000 0.784966
#
# Coordination Sequence:
#
# PCOD9159363 Si02
#       8
#     4   4   4   4   4   4   4   4
#     4   9  18  32  49  69 100 143 180 212 256 303
#     4  11  20  31  50  74 102 140 179 216 258 305
#     4   9  17  30  48  69  98 136 173 214 263 302
#     4   9  19  35  53  74 101 133 171 210 251 309
#     4  11  19  30  45  67  97 135 181 230 270 300
#     4  10  20  36  60  88 109 129 161 205 257 314
#     4   9  16  28  45  66  95 136 178 214 259 301
#     4  10  19  33  53  79 110 138 166 211 262 304
#
# _framework density 18.906123000000001
#
# number of rings (size 3 to 8) (size 9 to 14) (size 15 to 20)
#    0.000    2.250    2.500    1.500    0.000    1.500 
#    0.000    1.250    0.000    0.750    0.000    0.000 
#    0.000    0.000    0.000    0.000    0.000    0.000 
#
# Total GULP energy -178309.189483 kJ/mol
# GULP energy per Si atom -5572.162171 kJ/mol
# Density = 1.886309 g / cm^3
# Si number density = 18.906123 Si / 1000 Ang^3
#
#
#
# Elastic Constant Matrix: (Units=GPa)
#
#
# Indices 1 2 3 4 5 6 
#
# 1 125.9868 9.6337 57.4509 0.0000 7.6444 0.0000
# 2 9.6337 17.6411 7.5167 0.0000 1.9365 0.0000
# 3 57.4509 7.5167 87.2004 0.0000 22.5721 0.0000
# 4 0.0000 0.0000 0.0000 16.3638 0.0000 4.2603
# 5 7.6444 1.9365 22.5721 0.0000 18.7253 0.0000
# 6 0.0000 0.0000 0.0000 4.2603 0.0000 16.8196
#
#
#
# Elastic Compliance Matrix: (Units=1/GPa)
#
#
# Indices 1 2 3 4 5 6 
#
# 1 0.012078 -0.003324 -0.009424 0.000000 0.006773 0.000000
# 2 -0.003324 0.059762 -0.002490 0.000000 -0.001822 0.000000
# 3 -0.009424 -0.002490 0.024462 0.000000 -0.025382 0.000000
# 4 0.000000 0.000000 0.000000 0.065425 0.000000 -0.016572
# 5 0.006773 -0.001822 -0.025382 0.000000 0.081423 0.000000
# 6 0.000000 0.000000 0.000000 -0.016572 0.000000 0.063652
#
#
# Mechanical properties :
#
#
# Convention : Reuss Voigt Hill
#
# Bulk Modulus (GPa) = 15.19163 42.22564 28.70863
# Shear Modulus (GPa) = 13.91905 20.79687 17.35796
#
# Velocity S-wave (km/s) = 2.71628 3.32023 3.03333
# Velocity P-wave (km/s) = 4.22969 6.08945 5.24270
#
# Compressibility (1/GPa) = 0.06582571
#
# Stress axis : x y z
#
# Youngs Moduli (GPa) = 82.79488 16.73306 40.88006
#
# Poissons Ratio (x) = 0.05562 0.38526
# Poissons Ratio (y) = 0.27519 0.10179
# Poissons Ratio (z) = 0.78028 0.04167
#
# Static dielectric constant tensor:
#      x y z
#    x 1.693010 0.000000 0.001310 
#    y 0.000000 1.671300 0.000000 
#    z 0.001310 0.000000 1.663120 
# 
# From -- ./inp_files/64419.got.cif
#   From: 2010.05.17/outbox.cif.g08.bks.cpg/sg11_33_cif.got.tgz:64419.got - 2010.06.03 12:22:45.
