data_PCOD9159121
_publ_section_title
;
Structure prediction by ZEFSAII (Michael W. Deem and Ramdas Pophale) SiO2 
 PCOD9159121
Probable space group: P 21/M
;
_chemical_formula_sum "Si O2"
_cell_formula_units_Z 32
_cell_length_a 7.169332
_cell_length_b 23.588461
_cell_length_c 10.115520
_cell_angle_alpha 90.000000
_cell_angle_beta 59.095421
_cell_angle_gamma 90.000000
_cell_volume 1467.796602
_symmetry_space_group_name_H-M "P 21/M"
_symmetry_group_IT_number 11
_symmetry_cell_setting 'monoclinic'
loop_
_space_group_symop_operation_xyz
x,y,z
-x,1/2+y,-z
-x,-y,-z
x,1/2-y,z
loop_
_atom_site_type_symbol
_atom_site_label
_atom_site_fract_x
_atom_site_fract_y
_atom_site_fract_z
Si Si1 0.555023 0.687330 0.166075
Si Si2 0.683935 0.930957 0.043605
Si Si3 0.924980 0.683957 0.259295
Si Si4 0.664750 0.313630 0.255551
Si Si5 0.184976 0.814076 0.510817
Si Si6 0.773249 0.870977 0.588196
Si Si7 0.126288 0.899220 0.997671
Si Si8 0.427525 0.032137 0.195388
O O1 0.555875 0.750000 0.103763
O O2 0.610990 0.634137 0.055858
O O3 0.739212 0.686646 0.213967
O O4 0.330927 0.678990 0.327739
O O5 0.492646 0.966708 0.184941
O O6 0.708846 0.957411 0.888822
O O7 0.902452 0.932052 0.051253
O O8 0.985333 0.750000 0.264297
O O9 0.832795 0.651953 0.421203
O O10 0.105613 0.642578 0.130399
O O11 0.716715 0.250000 0.195852
O O12 0.667050 0.317035 0.413194
O O13 0.429465 0.332752 0.291277
O O14 0.841486 0.356357 0.136125
O O15 0.092289 0.750000 0.541967
O O16 0.990832 0.858242 0.589455
O O17 0.688812 0.934821 0.642919
O O18 0.338175 0.938290 0.918715
#
# Coordination Sequence:
#
# PCOD9159121 Si02
#       8
#     4   4   4   4   4   4   4   4
#     4   9  19  36  59  86 114 149 188 232 289 341
#     4  10  21  42  62  80 116 149 188 245 282 332
#     4  10  19  35  57  85 122 154 185 236 289 333
#     4  10  19  34  54  82 117 148 185 233 280 337
#     4  10  19  32  55  81 113 153 184 226 289 336
#     4  11  21  35  55  82 116 149 191 231 279 339
#     4  10  21  36  60  84 110 150 195 231 281 342
#     4  10  23  40  61  83 112 152 195 233 288 334
#
# _framework density 21.801387999999999
#
# number of rings (size 3 to 8) (size 9 to 14) (size 15 to 20)
#    0.000    2.000    1.250    2.625    1.750    0.500 
#    0.000    6.875    2.750    0.000    0.000    0.000 
#    0.000    0.000    0.000    0.000    0.000    0.000 
#
# Total GULP energy -178661.810701 kJ/mol
# GULP energy per Si atom -5583.181584 kJ/mol
# Density = 2.175177 g / cm^3
# Si number density = 21.801388 Si / 1000 Ang^3
#
#
#
# Elastic Constant Matrix: (Units=GPa)
#
#
# Indices 1 2 3 4 5 6 
#
# 1 58.9884 6.6658 -7.2050 0.0000 -7.7050 0.0000
# 2 6.6658 75.0346 13.5777 0.0000 -2.5818 0.0000
# 3 -7.2050 13.5777 43.5447 0.0000 0.0029 0.0000
# 4 0.0000 0.0000 0.0000 30.4406 0.0000 1.6319
# 5 -7.7050 -2.5818 0.0029 0.0000 26.8022 0.0000
# 6 0.0000 0.0000 0.0000 1.6319 0.0000 21.8320
#
#
#
# Elastic Compliance Matrix: (Units=1/GPa)
#
#
# Indices 1 2 3 4 5 6 
#
# 1 0.018303 -0.002119 0.003689 0.000000 0.005057 0.000000
# 2 -0.002119 0.014419 -0.004847 0.000000 0.000780 0.000000
# 3 0.003689 -0.004847 0.025087 0.000000 0.000591 0.000000
# 4 0.000000 0.000000 0.000000 0.032983 0.000000 -0.002465
# 5 0.005057 0.000780 0.000591 0.000000 0.038839 0.000000
# 6 0.000000 0.000000 0.000000 -0.002465 0.000000 0.045989
#
#
# Mechanical properties :
#
#
# Convention : Reuss Voigt Hill
#
# Bulk Modulus (GPa) = 19.51052 22.62717 21.06885
# Shear Modulus (GPa) = 25.09291 26.78358 25.93825
#
# Velocity S-wave (km/s) = 3.39629 3.50884 3.45302
# Velocity P-wave (km/s) = 4.93440 5.17853 5.05794
#
# Compressibility (1/GPa) = 0.05125440
#
# Stress axis : x y z
#
# Youngs Moduli (GPa) = 54.63547 69.35122 39.86198
#
# Poissons Ratio (x) = 0.14699 -0.14705
# Poissons Ratio (y) = 0.11580 0.19320
# Poissons Ratio (z) = -0.20155 0.33613
#
# Static dielectric constant tensor:
#      x y z
#    x 1.823250 0.000000 0.000890 
#    y 0.000000 1.821150 0.000000 
#    z 0.000890 0.000000 1.790950 
# 
# From -- ./inp_files/32808.got.cif
#   From: 2010.05.17/outbox.cif.g08.bks.cpg/sg11_17_cif.got.tgz:32808.got - 2010.06.03 12:22:45.
