data_PCOD9160607
_publ_section_title
;
Structure prediction by ZEFSAII (Michael W. Deem and Ramdas Pophale) SiO2 
 PCOD9160607
Probable space group: P 21/M
;
_chemical_formula_sum "Si O2"
_cell_formula_units_Z 32
_cell_length_a 13.088087
_cell_length_b 8.880223
_cell_length_c 32.579252
_cell_angle_alpha 90.000000
_cell_angle_beta 153.396999
_cell_angle_gamma 90.000000
_cell_volume 1695.629585
_symmetry_space_group_name_H-M "P 21/M"
_symmetry_group_IT_number 11
_symmetry_cell_setting 'monoclinic'
loop_
_space_group_symop_operation_xyz
x,y,z
-x,1/2+y,-z
-x,-y,-z
x,1/2-y,z
loop_
_atom_site_type_symbol
_atom_site_label
_atom_site_fract_x
_atom_site_fract_y
_atom_site_fract_z
Si Si1 0.237902 0.929543 0.099090
Si Si2 0.578429 0.923068 0.146676
Si Si3 0.036663 0.567248 0.420136
Si Si4 0.832218 0.931651 0.708036
Si Si5 0.350968 0.571978 0.910781
Si Si6 0.882975 0.424664 0.640925
Si Si7 0.571869 0.067104 0.377306
Si Si8 0.565012 0.431224 0.280066
O O1 0.218981 0.750000 0.097928
O O2 0.417120 0.957877 0.126724
O O3 0.344301 0.005706 0.177515
O O4 0.000000 0.000000 0.000000
O O5 0.536115 0.750000 0.118673
O O6 0.841892 0.932651 0.254962
O O7 0.544187 0.029369 0.095587
O O8 0.013184 0.750000 0.410163
O O9 0.152681 0.521478 0.418517
O O10 0.199653 0.523994 0.516342
O O11 0.789936 0.495673 0.338593
O O12 0.831815 0.750000 0.706960
O O13 0.643747 0.983081 0.672967
O O14 0.086541 0.981728 0.813122
O O15 0.785258 0.987793 0.644892
O O16 0.346525 0.750000 0.914904
O O17 0.500000 0.500000 0.000000
O O18 0.813008 0.250000 0.618546
O O19 0.566197 0.250000 0.374995
O O20 0.567925 0.018838 0.328706
O O21 0.567223 0.250000 0.279149
#
# Coordination Sequence:
#
# PCOD9160607 Si02
#       8
#     4   4   4   4   4   4   4   4
#     4  11  23  40  60  86 115 150 190 236 293 346
#     4   9  18  35  55  75 106 144 181 225 279 336
#     4  10  19  36  60  83 111 152 194 236 289 347
#     4   9  19  36  54  77 110 147 185 231 286 342
#     4  10  20  33  54  81 108 143 188 234 282 341
#     4   9  17  32  55  81 107 142 183 228 281 335
#     4   9  20  37  57  81 115 155 192 233 291 350
#     4  11  22  37  58  85 116 153 196 241 284 341
#
# _framework density 18.872047999999999
#
# number of rings (size 3 to 8) (size 9 to 14) (size 15 to 20)
#    0.000    2.250    1.250    1.500    0.000    3.500 
#    0.000    5.000    0.000    0.000    0.000    0.000 
#    0.000    0.000    0.000    0.000    0.000    0.000 
#
# Total GULP energy -178591.810602 kJ/mol
# GULP energy per Si atom -5580.994081 kJ/mol
# Density = 1.882909 g / cm^3
# Si number density = 18.872048 Si / 1000 Ang^3
#
#
#
# Elastic Constant Matrix: (Units=GPa)
#
#
# Indices 1 2 3 4 5 6 
#
# 1 85.6172 26.3908 40.2566 0.0000 -15.3112 0.0000
# 2 26.3908 25.8755 27.7534 0.0000 -9.5323 0.0000
# 3 40.2566 27.7534 102.7575 0.0000 -24.6563 0.0000
# 4 0.0000 0.0000 0.0000 21.6345 0.0000 -5.7733
# 5 -15.3112 -9.5323 -24.6563 0.0000 33.4611 0.0000
# 6 0.0000 0.0000 0.0000 -5.7733 0.0000 30.4939
#
#
#
# Elastic Compliance Matrix: (Units=1/GPa)
#
#
# Indices 1 2 3 4 5 6 
#
# 1 0.017743 -0.014650 -0.002487 0.000000 0.002113 0.000000
# 2 -0.014650 0.067406 -0.011500 0.000000 0.004024 0.000000
# 3 -0.002487 -0.011500 0.015492 0.000000 0.007001 0.000000
# 4 0.000000 0.000000 0.000000 0.048682 0.000000 0.009217
# 5 0.002113 0.004024 0.007001 0.000000 0.037158 0.000000
# 6 0.000000 0.000000 0.000000 0.009217 0.000000 0.034538
#
#
# Mechanical properties :
#
#
# Convention : Reuss Voigt Hill
#
# Bulk Modulus (GPa) = 23.05992 44.78354 33.92173
# Shear Modulus (GPa) = 17.07943 25.10788 21.09365
#
# Velocity S-wave (km/s) = 3.01160 3.65146 3.34686
# Velocity P-wave (km/s) = 4.93342 6.44664 5.74011
#
# Compressibility (1/GPa) = 0.04336529
#
# Stress axis : x y z
#
# Youngs Moduli (GPa) = 56.36017 14.83548 64.54906
#
# Poissons Ratio (x) = 0.21734 0.16056
# Poissons Ratio (y) = 0.82569 0.74233
# Poissons Ratio (z) = 0.14019 0.17061
#
# Static dielectric constant tensor:
#      x y z
#    x 1.648930 0.000000 -0.003970 
#    y 0.000000 1.642120 0.000000 
#    z -0.003970 0.000000 1.655640 
# 
# From -- ./inp_files/73137.got.cif
#   From: 2010.05.17/outbox.cif.g08.bks.cpg/sg11_37_cif.got.tgz:73137.got - 2010.06.03 12:22:45.
