data_PCOD9160180
_publ_section_title
;
Structure prediction by ZEFSAII (Michael W. Deem and Ramdas Pophale) SiO2 
 PCOD9160180
Probable space group: P 21/M
;
_chemical_formula_sum "Si O2"
_cell_formula_units_Z 32
_cell_length_a 24.082504
_cell_length_b 8.601617
_cell_length_c 16.104175
_cell_angle_alpha 90.000000
_cell_angle_beta 31.823061
_cell_angle_gamma 90.000000
_cell_volume 1759.041982
_symmetry_space_group_name_H-M "P 21/M"
_symmetry_group_IT_number 11
_symmetry_cell_setting 'monoclinic'
loop_
_space_group_symop_operation_xyz
x,y,z
-x,1/2+y,-z
-x,-y,-z
x,1/2-y,z
loop_
_atom_site_type_symbol
_atom_site_label
_atom_site_fract_x
_atom_site_fract_y
_atom_site_fract_z
Si Si1 0.080293 0.563640 0.514418
Si Si2 0.607920 0.437180 0.323722
Si Si3 0.914506 0.071642 0.169561
Si Si4 0.367564 0.937985 0.901499
Si Si5 0.851823 0.936378 0.750229
Si Si6 0.277565 0.430334 0.672320
Si Si7 0.593320 0.566511 0.654905
Si Si8 0.810772 0.936032 0.460051
O O1 0.084980 0.750000 0.508652
O O2 0.127940 0.500883 0.367819
O O3 0.145602 0.500563 0.509263
O O4 0.956077 0.517487 0.670941
O O5 0.500000 0.500000 0.500000
O O6 0.612119 0.250000 0.327060
O O7 0.620998 0.476153 0.210567
O O8 0.693805 0.521077 0.271811
O O9 0.938295 0.250000 0.156979
O O10 0.807191 0.048419 0.255293
O O11 0.891840 0.983743 0.284300
O O12 0.000000 0.000000 0.000000
O O13 0.366070 0.750000 0.909870
O O14 0.474419 0.996184 0.811915
O O15 0.258280 0.002226 0.074901
O O16 0.849184 0.750000 0.750666
O O17 0.241463 0.250000 0.713463
O O18 0.373514 0.442230 0.484555
O O19 0.587567 0.750000 0.682253
O O20 0.693564 0.505371 0.580397
O O21 0.805493 0.750000 0.470156
#
# Coordination Sequence:
#
# PCOD9160180 Si02
#       8
#     4   4   4   4   4   4   4   4
#     4  10  21  40  63  85 114 147 186 233 287 348
#     4  11  21  33  52  79 111 151 194 235 279 337
#     4  11  22  37  55  80 112 149 192 236 284 336
#     4  10  20  36  56  81 115 152 189 231 286 345
#     4  10  22  39  60  87 113 143 184 236 292 341
#     4  10  19  35  54  75 108 148 189 235 283 334
#     4   8  16  33  54  78 110 148 183 223 275 331
#     4  10  20  36  61  87 113 148 189 233 282 338
#
# _framework density 18.191721000000001
#
# number of rings (size 3 to 8) (size 9 to 14) (size 15 to 20)
#    0.000    2.000    1.250    3.750    0.000    3.500 
#    0.000    4.375    0.000    0.000    0.000    0.000 
#    0.000    0.000    0.000    0.000    0.000    0.000 
#
# Total GULP energy -178418.440216 kJ/mol
# GULP energy per Si atom -5575.576257 kJ/mol
# Density = 1.815032 g / cm^3
# Si number density = 18.191721 Si / 1000 Ang^3
#
#
#
# Elastic Constant Matrix: (Units=GPa)
#
#
# Indices 1 2 3 4 5 6 
#
# 1 141.3263 33.0813 62.2473 0.0000 0.5901 0.0000
# 2 33.0813 45.0196 33.3519 0.0000 -1.6564 0.0000
# 3 62.2473 33.3519 125.9328 0.0000 -11.5187 0.0000
# 4 0.0000 0.0000 0.0000 31.5914 0.0000 2.3779
# 5 0.5901 -1.6564 -11.5187 0.0000 14.4423 0.0000
# 6 0.0000 0.0000 0.0000 2.3779 0.0000 30.5833
#
#
#
# Elastic Compliance Matrix: (Units=1/GPa)
#
#
# Indices 1 2 3 4 5 6 
#
# 1 0.009945 -0.004399 -0.004136 0.000000 -0.004209 0.000000
# 2 -0.004399 0.029691 -0.005783 0.000000 -0.001028 0.000000
# 3 -0.004136 -0.005783 0.012374 0.000000 0.009375 0.000000
# 4 0.000000 0.000000 0.000000 0.031841 0.000000 -0.002476
# 5 -0.004209 -0.001028 0.009375 0.000000 0.076772 0.000000
# 6 0.000000 0.000000 0.000000 -0.002476 0.000000 0.032890
#
#
# Mechanical properties :
#
#
# Convention : Reuss Voigt Hill
#
# Bulk Modulus (GPa) = 42.78054 63.29330 53.03692
# Shear Modulus (GPa) = 21.74490 27.56328 24.65409
#
# Velocity S-wave (km/s) = 3.46109 3.89672 3.68535
# Velocity P-wave (km/s) = 6.28806 7.42387 6.87945
#
# Compressibility (1/GPa) = 0.02337511
#
# Stress axis : x y z
#
# Youngs Moduli (GPa) = 100.55791 33.67992 80.81438
#
# Poissons Ratio (x) = 0.14814 0.33421
# Poissons Ratio (y) = 0.44231 0.46737
# Poissons Ratio (z) = 0.41586 0.19478
#
# Static dielectric constant tensor:
#      x y z
#    x 1.577980 0.000000 0.043260 
#    y 0.000000 1.623780 0.000000 
#    z 0.043260 0.000000 1.523420 
# 
# From -- ./inp_files/55551.got.cif
#   From: 2010.05.17/outbox.cif.g08.bks.cpg/sg11_28_cif.got.tgz:55551.got - 2010.06.03 12:22:45.
