data_PCOD9160393
_publ_section_title
;
Structure prediction by ZEFSAII (Michael W. Deem and Ramdas Pophale) SiO2 
 PCOD9160393
Probable space group: P 21/M
;
_chemical_formula_sum "Si O2"
_cell_formula_units_Z 32
_cell_length_a 9.323254
_cell_length_b 16.016422
_cell_length_c 22.448378
_cell_angle_alpha 90.000000
_cell_angle_beta 151.293786
_cell_angle_gamma 90.000000
_cell_volume 1610.079845
_symmetry_space_group_name_H-M "P 21/M"
_symmetry_group_IT_number 11
_symmetry_cell_setting 'monoclinic'
loop_
_space_group_symop_operation_xyz
x,y,z
-x,1/2+y,-z
-x,-y,-z
x,1/2-y,z
loop_
_atom_site_type_symbol
_atom_site_label
_atom_site_fract_x
_atom_site_fract_y
_atom_site_fract_z
Si Si1 0.728044 0.490209 0.946439
Si Si2 0.169294 0.434894 0.663578
Si Si3 0.343779 0.912774 0.959467
Si Si4 0.984398 0.652958 0.203235
Si Si5 0.467499 0.346464 0.663359
Si Si6 0.304506 0.650514 0.437316
Si Si7 0.133772 0.390447 0.421645
Si Si8 0.631923 0.155577 0.152171
O O1 0.445578 0.445766 0.810658
O O2 0.813157 0.434104 0.035425
O O3 0.609636 0.582478 0.923102
O O4 0.000000 0.500000 0.000000
O O5 0.309394 0.406088 0.652663
O O6 0.910315 0.369439 0.586435
O O7 0.995941 0.522365 0.602731
O O8 0.633808 0.855532 0.073672
O O9 0.199246 0.874706 0.847238
O O10 0.500000 0.000000 0.000000
O O11 0.060113 0.750000 0.231489
O O12 0.195668 0.620361 0.227468
O O13 0.104522 0.618274 0.308909
O O14 0.472416 0.250000 0.686836
O O15 0.296196 0.348659 0.537345
O O16 0.361498 0.750000 0.455279
O O17 0.616715 0.604696 0.539582
O O18 0.857809 0.344862 0.289807
O O19 0.513478 0.250000 0.100999
#
# Coordination Sequence:
#
# PCOD9160393 Si02
#       8
#     4   4   4   4   4   4   4   4
#     4  10  23  41  59  87 127 161 191 248 304 353
#     4  11  21  36  58  89 117 154 201 239 298 362
#     4  10  20  36  58  83 114 150 198 248 290 343
#     4   9  18  34  56  83 112 149 192 243 295 341
#     4  10  21  36  58  86 120 154 194 246 303 354
#     4  10  19  35  59  85 114 146 190 245 299 343
#     4  10  21  39  59  83 120 158 197 244 295 359
#     4  10  21  39  63  86 114 161 208 242 292 358
#
# _framework density 19.874790999999998
#
# number of rings (size 3 to 8) (size 9 to 14) (size 15 to 20)
#    0.000    2.000    1.250    3.375    3.500    0.000 
#    0.000    4.375    0.000    0.000    0.000    0.000 
#    0.000    0.000    0.000    0.000    0.000    0.000 
#
# Total GULP energy -178224.719995 kJ/mol
# GULP energy per Si atom -5569.522500 kJ/mol
# Density = 1.982956 g / cm^3
# Si number density = 19.874791 Si / 1000 Ang^3
#
#
#
# Elastic Constant Matrix: (Units=GPa)
#
#
# Indices 1 2 3 4 5 6 
#
# 1 142.2694 36.6687 23.1000 0.0000 21.2873 0.0000
# 2 36.6687 70.5471 20.2906 0.0000 3.0614 0.0000
# 3 23.1000 20.2906 43.8813 0.0000 -0.9699 0.0000
# 4 0.0000 0.0000 0.0000 22.0582 0.0000 -6.0466
# 5 21.2873 3.0614 -0.9699 0.0000 32.3248 0.0000
# 6 0.0000 0.0000 0.0000 -6.0466 0.0000 44.8926
#
#
#
# Elastic Compliance Matrix: (Units=1/GPa)
#
#
# Indices 1 2 3 4 5 6 
#
# 1 0.009414 -0.003658 -0.003396 0.000000 -0.005955 0.000000
# 2 -0.003658 0.017873 -0.006327 0.000000 0.000526 0.000000
# 3 -0.003396 -0.006327 0.027583 0.000000 0.003663 0.000000
# 4 0.000000 0.000000 0.000000 0.047073 0.000000 0.006340
# 5 -0.005955 0.000526 0.003663 0.000000 0.034918 0.000000
# 6 0.000000 0.000000 0.000000 0.006340 0.000000 0.023129
#
#
# Mechanical properties :
#
#
# Convention : Reuss Voigt Hill
#
# Bulk Modulus (GPa) = 35.57702 46.31293 40.94498
# Shear Modulus (GPa) = 25.49431 31.63103 28.56267
#
# Velocity S-wave (km/s) = 3.58543 3.99371 3.79506
# Velocity P-wave (km/s) = 5.92282 6.67976 6.31265
#
# Compressibility (1/GPa) = 0.02810803
#
# Stress axis : x y z
#
# Youngs Moduli (GPa) = 106.22247 55.94930 36.25410
#
# Poissons Ratio (x) = 0.20467 0.12312
# Poissons Ratio (y) = 0.38858 0.22939
# Poissons Ratio (z) = 0.36072 0.35400
#
# Static dielectric constant tensor:
#      x y z
#    x 1.725420 0.000000 -0.028140 
#    y 0.000000 1.708200 0.000000 
#    z -0.028140 0.000000 1.686290 
# 
# From -- ./inp_files/65736.got.cif
#   From: 2010.05.17/outbox.cif.g08.bks.cpg/sg11_33_cif.got.tgz:65736.got - 2010.06.03 12:22:45.
