data_PCOD9160179
_publ_section_title
;
Structure prediction by ZEFSAII (Michael W. Deem and Ramdas Pophale) SiO2 
 PCOD9160179
Probable space group: P 21/M
;
_chemical_formula_sum "Si O2"
_cell_formula_units_Z 32
_cell_length_a 20.864544
_cell_length_b 12.825376
_cell_length_c 8.222427
_cell_angle_alpha 90.000000
_cell_angle_beta 53.071401
_cell_angle_gamma 90.000000
_cell_volume 1758.874892
_symmetry_space_group_name_H-M "P 21/M"
_symmetry_group_IT_number 11
_symmetry_cell_setting 'monoclinic'
loop_
_space_group_symop_operation_xyz
x,y,z
-x,1/2+y,-z
-x,-y,-z
x,1/2-y,z
loop_
_atom_site_type_symbol
_atom_site_label
_atom_site_fract_x
_atom_site_fract_y
_atom_site_fract_z
Si Si1 0.819246 0.475082 0.809333
Si Si2 0.333326 0.126605 0.923555
Si Si3 0.407512 0.027725 0.124185
Si Si4 0.730518 0.129723 0.658263
Si Si5 0.089938 0.628951 0.045088
Si Si6 0.826209 0.976910 0.297992
Si Si7 0.087092 0.370272 0.535464
Si Si8 0.670383 0.873327 0.432247
O O1 0.790496 0.395704 0.714408
O O2 0.843229 0.407465 0.927446
O O3 0.892726 0.547097 0.635970
O O4 0.746274 0.556431 0.938431
O O5 0.315014 0.250000 0.956673
O O6 0.365607 0.102612 0.691879
O O7 0.388540 0.098096 0.994142
O O8 0.373709 0.077646 0.343733
O O9 0.354204 0.924426 0.178436
O O10 0.500000 0.000000 0.000000
O O11 0.721970 0.250000 0.641827
O O12 0.770603 0.070231 0.447545
O O13 0.101125 0.750000 0.974071
O O14 0.003732 0.623944 0.263005
O O15 0.100188 0.538075 0.895742
O O16 0.856246 0.905889 0.400995
O O17 0.763941 0.909320 0.287718
O O18 0.103896 0.250000 0.464003
O O19 0.668166 0.750000 0.457613
#
# Coordination Sequence:
#
# PCOD9160179 Si02
#       8
#     4   4   4   4   4   4   4   4
#     4  10  19  35  54  75 108 142 185 235 279 328
#     4  10  20  36  60  86 111 145 189 232 276 329
#     4  10  22  37  58  85 117 149 174 225 278 338
#     4   9  19  34  54  76 100 140 184 219 268 334
#     4  11  21  33  51  77 109 146 185 230 287 340
#     4  10  19  35  54  75 108 142 185 235 279 328
#     4  10  21  34  51  76 107 145 188 236 289 340
#     4  10  20  36  60  86 111 145 189 232 276 329
#
# _framework density 18.193449000000001
#
# number of rings (size 3 to 8) (size 9 to 14) (size 15 to 20)
#    0.000    2.000    1.250    3.375    0.000    1.500 
#    0.000    0.000    0.000    6.000    0.000    0.000 
#    0.000    0.000    0.000    0.000    0.000    0.000 
#
# Total GULP energy -178305.622682 kJ/mol
# GULP energy per Si atom -5572.050709 kJ/mol
# Density = 1.815204 g / cm^3
# Si number density = 18.193449 Si / 1000 Ang^3
#
#
#
# Elastic Constant Matrix: (Units=GPa)
#
#
# Indices 1 2 3 4 5 6 
#
# 1 52.5280 17.5032 17.6857 0.0000 1.6653 0.0000
# 2 17.5032 61.1915 17.9060 0.0000 -9.3004 0.0000
# 3 17.6857 17.9060 43.5925 0.0000 2.9595 0.0000
# 4 0.0000 0.0000 0.0000 16.4384 0.0000 1.6744
# 5 1.6653 -9.3004 2.9595 0.0000 28.8805 0.0000
# 6 0.0000 0.0000 0.0000 1.6744 0.0000 18.2236
#
#
#
# Elastic Compliance Matrix: (Units=1/GPa)
#
#
# Indices 1 2 3 4 5 6 
#
# 1 0.023160 -0.004823 -0.007269 0.000000 -0.002144 0.000000
# 2 -0.004823 0.021012 -0.007203 0.000000 0.007783 0.000000
# 3 -0.007269 -0.007203 0.029180 0.000000 -0.004890 0.000000
# 4 0.000000 0.000000 0.000000 0.061408 0.000000 -0.005642
# 5 -0.002144 0.007783 -0.004890 0.000000 0.037757 0.000000
# 6 0.000000 0.000000 0.000000 -0.005642 0.000000 0.055392
#
#
# Mechanical properties :
#
#
# Convention : Reuss Voigt Hill
#
# Bulk Modulus (GPa) = 28.76757 29.27800 29.02278
# Shear Modulus (GPa) = 17.98000 19.65629 18.81815
#
# Velocity S-wave (km/s) = 3.14708 3.29052 3.21960
# Velocity P-wave (km/s) = 5.38998 5.52849 5.45967
#
# Compressibility (1/GPa) = 0.03476137
#
# Stress axis : x y z
#
# Youngs Moduli (GPa) = 43.17749 47.59108 34.27062
#
# Poissons Ratio (x) = 0.22955 0.24913
# Poissons Ratio (y) = 0.20826 0.24684
# Poissons Ratio (z) = 0.31388 0.34278
#
# Static dielectric constant tensor:
#      x y z
#    x 1.623940 0.000000 0.028590 
#    y 0.000000 1.605400 0.000000 
#    z 0.028590 0.000000 1.667520 
# 
# From -- ./inp_files/21521.got.cif
#   From: 2010.05.17/outbox.cif.g08.bks.cpg/sg11_11_cif.got.tgz:21521.got - 2010.06.03 12:22:45.
