data_PCOD9160701
_publ_section_title
;
Structure prediction by ZEFSAII (Michael W. Deem and Ramdas Pophale) SiO2 
 PCOD9160701
Probable space group: P 21/M
;
_chemical_formula_sum "Si O2"
_cell_formula_units_Z 28
_cell_length_a 8.826333
_cell_length_b 14.423785
_cell_length_c 15.881982
_cell_angle_alpha 90.000000
_cell_angle_beta 139.771105
_cell_angle_gamma 90.000000
_cell_volume 1305.843312
_symmetry_space_group_name_H-M "P 21/M"
_symmetry_group_IT_number 11
_symmetry_cell_setting 'monoclinic'
loop_
_space_group_symop_operation_xyz
x,y,z
-x,1/2+y,-z
-x,-y,-z
x,1/2-y,z
loop_
_atom_site_type_symbol
_atom_site_label
_atom_site_fract_x
_atom_site_fract_y
_atom_site_fract_z
Si Si1 0.383181 0.934859 0.020607
Si Si2 0.865187 0.146028 0.766731
Si Si3 0.308299 0.518631 0.173440
Si Si4 0.877686 0.853302 0.796825
Si Si5 0.381372 0.403165 0.480432
Si Si6 0.771254 0.864257 0.414420
Si Si7 0.130165 0.357298 0.722640
O O1 0.307097 0.987821 0.073283
O O2 0.592810 0.867655 0.141832
O O3 0.145585 0.884150 0.892135
O O4 0.500000 0.000000 0.000000
O O5 0.948699 0.250000 0.818360
O O6 0.865471 0.090693 0.853671
O O7 0.601911 0.148257 0.617132
O O8 0.005990 0.096766 0.750423
O O9 0.250909 0.423058 0.194201
O O10 0.553204 0.568026 0.300359
O O11 0.882295 0.750000 0.833316
O O12 0.729000 0.858236 0.648264
O O13 0.500000 0.500000 0.500000
O O14 0.183715 0.396296 0.470612
O O15 0.733792 0.750000 0.396502
O O16 0.930756 0.884246 0.399351
O O17 0.060565 0.250000 0.698524
#
# Coordination Sequence:
#
# PCOD9160701 Si02
#       7
#     4   4   4   4   4   4   4
#     4  11  24  41  61  84 120 160 202 248 307 366
#     4  10  19  36  66  94 118 155 208 260 298 347
#     4  10  20  39  61  87 116 159 205 254 296 359
#     4  12  24  39  61  91 127 164 200 249 310 367
#     4  11  20  36  60  88 126 159 204 248 303 362
#     4   9  17  34  60  88 119 159 207 254 296 348
#     4   9  19  36  60  88 115 149 201 255 299 347
#
# _framework density 21.442083
#
# number of rings (size 3 to 8) (size 9 to 14) (size 15 to 20)
#    0.000    1.714    2.857    4.286    0.000    1.714 
#    0.000    5.000    0.000    0.000    0.000    0.000 
#    0.000    0.000    0.000    0.000    0.000    0.000 
#
# Total GULP energy -155890.564565 kJ/mol
# GULP energy per Si atom -5567.520163 kJ/mol
# Density = 2.139328 g / cm^3
# Si number density = 21.442083 Si / 1000 Ang^3
#
#
#
# Elastic Constant Matrix: (Units=GPa)
#
#
# Indices 1 2 3 4 5 6 
#
# 1 137.2988 38.3641 25.2225 0.0000 -48.3102 0.0000
# 2 38.3641 111.8510 6.4027 0.0000 -23.0328 0.0000
# 3 25.2225 6.4027 55.7499 0.0000 -12.6082 0.0000
# 4 0.0000 0.0000 0.0000 15.1014 0.0000 6.2226
# 5 -48.3102 -23.0328 -12.6082 0.0000 41.2394 0.0000
# 6 0.0000 0.0000 0.0000 6.2226 0.0000 21.1799
#
#
#
# Elastic Compliance Matrix: (Units=1/GPa)
#
#
# Indices 1 2 3 4 5 6 
#
# 1 0.012943 -0.001505 -0.002625 0.000000 0.013519 0.000000
# 2 -0.001505 0.010278 0.000430 0.000000 0.004109 0.000000
# 3 -0.002625 0.000430 0.019804 0.000000 0.003219 0.000000
# 4 0.000000 0.000000 0.000000 0.075340 0.000000 -0.022135
# 5 0.013519 0.004109 0.003219 0.000000 0.043364 0.000000
# 6 0.000000 0.000000 0.000000 -0.022135 0.000000 0.053718
#
#
# Mechanical properties :
#
#
# Convention : Reuss Voigt Hill
#
# Bulk Modulus (GPa) = 28.07170 49.43094 38.75132
# Shear Modulus (GPa) = 21.30172 31.16483 26.23328
#
# Velocity S-wave (km/s) = 3.15533 3.81654 3.50158
# Velocity P-wave (km/s) = 5.13762 6.52109 5.87025
#
# Compressibility (1/GPa) = 0.03562307
#
# Stress axis : x y z
#
# Youngs Moduli (GPa) = 77.26150 97.29315 50.49560
#
# Poissons Ratio (x) = 0.14645 0.13258
# Poissons Ratio (y) = 0.11630 -0.02170
# Poissons Ratio (z) = 0.20285 -0.04181
#
# Static dielectric constant tensor:
#      x y z
#    x 1.886220 0.000000 -0.004540 
#    y 0.000000 1.789760 0.000000 
#    z -0.004540 0.000000 1.804750 
# 
# From -- ./inp_files/47668.got.cif
#   From: 2010.05.17/outbox.cif.g08.bks.cpg/sg11_24_cif.got.tgz:47668.got - 2010.06.03 12:22:45.
