data_PCOD9160395
_publ_section_title
;
Structure prediction by ZEFSAII (Michael W. Deem and Ramdas Pophale) SiO2 
 PCOD9160395
Probable space group: P 21/M
;
_chemical_formula_sum "Si O2"
_cell_formula_units_Z 28
_cell_length_a 12.046662
_cell_length_b 21.368997
_cell_length_c 7.072086
_cell_angle_alpha 90.000000
_cell_angle_beta 38.975196
_cell_angle_gamma 90.000000
_cell_volume 1145.085521
_symmetry_space_group_name_H-M "P 21/M"
_symmetry_group_IT_number 11
_symmetry_cell_setting 'monoclinic'
loop_
_space_group_symop_operation_xyz
x,y,z
-x,1/2+y,-z
-x,-y,-z
x,1/2-y,z
loop_
_atom_site_type_symbol
_atom_site_label
_atom_site_fract_x
_atom_site_fract_y
_atom_site_fract_z
Si Si1 0.069014 0.042735 0.685129
Si Si2 0.890963 0.583899 0.805710
Si Si3 0.567850 0.816434 0.884372
Si Si4 0.278013 0.890740 0.851695
Si Si5 0.392091 0.176942 0.750465
Si Si6 0.825200 0.317508 0.643417
Si Si7 0.449031 0.454686 0.247850
O O1 0.129797 0.068097 0.394084
O O2 0.248650 0.025593 0.557769
O O3 0.959849 0.980288 0.796449
O O4 0.914880 0.088497 0.966061
O O5 0.052691 0.631141 0.603258
O O6 0.739412 0.619559 0.125021
O O7 0.611398 0.750000 0.730295
O O8 0.583770 0.881099 0.756339
O O9 0.662929 0.818514 0.957011
O O10 0.361798 0.813728 0.210396
O O11 0.417440 0.854736 0.536167
O O12 0.390309 0.946996 0.812723
O O13 0.228275 0.840054 0.077788
O O14 0.386145 0.250000 0.691039
O O15 0.912209 0.250000 0.529208
O O16 0.500000 0.500000 0.000000
#
# Coordination Sequence:
#
# PCOD9160395 Si02
#       7
#     4   4   4   4   4   4   4
#     4  10  20  38  58  89 117 152 202 245 288 362
#     4  10  19  35  59  85 115 151 197 244 294 352
#     4   9  19  35  58  85 115 155 203 247 296 360
#     4  10  23  37  58  87 119 156 190 247 307 348
#     4  11  22  39  59  86 123 157 194 248 312 364
#     4   9  17  34  58  82 108 149 200 242 286 351
#     4  11  20  39  66  90 118 160 205 252 296 359
#
# _framework density 24.452324000000001
#
# number of rings (size 3 to 8) (size 9 to 14) (size 15 to 20)
#    0.000    2.000    1.429    4.286    0.000    1.143 
#    2.571    1.429    0.000    0.000    0.000    0.000 
#    0.000    0.000    0.000    0.000    0.000    0.000 
#
# Total GULP energy -155973.864598 kJ/mol
# GULP energy per Si atom -5570.495164 kJ/mol
# Density = 2.439667 g / cm^3
# Si number density = 24.452324 Si / 1000 Ang^3
#
#
#
# Elastic Constant Matrix: (Units=GPa)
#
#
# Indices 1 2 3 4 5 6 
#
# 1 51.3152 -1.9665 12.8775 0.0000 -4.8356 0.0000
# 2 -1.9665 122.0538 49.9785 0.0000 -2.7223 0.0000
# 3 12.8775 49.9785 97.0313 0.0000 -1.0857 0.0000
# 4 0.0000 0.0000 0.0000 34.8716 0.0000 -5.7367
# 5 -4.8356 -2.7223 -1.0857 0.0000 35.6633 0.0000
# 6 0.0000 0.0000 0.0000 -5.7367 0.0000 46.4849
#
#
#
# Elastic Compliance Matrix: (Units=1/GPa)
#
#
# Indices 1 2 3 4 5 6 
#
# 1 0.020761 0.001918 -0.003711 0.000000 0.002848 0.000000
# 2 0.001918 0.010574 -0.005691 0.000000 0.000894 0.000000
# 3 -0.003711 -0.005691 0.013724 0.000000 -0.000520 0.000000
# 4 0.000000 0.000000 0.000000 0.029271 0.000000 0.003612
# 5 0.002848 0.000894 -0.000520 0.000000 0.028479 0.000000
# 6 0.000000 0.000000 0.000000 0.003612 0.000000 0.021958
#
#
# Mechanical properties :
#
#
# Convention : Reuss Voigt Hill
#
# Bulk Modulus (GPa) = 33.23382 43.57549 38.40466
# Shear Modulus (GPa) = 33.38548 37.37134 35.37841
#
# Velocity S-wave (km/s) = 3.69905 3.91363 3.80785
# Velocity P-wave (km/s) = 5.64488 6.18719 5.92225
#
# Compressibility (1/GPa) = 0.03008983
#
# Stress axis : x y z
#
# Youngs Moduli (GPa) = 48.16815 94.56867 72.86502
#
# Poissons Ratio (x) = -0.18135 0.27041
# Poissons Ratio (y) = -0.09237 0.41468
# Poissons Ratio (z) = 0.17876 0.53820
#
# Static dielectric constant tensor:
#      x y z
#    x 2.087040 0.000000 -0.002090 
#    y 0.000000 2.004140 0.000000 
#    z -0.002090 0.000000 1.982700 
# 
# From -- ./inp_files/23185.got.cif
#   From: 2010.05.17/outbox.cif.g08.bks.cpg/sg11_12_cif.got.tgz:23185.got - 2010.06.03 12:22:45.
