data_PCOD9160031
_publ_section_title
;
Structure prediction by ZEFSAII (Michael W. Deem and Ramdas Pophale) SiO2 
 PCOD9160031
Probable space group: P 21/M
;
_chemical_formula_sum "Si O2"
_cell_formula_units_Z 28
_cell_length_a 5.705813
_cell_length_b 13.129114
_cell_length_c 16.887711
_cell_angle_alpha 90.000000
_cell_angle_beta 69.381178
_cell_angle_gamma 90.000000
_cell_volume 1184.059595
_symmetry_space_group_name_H-M "P 21/M"
_symmetry_group_IT_number 11
_symmetry_cell_setting 'monoclinic'
loop_
_space_group_symop_operation_xyz
x,y,z
-x,1/2+y,-z
-x,-y,-z
x,1/2-y,z
loop_
_atom_site_type_symbol
_atom_site_label
_atom_site_fract_x
_atom_site_fract_y
_atom_site_fract_z
Si Si1 0.867327 0.141671 0.617642
Si Si2 0.719395 0.897095 0.300994
Si Si3 0.272169 0.077840 0.037806
Si Si4 0.582504 0.420542 0.422481
Si Si5 0.218308 0.054388 0.876361
Si Si6 0.591072 0.863183 0.808708
Si Si7 0.115064 0.097996 0.388242
O O1 0.925432 0.250000 0.569604
O O2 0.565047 0.143613 0.662434
O O3 0.060286 0.143012 0.668970
O O4 0.903280 0.023458 0.589251
O O5 0.681412 0.013908 0.335505
O O6 0.804632 0.885138 0.201463
O O7 0.299823 0.140606 0.114882
O O8 0.030305 0.009457 0.079940
O O9 0.500000 0.000000 0.000000
O O10 0.258926 0.121597 0.950262
O O11 0.500000 0.500000 0.500000
O O12 0.333793 0.365139 0.421378
O O13 0.829069 0.364721 0.424980
O O14 0.423476 0.965469 0.834407
O O15 0.473942 0.750000 0.808142
O O16 0.781298 0.882451 0.713146
#
# Coordination Sequence:
#
# PCOD9160031 Si02
#       7
#     4   4   4   4   4   4   4
#     4  10  19  34  57  85 113 147 199 251 303 363
#     4  10  20  34  60  87 117 155 200 250 314 364
#     4   9  20  35  61  84 111 158 202 252 308 362
#     4  10  19  35  62  89 120 164 210 253 315 378
#     4  10  19  38  60  84 119 162 203 259 310 371
#     4  11  22  38  62  91 125 170 212 255 312 383
#     4  10  21  38  60  88 121 162 207 256 314 367
#
# _framework density 23.647459000000001
#
# number of rings (size 3 to 8) (size 9 to 14) (size 15 to 20)
#    0.000    2.000    2.857    2.571    2.000    0.571 
#    0.000    1.429    0.000   21.429    0.000    0.000 
#    0.000    0.000    0.000    0.000    0.000    0.000 
#
# Total GULP energy -155889.473876 kJ/mol
# GULP energy per Si atom -5567.481210 kJ/mol
# Density = 2.359364 g / cm^3
# Si number density = 23.647459 Si / 1000 Ang^3
#
#
#
# Elastic Constant Matrix: (Units=GPa)
#
#
# Indices 1 2 3 4 5 6 
#
# 1 201.0721 22.7648 56.6112 0.0000 8.1965 0.0000
# 2 22.7648 109.9844 20.5430 0.0000 11.1504 0.0000
# 3 56.6112 20.5430 155.9423 0.0000 19.0937 0.0000
# 4 0.0000 0.0000 0.0000 0.1710 0.0000 2.4287
# 5 8.1965 11.1504 19.0937 0.0000 37.9764 0.0000
# 6 0.0000 0.0000 0.0000 2.4287 0.0000 6.2717
#
#
#
# Elastic Compliance Matrix: (Units=1/GPa)
#
#
# Indices 1 2 3 4 5 6 
#
# 1 0.005607 -0.000800 -0.001930 0.000000 -0.000005 0.000000
# 2 -0.000800 0.009621 -0.000695 0.000000 -0.002303 0.000000
# 3 -0.001930 -0.000695 0.007596 0.000000 -0.003199 0.000000
# 4 0.000000 0.000000 0.000000 -1.299550 0.000000 0.503243
# 5 -0.000005 -0.002303 -0.003199 0.000000 0.028618 0.000000
# 6 0.000000 0.000000 0.000000 0.503243 0.000000 -0.035432
#
#
# Mechanical properties :
#
#
# Convention : Reuss Voigt Hill
#
# Bulk Modulus (GPa) = 62.59461 74.09296 68.34378
# Shear Modulus (GPa) = -3.93278 33.35580 14.71151
#
# Velocity S-wave (km/s) = -1.29101 3.75980 2.49694
# Velocity P-wave (km/s) = 4.93002 7.08861 6.10547
#
# Compressibility (1/GPa) = 0.01597582
#
# Stress axis : x y z
#
# Youngs Moduli (GPa) = 178.33660 103.93907 131.64184
#
# Poissons Ratio (x) = 0.08312 0.25402
# Poissons Ratio (y) = 0.14261 0.09151
# Poissons Ratio (z) = 0.34412 0.07226
#
# Static dielectric constant tensor:
#      x y z
#    x 1.943540 0.000000 0.062700 
#    y 0.000000 1.436660 0.000000 
#    z 0.062700 0.000000 1.905010 
# 
# From -- ./inp_files/56930.got.cif
#   From: 2010.05.17/outbox.cif.g08.bks.cpg/sg11_29_cif.got.tgz:56930.got - 2010.06.03 12:22:45.
