data_PCOD9160727
_publ_section_title
;
Structure prediction by ZEFSAII (Michael W. Deem and Ramdas Pophale) SiO2 
 PCOD9160727
Probable space group: P 21/M
;
_chemical_formula_sum "Si O2"
_cell_formula_units_Z 26
_cell_length_a 13.515291
_cell_length_b 9.765407
_cell_length_c 12.034952
_cell_angle_alpha 90.000000
_cell_angle_beta 131.718600
_cell_angle_gamma 90.000000
_cell_volume 1185.617641
_symmetry_space_group_name_H-M "P 21/M"
_symmetry_group_IT_number 11
_symmetry_cell_setting 'monoclinic'
loop_
_space_group_symop_operation_xyz
x,y,z
-x,1/2+y,-z
-x,-y,-z
x,1/2-y,z
loop_
_atom_site_type_symbol
_atom_site_label
_atom_site_fract_x
_atom_site_fract_y
_atom_site_fract_z
Si Si1 0.137106 0.903731 0.207717
Si Si2 0.022473 0.250000 0.526469
Si Si3 0.335819 0.590538 0.952556
Si Si4 0.073211 0.600544 0.899088
Si Si5 0.802011 0.484069 0.384556
Si Si6 0.388170 0.091880 0.361979
Si Si7 0.527909 0.091586 0.232742
O O1 0.175105 0.750000 0.272329
O O2 0.252764 0.014270 0.286236
O O3 0.087340 0.891121 0.042751
O O4 0.021950 0.972810 0.194886
O O5 0.127326 0.370619 0.565444
O O6 0.913417 0.369005 0.481668
O O7 0.375962 0.750000 0.977844
O O8 0.216047 0.581320 0.952090
O O9 0.267731 0.545271 0.787262
O O10 0.454152 0.496076 0.083769
O O11 0.022700 0.750000 0.820786
O O12 0.673921 0.467819 0.369043
O O13 0.386466 0.250000 0.397634
O O14 0.428773 0.090516 0.263012
O O15 0.500000 0.000000 0.500000
O O16 0.545923 0.250000 0.213502
#
# Coordination Sequence:
#
# PCOD9160727 Si02
#       7
#     4   2   4   4   4   4   4
#     4  10  19  37  59  84 121 165 205 257 308 364
#     4  10  24  46  68  84 136 168 214 264 310 384
#     4  11  22  39  66 100 133 167 216 265 319 379
#     4   9  19  35  58  90 123 158 203 256 309 363
#     4  11  23  46  66  98 127 174 212 260 321 380
#     4  11  24  43  62  90 125 168 212 262 317 378
#     4  11  24  42  67  96 131 164 215 269 320 379
#
# _framework density 21.929500000000001
#
# number of rings (size 3 to 8) (size 9 to 14) (size 15 to 20)
#    0.000    1.538    3.077    1.385    2.154    1.846 
#    5.538    0.000    0.000    0.000    0.000    0.000 
#    0.000    0.000    0.000    0.000    0.000    0.000 
#
# Total GULP energy -144753.986366 kJ/mol
# GULP energy per Si atom -5567.461014 kJ/mol
# Density = 2.187959 g / cm^3
# Si number density = 21.929500 Si / 1000 Ang^3
#
#
#
# Elastic Constant Matrix: (Units=GPa)
#
#
# Indices 1 2 3 4 5 6 
#
# 1 49.9013 32.2988 15.3101 0.0000 16.2451 0.0000
# 2 32.2988 219.6599 51.7082 0.0000 23.5190 0.0000
# 3 15.3101 51.7082 33.5454 0.0000 13.5282 0.0000
# 4 0.0000 0.0000 0.0000 24.5906 0.0000 12.8278
# 5 16.2451 23.5190 13.5282 0.0000 29.3189 0.0000
# 6 0.0000 0.0000 0.0000 12.8278 0.0000 24.8152
#
#
#
# Elastic Compliance Matrix: (Units=1/GPa)
#
#
# Indices 1 2 3 4 5 6 
#
# 1 0.026142 -0.001418 -0.005360 0.000000 -0.010874 0.000000
# 2 -0.001418 0.007237 -0.010424 0.000000 -0.000210 0.000000
# 3 -0.005360 -0.010424 0.053758 0.000000 -0.013473 0.000000
# 4 0.000000 0.000000 0.000000 0.055681 0.000000 -0.028783
# 5 -0.010874 -0.000210 -0.013473 0.000000 0.046518 0.000000
# 6 0.000000 0.000000 0.000000 -0.028783 0.000000 0.055177
#
#
# Mechanical properties :
#
#
# Convention : Reuss Voigt Hill
#
# Bulk Modulus (GPa) = 18.96351 55.74898 37.35624
# Shear Modulus (GPa) = 16.86367 29.33091 23.09729
#
# Velocity S-wave (km/s) = 2.77608 3.66116 3.24891
# Velocity P-wave (km/s) = 4.35222 6.58402 5.58082
#
# Compressibility (1/GPa) = 0.05273285
#
# Stress axis : x y z
#
# Youngs Moduli (GPa) = 38.25282 138.17316 18.60182
#
# Poissons Ratio (x) = 0.19589 0.09971
# Poissons Ratio (y) = 0.05423 0.19391
# Poissons Ratio (z) = 0.20505 1.44032
#
# Static dielectric constant tensor:
#      x y z
#    x 2.135740 0.000000 -0.046000 
#    y 0.000000 1.806510 0.000000 
#    z -0.046000 0.000000 1.839020 
# 
# From -- ./inp_files/42961.got.cif
#   From: 2010.05.17/outbox.cif.g08.bks.cpg/sg11_22_cif.got.tgz:42961.got - 2010.06.03 12:22:45.
