data_PCOD9160090
_publ_section_title
;
Structure prediction by ZEFSAII (Michael W. Deem and Ramdas Pophale) SiO2 
 PCOD9160090
Probable space group: P 21/M
;
_chemical_formula_sum "Si O2"
_cell_formula_units_Z 24
_cell_length_a 9.570042
_cell_length_b 20.240074
_cell_length_c 7.097435
_cell_angle_alpha 90.000000
_cell_angle_beta 131.725664
_cell_angle_gamma 90.000000
_cell_volume 1026.039691
_symmetry_space_group_name_H-M "P 21/M"
_symmetry_group_IT_number 11
_symmetry_cell_setting 'monoclinic'
loop_
_space_group_symop_operation_xyz
x,y,z
-x,1/2+y,-z
-x,-y,-z
x,1/2-y,z
loop_
_atom_site_type_symbol
_atom_site_label
_atom_site_fract_x
_atom_site_fract_y
_atom_site_fract_z
Si Si1 0.309223 0.528891 0.742341
Si Si2 0.734427 0.323490 0.817049
Si Si3 0.599566 0.827059 0.245431
Si Si4 0.493318 0.860353 0.717079
Si Si5 0.904990 0.668772 0.042235
Si Si6 0.951008 0.599578 0.490518
O O1 0.392570 0.568785 0.640095
O O2 0.172353 0.466866 0.595748
O O3 0.166998 0.580491 0.719913
O O4 0.500000 0.500000 0.000000
O O5 0.764479 0.250000 0.926268
O O6 0.565889 0.357779 0.777542
O O7 0.651069 0.317954 0.531237
O O8 0.938559 0.352576 0.967665
O O9 0.599001 0.750000 0.285169
O O10 0.811473 0.849861 0.467044
O O11 0.538399 0.839117 0.972896
O O12 0.695884 0.853613 0.804176
O O13 0.908108 0.750000 0.067071
O O14 0.950937 0.630276 0.278197
#
# Coordination Sequence:
#
# PCOD9160090 Si02
#       6
#     4   4   4   4   4   4
#     4  11  20  35  62  84 114 158 199 241 286 344
#     4  10  21  38  58  86 123 155 187 242 298 342
#     4  10  21  39  61  90 123 150 194 246 289 352
#     4  11  20  38  62  83 115 160 194 233 292 348
#     4  10  19  34  58  88 116 149 196 240 289 356
#     4  10  20  36  60  85 115 155 197 241 292 341
#
# _framework density 23.390908
#
# number of rings (size 3 to 8) (size 9 to 14) (size 15 to 20)
#    0.000    1.667    5.000    3.000    0.000    0.000 
#    3.000    0.833    0.000    3.000    0.000    0.000 
#    0.000    0.000    0.000    0.000    0.000    0.000 
#
# Total GULP energy -133672.945484 kJ/mol
# GULP energy per Si atom -5569.706062 kJ/mol
# Density = 2.333767 g / cm^3
# Si number density = 23.390908 Si / 1000 Ang^3
#
#
#
# Elastic Constant Matrix: (Units=GPa)
#
#
# Indices 1 2 3 4 5 6 
#
# 1 171.8719 15.3891 42.9448 0.0000 55.0483 0.0000
# 2 15.3891 40.4413 18.6308 0.0000 17.7335 0.0000
# 3 42.9448 18.6308 115.6408 0.0000 39.0337 0.0000
# 4 0.0000 0.0000 0.0000 1.3178 0.0000 26.6884
# 5 55.0483 17.7335 39.0337 0.0000 51.2974 0.0000
# 6 0.0000 0.0000 0.0000 26.6884 0.0000 19.6717
#
#
#
# Elastic Compliance Matrix: (Units=1/GPa)
#
#
# Indices 1 2 3 4 5 6 
#
# 1 0.008898 0.000969 -0.000167 0.000000 -0.009757 0.000000
# 2 0.000969 0.029514 -0.001776 0.000000 -0.009892 0.000000
# 3 -0.000167 -0.001776 0.011744 0.000000 -0.008143 0.000000
# 4 0.000000 0.000000 0.000000 -0.028661 0.000000 0.038885
# 5 -0.009757 -0.009892 -0.008143 0.000000 0.039580 0.000000
# 6 0.000000 0.000000 0.000000 0.038885 0.000000 -0.001920
#
#
# Mechanical properties :
#
#
# Convention : Reuss Voigt Hill
#
# Bulk Modulus (GPa) = 20.74324 53.54261 37.14292
# Shear Modulus (GPa) = 64.78947 31.19001 47.98974
#
# Velocity S-wave (km/s) = 5.26865 3.65557 4.53442
# Velocity P-wave (km/s) = 6.77488 6.38417 6.58242
#
# Compressibility (1/GPa) = 0.04820847
#
# Stress axis : x y z
#
# Youngs Moduli (GPa) = 112.38181 33.88210 85.14711
#
# Poissons Ratio (x) = -0.03284 0.01425
# Poissons Ratio (y) = -0.10894 0.15123
# Poissons Ratio (z) = 0.01881 0.06018
#
# Static dielectric constant tensor:
#      x y z
#    x 1.960060 0.000000 -0.016550 
#    y 0.000000 1.914350 0.000000 
#    z -0.016550 0.000000 1.890850 
# 
# From -- ./inp_files/14403.got.cif
#   From: 2010.05.17/outbox.cif.g08.bks.cpg/sg11_8_cif.got.tgz:14403.got - 2010.06.03 12:22:45.
