data_PCOD9160986
_publ_section_title
;
Structure prediction by ZEFSAII (Michael W. Deem and Ramdas Pophale) SiO2 
 PCOD9160986
Probable space group: P 21/M
;
_chemical_formula_sum "Si O2"
_cell_formula_units_Z 32
_cell_length_a 23.967145
_cell_length_b 7.766912
_cell_length_c 17.373880
_cell_angle_alpha 90.000000
_cell_angle_beta 31.075484
_cell_angle_gamma 90.000000
_cell_volume 1669.366350
_symmetry_space_group_name_H-M "P 21/M"
_symmetry_group_IT_number 11
_symmetry_cell_setting 'monoclinic'
loop_
_space_group_symop_operation_xyz
x,y,z
-x,1/2+y,-z
-x,-y,-z
x,1/2-y,z
loop_
_atom_site_type_symbol
_atom_site_label
_atom_site_fract_x
_atom_site_fract_y
_atom_site_fract_z
Si Si1 0.131301 0.452529 0.676276
Si Si2 0.877419 0.043941 0.663709
Si Si3 0.561463 0.544508 0.110642
Si Si4 0.666626 0.951041 0.829898
Si Si5 0.882976 0.461690 0.970251
Si Si6 0.227656 0.954836 0.053978
Si Si7 0.669181 0.956869 0.656008
Si Si8 0.872725 0.045019 0.150433
O O1 0.122059 0.250000 0.670401
O O2 0.221853 0.525371 0.512290
O O3 0.169904 0.470905 0.719133
O O4 0.008442 0.520650 0.814962
O O5 0.864031 0.250000 0.677511
O O6 0.840937 0.980002 0.791478
O O7 0.792497 0.966014 0.703803
O O8 0.000000 0.000000 0.500000
O O9 0.568156 0.750000 0.099726
O O10 0.437887 0.492522 0.266533
O O11 0.602696 0.473234 0.978654
O O12 0.647694 0.486571 0.072248
O O13 0.636355 0.750000 0.861578
O O14 0.650236 0.027251 0.764719
O O15 0.884594 0.250000 0.969833
O O16 0.815066 0.521258 0.977015
O O17 0.836226 0.515052 0.108861
O O18 0.210801 0.750000 0.071701
O O19 0.680849 0.750000 0.648510
O O20 0.859801 0.250000 0.169869
O O21 0.000000 0.000000 0.000000
#
# Coordination Sequence:
#
# PCOD9160986 Si02
#       8
#     4   4   4   4   4   4   4   4
#     4   9  18  31  49  75 103 128 160 200 245 293
#     4  10  20  31  47  69  99 134 164 201 245 292
#     4  10  20  34  50  71 101 129 162 212 256 287
#     4   9  19  34  51  70  94 129 170 209 248 289
#     4   8  15  29  51  75  96 124 162 198 233 288
#     4   9  18  33  53  71  91 128 172 202 234 290
#     4  10  20  33  53  74  96 132 171 206 242 297
#     4   9  16  29  49  72 101 131 159 194 242 295
#
# _framework density 19.168949999999999
#
# number of rings (size 3 to 8) (size 9 to 14) (size 15 to 20)
#    0.000    2.750    0.000    2.250    1.750    2.000 
#    0.000    3.125    0.000    0.750    0.000    0.000 
#    0.000    0.000    0.000    0.000    0.000    0.000 
#
# Total GULP energy -178358.040411 kJ/mol
# GULP energy per Si atom -5573.688763 kJ/mol
# Density = 1.912532 g / cm^3
# Si number density = 19.168950 Si / 1000 Ang^3
#
#
#
# Elastic Constant Matrix: (Units=GPa)
#
#
# Indices 1 2 3 4 5 6 
#
# 1 135.1749 -4.8461 31.0157 0.0000 4.7362 0.0000
# 2 -4.8461 22.2177 -7.5737 0.0000 3.8096 0.0000
# 3 31.0157 -7.5737 41.1995 0.0000 -6.9639 0.0000
# 4 0.0000 0.0000 0.0000 13.9423 0.0000 -2.5776
# 5 4.7362 3.8096 -6.9639 0.0000 14.2894 0.0000
# 6 0.0000 0.0000 0.0000 -2.5776 0.0000 17.8182
#
#
#
# Elastic Compliance Matrix: (Units=1/GPa)
#
#
# Indices 1 2 3 4 5 6 
#
# 1 0.009599 0.000505 -0.008385 0.000000 -0.007403 0.000000
# 2 0.000505 0.049197 0.006995 0.000000 -0.009875 0.000000
# 3 -0.008385 0.006995 0.034900 0.000000 0.017922 0.000000
# 4 0.000000 0.000000 0.000000 0.073695 0.000000 0.010661
# 5 -0.007403 -0.009875 0.017922 0.000000 0.083802 0.000000
# 6 0.000000 0.000000 0.000000 0.010661 0.000000 0.057665
#
#
# Mechanical properties :
#
#
# Convention : Reuss Voigt Hill
#
# Bulk Modulus (GPa) = 10.87844 26.19822 18.53833
# Shear Modulus (GPa) = 14.65116 21.20974 17.93045
#
# Velocity S-wave (km/s) = 2.76763 3.32996 3.06173
# Velocity P-wave (km/s) = 3.98753 5.33681 4.71073
#
# Compressibility (1/GPa) = 0.09192493
#
# Stress axis : x y z
#
# Youngs Moduli (GPa) = 104.17550 20.32652 28.65357
#
# Poissons Ratio (x) = -0.01026 0.24026
# Poissons Ratio (y) = -0.05259 -0.20042
# Poissons Ratio (z) = 0.87350 -0.14218
#
# Static dielectric constant tensor:
#      x y z
#    x 1.691790 0.000000 0.028210 
#    y 0.000000 1.711960 0.000000 
#    z 0.028210 0.000000 1.660280 
# 
# From -- ./inp_files/42547.got.cif
#   From: 2010.05.17/outbox.cif.g08.bks.cpg/sg11_22_cif.got.tgz:42547.got - 2010.06.03 12:22:45.
