data_PCOD9160484
_publ_section_title
;
Structure prediction by ZEFSAII (Michael W. Deem and Ramdas Pophale) SiO2 
 PCOD9160484
Probable space group: P 21/M
;
_chemical_formula_sum "Si O2"
_cell_formula_units_Z 32
_cell_length_a 8.838137
_cell_length_b 32.112943
_cell_length_c 10.438591
_cell_angle_alpha 90.000000
_cell_angle_beta 30.092686
_cell_angle_gamma 90.000000
_cell_volume 1485.481690
_symmetry_space_group_name_H-M "P 21/M"
_symmetry_group_IT_number 11
_symmetry_cell_setting 'monoclinic'
loop_
_space_group_symop_operation_xyz
x,y,z
-x,1/2+y,-z
-x,-y,-z
x,1/2-y,z
loop_
_atom_site_type_symbol
_atom_site_label
_atom_site_fract_x
_atom_site_fract_y
_atom_site_fract_z
Si Si1 0.632788 0.411201 0.614992
Si Si2 0.848712 0.626904 0.189658
Si Si3 0.231657 0.967201 0.709881
Si Si4 0.791724 0.703702 0.390138
Si Si5 0.760057 0.884589 0.758303
Si Si6 0.382019 0.031716 0.979434
Si Si7 0.484298 0.202253 0.123959
Si Si8 0.515752 0.094212 0.309524
O O1 0.313772 0.390252 0.818297
O O2 0.724824 0.425594 0.406217
O O3 0.878690 0.382067 0.497668
O O4 0.627158 0.455110 0.694134
O O5 0.744489 0.600136 0.391711
O O6 0.723961 0.671238 0.327612
O O7 0.205194 0.626678 0.904115
O O8 0.291723 0.947887 0.805831
O O9 0.912659 0.981960 0.886517
O O10 0.500000 0.000000 0.500000
O O11 0.703259 0.750000 0.416380
O O12 0.644437 0.695810 0.637096
O O13 0.153259 0.701528 0.142945
O O14 0.671745 0.922355 0.918300
O O15 0.626777 0.838346 0.872923
O O16 0.652858 0.902158 0.700619
O O17 0.500000 0.000000 0.000000
O O18 0.393616 0.250000 0.152379
#
# Coordination Sequence:
#
# PCOD9160484 Si02
#       8
#     4   4   4   4   4   4   4   4
#     4  10  25  41  59  88 131 167 212 269 332 385
#     4  11  20  42  61  91 127 164 215 261 319 382
#     4  10  24  43  61  88 121 167 222 274 323 381
#     4  10  19  35  62  97 128 160 210 271 320 376
#     4  11  24  40  64  94 129 172 215 267 336 391
#     4  11  26  42  61  90 132 175 218 278 332 397
#     4  10  21  38  64  99 131 163 215 270 321 387
#     4  11  23  38  67  93 119 170 221 260 315 384
#
# _framework density 21.541834000000001
#
# number of rings (size 3 to 8) (size 9 to 14) (size 15 to 20)
#    0.000    1.500    3.750    0.000    7.000    2.500 
#    0.000    0.625    0.000    0.750    0.000    0.000 
#    0.000    0.000    0.000    0.000    0.000    0.000 
#
# Total GULP energy -178247.380906 kJ/mol
# GULP energy per Si atom -5570.230653 kJ/mol
# Density = 2.149280 g / cm^3
# Si number density = 21.541834 Si / 1000 Ang^3
#
#
#
# Elastic Constant Matrix: (Units=GPa)
#
#
# Indices 1 2 3 4 5 6 
#
# 1 78.5687 40.8381 16.0249 0.0000 -19.0239 0.0000
# 2 40.8381 122.4861 16.4011 0.0000 -0.3835 0.0000
# 3 16.0249 16.4011 81.7709 0.0000 1.8988 0.0000
# 4 0.0000 0.0000 0.0000 34.1539 0.0000 0.8887
# 5 -19.0239 -0.3835 1.8988 0.0000 27.3880 0.0000
# 6 0.0000 0.0000 0.0000 0.8887 0.0000 32.2125
#
#
#
# Elastic Compliance Matrix: (Units=1/GPa)
#
#
# Indices 1 2 3 4 5 6 
#
# 1 0.019947 -0.006207 -0.002989 0.000000 0.013976 0.000000
# 2 -0.006207 0.010322 -0.000758 0.000000 -0.004114 0.000000
# 3 -0.002989 -0.000758 0.013037 0.000000 -0.002991 0.000000
# 4 0.000000 0.000000 0.000000 0.029300 0.000000 -0.000808
# 5 0.013976 -0.004114 -0.002991 0.000000 0.046370 0.000000
# 6 0.000000 0.000000 0.000000 -0.000808 0.000000 0.031066
#
#
# Mechanical properties :
#
#
# Convention : Reuss Voigt Hill
#
# Bulk Modulus (GPa) = 42.73820 47.70599 45.22209
# Shear Modulus (GPa) = 28.12936 32.72163 30.42550
#
# Velocity S-wave (km/s) = 3.61751 3.90164 3.76226
# Velocity P-wave (km/s) = 6.10992 6.51850 6.31752
#
# Compressibility (1/GPa) = 0.02339827
#
# Stress axis : x y z
#
# Youngs Moduli (GPa) = 50.13170 96.87799 76.70713
#
# Poissons Ratio (x) = 0.60130 0.22926
# Poissons Ratio (y) = 0.31115 0.05818
# Poissons Ratio (z) = 0.14983 0.07348
#
# Static dielectric constant tensor:
#      x y z
#    x 1.792410 0.000000 0.056240 
#    y 0.000000 1.879320 0.000000 
#    z 0.056240 0.000000 1.907930 
# 
# From -- ./inp_files/33199.got.cif
#   From: 2010.05.17/outbox.cif.g08.bks.cpg/sg11_17_cif.got.tgz:33199.got - 2010.06.03 12:22:45.
