data_PCOD9160888
_publ_section_title
;
Structure prediction by ZEFSAII (Michael W. Deem and Ramdas Pophale) SiO2 
 PCOD9160888
Probable space group: P 21/M
;
_chemical_formula_sum "Si O2"
_cell_formula_units_Z 16
_cell_length_a 22.673606
_cell_length_b 8.453571
_cell_length_c 5.240783
_cell_angle_alpha 90.000000
_cell_angle_beta 141.466995
_cell_angle_gamma 90.000000
_cell_volume 625.778835
_symmetry_space_group_name_H-M "P 21/M"
_symmetry_group_IT_number 11
_symmetry_cell_setting 'monoclinic'
loop_
_space_group_symop_operation_xyz
x,y,z
-x,1/2+y,-z
-x,-y,-z
x,1/2-y,z
loop_
_atom_site_type_symbol
_atom_site_label
_atom_site_fract_x
_atom_site_fract_y
_atom_site_fract_z
Si Si1 0.130748 0.750000 0.483260
Si Si2 0.069380 0.434552 0.515542
Si Si3 0.450963 0.066659 0.581735
Si Si4 0.290553 0.074065 0.386847
Si Si5 0.741154 0.250000 0.573910
O O1 0.078636 0.580738 0.347040
O O2 0.181474 0.750000 0.384752
O O3 0.207570 0.750000 0.975524
O O4 0.046930 0.250000 0.373069
O O5 0.000000 0.500000 0.500000
O O6 0.177217 0.422480 0.986971
O O7 0.468247 0.250000 0.630277
O O8 0.339339 0.049198 0.274934
O O9 0.500000 0.000000 0.500000
O O10 0.500000 0.000000 0.000000
O O11 0.321899 0.250000 0.585598
O O12 0.313899 0.915840 0.623399
#
# Coordination Sequence:
#
# PCOD9160888 Si02
#       5
#     2   4   4   4   2
#     4  10  22  40  60  98 124 170 220 268 320 396
#     4  10  19  38  68  96 137 176 223 276 335 400
#     4  11  25  45  70 104 140 182 233 289 353 419
#     4   9  22  42  66  97 137 179 223 278 342 403
#     4  10  22  40  68  92 128 166 226 266 328 390
#
# _framework density 25.568138999999999
#
# number of rings (size 3 to 8) (size 9 to 14) (size 15 to 20)
#    0.000    2.000    1.250    0.750    3.500    5.000 
#    0.000   12.500    0.000    0.000    0.000    0.000 
#    0.000    0.000    0.000    0.000    0.000    0.000 
#
# Total GULP energy -89456.602413 kJ/mol
# GULP energy per Si atom -5591.037651 kJ/mol
# Density = 2.550994 g / cm^3
# Si number density = 25.568139 Si / 1000 Ang^3
#
#
#
# Elastic Constant Matrix: (Units=GPa)
#
#
# Indices 1 2 3 4 5 6 
#
# 1 225.8618 111.3361 42.0131 0.0000 22.0545 0.0000
# 2 111.3361 290.6260 28.9464 0.0000 6.9087 0.0000
# 3 42.0131 28.9464 78.5783 0.0000 15.5730 0.0000
# 4 0.0000 0.0000 0.0000 28.6270 0.0000 5.7309
# 5 22.0545 6.9087 15.5730 0.0000 37.6078 0.0000
# 6 0.0000 0.0000 0.0000 5.7309 0.0000 61.5408
#
#
#
# Elastic Compliance Matrix: (Units=1/GPa)
#
#
# Indices 1 2 3 4 5 6 
#
# 1 0.006045 -0.002060 -0.002011 0.000000 -0.002334 0.000000
# 2 -0.002060 0.004274 -0.000607 0.000000 0.000674 0.000000
# 3 -0.002011 -0.000607 0.015000 0.000000 -0.004921 0.000000
# 4 0.000000 0.000000 0.000000 0.035596 0.000000 -0.003315
# 5 -0.002334 0.000674 -0.004921 0.000000 0.029873 0.000000
# 6 0.000000 0.000000 0.000000 -0.003315 0.000000 0.016558
#
#
# Mechanical properties :
#
#
# Convention : Reuss Voigt Hill
#
# Bulk Modulus (GPa) = 62.63915 106.62858 84.63386
# Shear Modulus (GPa) = 40.97634 53.07317 47.02475
#
# Velocity S-wave (km/s) = 4.00763 4.56099 4.29323
# Velocity P-wave (km/s) = 6.77989 8.33853 7.59927
#
# Compressibility (1/GPa) = 0.01596446
#
# Stress axis : x y z
#
# Youngs Moduli (GPa) = 165.43099 233.94990 66.66724
#
# Poissons Ratio (x) = 0.48193 0.13404
# Poissons Ratio (y) = 0.34078 0.04045
# Poissons Ratio (z) = 0.33261 0.14196
#
# Static dielectric constant tensor:
#      x y z
#    x 1.937020 0.000000 0.026380 
#    y 0.000000 2.036310 0.000000 
#    z 0.026380 0.000000 2.208700 
# 
# From -- ./inp_files/5915.got.cif
#   From: 2010.05.17/outbox.cif.g08.bks.cpg/sg11_3_cif.got.tgz:5915.got - 2010.06.03 12:22:45.
