data_PCOD9160718
_publ_section_title
;
Structure prediction by ZEFSAII (Michael W. Deem and Ramdas Pophale) SiO2 
 PCOD9160718
Probable space group: P 21/M
;
_chemical_formula_sum "Si O2"
_cell_formula_units_Z 24
_cell_length_a 14.947965
_cell_length_b 15.086840
_cell_length_c 12.294126
_cell_angle_alpha 90.000000
_cell_angle_beta 153.020417
_cell_angle_gamma 90.000000
_cell_volume 1257.827014
_symmetry_space_group_name_H-M "P 21/M"
_symmetry_group_IT_number 11
_symmetry_cell_setting 'monoclinic'
loop_
_space_group_symop_operation_xyz
x,y,z
-x,1/2+y,-z
-x,-y,-z
x,1/2-y,z
loop_
_atom_site_type_symbol
_atom_site_label
_atom_site_fract_x
_atom_site_fract_y
_atom_site_fract_z
Si Si1 0.479957 0.348915 0.988002
Si Si2 0.378041 0.560608 0.656571
Si Si3 0.675466 0.084099 0.989162
Si Si4 0.513133 0.353662 0.599569
Si Si5 0.902221 0.943825 0.491328
Si Si6 0.226699 0.978460 0.262341
O O1 0.504260 0.250000 0.976683
O O2 0.603233 0.405800 0.035019
O O3 0.252632 0.376966 0.731055
O O4 0.565989 0.361049 0.201457
O O5 0.588094 0.511914 0.862903
O O6 0.229578 0.499631 0.566878
O O7 0.276362 0.569420 0.430619
O O8 0.560842 0.145918 0.780188
O O9 0.909248 0.095383 0.241168
O O10 0.487762 0.250000 0.537669
O O11 0.693114 0.408377 0.739449
O O12 0.337982 0.425056 0.385403
O O13 0.000000 0.000000 0.500000
O O14 0.000000 0.000000 0.000000
#
# Coordination Sequence:
#
# PCOD9160718 Si02
#       6
#     4   4   4   4   4   4
#     4  11  22  33  50  85 119 145 183 232 285 342
#     4  10  20  36  58  79 111 150 188 230 289 343
#     4  10  19  37  59  82 112 148 186 235 283 340
#     4  10  22  39  61  88 117 152 197 247 296 346
#     4  11  18  35  59  80 109 153 191 222 275 347
#     4  10  22  41  62  86 115 154 200 247 294 351
#
# _framework density 19.080525000000002
#
# number of rings (size 3 to 8) (size 9 to 14) (size 15 to 20)
#    0.000    1.667    3.333    2.500    0.000    2.667 
#    0.000    0.000    0.000    0.000    0.000    0.000 
#    0.000    0.000    0.000    0.000    0.000    0.000 
#
# Total GULP energy -133620.911319 kJ/mol
# GULP energy per Si atom -5567.537972 kJ/mol
# Density = 1.903710 g / cm^3
# Si number density = 19.080525 Si / 1000 Ang^3
#
#
#
# Elastic Constant Matrix: (Units=GPa)
#
#
# Indices 1 2 3 4 5 6 
#
# 1 55.9039 5.1040 23.4413 0.0000 -4.7501 0.0000
# 2 5.1040 57.0739 23.4677 0.0000 1.3463 0.0000
# 3 23.4413 23.4677 119.6953 0.0000 15.1468 0.0000
# 4 0.0000 0.0000 0.0000 14.7226 0.0000 -7.2747
# 5 -4.7501 1.3463 15.1468 0.0000 37.0292 0.0000
# 6 0.0000 0.0000 0.0000 -7.2747 0.0000 15.9745
#
#
#
# Elastic Compliance Matrix: (Units=1/GPa)
#
#
# Indices 1 2 3 4 5 6 
#
# 1 0.020154 -0.000058 -0.004496 0.000000 0.004427 0.000000
# 2 -0.000058 0.019085 -0.003840 0.000000 0.000870 0.000000
# 3 -0.004496 -0.003840 0.010592 0.000000 -0.004770 0.000000
# 4 0.000000 0.000000 0.000000 0.087644 0.000000 0.039913
# 5 0.004427 0.000870 -0.004770 0.000000 0.029493 0.000000
# 6 0.000000 0.000000 0.000000 0.039913 0.000000 0.080776
#
#
# Mechanical properties :
#
#
# Convention : Reuss Voigt Hill
#
# Bulk Modulus (GPa) = 30.26453 37.41100 33.83776
# Shear Modulus (GPa) = 18.14572 25.58926 21.86749
#
# Velocity S-wave (km/s) = 3.08719 3.66610 3.38903
# Velocity P-wave (km/s) = 5.34823 6.12943 5.75210
#
# Compressibility (1/GPa) = 0.03304198
#
# Stress axis : x y z
#
# Youngs Moduli (GPa) = 49.61686 52.39725 94.41485
#
# Poissons Ratio (x) = 0.00305 0.42447
# Poissons Ratio (y) = 0.00289 0.36260
# Poissons Ratio (z) = 0.22307 0.20123
#
# Static dielectric constant tensor:
#      x y z
#    x 1.680320 0.000000 -0.037650 
#    y 0.000000 1.696210 0.000000 
#    z -0.037650 0.000000 1.621710 
# 
# From -- ./inp_files/39708.got.cif
#   From: 2010.05.17/outbox.cif.g08.bks.cpg/sg11_20_cif.got.tgz:39708.got - 2010.06.03 12:22:45.
