data_PCOD9160708
_publ_section_title
;
Structure prediction by ZEFSAII (Michael W. Deem and Ramdas Pophale) SiO2 
 PCOD9160708
Probable space group: P 21/M
;
_chemical_formula_sum "Si O2"
_cell_formula_units_Z 32
_cell_length_a 11.261568
_cell_length_b 19.591194
_cell_length_c 19.339243
_cell_angle_alpha 90.000000
_cell_angle_beta 154.782792
_cell_angle_gamma 90.000000
_cell_volume 1817.861757
_symmetry_space_group_name_H-M "P 21/M"
_symmetry_group_IT_number 11
_symmetry_cell_setting 'monoclinic'
loop_
_space_group_symop_operation_xyz
x,y,z
-x,1/2+y,-z
-x,-y,-z
x,1/2-y,z
loop_
_atom_site_type_symbol
_atom_site_label
_atom_site_fract_x
_atom_site_fract_y
_atom_site_fract_z
Si Si1 0.708181 0.578704 0.151429
Si Si2 0.879510 0.330175 0.960735
Si Si3 0.141033 0.924723 0.181719
Si Si4 0.625303 0.578034 0.720440
Si Si5 0.281726 0.328326 0.715071
Si Si6 0.676183 0.433015 0.574915
Si Si7 0.858975 0.425850 0.420038
Si Si8 0.484090 0.058944 0.095328
O O1 0.749016 0.640624 0.224826
O O2 0.548254 0.519368 0.108557
O O3 0.013003 0.551156 0.289485
O O4 0.546962 0.595160 0.995506
O O5 0.945899 0.250000 0.984502
O O6 0.820044 0.370633 0.858413
O O7 0.601901 0.334026 0.860532
O O8 0.128682 0.371468 0.128255
O O9 0.274748 0.899078 0.324550
O O10 0.264377 0.999656 0.228174
O O11 0.811772 0.934943 0.022284
O O12 0.490069 0.600221 0.575979
O O13 0.387126 0.578531 0.653207
O O14 0.196805 0.250000 0.668848
O O15 0.091019 0.371408 0.562752
O O16 0.500000 0.500000 0.500000
O O17 0.723511 0.416844 0.273259
O O18 0.000000 0.500000 0.500000
#
# Coordination Sequence:
#
# PCOD9160708 Si02
#       8
#     4   4   4   4   4   4   4   4
#     4  10  19  37  57  85 121 151 192 239 301 350
#     4  11  24  40  57  83 118 158 199 241 287 349
#     4  10  20  36  60  87 117 149 192 241 296 343
#     4  11  20  35  62  87 114 148 194 244 287 348
#     4  11  24  41  59  83 123 163 196 242 303 361
#     4   9  19  35  56  89 117 146 187 243 298 340
#     4  12  21  35  60  91 117 147 199 247 298 348
#     4  10  20  34  59  90 116 148 192 247 292 343
#
# _framework density 17.603099
#
# number of rings (size 3 to 8) (size 9 to 14) (size 15 to 20)
#    0.000    1.500    3.750    1.875    0.000    2.500 
#    0.000    3.750    0.000    3.000    0.000    0.000 
#    0.000    0.000    0.000    0.000    0.000    0.000 
#
# Total GULP energy -178529.777220 kJ/mol
# GULP energy per Si atom -5579.055538 kJ/mol
# Density = 1.756303 g / cm^3
# Si number density = 17.603099 Si / 1000 Ang^3
#
#
#
# Elastic Constant Matrix: (Units=GPa)
#
#
# Indices 1 2 3 4 5 6 
#
# 1 76.6005 39.2739 46.6527 0.0000 -13.8692 0.0000
# 2 39.2739 93.9863 50.7027 0.0000 -6.3909 0.0000
# 3 46.6527 50.7027 120.2337 0.0000 -32.2086 0.0000
# 4 0.0000 0.0000 0.0000 20.2156 0.0000 4.8662
# 5 -13.8692 -6.3909 -32.2086 0.0000 40.3050 0.0000
# 6 0.0000 0.0000 0.0000 4.8662 0.0000 17.6341
#
#
#
# Elastic Compliance Matrix: (Units=1/GPa)
#
#
# Indices 1 2 3 4 5 6 
#
# 1 0.018921 -0.005308 -0.004561 0.000000 0.002024 0.000000
# 2 -0.005308 0.015579 -0.005519 0.000000 -0.003767 0.000000
# 3 -0.004561 -0.005519 0.014962 0.000000 0.009512 0.000000
# 4 0.000000 0.000000 0.000000 0.052986 0.000000 -0.014622
# 5 0.002024 -0.003767 0.009512 0.000000 0.032512 0.000000
# 6 0.000000 0.000000 0.000000 -0.014622 0.000000 0.060743
#
#
# Mechanical properties :
#
#
# Convention : Reuss Voigt Hill
#
# Bulk Modulus (GPa) = 53.51607 62.67544 58.09576
# Shear Modulus (GPa) = 21.48611 25.91036 23.69824
#
# Velocity S-wave (km/s) = 3.49748 3.84072 3.67311
# Velocity P-wave (km/s) = 6.83940 7.43978 7.14589
#
# Compressibility (1/GPa) = 0.01868598
#
# Stress axis : x y z
#
# Youngs Moduli (GPa) = 52.85263 64.18782 66.83434
#
# Poissons Ratio (x) = 0.34073 0.30481
# Poissons Ratio (y) = 0.28056 0.36887
# Poissons Ratio (z) = 0.24104 0.35426
#
# Static dielectric constant tensor:
#      x y z
#    x 1.610720 0.000000 -0.020930 
#    y 0.000000 1.558750 0.000000 
#    z -0.020930 0.000000 1.621580 
# 
# From -- ./inp_files/64928.got.cif
#   From: 2010.05.17/outbox.cif.g08.bks.cpg/sg11_33_cif.got.tgz:64928.got - 2010.06.03 12:22:45.
