data_PCOD9160853
_publ_section_title
;
Structure prediction by ZEFSAII (Michael W. Deem and Ramdas Pophale) SiO2 
 PCOD9160853
Probable space group: P 21/M
;
_chemical_formula_sum "Si O2"
_cell_formula_units_Z 16
_cell_length_a 17.551817
_cell_length_b 5.443419
_cell_length_c 7.766350
_cell_angle_alpha 90.000000
_cell_angle_beta 77.285965
_cell_angle_gamma 90.000000
_cell_volume 723.818152
_symmetry_space_group_name_H-M "P 21/M"
_symmetry_group_IT_number 11
_symmetry_cell_setting 'monoclinic'
loop_
_space_group_symop_operation_xyz
x,y,z
-x,1/2+y,-z
-x,-y,-z
x,1/2-y,z
loop_
_atom_site_type_symbol
_atom_site_label
_atom_site_fract_x
_atom_site_fract_y
_atom_site_fract_z
Si Si1 0.730369 0.750000 0.344139
Si Si2 0.070979 0.750000 0.130483
Si Si3 0.689740 0.250000 0.424524
Si Si4 0.286721 0.250000 0.231900
Si Si5 0.207078 0.750000 0.296417
Si Si6 0.545247 0.750000 0.020484
Si Si7 0.483392 0.750000 0.409835
Si Si8 0.100032 0.250000 0.899916
O O1 0.693857 0.492471 0.307519
O O2 0.714338 0.750000 0.558734
O O3 0.820547 0.750000 0.247641
O O4 0.094828 0.500560 0.015708
O O5 0.116563 0.750000 0.289255
O O6 0.977142 0.750000 0.181511
O O7 0.764624 0.250000 0.517440
O O8 0.610423 0.250000 0.577587
O O9 0.243567 0.500552 0.201635
O O10 0.373026 0.250000 0.115735
O O11 0.543025 0.750000 0.224974
O O12 0.500000 0.500000 0.000000
O O13 0.500000 0.500000 0.500000
#
# Coordination Sequence:
#
# PCOD9160853 Si02
#       8
#     2   2   2   2   2   2   2   2
#     4  10  19  38  61  90 119 165 202 258 316 365
#     4  10  21  39  60  89 129 164 211 249 311 393
#     4  10  21  40  63  84 126 160 205 263 311 378
#     4  10  21  37  60  89 121 152 216 257 306 375
#     4  10  20  39  61  88 120 163 207 261 302 373
#     4  12  23  43  71  92 125 180 217 267 332 393
#     4  12  26  46  66  97 134 171 220 277 337 389
#     4  10  21  38  60  91 128 169 198 258 319 376
#
# _framework density 22.105001999999999
#
# number of rings (size 3 to 8) (size 9 to 14) (size 15 to 20)
#    0.000    1.500    0.000    6.750    0.000    0.000 
#   13.500    5.000    0.000    0.000    0.000    0.000 
#    0.000    0.000    0.000    0.000    0.000    0.000 
#
# Total GULP energy -89365.170353 kJ/mol
# GULP energy per Si atom -5585.323147 kJ/mol
# Density = 2.205469 g / cm^3
# Si number density = 22.105002 Si / 1000 Ang^3
#
#
#
# Elastic Constant Matrix: (Units=GPa)
#
#
# Indices 1 2 3 4 5 6 
#
# 1 73.1796 26.8085 6.8663 0.0000 -2.8068 0.0000
# 2 26.8085 222.7981 19.3924 0.0000 -4.4471 0.0000
# 3 6.8663 19.3924 66.5170 0.0000 -21.5699 0.0000
# 4 0.0000 0.0000 0.0000 16.9104 0.0000 -11.9897
# 5 -2.8068 -4.4471 -21.5699 0.0000 39.0483 0.0000
# 6 0.0000 0.0000 0.0000 -11.9897 0.0000 16.9819
#
#
#
# Elastic Compliance Matrix: (Units=1/GPa)
#
#
# Indices 1 2 3 4 5 6 
#
# 1 0.014364 -0.001644 -0.000889 0.000000 0.000354 0.000000
# 2 -0.001644 0.004796 -0.001327 0.000000 -0.000305 0.000000
# 3 -0.000889 -0.001327 0.018813 0.000000 0.010177 0.000000
# 4 0.000000 0.000000 0.000000 0.118409 0.000000 0.083600
# 5 0.000354 -0.000305 0.010177 0.000000 0.031222 0.000000
# 6 0.000000 0.000000 0.000000 0.083600 0.000000 0.117910
#
#
# Mechanical properties :
#
#
# Convention : Reuss Voigt Hill
#
# Bulk Modulus (GPa) = 33.05503 52.06990 42.56246
# Shear Modulus (GPa) = 15.46469 35.21663 25.34066
#
# Velocity S-wave (km/s) = 2.64787 3.99576 3.38949
# Velocity P-wave (km/s) = 4.93299 6.70037 5.88342
#
# Compressibility (1/GPa) = 0.03025258
#
# Stress axis : x y z
#
# Youngs Moduli (GPa) = 69.61740 208.52328 53.15599
#
# Poissons Ratio (x) = 0.34281 0.04723
# Poissons Ratio (y) = 0.11445 0.07056
# Poissons Ratio (z) = 0.06186 0.27680
#
# Static dielectric constant tensor:
#      x y z
#    x 1.821920 0.000000 0.047820 
#    y 0.000000 1.879080 0.000000 
#    z 0.047820 0.000000 1.823680 
# 
# From -- ./inp_files/20014.got.cif
#   From: 2010.05.17/outbox.cif.g08.bks.cpg/sg11_11_cif.got.tgz:20014.got - 2010.06.03 12:22:45.
