data_PCOD9160762
_publ_section_title
;
Structure prediction by ZEFSAII (Michael W. Deem and Ramdas Pophale) SiO2 
 PCOD9160762
Probable space group: P 21/M
;
_chemical_formula_sum "Si O2"
_cell_formula_units_Z 32
_cell_length_a 32.538887
_cell_length_b 8.984488
_cell_length_c 12.945612
_cell_angle_alpha 90.000000
_cell_angle_beta 26.102286
_cell_angle_gamma 90.000000
_cell_volume 1665.124122
_symmetry_space_group_name_H-M "P 21/M"
_symmetry_group_IT_number 11
_symmetry_cell_setting 'monoclinic'
loop_
_space_group_symop_operation_xyz
x,y,z
-x,1/2+y,-z
-x,-y,-z
x,1/2-y,z
loop_
_atom_site_type_symbol
_atom_site_label
_atom_site_fract_x
_atom_site_fract_y
_atom_site_fract_z
Si Si1 0.419992 0.573629 0.611765
Si Si2 0.207733 0.575433 0.170633
Si Si3 0.931266 0.929769 0.933144
Si Si4 0.600297 0.426494 0.757495
Si Si5 0.858905 0.921709 0.879583
Si Si6 0.775303 0.928653 0.452727
Si Si7 0.875921 0.927688 0.440762
Si Si8 0.354550 0.421312 0.557346
O O1 0.500000 0.500000 0.500000
O O2 0.436299 0.750000 0.561927
O O3 0.414419 0.490361 0.514880
O O4 0.316879 0.555932 0.894952
O O5 0.189404 0.750000 0.227589
O O6 0.146221 0.516617 0.212980
O O7 0.183315 0.486335 0.328626
O O8 0.937153 0.750000 0.918992
O O9 0.919181 0.977494 0.840871
O O10 0.022955 0.998181 0.776390
O O11 0.842263 0.968727 0.205007
O O12 0.594181 0.250000 0.778075
O O13 0.677107 0.489632 0.663086
O O14 0.634605 0.479377 0.567722
O O15 0.500000 0.500000 0.000000
O O16 0.884212 0.750000 0.798931
O O17 0.752875 0.920936 0.162974
O O18 0.760671 0.750000 0.481673
O O19 0.827320 0.965653 0.441862
O O20 0.115179 0.250000 0.574503
O O21 0.380687 0.250000 0.476299
#
# Coordination Sequence:
#
# PCOD9160762 Si02
#       8
#     4   4   4   4   4   4   4   4
#     4  10  21  37  59  88 117 155 204 250 302 364
#     4  10  22  39  58  83 120 158 199 250 300 357
#     4  10  20  38  64  90 120 158 200 249 306 365
#     4  12  25  40  62  91 122 158 201 249 303 363
#     4   9  18  35  62  88 114 153 195 242 298 355
#     4  10  22  43  64  87 122 161 204 253 304 359
#     4  11  24  39  60  89 123 162 203 250 303 363
#     4  10  19  37  61  85 117 153 193 246 303 359
#
# _framework density 19.217786
#
# number of rings (size 3 to 8) (size 9 to 14) (size 15 to 20)
#    0.000    1.750    1.250    3.000    0.000    5.500 
#    0.000    2.500    0.000    0.000    0.000    0.000 
#    0.000    0.000    0.000    0.000    0.000    0.000 
#
# Total GULP energy -178830.477908 kJ/mol
# GULP energy per Si atom -5588.452435 kJ/mol
# Density = 1.917405 g / cm^3
# Si number density = 19.217786 Si / 1000 Ang^3
#
#
#
# Elastic Constant Matrix: (Units=GPa)
#
#
# Indices 1 2 3 4 5 6 
#
# 1 146.7049 48.9437 31.1851 0.0000 -20.8997 0.0000
# 2 48.9437 63.1586 26.1279 0.0000 -18.5555 0.0000
# 3 31.1851 26.1279 41.7192 0.0000 -11.7813 0.0000
# 4 0.0000 0.0000 0.0000 29.3284 0.0000 -2.2900
# 5 -20.8997 -18.5555 -11.7813 0.0000 30.0947 0.0000
# 6 0.0000 0.0000 0.0000 -2.2900 0.0000 31.6437
#
#
#
# Elastic Compliance Matrix: (Units=1/GPa)
#
#
# Indices 1 2 3 4 5 6 
#
# 1 0.009630 -0.005569 -0.003139 0.000000 0.002025 0.000000
# 2 -0.005569 0.026958 -0.010252 0.000000 0.008740 0.000000
# 3 -0.003139 -0.010252 0.034106 0.000000 0.004851 0.000000
# 4 0.000000 0.000000 0.000000 0.034290 0.000000 0.002482
# 5 0.002025 0.008740 0.004851 0.000000 0.041923 0.000000
# 6 0.000000 0.000000 0.000000 0.002482 0.000000 0.031781
#
#
# Mechanical properties :
#
#
# Convention : Reuss Voigt Hill
#
# Bulk Modulus (GPa) = 30.51132 51.56623 41.03878
# Shear Modulus (GPa) = 21.97475 27.90177 24.93826
#
# Velocity S-wave (km/s) = 3.38518 3.81448 3.60622
# Velocity P-wave (km/s) = 5.58483 6.80376 6.22420
#
# Compressibility (1/GPa) = 0.03277472
#
# Stress axis : x y z
#
# Youngs Moduli (GPa) = 103.84074 37.09490 29.32002
#
# Poissons Ratio (x) = 0.20659 0.09203
# Poissons Ratio (y) = 0.57832 0.30058
# Poissons Ratio (z) = 0.32592 0.38029
#
# Static dielectric constant tensor:
#      x y z
#    x 1.660090 0.000000 0.002910 
#    y 0.000000 1.641190 0.000000 
#    z 0.002910 0.000000 1.669530 
# 
# From -- ./inp_files/45178.got.cif
#   From: 2010.05.17/outbox.cif.g08.bks.cpg/sg11_23_cif.got.tgz:45178.got - 2010.06.03 12:22:45.
