data_PCOD9160588
_publ_section_title
;
Structure prediction by ZEFSAII (Michael W. Deem and Ramdas Pophale) SiO2 
 PCOD9160588
Probable space group: P 21/M
;
_chemical_formula_sum "Si O2"
_cell_formula_units_Z 32
_cell_length_a 21.418303
_cell_length_b 9.287619
_cell_length_c 16.745233
_cell_angle_alpha 90.000000
_cell_angle_beta 152.416343
_cell_angle_gamma 90.000000
_cell_volume 1542.418371
_symmetry_space_group_name_H-M "P 21/M"
_symmetry_group_IT_number 11
_symmetry_cell_setting 'monoclinic'
loop_
_space_group_symop_operation_xyz
x,y,z
-x,1/2+y,-z
-x,-y,-z
x,1/2-y,z
loop_
_atom_site_type_symbol
_atom_site_label
_atom_site_fract_x
_atom_site_fract_y
_atom_site_fract_z
Si Si1 0.472287 0.917695 0.663595
Si Si2 0.360521 0.584648 0.026041
Si Si3 0.797829 0.919615 0.653090
Si Si4 0.358988 0.580197 0.844160
Si Si5 0.373518 0.417933 0.320534
Si Si6 0.898420 0.087981 0.156445
Si Si7 0.191151 0.411644 0.527149
Si Si8 0.928054 0.922011 0.029995
O O1 0.437525 0.750000 0.632787
O O2 0.593869 0.929539 0.737248
O O3 0.524540 0.984476 0.805820
O O4 0.342206 0.003538 0.483650
O O5 0.411646 0.750000 0.084510
O O6 0.312582 0.550605 0.882462
O O7 0.233213 0.576699 0.939902
O O8 0.798146 0.750000 0.673276
O O9 0.798113 0.933511 0.556233
O O10 0.935451 0.994545 0.840369
O O11 0.375477 0.750000 0.853873
O O12 0.266490 0.521108 0.668967
O O13 0.500000 0.500000 0.000000
O O14 0.500000 0.500000 0.500000
O O15 0.382821 0.250000 0.352379
O O16 0.221662 0.465226 0.171209
O O17 0.900076 0.250000 0.119783
O O18 0.031397 0.081652 0.361111
O O19 0.911671 0.966966 0.104403
O O20 0.241441 0.250000 0.601155
O O21 0.943939 0.750000 0.038201
#
# Coordination Sequence:
#
# PCOD9160588 Si02
#       8
#     4   4   4   4   4   4   4   4
#     4  11  22  38  59  89 119 146 189 242 286 334
#     4  10  21  36  55  79 109 147 191 236 283 341
#     4  10  21  37  59  87 115 154 198 235 281 342
#     4  11  23  36  50  72 104 144 189 235 286 340
#     4  10  23  40  61  90 121 150 186 229 281 340
#     4   9  18  34  56  80 107 145 187 230 281 340
#     4   9  19  35  53  76 109 143 185 234 282 336
#     4  10  19  36  59  87 119 149 186 235 283 333
#
# _framework density 20.746641
#
# number of rings (size 3 to 8) (size 9 to 14) (size 15 to 20)
#    0.000    2.000    1.250    3.000    0.000    9.000 
#    0.000    0.625    0.000    0.000    0.000    0.000 
#    0.000    0.000    0.000    0.000    0.000    0.000 
#
# Total GULP energy -178653.716701 kJ/mol
# GULP energy per Si atom -5582.928647 kJ/mol
# Density = 2.069942 g / cm^3
# Si number density = 20.746641 Si / 1000 Ang^3
#
#
#
# Elastic Constant Matrix: (Units=GPa)
#
#
# Indices 1 2 3 4 5 6 
#
# 1 48.6652 37.0569 31.1549 0.0000 4.2572 0.0000
# 2 37.0569 82.2233 66.6880 0.0000 4.7511 0.0000
# 3 31.1549 66.6880 134.6049 0.0000 15.5193 0.0000
# 4 0.0000 0.0000 0.0000 40.1512 0.0000 0.5851
# 5 4.2572 4.7511 15.5193 0.0000 38.9333 0.0000
# 6 0.0000 0.0000 0.0000 0.5851 0.0000 20.7980
#
#
#
# Elastic Compliance Matrix: (Units=1/GPa)
#
#
# Indices 1 2 3 4 5 6 
#
# 1 0.031402 -0.013904 -0.000188 0.000000 -0.001662 0.000000
# 2 -0.013904 0.026585 -0.010224 0.000000 0.002352 0.000000
# 3 -0.000188 -0.010224 0.012989 0.000000 -0.003909 0.000000
# 4 0.000000 0.000000 0.000000 0.024916 0.000000 -0.000701
# 5 -0.001662 0.002352 -0.003909 0.000000 0.027138 0.000000
# 6 0.000000 0.000000 0.000000 -0.000701 0.000000 0.048101
#
#
# Mechanical properties :
#
#
# Convention : Reuss Voigt Hill
#
# Bulk Modulus (GPa) = 44.75592 59.47700 52.11646
# Shear Modulus (GPa) = 22.00612 28.68274 25.34443
#
# Velocity S-wave (km/s) = 3.26038 3.72227 3.49895
# Velocity P-wave (km/s) = 5.98272 6.87053 6.44194
#
# Compressibility (1/GPa) = 0.02234341
#
# Stress axis : x y z
#
# Youngs Moduli (GPa) = 31.84553 37.61570 76.98985
#
# Poissons Ratio (x) = 0.52300 0.01447
# Poissons Ratio (y) = 0.44277 0.78715
# Poissons Ratio (z) = 0.00599 0.38458
#
# Static dielectric constant tensor:
#      x y z
#    x 1.796720 0.000000 -0.011180 
#    y 0.000000 1.725740 0.000000 
#    z -0.011180 0.000000 1.765690 
# 
# From -- ./inp_files/67145.got.cif
#   From: 2010.05.17/outbox.cif.g08.bks.cpg/sg11_34_cif.got.tgz:67145.got - 2010.06.03 12:22:45.
