data_PCOD9160538
_publ_section_title
;
Structure prediction by ZEFSAII (Michael W. Deem and Ramdas Pophale) SiO2 
 PCOD9160538
Probable space group: P 21/M
;
_chemical_formula_sum "Si O2"
_cell_formula_units_Z 32
_cell_length_a 21.430271
_cell_length_b 14.067167
_cell_length_c 14.460326
_cell_angle_alpha 90.000000
_cell_angle_beta 158.118703
_cell_angle_gamma 90.000000
_cell_volume 1624.628904
_symmetry_space_group_name_H-M "P 21/M"
_symmetry_group_IT_number 11
_symmetry_cell_setting 'monoclinic'
loop_
_space_group_symop_operation_xyz
x,y,z
-x,1/2+y,-z
-x,-y,-z
x,1/2-y,z
loop_
_atom_site_type_symbol
_atom_site_label
_atom_site_fract_x
_atom_site_fract_y
_atom_site_fract_z
Si Si1 0.098973 0.636259 0.559918
Si Si2 0.823191 0.469626 0.145047
Si Si3 0.257437 0.426795 0.211568
Si Si4 0.987856 0.555570 0.764504
Si Si5 0.965845 0.861743 0.937456
Si Si6 0.330616 0.956340 0.729218
Si Si7 0.703702 0.357116 0.509304
Si Si8 0.518875 0.920430 0.638835
O O1 0.060554 0.750000 0.511311
O O2 0.172400 0.593560 0.756818
O O3 0.237696 0.615995 0.671369
O O4 0.940777 0.564512 0.322304
O O5 0.900717 0.407833 0.167213
O O6 0.644029 0.507292 0.864043
O O7 0.197602 0.383171 0.225739
O O8 0.372773 0.373752 0.294813
O O9 0.366729 0.520427 0.383981
O O10 0.087393 0.457904 0.925936
O O11 0.970793 0.606818 0.838473
O O12 0.806000 0.538469 0.473656
O O13 0.989063 0.750000 0.968848
O O14 0.129200 0.902610 0.215370
O O15 0.354914 0.911864 0.661579
O O16 0.500000 0.000000 0.000000
O O17 0.743512 0.250000 0.535066
O O18 0.565016 0.357137 0.398404
#
# Coordination Sequence:
#
# PCOD9160538 Si02
#       8
#     4   4   4   4   4   4   4   4
#     4  10  21  40  62  86 121 164 211 257 311 370
#     4   9  21  38  60  91 120 160 207 256 310 371
#     4  10  19  36  58  81 114 156 195 236 287 362
#     4  10  19  38  61  82 113 159 201 239 303 372
#     4  11  22  36  58  89 121 156 197 244 305 374
#     4  11  22  38  61  86 114 158 210 258 303 364
#     4  11  22  36  57  88 122 152 195 252 307 362
#     4  10  20  35  58  85 115 154 199 243 299 358
#
# _framework density 19.696805000000001
#
# number of rings (size 3 to 8) (size 9 to 14) (size 15 to 20)
#    0.000    1.750    2.500    2.250    0.000    1.500 
#    0.000    3.125    0.000    0.750    0.000    0.000 
#    0.000    0.000    0.000    0.000    0.000    0.000 
#
# Total GULP energy -178303.314469 kJ/mol
# GULP energy per Si atom -5571.978577 kJ/mol
# Density = 1.965197 g / cm^3
# Si number density = 19.696805 Si / 1000 Ang^3
#
#
#
# Elastic Constant Matrix: (Units=GPa)
#
#
# Indices 1 2 3 4 5 6 
#
# 1 160.8412 31.1818 27.2496 0.0000 4.1948 0.0000
# 2 31.1818 52.5759 11.7933 0.0000 1.2570 0.0000
# 3 27.2496 11.7933 104.8684 0.0000 -5.2229 0.0000
# 4 0.0000 0.0000 0.0000 11.0583 0.0000 1.1890
# 5 4.1948 1.2570 -5.2229 0.0000 34.1369 0.0000
# 6 0.0000 0.0000 0.0000 1.1890 0.0000 11.8654
#
#
#
# Elastic Compliance Matrix: (Units=1/GPa)
#
#
# Indices 1 2 3 4 5 6 
#
# 1 0.007261 -0.003948 -0.001491 0.000000 -0.000975 0.000000
# 2 -0.003948 0.021698 -0.001441 0.000000 -0.000534 0.000000
# 3 -0.001491 -0.001441 0.010175 0.000000 0.001793 0.000000
# 4 0.000000 0.000000 0.000000 0.091415 0.000000 -0.009160
# 5 -0.000975 -0.000534 0.001793 0.000000 0.029708 0.000000
# 6 0.000000 0.000000 0.000000 -0.009160 0.000000 0.085197
#
#
# Mechanical properties :
#
#
# Convention : Reuss Voigt Hill
#
# Bulk Modulus (GPa) = 39.41286 50.97054 45.19170
# Shear Modulus (GPa) = 18.67966 27.94949 23.31458
#
# Velocity S-wave (km/s) = 3.08289 3.77103 3.44419
# Velocity P-wave (km/s) = 5.72062 6.70035 6.22977
#
# Compressibility (1/GPa) = 0.02537243
#
# Stress axis : x y z
#
# Youngs Moduli (GPa) = 137.72466 46.08756 98.28425
#
# Poissons Ratio (x) = 0.18198 0.14656
# Poissons Ratio (y) = 0.54380 0.14160
# Poissons Ratio (z) = 0.20538 0.06640
#
# Static dielectric constant tensor:
#      x y z
#    x 1.743700 0.000000 0.017180 
#    y 0.000000 1.685680 0.000000 
#    z 0.017180 0.000000 1.688810 
# 
# From -- ./inp_files/55019.got.cif
#   From: 2010.05.17/outbox.cif.g08.bks.cpg/sg11_28_cif.got.tgz:55019.got - 2010.06.03 12:22:45.
