data_PCOD9160233
_publ_section_title
;
Structure prediction by ZEFSAII (Michael W. Deem and Ramdas Pophale) SiO2 
 PCOD9160233
Probable space group: P 21/M
;
_chemical_formula_sum "Si O2"
_cell_formula_units_Z 28
_cell_length_a 15.170033
_cell_length_b 7.575281
_cell_length_c 21.787021
_cell_angle_alpha 90.000000
_cell_angle_beta 29.480694
_cell_angle_gamma 90.000000
_cell_volume 1232.148910
_symmetry_space_group_name_H-M "P 21/M"
_symmetry_group_IT_number 11
_symmetry_cell_setting 'monoclinic'
loop_
_space_group_symop_operation_xyz
x,y,z
-x,1/2+y,-z
-x,-y,-z
x,1/2-y,z
loop_
_atom_site_type_symbol
_atom_site_label
_atom_site_fract_x
_atom_site_fract_y
_atom_site_fract_z
Si Si1 0.208080 0.041224 0.881925
Si Si2 0.419579 0.034129 0.633298
Si Si3 0.948383 0.962730 0.602051
Si Si4 0.800077 0.456391 0.445689
Si Si5 0.743477 0.043670 0.012386
Si Si6 0.435814 0.462720 0.108952
Si Si7 0.890198 0.536278 0.263576
O O1 0.229270 0.250000 0.872262
O O2 0.305902 0.981891 0.761591
O O3 0.289266 0.969410 0.895553
O O4 0.000000 0.000000 0.000000
O O5 0.426541 0.250000 0.624662
O O6 0.616342 0.965813 0.530325
O O7 0.300516 0.971662 0.647895
O O8 0.944561 0.750000 0.609696
O O9 0.757946 0.025063 0.746830
O O10 0.106556 0.030939 0.550818
O O11 0.000000 0.000000 0.500000
O O12 0.764345 0.250000 0.479681
O O13 0.928188 0.474292 0.309351
O O14 0.752831 0.250000 0.990823
O O15 0.943236 0.973703 0.878371
O O16 0.589275 0.968759 0.062527
O O17 0.427825 0.250000 0.117957
O O18 0.500000 0.500000 0.000000
O O19 0.883458 0.750000 0.266458
#
# Coordination Sequence:
#
# PCOD9160233 Si02
#       7
#     4   4   4   4   4   4   4
#     4  11  21  36  57  82 114 151 189 232 282 340
#     4   9  19  35  54  78 112 147 181 224 275 331
#     4  10  23  41  60  85 119 154 197 249 297 350
#     4  10  21  37  57  80 110 146 186 232 277 330
#     4  10  21  37  57  82 116 151 186 236 290 338
#     4  10  22  40  62  89 120 155 199 253 303 355
#     4  10  19  35  56  80 112 146 180 226 281 337
#
# _framework density 22.724523999999999
#
# number of rings (size 3 to 8) (size 9 to 14) (size 15 to 20)
#    0.000    2.000    1.429    1.714    2.000    2.286 
#    0.000    1.429    0.000    0.000    0.000    0.000 
#    0.000    0.000    0.000    0.000    0.000    0.000 
#
# Total GULP energy -156262.552543 kJ/mol
# GULP energy per Si atom -5580.805448 kJ/mol
# Density = 2.267280 g / cm^3
# Si number density = 22.724524 Si / 1000 Ang^3
#
#
#
# Elastic Constant Matrix: (Units=GPa)
#
#
# Indices 1 2 3 4 5 6 
#
# 1 216.7373 0.2510 72.9333 0.0000 4.8747 0.0000
# 2 0.2510 48.6010 1.4984 0.0000 -12.4570 0.0000
# 3 72.9333 1.4984 110.4321 0.0000 3.2920 0.0000
# 4 0.0000 0.0000 0.0000 12.4531 0.0000 16.3677
# 5 4.8747 -12.4570 3.2920 0.0000 34.7230 0.0000
# 6 0.0000 0.0000 0.0000 16.3677 0.0000 15.2226
#
#
#
# Elastic Compliance Matrix: (Units=1/GPa)
#
#
# Indices 1 2 3 4 5 6 
#
# 1 0.005940 -0.000032 -0.003908 0.000000 -0.000475 0.000000
# 2 -0.000032 0.022693 -0.000531 0.000000 0.008196 0.000000
# 3 -0.003908 -0.000531 0.011666 0.000000 -0.000748 0.000000
# 4 0.000000 0.000000 0.000000 -0.194331 0.000000 0.208949
# 5 -0.000475 0.008196 -0.000748 0.000000 0.031877 0.000000
# 6 0.000000 0.000000 0.000000 0.208949 0.000000 -0.158975
#
#
# Mechanical properties :
#
#
# Convention : Reuss Voigt Hill
#
# Bulk Modulus (GPa) = 31.89167 58.34842 45.12004
# Shear Modulus (GPa) = -19.10327 32.55225 6.72449
#
# Velocity S-wave (km/s) = -2.90253 3.78891 1.72208
# Velocity P-wave (km/s) = 1.68272 6.69875 4.88389
#
# Compressibility (1/GPa) = 0.03135615
#
# Stress axis : x y z
#
# Youngs Moduli (GPa) = 168.35764 44.06646 85.71938
#
# Poissons Ratio (x) = 0.00140 0.33501
# Poissons Ratio (y) = 0.00537 0.04553
# Poissons Ratio (z) = 0.65798 0.02341
#
# Static dielectric constant tensor:
#      x y z
#    x 1.822430 0.000000 -0.017750 
#    y 0.000000 1.838290 0.000000 
#    z -0.017750 0.000000 1.882150 
# 
# From -- ./inp_files/37905.got.cif
#   From: 2010.05.17/outbox.cif.g08.bks.cpg/sg11_19_cif.got.tgz:37905.got - 2010.06.03 12:22:45.
