data_PCOD9160229
_publ_section_title
;
Structure prediction by ZEFSAII (Michael W. Deem and Ramdas Pophale) SiO2 
 PCOD9160229
Probable space group: P 21/M
;
_chemical_formula_sum "Si O2"
_cell_formula_units_Z 32
_cell_length_a 13.987840
_cell_length_b 12.574771
_cell_length_c 17.967718
_cell_angle_alpha 90.000000
_cell_angle_beta 145.863587
_cell_angle_gamma 90.000000
_cell_volume 1773.512872
_symmetry_space_group_name_H-M "P 21/M"
_symmetry_group_IT_number 11
_symmetry_cell_setting 'monoclinic'
loop_
_space_group_symop_operation_xyz
x,y,z
-x,1/2+y,-z
-x,-y,-z
x,1/2-y,z
loop_
_atom_site_type_symbol
_atom_site_label
_atom_site_fract_x
_atom_site_fract_y
_atom_site_fract_z
Si Si1 0.094775 0.373007 0.859278
Si Si2 0.370919 0.375081 0.346659
Si Si3 0.741266 0.475297 0.590961
Si Si4 0.653850 0.454623 0.049790
Si Si5 0.803574 0.130246 0.289672
Si Si6 0.562073 0.968892 0.223642
Si Si7 0.301492 0.125845 0.135695
Si Si8 0.188348 0.128330 0.502397
O O1 0.129311 0.250000 0.862739
O O2 0.220838 0.450927 0.895549
O O3 0.902438 0.403244 0.715932
O O4 0.141816 0.387097 0.976989
O O5 0.358712 0.250000 0.355604
O O6 0.569299 0.408409 0.466240
O O7 0.295196 0.445596 0.363840
O O8 0.278416 0.395795 0.208096
O O9 0.785248 0.545588 0.547207
O O10 0.753770 0.378647 0.170200
O O11 0.500000 0.500000 0.000000
O O12 0.562218 0.412927 0.916327
O O13 0.765171 0.250000 0.291217
O O14 0.696145 0.043618 0.265661
O O15 0.005028 0.110665 0.422599
O O16 0.446024 0.048385 0.197254
O O17 0.664843 0.890999 0.342782
O O18 0.354880 0.250000 0.164137
O O19 0.191401 0.250000 0.476996
#
# Coordination Sequence:
#
# PCOD9160229 Si02
#       8
#     4   4   4   4   4   4   4   4
#     4  10  20  36  58  84 114 148 188 232 279 328
#     4  10  21  37  59  85 109 145 189 232 284 339
#     4  11  21  37  59  82 114 148 187 235 278 334
#     4   9  19  34  56  82 113 146 184 230 272 325
#     4  10  20  35  55  79 109 145 185 227 278 332
#     4  10  19  35  56  79 111 147 187 228 274 327
#     4   9  18  34  57  84 111 143 182 230 279 327
#     4  11  22  36  54  78 113 150 184 229 279 329
#
# _framework density 18.043286999999999
#
# number of rings (size 3 to 8) (size 9 to 14) (size 15 to 20)
#    0.000    2.000    2.500    1.500    0.000    4.000 
#    0.000    1.875    0.000    0.000    0.000    0.000 
#    0.000    0.000    0.000    0.000    0.000    0.000 
#
# Total GULP energy -178456.054414 kJ/mol
# GULP energy per Si atom -5576.751700 kJ/mol
# Density = 1.800222 g / cm^3
# Si number density = 18.043287 Si / 1000 Ang^3
#
#
#
# Elastic Constant Matrix: (Units=GPa)
#
#
# Indices 1 2 3 4 5 6 
#
# 1 30.5105 3.1598 0.2780 0.0000 -6.5486 0.0000
# 2 3.1598 32.0713 3.2890 0.0000 -2.2049 0.0000
# 3 0.2780 3.2890 69.9938 0.0000 -3.6056 0.0000
# 4 0.0000 0.0000 0.0000 23.1703 0.0000 -8.1228
# 5 -6.5486 -2.2049 -3.6056 0.0000 24.8293 0.0000
# 6 0.0000 0.0000 0.0000 -8.1228 0.0000 16.8182
#
#
#
# Elastic Compliance Matrix: (Units=1/GPa)
#
#
# Indices 1 2 3 4 5 6 
#
# 1 0.035011 -0.002875 0.000462 0.000000 0.009046 0.000000
# 2 -0.002875 0.031734 -0.001384 0.000000 0.001859 0.000000
# 3 0.000462 -0.001384 0.014458 0.000000 0.002099 0.000000
# 4 0.000000 0.000000 0.000000 0.051955 0.000000 0.025093
# 5 0.009046 0.001859 0.002099 0.000000 0.043131 0.000000
# 6 0.000000 0.000000 0.000000 0.025093 0.000000 0.071579
#
#
# Mechanical properties :
#
#
# Convention : Reuss Voigt Hill
#
# Bulk Modulus (GPa) = 13.58532 16.22545 14.90539
# Shear Modulus (GPa) = 17.85734 21.35349 19.60541
#
# Velocity S-wave (km/s) = 3.14935 3.44388 3.29990
# Velocity P-wave (km/s) = 4.55743 4.98254 4.77472
#
# Compressibility (1/GPa) = 0.07360885
#
# Stress axis : x y z
#
# Youngs Moduli (GPa) = 28.56272 31.51241 69.16451
#
# Poissons Ratio (x) = 0.09059 -0.03195
# Poissons Ratio (y) = 0.08211 0.09572
# Poissons Ratio (z) = -0.01320 0.04361
#
# Static dielectric constant tensor:
#      x y z
#    x 1.594050 0.000000 -0.020810 
#    y 0.000000 1.584870 0.000000 
#    z -0.020810 0.000000 1.636510 
# 
# From -- ./inp_files/21877.got.cif
#   From: 2010.05.17/outbox.cif.g08.bks.cpg/sg11_11_cif.got.tgz:21877.got - 2010.06.03 12:22:45.
