data_PCOD9160934
_publ_section_title
;
Structure prediction by ZEFSAII (Michael W. Deem and Ramdas Pophale) SiO2 
 PCOD9160934
Probable space group: P 21/M
;
_chemical_formula_sum "Si O2"
_cell_formula_units_Z 24
_cell_length_a 11.574985
_cell_length_b 13.941849
_cell_length_c 10.315760
_cell_angle_alpha 90.000000
_cell_angle_beta 141.454095
_cell_angle_gamma 90.000000
_cell_volume 1037.358063
_symmetry_space_group_name_H-M "P 21/M"
_symmetry_group_IT_number 11
_symmetry_cell_setting 'monoclinic'
loop_
_space_group_symop_operation_xyz
x,y,z
-x,1/2+y,-z
-x,-y,-z
x,1/2-y,z
loop_
_atom_site_type_symbol
_atom_site_label
_atom_site_fract_x
_atom_site_fract_y
_atom_site_fract_z
Si Si1 0.296915 0.464384 0.365602
Si Si2 0.453659 0.250000 0.241397
Si Si3 0.403314 0.051834 0.797482
Si Si4 0.179628 0.750000 0.611195
Si Si5 0.429846 0.750000 0.074601
Si Si6 0.926125 0.450732 0.599144
Si Si7 0.426117 0.250000 0.520143
Si Si8 0.721385 0.544614 0.934397
O O1 0.500000 0.500000 0.500000
O O2 0.197831 0.536848 0.377772
O O3 0.312477 0.352108 0.427755
O O4 0.198904 0.466698 0.139282
O O5 0.630897 0.250000 0.305698
O O6 0.501141 0.250000 0.437529
O O7 0.338231 0.155073 0.109547
O O8 0.443605 0.161172 0.851273
O O9 0.191914 0.022466 0.593999
O O10 0.536476 0.017161 0.796887
O O11 0.500000 0.000000 0.000000
O O12 0.080734 0.847002 0.474962
O O13 0.246196 0.750000 0.821540
O O14 0.426594 0.750000 0.230656
O O15 0.127607 0.479619 0.825073
#
# Coordination Sequence:
#
# PCOD9160934 Si02
#       8
#     4   2   4   2   2   4   2   4
#     4  11  20  40  64  95 130 169 210 265 332 388
#     4  10  19  41  64  98 130 169 214 270 321 390
#     4  12  24  44  66  91 128 175 216 264 327 387
#     4  12  23  41  68  94 126 173 224 264 321 388
#     4  12  22  41  65  94 127 170 218 265 319 391
#     4  12  23  40  67  96 128 169 218 269 326 383
#     4  10  20  33  65  90 123 172 212 257 325 391
#     4  11  23  40  67  98 132 165 218 271 325 384
#
# _framework density 23.135694999999998
#
# number of rings (size 3 to 8) (size 9 to 14) (size 15 to 20)
#    0.000    0.667    6.667    2.000    0.000    0.667 
#    0.000    1.667    0.000    0.000    0.000    0.000 
#    0.000    0.000    0.000    0.000    0.000    0.000 
#
# Total GULP energy -134029.587617 kJ/mol
# GULP energy per Si atom -5584.566151 kJ/mol
# Density = 2.308304 g / cm^3
# Si number density = 23.135695 Si / 1000 Ang^3
#
#
#
# Elastic Constant Matrix: (Units=GPa)
#
#
# Indices 1 2 3 4 5 6 
#
# 1 69.4790 6.8646 26.8382 0.0000 -19.1131 0.0000
# 2 6.8646 165.1189 26.9583 0.0000 -0.0086 0.0000
# 3 26.8382 26.9583 148.6336 0.0000 -12.5327 0.0000
# 4 0.0000 0.0000 0.0000 30.5652 0.0000 -8.8500
# 5 -19.1131 -0.0086 -12.5327 0.0000 50.0028 0.0000
# 6 0.0000 0.0000 0.0000 -8.8500 0.0000 22.8791
#
#
#
# Elastic Compliance Matrix: (Units=1/GPa)
#
#
# Indices 1 2 3 4 5 6 
#
# 1 0.017011 -0.000295 -0.002523 0.000000 0.005870 0.000000
# 2 -0.000295 0.006250 -0.001113 0.000000 -0.000391 0.000000
# 3 -0.002523 -0.001113 0.007462 0.000000 0.000906 0.000000
# 4 0.000000 0.000000 0.000000 0.036843 0.000000 0.014252
# 5 0.005870 -0.000391 0.000906 0.000000 0.022470 0.000000
# 6 0.000000 0.000000 0.000000 0.014252 0.000000 0.049221
#
#
# Mechanical properties :
#
#
# Convention : Reuss Voigt Hill
#
# Bulk Modulus (GPa) = 43.74359 56.06154 49.90256
# Shear Modulus (GPa) = 32.31212 42.19409 37.25311
#
# Velocity S-wave (km/s) = 3.74121 4.27519 4.01708
# Velocity P-wave (km/s) = 6.13275 6.97523 6.56752
#
# Compressibility (1/GPa) = 0.02286049
#
# Stress axis : x y z
#
# Youngs Moduli (GPa) = 58.78395 159.99351 134.01501
#
# Poissons Ratio (x) = 0.04719 0.33815
# Poissons Ratio (y) = 0.01734 0.14920
# Poissons Ratio (z) = 0.14833 0.17812
#
# Static dielectric constant tensor:
#      x y z
#    x 1.954790 0.000000 -0.103840 
#    y 0.000000 1.884560 0.000000 
#    z -0.103840 0.000000 1.945650 
# 
# From -- ./inp_files/39767.got.cif
#   From: 2010.05.17/outbox.cif.g08.bks.cpg/sg11_20_cif.got.tgz:39767.got - 2010.06.03 12:22:45.
