data_PCOD9161604
_publ_section_title
;
Structure prediction by ZEFSAII (Michael W. Deem and Ramdas Pophale) SiO2 
 PCOD9161604
Probable space group: P 21/M
;
_chemical_formula_sum "Si O2"
_cell_formula_units_Z 32
_cell_length_a 25.740847
_cell_length_b 8.797173
_cell_length_c 19.602254
_cell_angle_alpha 90.000000
_cell_angle_beta 157.198651
_cell_angle_gamma 90.000000
_cell_volume 1720.225881
_symmetry_space_group_name_H-M "P 21/M"
_symmetry_group_IT_number 11
_symmetry_cell_setting 'monoclinic'
loop_
_space_group_symop_operation_xyz
x,y,z
-x,1/2+y,-z
-x,-y,-z
x,1/2-y,z
loop_
_atom_site_type_symbol
_atom_site_label
_atom_site_fract_x
_atom_site_fract_y
_atom_site_fract_z
Si Si1 0.765176 0.913291 0.449233
Si Si2 0.588008 0.570523 0.045126
Si Si3 0.593688 0.432879 0.905468
Si Si4 0.059294 0.435414 0.141163
Si Si5 0.348206 0.075194 0.536957
Si Si6 0.066653 0.921119 0.870227
Si Si7 0.865723 0.930517 0.184715
Si Si8 0.166303 0.925743 0.594800
O O1 0.729568 0.750000 0.372803
O O2 0.690335 0.923783 0.429674
O O3 0.918532 0.905864 0.659087
O O4 0.761407 0.048264 0.391103
O O5 0.569791 0.750000 0.021535
O O6 0.552348 0.498875 0.928954
O O7 0.744047 0.527068 0.247206
O O8 0.500000 0.500000 0.000000
O O9 0.584912 0.250000 0.896892
O O10 0.744804 0.483619 0.074202
O O11 0.497884 0.489570 0.726688
O O12 0.061877 0.250000 0.144886
O O13 0.214282 0.489195 0.339377
O O14 0.965453 0.479205 0.092335
O O15 0.000000 0.500000 0.000000
O O16 0.359507 0.250000 0.526254
O O17 0.125605 0.750000 0.944804
O O18 0.137351 0.024024 0.899271
O O19 0.850744 0.750000 0.173429
O O20 0.011209 0.969769 0.394216
O O21 0.172986 0.750000 0.623109
#
# Coordination Sequence:
#
# PCOD9161604 Si02
#       8
#     4   4   4   4   4   4   4   4
#     4   8  13  26  49  73  97 129 169 213 262 310
#     4  12  25  40  57  79 108 138 173 221 275 326
#     4  11  22  37  57  78 103 141 185 224 267 319
#     4   9  17  31  53  84 116 140 167 206 258 316
#     4   8  16  31  51  74 102 136 171 209 255 312
#     4   8  15  29  50  75 104 138 173 210 254 311
#     4  10  21  36  54  78 107 140 183 231 271 310
#     4  10  20  34  52  75 104 138 177 221 270 320
#
# _framework density 18.602208000000001
#
# number of rings (size 3 to 8) (size 9 to 14) (size 15 to 20)
#    0.000    2.500    0.000    4.500    0.000    3.500 
#    0.000    3.750    0.000    0.750    0.000    0.000 
#    0.000    0.000    0.000    0.000    0.000    0.000 
#
# Total GULP energy -178159.099633 kJ/mol
# GULP energy per Si atom -5567.471864 kJ/mol
# Density = 1.855987 g / cm^3
# Si number density = 18.602208 Si / 1000 Ang^3
#
#
#
# Elastic Constant Matrix: (Units=GPa)
#
#
# Indices 1 2 3 4 5 6 
#
# 1 61.4896 28.6551 41.7785 0.0000 -9.8125 0.0000
# 2 28.6551 57.9360 39.2505 0.0000 -0.5773 0.0000
# 3 41.7785 39.2505 113.8478 0.0000 -10.6692 0.0000
# 4 0.0000 0.0000 0.0000 22.0788 0.0000 -3.0065
# 5 -9.8125 -0.5773 -10.6692 0.0000 29.8055 0.0000
# 6 0.0000 0.0000 0.0000 -3.0065 0.0000 28.1771
#
#
#
# Elastic Compliance Matrix: (Units=1/GPa)
#
#
# Indices 1 2 3 4 5 6 
#
# 1 0.025048 -0.008461 -0.005709 0.000000 0.006039 0.000000
# 2 -0.008461 0.025549 -0.006124 0.000000 -0.004483 0.000000
# 3 -0.005709 -0.006124 0.013247 0.000000 0.002744 0.000000
# 4 0.000000 0.000000 0.000000 0.045960 0.000000 0.004904
# 5 0.006039 -0.004483 0.002744 0.000000 0.036434 0.000000
# 6 0.000000 0.000000 0.000000 0.004904 0.000000 0.036013
#
#
# Mechanical properties :
#
#
# Convention : Reuss Voigt Hill
#
# Bulk Modulus (GPa) = 42.99700 50.29352 46.64526
# Shear Modulus (GPa) = 21.68334 24.25157 22.96746
#
# Velocity S-wave (km/s) = 3.41784 3.61459 3.51759
# Velocity P-wave (km/s) = 6.22412 6.67198 6.45194
#
# Compressibility (1/GPa) = 0.02325744
#
# Stress axis : x y z
#
# Youngs Moduli (GPa) = 39.92258 39.14023 75.48880
#
# Poissons Ratio (x) = 0.33117 0.43097
# Poissons Ratio (y) = 0.33779 0.46226
# Poissons Ratio (z) = 0.22792 0.23968
#
# Static dielectric constant tensor:
#      x y z
#    x 1.663400 0.000000 0.041010 
#    y 0.000000 1.642960 0.000000 
#    z 0.041010 0.000000 1.717000 
# 
# From -- ./inp_files/67139.got.cif
#   From: 2010.05.17/outbox.cif.g08.bks.cpg/sg11_34_cif.got.tgz:67139.got - 2010.06.03 12:22:45.
