data_PCOD9161699
_publ_section_title
;
Structure prediction by ZEFSAII (Michael W. Deem and Ramdas Pophale) SiO2 
 PCOD9161699
Probable space group: P 21/M
;
_chemical_formula_sum "Si O2"
_cell_formula_units_Z 24
_cell_length_a 8.390559
_cell_length_b 9.279171
_cell_length_c 20.556769
_cell_angle_alpha 90.000000
_cell_angle_beta 51.995050
_cell_angle_gamma 90.000000
_cell_volume 1261.123902
_symmetry_space_group_name_H-M "P 21/M"
_symmetry_group_IT_number 11
_symmetry_cell_setting 'monoclinic'
loop_
_space_group_symop_operation_xyz
x,y,z
-x,1/2+y,-z
-x,-y,-z
x,1/2-y,z
loop_
_atom_site_type_symbol
_atom_site_label
_atom_site_fract_x
_atom_site_fract_y
_atom_site_fract_z
Si Si1 0.179202 0.579270 0.595728
Si Si2 0.178983 0.913497 0.920735
Si Si3 0.920003 0.416971 0.758069
Si Si4 0.702466 0.585416 0.236017
Si Si5 0.534879 0.077941 0.584776
Si Si6 0.562142 0.584450 0.919621
O O1 0.151136 0.750000 0.612686
O O2 0.248868 0.554099 0.503622
O O3 0.373519 0.521880 0.587713
O O4 0.994014 0.491715 0.672862
O O5 0.112000 0.750000 0.926173
O O6 0.368449 0.913503 0.921547
O O7 0.249316 0.983683 0.835747
O O8 0.000000 0.000000 0.000000
O O9 0.866372 0.250000 0.761129
O O10 0.741290 0.503433 0.837234
O O11 0.110475 0.420541 0.760103
O O12 0.686189 0.750000 0.216491
O O13 0.504807 0.550616 0.329212
O O14 0.486164 0.250000 0.586700
O O15 0.619032 0.750000 0.920252
O O16 0.500000 0.500000 0.000000
#
# Coordination Sequence:
#
# PCOD9161699 Si02
#       6
#     4   4   4   4   4   4
#     4   9  15  25  45  73 105 140 175 214 259 302
#     4  11  24  39  56  79 105 133 169 212 257 309
#     4  10  20  34  53  79 109 140 176 217 259 306
#     4   9  18  33  53  78 108 139 173 213 256 304
#     4   8  15  27  44  71 106 140 175 215 256 301
#     4  11  24  40  57  79 105 134 171 214 259 310
#
# _framework density 19.030645
#
# number of rings (size 3 to 8) (size 9 to 14) (size 15 to 20)
#    0.000    2.333    0.000    4.000    0.000   10.667 
#    0.000    0.000    0.000    1.000    0.000    0.000 
#    0.000    0.000    0.000    0.000    0.000    0.000 
#
# Total GULP energy -133853.067067 kJ/mol
# GULP energy per Si atom -5577.211128 kJ/mol
# Density = 1.898733 g / cm^3
# Si number density = 19.030645 Si / 1000 Ang^3
#
#
#
# Elastic Constant Matrix: (Units=GPa)
#
#
# Indices 1 2 3 4 5 6 
#
# 1 12.0388 18.9379 23.4277 0.0000 0.1956 0.0000
# 2 18.9379 155.5944 122.1700 0.0000 0.8948 0.0000
# 3 23.4277 122.1700 217.9094 0.0000 -5.1143 0.0000
# 4 0.0000 0.0000 0.0000 41.2119 0.0000 0.5402
# 5 0.1956 0.8948 -5.1143 0.0000 22.7434 0.0000
# 6 0.0000 0.0000 0.0000 0.5402 0.0000 20.4336
#
#
#
# Elastic Compliance Matrix: (Units=1/GPa)
#
#
# Indices 1 2 3 4 5 6 
#
# 1 0.109619 -0.007199 -0.007806 0.000000 -0.002415 0.000000
# 2 -0.007199 0.012037 -0.006016 0.000000 -0.001764 0.000000
# 3 -0.007806 -0.006016 0.008855 0.000000 0.002295 0.000000
# 4 0.000000 0.000000 0.000000 0.024273 0.000000 -0.000642
# 5 -0.002415 -0.001764 0.002295 0.000000 0.044575 0.000000
# 6 0.000000 0.000000 0.000000 -0.000642 0.000000 0.048956
#
#
# Mechanical properties :
#
#
# Convention : Reuss Voigt Hill
#
# Bulk Modulus (GPa) = 11.30338 79.40152 45.35245
# Shear Modulus (GPa) = 15.63252 31.61160 23.62206
#
# Velocity S-wave (km/s) = 2.86919 4.08007 3.52698
# Velocity P-wave (km/s) = 4.11446 8.00059 6.36154
#
# Compressibility (1/GPa) = 0.08846910
#
# Stress axis : x y z
#
# Youngs Moduli (GPa) = 9.12251 83.07786 112.93203
#
# Poissons Ratio (x) = 0.59810 0.88151
# Poissons Ratio (y) = 0.06568 0.67938
# Poissons Ratio (z) = 0.07121 0.49978
#
# Static dielectric constant tensor:
#      x y z
#    x 1.659430 0.000000 -0.005740 
#    y 0.000000 1.648930 0.000000 
#    z -0.005740 0.000000 1.685140 
# 
# From -- ./inp_files/25714.got.cif
#   From: 2010.05.17/outbox.cif.g08.bks.cpg/sg11_13_cif.got.tgz:25714.got - 2010.06.03 12:22:45.
