data_PCOD9161273
_publ_section_title
;
Structure prediction by ZEFSAII (Michael W. Deem and Ramdas Pophale) SiO2 
 PCOD9161273
Probable space group: P 21/M
;
_chemical_formula_sum "Si O2"
_cell_formula_units_Z 32
_cell_length_a 15.410773
_cell_length_b 8.680907
_cell_length_c 23.851590
_cell_angle_alpha 90.000000
_cell_angle_beta 140.701938
_cell_angle_gamma 90.000000
_cell_volume 2020.942040
_symmetry_space_group_name_H-M "P 21/M"
_symmetry_group_IT_number 11
_symmetry_cell_setting 'monoclinic'
loop_
_space_group_symop_operation_xyz
x,y,z
-x,1/2+y,-z
-x,-y,-z
x,1/2-y,z
loop_
_atom_site_type_symbol
_atom_site_label
_atom_site_fract_x
_atom_site_fract_y
_atom_site_fract_z
Si Si1 0.789829 0.934401 0.371205
Si Si2 0.040468 0.434412 0.432153
Si Si3 0.786359 0.435050 0.581209
Si Si4 0.786355 0.935051 0.705148
Si Si5 0.499998 0.434961 0.252287
Si Si6 0.500002 0.437051 0.382609
Si Si7 0.040472 0.565589 0.108316
Si Si8 0.210168 0.934400 0.081373
O O1 0.786817 0.750000 0.365927
O O2 0.857140 0.976865 0.465233
O O3 0.638076 0.002104 0.293568
O O4 0.892762 0.001771 0.376417
O O5 0.036308 0.250000 0.426285
O O6 0.100379 0.505438 0.405626
O O7 0.787669 0.250000 0.583064
O O8 0.806365 0.500001 0.653182
O O9 0.637903 0.487135 0.483009
O O10 0.787668 0.750000 0.704604
O O11 0.637897 0.987133 0.654889
O O12 0.899614 0.994565 0.805245
O O13 0.499994 0.250000 0.251266
O O14 0.499998 0.486665 0.317746
O O15 0.361922 0.497902 0.155490
O O16 0.500003 0.250000 0.382394
O O17 0.036313 0.750000 0.110024
O O18 0.142859 0.523133 0.108091
O O19 0.892764 0.501773 0.016347
O O20 0.213176 0.750000 0.079105
#
# Coordination Sequence:
#
# PCOD9161273 Si02
#       8
#     4   4   4   4   4   4   4   4
#     4  10  20  33  51  75 102 132 168 212 259 308
#     4  10  20  34  51  73  99 133 172 213 258 305
#     4  11  21  35  51  72 101 138 178 217 256 301
#     4  11  21  35  51  72 101 138 178 217 256 301
#     4  11  19  32  52  76 104 137 172 209 255 308
#     4   9  19  32  48  70 101 138 176 212 249 294
#     4  10  20  34  51  73  99 133 172 213 258 305
#     4  10  20  33  51  75 102 132 168 212 259 308
#
# _framework density 15.834199
#
# number of rings (size 3 to 8) (size 9 to 14) (size 15 to 20)
#    0.000    1.750    2.500    3.000    0.000    2.000 
#    0.000    1.875    0.000    0.000    0.000    0.875 
#    0.000    0.000    0.000    0.000    0.000    0.000 
#
# Total GULP energy -178703.107733 kJ/mol
# GULP energy per Si atom -5584.472117 kJ/mol
# Density = 1.579816 g / cm^3
# Si number density = 15.834199 Si / 1000 Ang^3
#
#
#
# Elastic Constant Matrix: (Units=GPa)
#
#
# Indices 1 2 3 4 5 6 
#
# 1 123.7366 42.7135 88.6617 0.0000 11.3733 0.0000
# 2 42.7135 53.0959 43.6113 0.0000 6.8157 0.0000
# 3 88.6617 43.6113 126.8784 0.0000 12.5158 0.0000
# 4 0.0000 0.0000 0.0000 24.6063 0.0000 1.4236
# 5 11.3733 6.8157 12.5158 0.0000 26.9417 0.0000
# 6 0.0000 0.0000 0.0000 1.4236 0.0000 24.4184
#
#
#
# Elastic Compliance Matrix: (Units=1/GPa)
#
#
# Indices 1 2 3 4 5 6 
#
# 1 0.017325 -0.005483 -0.010100 0.000000 -0.001235 0.000000
# 2 -0.005483 0.028148 -0.005628 0.000000 -0.002192 0.000000
# 3 -0.010100 -0.005628 0.017096 0.000000 -0.002255 0.000000
# 4 0.000000 0.000000 0.000000 0.040777 0.000000 -0.002377
# 5 -0.001235 -0.002192 -0.002255 0.000000 0.039240 0.000000
# 6 0.000000 0.000000 0.000000 -0.002377 0.000000 0.041091
#
#
# Mechanical properties :
#
#
# Convention : Reuss Voigt Hill
#
# Bulk Modulus (GPa) = 49.63228 72.63157 61.13192
# Shear Modulus (GPa) = 21.47616 23.77491 22.62553
#
# Velocity S-wave (km/s) = 3.68681 3.87911 3.78418
# Velocity P-wave (km/s) = 7.03822 8.12607 7.60163
#
# Compressibility (1/GPa) = 0.02014818
#
# Stress axis : x y z
#
# Youngs Moduli (GPa) = 57.72024 35.52606 58.49204
#
# Poissons Ratio (x) = 0.19478 0.59078
# Poissons Ratio (y) = 0.31647 0.32918
# Poissons Ratio (z) = 0.58299 0.19993
#
# Static dielectric constant tensor:
#      x y z
#    x 1.508840 0.000000 0.007030 
#    y 0.000000 1.521710 0.000000 
#    z 0.007030 0.000000 1.509770 
# 
# From -- ./inp_files/54365.got.cif
#   From: 2010.05.17/outbox.cif.g08.bks.cpg/sg11_28_cif.got.tgz:54365.got - 2010.06.03 12:22:45.
