data_PCOD9161330
_publ_section_title
;
Structure prediction by ZEFSAII (Michael W. Deem and Ramdas Pophale) SiO2 
 PCOD9161330
Probable space group: P 21/M
;
_chemical_formula_sum "Si O2"
_cell_formula_units_Z 28
_cell_length_a 14.611177
_cell_length_b 8.766196
_cell_length_c 19.695260
_cell_angle_alpha 90.000000
_cell_angle_beta 137.698821
_cell_angle_gamma 90.000000
_cell_volume 1697.817701
_symmetry_space_group_name_H-M "P 21/M"
_symmetry_group_IT_number 11
_symmetry_cell_setting 'monoclinic'
loop_
_space_group_symop_operation_xyz
x,y,z
-x,1/2+y,-z
-x,-y,-z
x,1/2-y,z
loop_
_atom_site_type_symbol
_atom_site_label
_atom_site_fract_x
_atom_site_fract_y
_atom_site_fract_z
Si Si1 0.008958 0.568151 0.614585
Si Si2 0.002964 0.566248 0.108440
Si Si3 0.787681 0.067943 0.390810
Si Si4 0.096099 0.567015 0.308962
Si Si5 0.522061 0.565911 0.302794
Si Si6 0.786334 0.066170 0.893015
Si Si7 0.395931 0.066829 0.497866
O O1 0.998576 0.750000 0.617134
O O2 0.142601 0.532772 0.643322
O O3 0.882386 0.510983 0.499553
O O4 0.997664 0.488229 0.680700
O O5 0.994667 0.750000 0.102427
O O6 0.037224 0.519086 0.203658
O O7 0.125415 0.520201 0.124755
O O8 0.865977 0.498932 0.001327
O O9 0.793690 0.250000 0.403856
O O10 0.636313 0.007975 0.318184
O O11 0.107735 0.750000 0.316159
O O12 0.245429 0.496914 0.402146
O O13 0.530251 0.750000 0.302152
O O14 0.369454 0.517595 0.200303
O O15 0.556251 0.525469 0.399694
O O16 0.788440 0.250000 0.897134
O O17 0.394600 0.250000 0.492480
O O18 0.500000 0.000000 0.500000
#
# Coordination Sequence:
#
# PCOD9161330 Si02
#       7
#     4   4   4   4   4   4   4
#     4  10  20  34  51  75 105 136 172 214 258 308
#     4   9  19  35  53  75 103 134 173 218 256 300
#     4  10  20  33  52  76 103 136 174 213 256 310
#     4  11  21  34  53  77 105 137 173 213 260 311
#     4  10  20  34  52  75 106 138 170 213 260 307
#     4   9  18  34  54  75 101 136 174 212 256 305
#     4  11  22  34  49  73 107 142 171 207 256 309
#
# _framework density 16.491758999999998
#
# number of rings (size 3 to 8) (size 9 to 14) (size 15 to 20)
#    0.000    2.000    1.429    2.571    0.000    6.286 
#    0.000    2.857    0.000    0.857    0.000    0.000 
#    0.000    0.000    0.000    0.000    0.000    0.000 
#
# Total GULP energy -156297.962942 kJ/mol
# GULP energy per Si atom -5582.070105 kJ/mol
# Density = 1.645422 g / cm^3
# Si number density = 16.491759 Si / 1000 Ang^3
#
#
#
# Elastic Constant Matrix: (Units=GPa)
#
#
# Indices 1 2 3 4 5 6 
#
# 1 127.4600 39.9185 87.5218 0.0000 4.9392 0.0000
# 2 39.9185 34.1629 40.3704 0.0000 -0.0443 0.0000
# 3 87.5218 40.3704 144.3095 0.0000 4.3541 0.0000
# 4 0.0000 0.0000 0.0000 26.8684 0.0000 1.0010
# 5 4.9392 -0.0443 4.3541 0.0000 22.5131 0.0000
# 6 0.0000 0.0000 0.0000 1.0010 0.0000 31.1333
#
#
#
# Elastic Compliance Matrix: (Units=1/GPa)
#
#
# Indices 1 2 3 4 5 6 
#
# 1 0.015744 -0.010748 -0.006474 0.000000 -0.002223 0.000000
# 2 -0.010748 0.051201 -0.007925 0.000000 0.003991 0.000000
# 3 -0.006474 -0.007925 0.013107 0.000000 -0.001130 0.000000
# 4 0.000000 0.000000 0.000000 0.037263 0.000000 -0.001198
# 5 -0.002223 0.003991 -0.001130 0.000000 0.045133 0.000000
# 6 0.000000 0.000000 0.000000 -0.001198 0.000000 0.032158
#
#
# Mechanical properties :
#
#
# Convention : Reuss Voigt Hill
#
# Bulk Modulus (GPa) = 33.60628 71.28377 52.44502
# Shear Modulus (GPa) = 19.62165 25.31106 22.46635
#
# Velocity S-wave (km/s) = 3.45307 3.92186 3.69491
# Velocity P-wave (km/s) = 6.02662 7.98910 7.07622
#
# Compressibility (1/GPa) = 0.02975635
#
# Stress axis : x y z
#
# Youngs Moduli (GPa) = 63.51778 19.53094 76.29263
#
# Poissons Ratio (x) = 0.20992 0.49396
# Poissons Ratio (y) = 0.68269 0.60464
# Poissons Ratio (z) = 0.41125 0.15479
#
# Static dielectric constant tensor:
#      x y z
#    x 1.554830 0.000000 -0.003890 
#    y 0.000000 1.555490 0.000000 
#    z -0.003890 0.000000 1.527540 
# 
# From -- ./inp_files/53293.got.cif
#   From: 2010.05.17/outbox.cif.g08.bks.cpg/sg11_27_cif.got.tgz:53293.got - 2010.06.03 12:22:45.
