data_PCOD9161440
_publ_section_title
;
Structure prediction by ZEFSAII (Michael W. Deem and Ramdas Pophale) SiO2 
 PCOD9161440
Probable space group: P 21/M
;
_chemical_formula_sum "Si O2"
_cell_formula_units_Z 32
_cell_length_a 9.679894
_cell_length_b 13.955002
_cell_length_c 23.839846
_cell_angle_alpha 90.000000
_cell_angle_beta 149.796195
_cell_angle_gamma 90.000000
_cell_volume 1620.088383
_symmetry_space_group_name_H-M "P 21/M"
_symmetry_group_IT_number 11
_symmetry_cell_setting 'monoclinic'
loop_
_space_group_symop_operation_xyz
x,y,z
-x,1/2+y,-z
-x,-y,-z
x,1/2-y,z
loop_
_atom_site_type_symbol
_atom_site_label
_atom_site_fract_x
_atom_site_fract_y
_atom_site_fract_z
Si Si1 0.464823 0.021464 0.663594
Si Si2 0.282932 0.636696 0.450178
Si Si3 0.982728 0.360137 0.869769
Si Si4 0.910444 0.863176 0.789046
Si Si5 0.138076 0.360324 0.792242
Si Si6 0.015112 0.473370 0.420997
Si Si7 0.075972 0.136235 0.331572
Si Si8 0.359500 0.526860 0.009833
O O1 0.653309 0.933751 0.707594
O O2 0.249044 0.981334 0.632793
O O3 0.676596 0.097231 0.764477
O O4 0.274661 0.066457 0.547792
O O5 0.272290 0.750000 0.457129
O O6 0.121446 0.578203 0.440292
O O7 0.600871 0.609845 0.557475
O O8 0.126628 0.615269 0.337324
O O9 0.003741 0.250000 0.895139
O O10 0.060491 0.365231 0.830625
O O11 0.195692 0.433620 0.973452
O O12 0.842881 0.750000 0.767265
O O13 0.030640 0.883640 0.768729
O O14 0.133720 0.893349 0.913584
O O15 0.211566 0.250000 0.806032
O O16 0.396518 0.427059 0.869128
O O17 0.957744 0.416713 0.343803
O O18 0.054263 0.250000 0.332669
O O19 0.500000 0.500000 0.000000
#
# Coordination Sequence:
#
# PCOD9161440 Si02
#       8
#     4   4   4   4   4   4   4   4
#     4  10  22  35  51  81 107 152 182 217 272 320
#     4  10  20  33  54  81 112 146 179 222 273 321
#     4   9  18  33  52  76 108 141 181 225 268 319
#     4  10  20  36  57  80 111 142 178 224 271 324
#     4   9  17  30  52  83 110 139 181 228 273 318
#     4  11  22  34  53  77 115 144 184 223 265 324
#     4  10  21  35  55  82 109 145 181 221 277 323
#     4   9  18  30  53  83 111 135 178 224 280 316
#
# _framework density 19.752009000000001
#
# number of rings (size 3 to 8) (size 9 to 14) (size 15 to 20)
#    0.000    2.250    1.250    1.500    5.250    3.000 
#    0.000    2.500    0.000    3.000    0.000    1.750 
#    0.000    0.000    0.000    0.000    0.000    0.000 
#
# Total GULP energy -178590.107044 kJ/mol
# GULP energy per Si atom -5580.940845 kJ/mol
# Density = 1.970705 g / cm^3
# Si number density = 19.752009 Si / 1000 Ang^3
#
#
#
# Elastic Constant Matrix: (Units=GPa)
#
#
# Indices 1 2 3 4 5 6 
#
# 1 51.5815 15.1716 -3.0807 0.0000 5.9245 0.0000
# 2 15.1716 83.8246 30.2245 0.0000 4.7360 0.0000
# 3 -3.0807 30.2245 63.6071 0.0000 7.8496 0.0000
# 4 0.0000 0.0000 0.0000 22.4938 0.0000 -2.0282
# 5 5.9245 4.7360 7.8496 0.0000 18.3653 0.0000
# 6 0.0000 0.0000 0.0000 -2.0282 0.0000 11.9491
#
#
#
# Elastic Compliance Matrix: (Units=1/GPa)
#
#
# Indices 1 2 3 4 5 6 
#
# 1 0.022059 -0.005171 0.004475 0.000000 -0.007695 0.000000
# 2 -0.005171 0.015621 -0.007793 0.000000 0.000971 0.000000
# 3 0.004475 -0.007793 0.020661 0.000000 -0.008265 0.000000
# 4 0.000000 0.000000 0.000000 0.045148 0.000000 0.007663
# 5 -0.007695 0.000971 -0.008265 0.000000 0.060215 0.000000
# 6 0.000000 0.000000 0.000000 0.007663 0.000000 0.084989
#
#
# Mechanical properties :
#
#
# Convention : Reuss Voigt Hill
#
# Bulk Modulus (GPa) = 24.17610 31.51599 27.84604
# Shear Modulus (GPa) = 17.89173 21.00814 19.44993
#
# Velocity S-wave (km/s) = 3.01295 3.26482 3.14141
# Velocity P-wave (km/s) = 4.93662 5.49568 5.22363
#
# Compressibility (1/GPa) = 0.04136317
#
# Stress axis : x y z
#
# Youngs Moduli (GPa) = 45.33292 64.01782 48.39992
#
# Poissons Ratio (x) = 0.33106 -0.21661
# Poissons Ratio (y) = 0.23444 0.37717
# Poissons Ratio (z) = -0.20288 0.49888
#
# Static dielectric constant tensor:
#      x y z
#    x 1.666550 0.000000 -0.025920 
#    y 0.000000 1.724890 0.000000 
#    z -0.025920 0.000000 1.731800 
# 
# From -- ./inp_files/55018.got.cif
#   From: 2010.05.17/outbox.cif.g08.bks.cpg/sg11_28_cif.got.tgz:55018.got - 2010.06.03 12:22:45.
