data_PCOD9161855
_publ_section_title
;
Structure prediction by ZEFSAII (Michael W. Deem and Ramdas Pophale) SiO2 
 PCOD9161855
Probable space group: P 21/M
;
_chemical_formula_sum "Si O2"
_cell_formula_units_Z 28
_cell_length_a 12.416801
_cell_length_b 7.599279
_cell_length_c 17.495679
_cell_angle_alpha 90.000000
_cell_angle_beta 135.748666
_cell_angle_gamma 90.000000
_cell_volume 1151.988966
_symmetry_space_group_name_H-M "P 21/M"
_symmetry_group_IT_number 11
_symmetry_cell_setting 'monoclinic'
loop_
_space_group_symop_operation_xyz
x,y,z
-x,1/2+y,-z
-x,-y,-z
x,1/2-y,z
loop_
_atom_site_type_symbol
_atom_site_label
_atom_site_fract_x
_atom_site_fract_y
_atom_site_fract_z
Si Si1 0.756082 0.542261 0.970738
Si Si2 0.167361 0.962661 0.831237
Si Si3 0.339501 0.543067 0.237070
Si Si4 0.679001 0.039771 0.604801
Si Si5 0.432409 0.543395 0.866369
Si Si6 0.324008 0.035771 0.649881
Si Si7 0.093410 0.050077 0.410173
O O1 0.739638 0.750000 0.954161
O O2 0.772757 0.477181 0.892789
O O3 0.593549 0.462687 0.919611
O O4 0.867965 0.510005 0.099060
O O5 0.166088 0.750000 0.826952
O O6 0.335893 0.027953 0.888818
O O7 0.047326 0.033042 0.707881
O O8 0.362007 0.750000 0.260571
O O9 0.283356 0.475168 0.290169
O O10 0.510629 0.473776 0.301201
O O11 0.706583 0.250000 0.612340
O O12 0.500000 0.000000 0.500000
O O13 0.774580 0.947086 0.587510
O O14 0.457371 0.750000 0.892288
O O15 0.323535 0.523971 0.736776
O O16 0.323800 0.250000 0.647548
O O17 0.178513 0.971031 0.526901
O O18 0.048635 0.250000 0.407716
#
# Coordination Sequence:
#
# PCOD9161855 Si02
#       7
#     4   4   4   4   4   4   4
#     4  10  20  34  55  81 108 136 181 232 267 312
#     4  10  21  37  55  74 108 150 182 220 271 325
#     4   9  18  34  55  79 107 138 174 215 267 321
#     4  11  21  35  58  85 111 141 177 220 266 321
#     4   9  19  34  53  80 107 139 182 226 270 316
#     4   9  17  32  52  77 108 140 174 218 268 320
#     4  10  21  37  54  78 111 146 182 219 268 325
#
# _framework density 24.305788
#
# number of rings (size 3 to 8) (size 9 to 14) (size 15 to 20)
#    0.000    2.286    1.429    1.286    0.000    4.000 
#    0.000    0.714    0.000    0.000    0.000    0.000 
#    0.000    0.000    0.000    0.000    0.000    0.000 
#
# Total GULP energy -156355.425717 kJ/mol
# GULP energy per Si atom -5584.122347 kJ/mol
# Density = 2.425047 g / cm^3
# Si number density = 24.305788 Si / 1000 Ang^3
#
#
#
# Elastic Constant Matrix: (Units=GPa)
#
#
# Indices 1 2 3 4 5 6 
#
# 1 29.6970 -7.1888 0.7982 0.0000 -14.5674 0.0000
# 2 -7.1888 72.9089 -1.3330 0.0000 0.1092 0.0000
# 3 0.7982 -1.3330 116.5663 0.0000 -31.4613 0.0000
# 4 0.0000 0.0000 0.0000 17.5822 0.0000 -5.7551
# 5 -14.5674 0.1092 -31.4613 0.0000 44.6098 0.0000
# 6 0.0000 0.0000 0.0000 -5.7551 0.0000 9.9948
#
#
#
# Elastic Compliance Matrix: (Units=1/GPa)
#
#
# Indices 1 2 3 4 5 6 
#
# 1 0.042989 0.004293 0.004373 0.000000 0.017112 0.000000
# 2 0.004293 0.014148 0.000619 0.000000 0.001804 0.000000
# 3 0.004373 0.000619 0.011043 0.000000 0.009215 0.000000
# 4 0.000000 0.000000 0.000000 0.070085 0.000000 0.040355
# 5 0.017112 0.001804 0.009215 0.000000 0.034499 0.000000
# 6 0.000000 0.000000 0.000000 0.040355 0.000000 0.123288
#
#
# Mechanical properties :
#
#
# Convention : Reuss Voigt Hill
#
# Bulk Modulus (GPa) = 11.52728 22.63613 17.08171
# Shear Modulus (GPa) = 16.31867 29.56376 22.94121
#
# Velocity S-wave (km/s) = 2.59393 3.49137 3.07556
# Velocity P-wave (km/s) = 3.70462 5.05828 4.43342
#
# Compressibility (1/GPa) = 0.08675072
#
# Stress axis : x y z
#
# Youngs Moduli (GPa) = 23.26173 70.68310 90.55517
#
# Poissons Ratio (x) = -0.30344 -0.39602
# Poissons Ratio (y) = -0.09986 -0.05608
# Poissons Ratio (z) = -0.10173 -0.04377
#
# Static dielectric constant tensor:
#      x y z
#    x 1.935560 0.000000 0.024480 
#    y 0.000000 1.876410 0.000000 
#    z 0.024480 0.000000 2.026730 
# 
# From -- ./inp_files/37678.got.cif
#   From: 2010.05.17/outbox.cif.g08.bks.cpg/sg11_19_cif.got.tgz:37678.got - 2010.06.03 12:22:45.
