data_PCOD9161219
_publ_section_title
;
Structure prediction by ZEFSAII (Michael W. Deem and Ramdas Pophale) SiO2 
 PCOD9161219
Probable space group: P 21/M
;
_chemical_formula_sum "Si O2"
_cell_formula_units_Z 32
_cell_length_a 23.431195
_cell_length_b 9.222811
_cell_length_c 21.013826
_cell_angle_alpha 90.000000
_cell_angle_beta 163.289590
_cell_angle_gamma 90.000000
_cell_volume 1305.728555
_symmetry_space_group_name_H-M "P 21/M"
_symmetry_group_IT_number 11
_symmetry_cell_setting 'monoclinic'
loop_
_space_group_symop_operation_xyz
x,y,z
-x,1/2+y,-z
-x,-y,-z
x,1/2-y,z
loop_
_atom_site_type_symbol
_atom_site_label
_atom_site_fract_x
_atom_site_fract_y
_atom_site_fract_z
Si Si1 0.240922 0.413110 0.278556
Si Si2 0.455788 0.415795 0.747135
Si Si3 0.370772 0.415343 0.952649
Si Si4 0.021451 0.084727 0.352027
Si Si5 0.729891 0.413139 0.561463
Si Si6 0.844253 0.913796 0.051927
Si Si7 0.288036 0.588224 0.208819
Si Si8 0.805252 0.415315 0.348674
O O1 0.158886 0.250000 0.186036
O O2 0.223087 0.486893 0.328118
O O3 0.183134 0.515057 0.157620
O O4 0.480260 0.398288 0.527842
O O5 0.505522 0.250000 0.783784
O O6 0.595849 0.484128 0.950552
O O7 0.236823 0.412180 0.546662
O O8 0.427996 0.514160 0.654912
O O9 0.321320 0.250000 0.917153
O O10 0.587068 0.411152 0.149094
O O11 0.224610 0.483211 0.744294
O O12 0.975128 0.250000 0.320538
O O13 0.052768 0.982719 0.446244
O O14 0.869162 0.018026 0.138774
O O15 0.674095 0.250000 0.522043
O O16 0.932156 0.402967 0.737421
O O17 0.781562 0.750000 0.001079
O O18 0.728522 0.985547 0.869897
O O19 0.210583 0.750000 0.111909
O O20 0.855173 0.250000 0.384859
#
# Coordination Sequence:
#
# PCOD9161219 Si02
#       8
#     4   4   4   4   4   4   4   4
#     4  10  21  37  56  76  98 126 160 198 241 288
#     4   9  16  26  40  59  86 120 156 195 239 284
#     4   9  15  22  33  51  78 114 155 195 235 282
#     4   9  16  26  40  59  86 120 156 195 239 284
#     4  10  20  33  50  73 100 130 163 199 241 289
#     4  10  20  33  50  73 100 130 163 199 241 289
#     4  10  21  37  56  76  98 126 160 198 241 288
#     4   9  15  22  33  51  78 114 155 195 235 282
#
# _framework density 24.507390000000001
#
# number of rings (size 3 to 8) (size 9 to 14) (size 15 to 20)
#    0.000    2.500    0.000    3.000    0.000    9.500 
#    0.000    0.000    0.000    0.000    0.000    0.000 
#    0.000    1.000    0.000    3.750    0.000    8.250 
#
# Total GULP energy -179270.036959 kJ/mol
# GULP energy per Si atom -5602.188655 kJ/mol
# Density = 2.445161 g / cm^3
# Si number density = 24.507390 Si / 1000 Ang^3
#
#
#
# Elastic Constant Matrix: (Units=GPa)
#
#
# Indices 1 2 3 4 5 6 
#
# 1 79.1119 23.4541 0.1860 0.0000 -12.6565 0.0000
# 2 23.4541 209.9806 35.4946 0.0000 -42.0307 0.0000
# 3 0.1860 35.4946 103.0626 0.0000 -23.9949 0.0000
# 4 0.0000 0.0000 0.0000 35.7928 0.0000 -9.9870
# 5 -12.6565 -42.0307 -23.9949 0.0000 51.0620 0.0000
# 6 0.0000 0.0000 0.0000 -9.9870 0.0000 34.0164
#
#
#
# Elastic Compliance Matrix: (Units=1/GPa)
#
#
# Indices 1 2 3 4 5 6 
#
# 1 0.013427 -0.001091 0.001030 0.000000 0.002915 0.000000
# 2 -0.001091 0.005880 -0.001077 0.000000 0.004063 0.000000
# 3 0.001030 -0.001077 0.011144 0.000000 0.004606 0.000000
# 4 0.000000 0.000000 0.000000 0.030432 0.000000 0.008934
# 5 0.002915 0.004063 0.004606 0.000000 0.025815 0.000000
# 6 0.000000 0.000000 0.000000 0.008934 0.000000 0.032021
#
#
# Mechanical properties :
#
#
# Convention : Reuss Voigt Hill
#
# Bulk Modulus (GPa) = 35.49112 56.71385 46.10249
# Shear Modulus (GPa) = 38.34775 46.37559 42.36167
#
# Velocity S-wave (km/s) = 3.95997 4.35479 4.16207
# Velocity P-wave (km/s) = 5.95162 6.96257 6.47685
#
# Compressibility (1/GPa) = 0.02817606
#
# Stress axis : x y z
#
# Youngs Moduli (GPa) = 74.47417 170.08226 89.73310
#
# Poissons Ratio (x) = 0.18548 -0.09242
# Poissons Ratio (y) = 0.08121 0.09664
# Poissons Ratio (z) = -0.07670 0.18317
#
# Static dielectric constant tensor:
#      x y z
#    x 1.955920 0.000000 0.127950 
#    y 0.000000 1.860900 0.000000 
#    z 0.127950 0.000000 1.950310 
# 
# From -- ./inp_files/67035.got.cif
#   From: 2010.05.17/outbox.cif.g08.bks.cpg/sg11_34_cif.got.tgz:67035.got - 2010.06.03 12:22:45.
