data_PCOD9161680
_publ_section_title
;
Structure prediction by ZEFSAII (Michael W. Deem and Ramdas Pophale) SiO2 
 PCOD9161680
Probable space group: P 21/M
;
_chemical_formula_sum "Si O2"
_cell_formula_units_Z 32
_cell_length_a 22.694567
_cell_length_b 8.793082
_cell_length_c 29.005319
_cell_angle_alpha 90.000000
_cell_angle_beta 18.674857
_cell_angle_gamma 90.000000
_cell_volume 1853.353797
_symmetry_space_group_name_H-M "P 21/M"
_symmetry_group_IT_number 11
_symmetry_cell_setting 'monoclinic'
loop_
_space_group_symop_operation_xyz
x,y,z
-x,1/2+y,-z
-x,-y,-z
x,1/2-y,z
loop_
_atom_site_type_symbol
_atom_site_label
_atom_site_fract_x
_atom_site_fract_y
_atom_site_fract_z
Si Si1 0.008399 0.066367 0.194875
Si Si2 0.004633 0.933564 0.945706
Si Si3 0.701627 0.432394 0.843756
Si Si4 0.296839 0.435037 0.905038
Si Si5 0.284340 0.933266 0.415076
Si Si6 0.010167 0.068458 0.689891
Si Si7 0.297290 0.566860 0.652933
Si Si8 0.977639 0.567725 0.567192
O O1 0.010461 0.250000 0.196781
O O2 0.830259 0.023816 0.296210
O O3 0.005284 0.996665 0.247586
O O4 0.186025 0.018735 0.033032
O O5 0.004295 0.750000 0.948363
O O6 0.183337 0.979379 0.783146
O O7 0.827242 0.980328 0.046790
O O8 0.000000 0.000000 0.000000
O O9 0.693383 0.250000 0.846431
O O10 0.833391 0.472892 0.789397
O O11 0.803024 0.499466 0.723677
O O12 0.500000 0.500000 0.000000
O O13 0.298507 0.250000 0.904168
O O14 0.506688 0.486615 0.746500
O O15 0.284895 0.750000 0.419155
O O16 0.155220 0.971232 0.467134
O O17 0.186189 0.002639 0.532475
O O18 0.022076 0.250000 0.682499
O O19 0.500000 0.500000 0.500000
O O20 0.307894 0.750000 0.645411
O O21 0.962235 0.750000 0.576571
O O22 0.000000 0.500000 0.500000
#
# Coordination Sequence:
#
# PCOD9161680 Si02
#       8
#     4   4   4   4   4   4   4   4
#     4   9  18  34  54  74  99 134 172 208 249 301
#     4   9  18  33  51  72  99 128 161 204 249 294
#     4  10  21  37  55  76 104 137 173 213 259 310
#     4   8  16  33  54  73  95 126 167 209 243 285
#     4   9  18  34  55  76  98 131 172 206 243 298
#     4  10  21  35  51  76 107 134 163 206 256 300
#     4   9  19  34  51  73 101 133 170 210 252 299
#     4  10  20  34  53  78 107 137 171 212 256 305
#
# _framework density 17.265995
#
# number of rings (size 3 to 8) (size 9 to 14) (size 15 to 20)
#    0.000    2.750    0.000    2.625    0.000    5.000 
#    0.000    8.125    0.000    0.000    0.000    0.000 
#    0.000    0.000    0.000    0.000    0.000    0.000 
#
# Total GULP energy -178466.774392 kJ/mol
# GULP energy per Si atom -5577.086700 kJ/mol
# Density = 1.722670 g / cm^3
# Si number density = 17.265995 Si / 1000 Ang^3
#
#
#
# Elastic Constant Matrix: (Units=GPa)
#
#
# Indices 1 2 3 4 5 6 
#
# 1 150.2053 42.4348 110.2978 0.0000 33.8029 0.0000
# 2 42.4348 25.6277 46.5053 0.0000 5.1045 0.0000
# 3 110.2978 46.5053 200.9652 0.0000 1.4799 0.0000
# 4 0.0000 0.0000 0.0000 26.7404 0.0000 3.7506
# 5 33.8029 5.1045 1.4799 0.0000 21.8004 0.0000
# 6 0.0000 0.0000 0.0000 3.7506 0.0000 33.0230
#
#
#
# Elastic Compliance Matrix: (Units=1/GPa)
#
#
# Indices 1 2 3 4 5 6 
#
# 1 0.030384 -0.021319 -0.011438 0.000000 -0.041343 0.000000
# 2 -0.021319 0.087291 -0.008596 0.000000 0.013201 0.000000
# 3 -0.011438 -0.008596 0.013104 0.000000 0.018858 0.000000
# 4 0.000000 0.000000 0.000000 0.038002 0.000000 -0.004316
# 5 -0.041343 0.013201 0.018858 0.000000 0.105605 0.000000
# 6 0.000000 0.000000 0.000000 -0.004316 0.000000 0.030772
#
#
# Mechanical properties :
#
#
# Convention : Reuss Voigt Hill
#
# Bulk Modulus (GPa) = 20.80224 86.14156 53.47190
# Shear Modulus (GPa) = 12.37966 28.15010 20.26488
#
# Velocity S-wave (km/s) = 2.68058 4.04217 3.42963
# Velocity P-wave (km/s) = 4.65349 8.47259 6.83519
#
# Compressibility (1/GPa) = 0.04807175
#
# Stress axis : x y z
#
# Youngs Moduli (GPa) = 32.91258 11.45591 76.31319
#
# Poissons Ratio (x) = 0.24423 0.87285
# Poissons Ratio (y) = 0.70167 0.65602
# Poissons Ratio (z) = 0.37645 0.09848
#
# Static dielectric constant tensor:
#      x y z
#    x 1.563750 0.000000 -0.010970 
#    y 0.000000 1.583220 0.000000 
#    z -0.010970 0.000000 1.571040 
# 
# From -- ./inp_files/67158.got.cif
#   From: 2010.05.17/outbox.cif.g08.bks.cpg/sg11_34_cif.got.tgz:67158.got - 2010.06.03 12:22:45.
