data_PCOD9161789
_publ_section_title
;
Structure prediction by ZEFSAII (Michael W. Deem and Ramdas Pophale) SiO2 
 PCOD9161789
Probable space group: P 21/M
;
_chemical_formula_sum "Si O2"
_cell_formula_units_Z 24
_cell_length_a 20.430926
_cell_length_b 9.441850
_cell_length_c 10.725285
_cell_angle_alpha 90.000000
_cell_angle_beta 34.946896
_cell_angle_gamma 90.000000
_cell_volume 1185.140563
_symmetry_space_group_name_H-M "P 21/M"
_symmetry_group_IT_number 11
_symmetry_cell_setting 'monoclinic'
loop_
_space_group_symop_operation_xyz
x,y,z
-x,1/2+y,-z
-x,-y,-z
x,1/2-y,z
loop_
_atom_site_type_symbol
_atom_site_label
_atom_site_fract_x
_atom_site_fract_y
_atom_site_fract_z
Si Si1 0.115325 0.913633 0.298271
Si Si2 0.885935 0.417042 0.211144
Si Si3 0.306976 0.085461 0.869591
Si Si4 0.549798 0.913235 0.096076
Si Si5 0.342516 0.916219 0.576922
Si Si6 0.738957 0.087271 0.673682
O O1 0.094183 0.750000 0.295808
O O2 0.187132 0.913183 0.314750
O O3 0.000000 0.000000 0.500000
O O4 0.193841 0.995208 0.076538
O O5 0.912035 0.250000 0.187556
O O6 0.789258 0.429565 0.256154
O O7 0.821604 0.469849 0.436538
O O8 0.000000 0.500000 0.000000
O O9 0.280851 0.250000 0.886406
O O10 0.384188 0.079057 0.873305
O O11 0.365503 0.013491 0.659515
O O12 0.550577 0.750000 0.054039
O O13 0.421995 0.955577 0.334997
O O14 0.622576 0.005884 0.887037
O O15 0.366544 0.750000 0.566764
O O16 0.711808 0.250000 0.682565
#
# Coordination Sequence:
#
# PCOD9161789 Si02
#       6
#     4   4   4   4   4   4
#     4  10  20  34  54  80 110 146 185 231 282 332
#     4  10  23  41  58  80 111 149 188 231 278 328
#     4  10  20  34  54  83 115 147 185 228 276 336
#     4   9  19  36  58  85 115 145 182 229 281 335
#     4  10  21  37  57  83 115 150 186 229 280 329
#     4   9  20  38  57  79 111 145 182 231 279 328
#
# _framework density 20.250762000000002
#
# number of rings (size 3 to 8) (size 9 to 14) (size 15 to 20)
#    0.000    2.333    0.000    1.500    2.333    4.000 
#    0.000    0.000    0.000    0.000    0.000    0.000 
#    0.000    0.000    0.000    0.000    0.000    0.000 
#
# Total GULP energy -134058.568266 kJ/mol
# GULP energy per Si atom -5585.773678 kJ/mol
# Density = 2.020467 g / cm^3
# Si number density = 20.250762 Si / 1000 Ang^3
#
#
#
# Elastic Constant Matrix: (Units=GPa)
#
#
# Indices 1 2 3 4 5 6 
#
# 1 31.6791 33.4469 38.3692 0.0000 3.9046 0.0000
# 2 33.4469 102.1705 79.8257 0.0000 -2.5724 0.0000
# 3 38.3692 79.8257 169.8923 0.0000 -5.4940 0.0000
# 4 0.0000 0.0000 0.0000 43.9416 0.0000 0.8665
# 5 3.9046 -2.5724 -5.4940 0.0000 41.9750 0.0000
# 6 0.0000 0.0000 0.0000 0.8665 0.0000 17.3518
#
#
#
# Elastic Compliance Matrix: (Units=1/GPa)
#
#
# Indices 1 2 3 4 5 6 
#
# 1 0.053464 -0.012747 -0.006298 0.000000 -0.006579 0.000000
# 2 -0.012747 0.018504 -0.005765 0.000000 0.001565 0.000000
# 3 -0.006298 -0.005765 0.010067 0.000000 0.001550 0.000000
# 4 0.000000 0.000000 0.000000 0.022780 0.000000 -0.001138
# 5 -0.006579 0.001565 0.001550 0.000000 0.024735 0.000000
# 6 0.000000 0.000000 0.000000 -0.001138 0.000000 0.057688
#
#
# Mechanical properties :
#
#
# Convention : Reuss Voigt Hill
#
# Bulk Modulus (GPa) = 30.84961 67.44728 49.14844
# Shear Modulus (GPa) = 20.18877 30.79366 25.49121
#
# Velocity S-wave (km/s) = 3.16086 3.90374 3.55178
# Velocity P-wave (km/s) = 5.34680 7.32784 6.41426
#
# Compressibility (1/GPa) = 0.03241532
#
# Stress axis : x y z
#
# Youngs Moduli (GPa) = 18.70418 54.04246 99.33269
#
# Poissons Ratio (x) = 0.68890 0.62558
# Poissons Ratio (y) = 0.23843 0.57263
# Poissons Ratio (z) = 0.11780 0.31154
#
# Static dielectric constant tensor:
#      x y z
#    x 1.757830 0.000000 0.001360 
#    y 0.000000 1.684520 0.000000 
#    z 0.001360 0.000000 1.708980 
# 
# From -- ./inp_files/33887.got.cif
#   From: 2010.05.17/outbox.cif.g08.bks.cpg/sg11_17_cif.got.tgz:33887.got - 2010.06.03 12:22:45.
