data_PCOD9161518
_publ_section_title
;
Structure prediction by ZEFSAII (Michael W. Deem and Ramdas Pophale) SiO2 
 PCOD9161518
Probable space group: P 21/M
;
_chemical_formula_sum "Si O2"
_cell_formula_units_Z 32
_cell_length_a 18.024015
_cell_length_b 7.571940
_cell_length_c 15.201491
_cell_angle_alpha 90.000000
_cell_angle_beta 36.072464
_cell_angle_gamma 90.000000
_cell_volume 1221.570606
_symmetry_space_group_name_H-M "P 21/M"
_symmetry_group_IT_number 11
_symmetry_cell_setting 'monoclinic'
loop_
_space_group_symop_operation_xyz
x,y,z
-x,1/2+y,-z
-x,-y,-z
x,1/2-y,z
loop_
_atom_site_type_symbol
_atom_site_label
_atom_site_fract_x
_atom_site_fract_y
_atom_site_fract_z
Si Si1 0.536137 0.547974 0.063197
Si Si2 0.302732 0.049709 0.950232
Si Si3 0.289395 0.034853 0.694285
Si Si4 0.038850 0.537528 0.690588
Si Si5 0.492042 0.044174 0.372926
Si Si6 0.119341 0.461973 0.322991
Si Si7 0.731758 0.958298 0.655824
Si Si8 0.909117 0.535276 0.981598
O O1 0.573694 0.750000 0.025172
O O2 0.653662 0.460698 0.001038
O O3 0.403699 0.528490 0.239022
O O4 0.500000 0.500000 0.000000
O O5 0.256742 0.250000 0.007044
O O6 0.203991 0.975951 0.975813
O O7 0.435651 0.057388 0.772013
O O8 0.290034 0.250000 0.696246
O O9 0.354566 0.983281 0.539231
O O10 0.151393 0.977952 0.865580
O O11 0.400638 0.970483 0.653272
O O12 0.034571 0.750000 0.696927
O O13 0.925931 0.477898 0.731146
O O14 0.164883 0.488617 0.518174
O O15 0.023320 0.476574 0.807316
O O16 0.480940 0.250000 0.358628
O O17 0.133932 0.250000 0.302882
O O18 0.225999 0.530408 0.288425
O O19 0.000000 0.500000 0.500000
O O20 0.718211 0.750000 0.679589
O O21 0.916787 0.750000 0.981218
#
# Coordination Sequence:
#
# PCOD9161518 Si02
#       8
#     4   4   4   4   4   4   4   4
#     4  11  24  39  55  72  94 126 165 206 245 287
#     4   9  19  34  50  68  95 130 164 198 242 292
#     4   8  14  25  40  65  99 133 161 189 237 291
#     4   9  16  28  49  71  92 122 161 197 233 285
#     4   9  15  24  43  67  95 127 162 200 234 282
#     4   8  15  26  43  64  86 114 150 192 233 274
#     4  10  20  34  50  68  95 125 158 201 244 286
#     4   8  14  26  47  71  97 127 158 191 232 286
#
# _framework density 26.195785000000001
#
# number of rings (size 3 to 8) (size 9 to 14) (size 15 to 20)
#    0.000    3.000    0.000    1.875    1.750    2.000 
#    0.000    2.500    0.000    0.000    0.000    0.875 
#    0.000    0.000    0.000    0.000    0.000    0.000 
#
# Total GULP energy -178282.108624 kJ/mol
# GULP energy per Si atom -5571.315895 kJ/mol
# Density = 2.613616 g / cm^3
# Si number density = 26.195785 Si / 1000 Ang^3
#
#
#
# Elastic Constant Matrix: (Units=GPa)
#
#
# Indices 1 2 3 4 5 6 
#
# 1 57.6135 -5.4239 -10.6172 0.0000 12.9577 0.0000
# 2 -5.4239 65.3467 2.1024 0.0000 3.8572 0.0000
# 3 -10.6172 2.1024 145.9442 0.0000 18.1111 0.0000
# 4 0.0000 0.0000 0.0000 18.2688 0.0000 3.6051
# 5 12.9577 3.8572 18.1111 0.0000 32.9947 0.0000
# 6 0.0000 0.0000 0.0000 3.6051 0.0000 2.8682
#
#
#
# Elastic Compliance Matrix: (Units=1/GPa)
#
#
# Indices 1 2 3 4 5 6 
#
# 1 0.020214 0.002162 0.002635 0.000000 -0.009638 0.000000
# 2 0.002162 0.015641 0.000284 0.000000 -0.002833 0.000000
# 3 0.002635 0.000284 0.007696 0.000000 -0.005293 0.000000
# 4 0.000000 0.000000 0.000000 0.072794 0.000000 -0.091496
# 5 -0.009638 -0.002833 -0.005293 0.000000 0.037329 0.000000
# 6 0.000000 0.000000 0.000000 -0.091496 0.000000 0.463657
#
#
# Mechanical properties :
#
#
# Convention : Reuss Voigt Hill
#
# Bulk Modulus (GPa) = 18.61771 26.78077 22.69924
# Shear Modulus (GPa) = 7.99906 29.68254 18.84080
#
# Velocity S-wave (km/s) = 1.74934 3.36981 2.68476
# Velocity P-wave (km/s) = 3.34706 5.03849 4.27722
#
# Compressibility (1/GPa) = 0.05371230
#
# Stress axis : x y z
#
# Youngs Moduli (GPa) = 49.47113 63.93639 129.93125
#
# Poissons Ratio (x) = -0.13822 -0.34242
# Poissons Ratio (y) = -0.10695 -0.03684
# Poissons Ratio (z) = -0.13038 -0.01813
#
# Static dielectric constant tensor:
#      x y z
#    x 2.495870 0.000000 -0.008090 
#    y 0.000000 1.991910 0.000000 
#    z -0.008090 0.000000 2.214360 
# 
# From -- ./inp_files/61749.got.cif
#   From: 2010.05.17/outbox.cif.g08.bks.cpg/sg11_31_cif.got.tgz:61749.got - 2010.06.03 12:22:45.
