data_PCOD9161100
_publ_section_title
;
Structure prediction by ZEFSAII (Michael W. Deem and Ramdas Pophale) SiO2 
 PCOD9161100
Probable space group: P 21/M
;
_chemical_formula_sum "Si O2"
_cell_formula_units_Z 32
_cell_length_a 14.821677
_cell_length_b 23.739983
_cell_length_c 15.020847
_cell_angle_alpha 90.000000
_cell_angle_beta 160.851856
_cell_angle_gamma 90.000000
_cell_volume 1733.650839
_symmetry_space_group_name_H-M "P 21/M"
_symmetry_group_IT_number 11
_symmetry_cell_setting 'monoclinic'
loop_
_space_group_symop_operation_xyz
x,y,z
-x,1/2+y,-z
-x,-y,-z
x,1/2-y,z
loop_
_atom_site_type_symbol
_atom_site_label
_atom_site_fract_x
_atom_site_fract_y
_atom_site_fract_z
Si Si1 0.690235 0.428648 0.846685
Si Si2 0.899454 0.906602 0.625033
Si Si3 0.491504 0.081894 0.151879
Si Si4 0.961863 0.987484 0.360841
Si Si5 0.761993 0.684176 0.350669
Si Si6 0.560327 0.065379 0.531292
Si Si7 0.857354 0.559612 0.999702
Si Si8 0.655580 0.184105 0.188760
O O1 0.388146 0.431142 0.607400
O O2 0.642924 0.407386 0.702111
O O3 0.814317 0.491838 0.958928
O O4 0.896740 0.394602 0.102779
O O5 0.821055 0.854158 0.490334
O O6 0.041212 0.954494 0.696797
O O7 0.779760 0.049480 0.432463
O O8 0.302861 0.081830 0.063731
O O9 0.552019 0.143123 0.168760
O O10 0.315339 0.046585 0.915934
O O11 0.000000 0.000000 0.500000
O O12 0.744811 0.750000 0.359252
O O13 0.020183 0.677416 0.524705
O O14 0.493485 0.668585 0.043436
O O15 0.291388 0.083795 0.227169
O O16 0.500000 0.000000 0.500000
O O17 0.819307 0.069585 0.706726
O O18 0.594307 0.250000 0.148178
#
# Coordination Sequence:
#
# PCOD9161100 Si02
#       8
#     4   4   4   4   4   4   4   4
#     4  11  20  33  50  77 108 139 175 212 258 321
#     4  12  20  34  52  78 107 140 174 215 261 313
#     4  12  22  35  53  79 107 141 176 216 264 312
#     4  12  23  34  49  75 114 144 170 204 268 329
#     4  10  22  39  57  76 103 140 186 227 257 297
#     4  10  20  32  52  72 105 146 174 207 263 311
#     4  11  19  34  49  76 110 139 174 214 257 320
#     4  10  21  39  57  76 102 139 186 226 256 298
#
# _framework density 18.458158999999998
#
# number of rings (size 3 to 8) (size 9 to 14) (size 15 to 20)
#    0.000    1.000    2.500    7.875    0.000    0.000 
#    0.000    0.000    0.000    0.000    0.000    5.250 
#    0.000    0.000    0.000    0.000    0.000    0.000 
#
# Total GULP energy -178821.481795 kJ/mol
# GULP energy per Si atom -5588.171306 kJ/mol
# Density = 1.841615 g / cm^3
# Si number density = 18.458159 Si / 1000 Ang^3
#
#
#
# Elastic Constant Matrix: (Units=GPa)
#
#
# Indices 1 2 3 4 5 6 
#
# 1 54.6216 13.6322 -9.9846 0.0000 -6.5358 0.0000
# 2 13.6322 37.3515 -3.2814 0.0000 -4.0050 0.0000
# 3 -9.9846 -3.2814 65.3791 0.0000 1.0922 0.0000
# 4 0.0000 0.0000 0.0000 14.6817 0.0000 2.0775
# 5 -6.5358 -4.0050 1.0922 0.0000 33.9337 0.0000
# 6 0.0000 0.0000 0.0000 2.0775 0.0000 7.6595
#
#
#
# Elastic Compliance Matrix: (Units=1/GPa)
#
#
# Indices 1 2 3 4 5 6 
#
# 1 0.020955 -0.007069 0.002793 0.000000 0.003112 0.000000
# 2 -0.007069 0.029613 0.000371 0.000000 0.002122 0.000000
# 3 0.002793 0.000371 0.015739 0.000000 0.000075 0.000000
# 4 0.000000 0.000000 0.000000 0.070830 0.000000 -0.019211
# 5 0.003112 0.002122 0.000075 0.000000 0.030317 0.000000
# 6 0.000000 0.000000 0.000000 -0.019211 0.000000 0.135767
#
#
# Mechanical properties :
#
#
# Convention : Reuss Voigt Hill
#
# Bulk Modulus (GPa) = 17.09436 17.56495 17.32965
# Shear Modulus (GPa) = 15.12726 21.72071 18.42398
#
# Velocity S-wave (km/s) = 2.86587 3.43411 3.16278
# Velocity P-wave (km/s) = 4.49802 5.02602 4.76933
#
# Compressibility (1/GPa) = 0.05849881
#
# Stress axis : x y z
#
# Youngs Moduli (GPa) = 47.72140 33.76925 63.53480
#
# Poissons Ratio (x) = 0.23871 -0.17748
# Poissons Ratio (y) = 0.33734 -0.02359
# Poissons Ratio (z) = -0.13331 -0.01254
#
# Static dielectric constant tensor:
#      x y z
#    x 1.663260 0.000000 -0.020980 
#    y 0.000000 1.609730 0.000000 
#    z -0.020980 0.000000 1.661090 
# 
# From -- ./inp_files/52686.got.cif
#   From: 2010.05.17/outbox.cif.g08.bks.cpg/sg11_27_cif.got.tgz:52686.got - 2010.06.03 12:22:45.
