data_PCOD9161303
_publ_section_title
;
Structure prediction by ZEFSAII (Michael W. Deem and Ramdas Pophale) SiO2 
 PCOD9161303
Probable space group: P 21/M
;
_chemical_formula_sum "Si O2"
_cell_formula_units_Z 32
_cell_length_a 22.234557
_cell_length_b 8.922874
_cell_length_c 11.124827
_cell_angle_alpha 90.000000
_cell_angle_beta 50.724792
_cell_angle_gamma 90.000000
_cell_volume 1708.565147
_symmetry_space_group_name_H-M "P 21/M"
_symmetry_group_IT_number 11
_symmetry_cell_setting 'monoclinic'
loop_
_space_group_symop_operation_xyz
x,y,z
-x,1/2+y,-z
-x,-y,-z
x,1/2-y,z
loop_
_atom_site_type_symbol
_atom_site_label
_atom_site_fract_x
_atom_site_fract_y
_atom_site_fract_z
Si Si1 0.171220 0.071149 0.015662
Si Si2 0.243008 0.574685 0.314718
Si Si3 0.085930 0.928037 0.896061
Si Si4 0.959354 0.075863 0.665144
Si Si5 0.687636 0.427182 0.040628
Si Si6 0.462721 0.077084 0.862985
Si Si7 0.390803 0.077595 0.224798
Si Si8 0.113251 0.422084 0.619832
O O1 0.169614 0.250000 0.012124
O O2 0.115061 0.012536 0.193479
O O3 0.257034 0.010570 0.935555
O O4 0.135338 0.000183 0.940711
O O5 0.226809 0.750000 0.351824
O O6 0.272268 0.552484 0.141507
O O7 0.313311 0.520107 0.311103
O O8 0.168411 0.477725 0.443118
O O9 0.080059 0.750000 0.919458
O O10 0.123542 0.971528 0.720893
O O11 0.000000 0.000000 0.000000
O O12 0.939638 0.250000 0.665588
O O13 0.024592 0.071974 0.686765
O O14 0.000000 0.000000 0.500000
O O15 0.684426 0.250000 0.068675
O O16 0.601793 0.495778 0.136089
O O17 0.472966 0.250000 0.815167
O O18 0.544362 0.991594 0.770125
O O19 0.428081 0.076439 0.043174
O O20 0.373109 0.250000 0.277044
O O21 0.130992 0.250000 0.628797
#
# Coordination Sequence:
#
# PCOD9161303 Si02
#       8
#     4   4   4   4   4   4   4   4
#     4  12  24  38  57  79 106 139 178 222 271 319
#     4  10  20  33  51  77 110 145 180 221 268 318
#     4  12  24  41  62  81 102 133 177 226 273 319
#     4  11  23  37  55  78 108 141 177 216 263 321
#     4  10  20  34  52  77 111 145 181 221 267 320
#     4   9  16  27  45  71 104 141 180 217 261 315
#     4   9  16  27  45  70 103 142 180 217 261 314
#     4  11  23  38  56  78 105 139 178 221 269 318
#
# _framework density 18.729165999999999
#
# number of rings (size 3 to 8) (size 9 to 14) (size 15 to 20)
#    0.000    1.500    1.250    5.250    0.000    8.000 
#    0.000    0.000    0.000    0.000    0.000    0.875 
#    0.000    0.000    0.000    0.000    0.000    0.000 
#
# Total GULP energy -178808.294751 kJ/mol
# GULP energy per Si atom -5587.759211 kJ/mol
# Density = 1.868654 g / cm^3
# Si number density = 18.729166 Si / 1000 Ang^3
#
#
#
# Elastic Constant Matrix: (Units=GPa)
#
#
# Indices 1 2 3 4 5 6 
#
# 1 128.8733 66.8620 1.5585 0.0000 -9.6698 0.0000
# 2 66.8620 143.7723 5.2814 0.0000 2.4790 0.0000
# 3 1.5585 5.2814 4.9549 0.0000 4.4791 0.0000
# 4 0.0000 0.0000 0.0000 23.8975 0.0000 -4.6549
# 5 -9.6698 2.4790 4.4791 0.0000 27.1900 0.0000
# 6 0.0000 0.0000 0.0000 -4.6549 0.0000 33.4835
#
#
#
# Elastic Compliance Matrix: (Units=1/GPa)
#
#
# Indices 1 2 3 4 5 6 
#
# 1 0.010720 -0.004983 -0.002253 0.000000 0.004638 0.000000
# 2 -0.004983 0.009567 -0.007331 0.000000 -0.001437 0.000000
# 3 -0.002253 -0.007331 0.247289 0.000000 -0.040870 0.000000
# 4 0.000000 0.000000 0.000000 0.043010 0.000000 0.005979
# 5 0.004638 -0.001437 -0.040870 0.000000 0.045291 0.000000
# 6 0.000000 0.000000 0.000000 0.005979 0.000000 0.030697
#
#
# Mechanical properties :
#
#
# Convention : Reuss Voigt Hill
#
# Bulk Modulus (GPa) = 4.19391 47.22269 25.70830
# Shear Modulus (GPa) = 10.09717 30.50746 20.30231
#
# Velocity S-wave (km/s) = 2.32440 4.04031 3.29598
# Velocity P-wave (km/s) = 3.07374 6.85811 5.31421
#
# Compressibility (1/GPa) = 0.23844108
#
# Stress axis : x y z
#
# Youngs Moduli (GPa) = 93.28507 104.52970 4.04385
#
# Poissons Ratio (x) = 0.52082 0.00911
# Poissons Ratio (y) = 0.46479 0.02965
# Poissons Ratio (z) = 0.21022 0.76634
#
# Static dielectric constant tensor:
#      x y z
#    x 1.655440 0.000000 0.005970 
#    y 0.000000 1.635740 0.000000 
#    z 0.005970 0.000000 1.643240 
# 
# From -- ./inp_files/42505.got.cif
#   From: 2010.05.17/outbox.cif.g08.bks.cpg/sg11_22_cif.got.tgz:42505.got - 2010.06.03 12:22:45.
