data_PCOD9161024
_publ_section_title
;
Structure prediction by ZEFSAII (Michael W. Deem and Ramdas Pophale) SiO2 
 PCOD9161024
Probable space group: P 21/M
;
_chemical_formula_sum "Si O2"
_cell_formula_units_Z 32
_cell_length_a 17.753904
_cell_length_b 8.590413
_cell_length_c 13.127493
_cell_angle_alpha 90.000000
_cell_angle_beta 89.850700
_cell_angle_gamma 90.000000
_cell_volume 2002.111370
_symmetry_space_group_name_H-M "P 21/M"
_symmetry_group_IT_number 11
_symmetry_cell_setting 'monoclinic'
loop_
_space_group_symop_operation_xyz
x,y,z
-x,1/2+y,-z
-x,-y,-z
x,1/2-y,z
loop_
_atom_site_type_symbol
_atom_site_label
_atom_site_fract_x
_atom_site_fract_y
_atom_site_fract_z
Si Si1 0.177266 0.063278 0.300674
Si Si2 0.084729 0.063781 0.887051
Si Si3 0.499997 0.937818 0.615520
Si Si4 0.915435 0.063104 0.506687
Si Si5 0.089239 0.936251 0.109480
Si Si6 0.664145 0.938252 0.614850
Si Si7 0.335859 0.938353 0.616379
Si Si8 0.176568 0.937907 0.696660
O O1 0.175173 0.250000 0.300966
O O2 0.263272 0.011505 0.321463
O O3 0.126783 0.002113 0.394269
O O4 0.143266 0.002622 0.195637
O O5 0.086175 0.250000 0.892783
O O6 0.997608 0.014780 0.868630
O O7 0.136864 0.006786 0.795551
O O8 0.107762 0.995284 0.996268
O O9 0.499822 0.750000 0.614381
O O10 0.581716 0.986989 0.657434
O O11 0.418278 0.987052 0.658091
O O12 0.500000 0.000000 0.500000
O O13 0.916737 0.250000 0.512680
O O14 0.869580 0.018147 0.405050
O O15 0.000000 0.000000 0.500000
O O16 0.091979 0.750000 0.111489
O O17 0.665115 0.750000 0.609915
O O18 0.671484 0.000762 0.499397
O O19 0.334208 0.750000 0.611823
O O20 0.263061 0.988715 0.680146
O O21 0.174929 0.750000 0.703936
#
# Coordination Sequence:
#
# PCOD9161024 Si02
#       8
#     4   4   4   4   4   4   4   4
#     4  11  21  32  48  71 100 130 161 197 239 285
#     4  10  21  36  54  73  92 119 157 202 247 287
#     4   8  14  25  42  63  90 124 160 193 231 276
#     4  11  22  34  47  66  96 131 166 198 236 286
#     4  10  21  37  55  72  92 121 160 203 244 286
#     4   9  17  28  43  67  97 128 159 195 235 279
#     4   9  16  28  45  66  94 128 162 196 233 280
#     4  10  20  32  47  69  97 128 160 196 237 283
#
# _framework density 15.983127
#
# number of rings (size 3 to 8) (size 9 to 14) (size 15 to 20)
#    0.000    2.250    1.250    2.250    0.000    5.500 
#    0.000    0.000    0.000    0.000    0.000    0.875 
#    0.000    0.000    0.000    0.000    0.000    0.000 
#
# Total GULP energy -178389.551099 kJ/mol
# GULP energy per Si atom -5574.673472 kJ/mol
# Density = 1.594675 g / cm^3
# Si number density = 15.983127 Si / 1000 Ang^3
#
#
#
# Elastic Constant Matrix: (Units=GPa)
#
#
# Indices 1 2 3 4 5 6 
#
# 1 158.8139 31.0034 74.1539 0.0000 12.0413 0.0000
# 2 31.0034 20.9426 25.3383 0.0000 2.3795 0.0000
# 3 74.1539 25.3383 93.0817 0.0000 9.8345 0.0000
# 4 0.0000 0.0000 0.0000 26.1156 0.0000 -1.3456
# 5 12.0413 2.3795 9.8345 0.0000 17.1525 0.0000
# 6 0.0000 0.0000 0.0000 -1.3456 0.0000 17.7084
#
#
#
# Elastic Compliance Matrix: (Units=1/GPa)
#
#
# Indices 1 2 3 4 5 6 
#
# 1 0.011088 -0.008605 -0.006168 0.000000 -0.003054 0.000000
# 2 -0.008605 0.077905 -0.014741 0.000000 0.003685 0.000000
# 3 -0.006168 -0.014741 0.020222 0.000000 -0.005219 0.000000
# 4 0.000000 0.000000 0.000000 0.038442 0.000000 0.002921
# 5 -0.003054 0.003685 -0.005219 0.000000 0.062925 0.000000
# 6 0.000000 0.000000 0.000000 0.002921 0.000000 0.056692
#
#
# Mechanical properties :
#
#
# Convention : Reuss Voigt Hill
#
# Bulk Modulus (GPa) = 19.92603 59.31438 39.62020
# Shear Modulus (GPa) = 14.57590 21.68479 18.13035
#
# Velocity S-wave (km/s) = 3.02314 3.68738 3.37165
# Velocity P-wave (km/s) = 4.96788 7.43775 6.32455
#
# Compressibility (1/GPa) = 0.05018562
#
# Stress axis : x y z
#
# Youngs Moduli (GPa) = 90.18548 12.83616 49.45213
#
# Poissons Ratio (x) = 0.11045 0.30504
# Poissons Ratio (y) = 0.77604 0.72898
# Poissons Ratio (z) = 0.55631 0.18922
#
# Static dielectric constant tensor:
#      x y z
#    x 1.581880 0.000000 0.005330 
#    y 0.000000 1.541260 0.000000 
#    z 0.005330 0.000000 1.480650 
# 
# From -- ./inp_files/40694.got.cif
#   From: 2010.05.17/outbox.cif.g08.bks.cpg/sg11_21_cif.got.tgz:40694.got - 2010.06.03 12:22:45.
