data_PCOD9161241
_publ_section_title
;
Structure prediction by ZEFSAII (Michael W. Deem and Ramdas Pophale) SiO2 
 PCOD9161241
Probable space group: P 21/M
;
_chemical_formula_sum "Si O2"
_cell_formula_units_Z 28
_cell_length_a 20.697382
_cell_length_b 8.625280
_cell_length_c 16.338138
_cell_angle_alpha 90.000000
_cell_angle_beta 32.338037
_cell_angle_gamma 90.000000
_cell_volume 1560.179747
_symmetry_space_group_name_H-M "P 21/M"
_symmetry_group_IT_number 11
_symmetry_cell_setting 'monoclinic'
loop_
_space_group_symop_operation_xyz
x,y,z
-x,1/2+y,-z
-x,-y,-z
x,1/2-y,z
loop_
_atom_site_type_symbol
_atom_site_label
_atom_site_fract_x
_atom_site_fract_y
_atom_site_fract_z
Si Si1 0.815402 0.936219 0.220131
Si Si2 0.544942 0.937496 0.539557
Si Si3 0.582728 0.430001 0.157584
Si Si4 0.133249 0.929841 0.151741
Si Si5 0.951687 0.063366 0.929627
Si Si6 0.874678 0.569967 0.666723
Si Si7 0.598466 0.936529 0.959117
O O1 0.820751 0.750000 0.210621
O O2 0.685838 0.979950 0.392553
O O3 0.842305 0.001021 0.101451
O O4 0.925022 0.991262 0.160052
O O5 0.532247 0.750000 0.551118
O O6 0.481039 0.992207 0.691850
O O7 0.500000 0.000000 0.500000
O O8 0.544803 0.250000 0.187341
O O9 0.725705 0.431225 0.022088
O O10 0.567023 0.512064 0.086189
O O11 0.102856 0.750000 0.205826
O O12 0.117824 0.040348 0.244605
O O13 0.058721 0.981599 0.153033
O O14 0.947685 0.250000 0.936362
O O15 0.874606 0.750000 0.645212
O O16 0.738176 0.509142 0.790957
O O17 0.000000 0.500000 0.500000
O O18 0.598661 0.750000 0.955677
O O19 0.500000 0.000000 0.000000
#
# Coordination Sequence:
#
# PCOD9161241 Si02
#       7
#     4   4   4   4   4   4   4
#     4   9  18  31  47  70 101 134 170 214 257 301
#     4  10  20  33  50  74 105 140 177 219 265 308
#     4   9  18  33  52  75 105 140 178 219 263 318
#     4   9  17  31  52  74  99 134 173 212 257 311
#     4   9  17  31  50  71  98 135 173 209 255 307
#     4  10  21  37  57  82 110 139 175 220 269 322
#     4  10  21  38  60  84 110 145 183 223 276 331
#
# _framework density 17.946650000000002
#
# number of rings (size 3 to 8) (size 9 to 14) (size 15 to 20)
#    0.000    2.571    0.000    1.714    0.000    4.571 
#    2.571    2.857    0.000    0.000    0.000    0.000 
#    0.000    0.000    0.000    0.000    0.000    0.000 
#
# Total GULP energy -155945.281302 kJ/mol
# GULP energy per Si atom -5569.474332 kJ/mol
# Density = 1.790580 g / cm^3
# Si number density = 17.946650 Si / 1000 Ang^3
#
#
#
# Elastic Constant Matrix: (Units=GPa)
#
#
# Indices 1 2 3 4 5 6 
#
# 1 105.4419 20.9116 48.4687 0.0000 3.7327 0.0000
# 2 20.9116 18.3454 25.1033 0.0000 -3.4190 0.0000
# 3 48.4687 25.1033 133.3581 0.0000 -0.3286 0.0000
# 4 0.0000 0.0000 0.0000 26.7602 0.0000 3.9537
# 5 3.7327 -3.4190 -0.3286 0.0000 12.1199 0.0000
# 6 0.0000 0.0000 0.0000 3.9537 0.0000 25.5407
#
#
#
# Elastic Compliance Matrix: (Units=1/GPa)
#
#
# Indices 1 2 3 4 5 6 
#
# 1 0.013591 -0.013767 -0.002368 0.000000 -0.008134 0.000000
# 2 -0.013767 0.092749 -0.012381 0.000000 0.030069 0.000000
# 3 -0.002368 -0.012381 0.010684 0.000000 -0.002474 0.000000
# 4 0.000000 0.000000 0.000000 0.038244 0.000000 -0.005920
# 5 -0.008134 0.030069 -0.002474 0.000000 0.093429 0.000000
# 6 0.000000 0.000000 0.000000 -0.005920 0.000000 0.040070
#
#
# Mechanical properties :
#
#
# Convention : Reuss Voigt Hill
#
# Bulk Modulus (GPa) = 16.66940 49.56808 33.11874
# Shear Modulus (GPa) = 13.66881 23.72827 18.69854
#
# Velocity S-wave (km/s) = 2.76277 3.64009 3.23134
# Velocity P-wave (km/s) = 4.41426 6.73399 5.69352
#
# Compressibility (1/GPa) = 0.05999016
#
# Stress axis : x y z
#
# Youngs Moduli (GPa) = 73.57946 10.78178 93.59972
#
# Poissons Ratio (x) = 0.14844 0.22164
# Poissons Ratio (y) = 1.01300 1.15888
# Poissons Ratio (z) = 0.17423 0.13349
#
# Static dielectric constant tensor:
#      x y z
#    x 1.614480 0.000000 -0.016860 
#    y 0.000000 1.626510 0.000000 
#    z -0.016860 0.000000 1.630480 
# 
# From -- ./inp_files/54175.got.cif
#   From: 2010.05.17/outbox.cif.g08.bks.cpg/sg11_28_cif.got.tgz:54175.got - 2010.06.03 12:22:45.
