data_PCOD9161393
_publ_section_title
;
Structure prediction by ZEFSAII (Michael W. Deem and Ramdas Pophale) SiO2 
 PCOD9161393
Probable space group: P 21/M
;
_chemical_formula_sum "Si O2"
_cell_formula_units_Z 32
_cell_length_a 26.596421
_cell_length_b 8.665953
_cell_length_c 16.426996
_cell_angle_alpha 90.000000
_cell_angle_beta 151.138823
_cell_angle_gamma 90.000000
_cell_volume 1827.532638
_symmetry_space_group_name_H-M "P 21/M"
_symmetry_group_IT_number 11
_symmetry_cell_setting 'monoclinic'
loop_
_space_group_symop_operation_xyz
x,y,z
-x,1/2+y,-z
-x,-y,-z
x,1/2-y,z
loop_
_atom_site_type_symbol
_atom_site_label
_atom_site_fract_x
_atom_site_fract_y
_atom_site_fract_z
Si Si1 0.956062 0.565398 0.853953
Si Si2 0.453500 0.064667 0.351047
Si Si3 0.695780 0.935320 0.092234
Si Si4 0.792142 0.434585 0.393342
Si Si5 0.021732 0.063396 0.777553
Si Si6 0.774710 0.937239 0.029919
Si Si7 0.520805 0.564582 0.276163
Si Si8 0.726724 0.563950 0.469936
O O1 0.961762 0.750000 0.863111
O O2 0.835012 0.520616 0.667733
O O3 0.017606 0.502076 0.862820
O O4 0.000000 0.500000 0.000000
O O5 0.457645 0.250000 0.356997
O O6 0.500000 0.000000 0.500000
O O7 0.513562 0.002190 0.356949
O O8 0.332446 0.017427 0.166846
O O9 0.688981 0.750000 0.082560
O O10 0.762150 0.983729 0.106397
O O11 0.746767 0.993126 0.247297
O O12 0.580641 0.003164 0.915068
O O13 0.787095 0.250000 0.380905
O O14 0.730394 0.491020 0.385594
O O15 0.912797 0.480186 0.579977
O O16 0.024355 0.250000 0.785999
O O17 0.121734 0.008631 0.868638
O O18 0.777917 0.750000 0.033717
O O19 0.517142 0.750000 0.274797
O O20 0.626127 0.518048 0.379149
O O21 0.725832 0.750000 0.460262
#
# Coordination Sequence:
#
# PCOD9161393 Si02
#       8
#     4   4   4   4   4   4   4   4
#     4  10  20  35  53  76 104 134 169 207 253 304
#     4  10  20  35  54  77 106 139 172 209 255 304
#     4  10  20  35  54  76 105 139 170 205 253 308
#     4  10  20  33  53  79 104 132 169 214 256 297
#     4   9  18  35  55  75 101 133 171 212 252 297
#     4   8  17  34  54  74 100 136 172 206 251 303
#     4  10  20  36  56  77 101 132 173 217 257 299
#     4   9  20  37  55  74 101 137 172 209 256 308
#
# _framework density 17.509948000000001
#
# number of rings (size 3 to 8) (size 9 to 14) (size 15 to 20)
#    0.000    2.500    0.000    2.625    0.000    4.000 
#    0.000    8.750    0.000    0.000    0.000    0.000 
#    0.000    0.000    0.000    0.000    0.000    0.000 
#
# Total GULP energy -178541.152792 kJ/mol
# GULP energy per Si atom -5579.411025 kJ/mol
# Density = 1.747009 g / cm^3
# Si number density = 17.509948 Si / 1000 Ang^3
#
#
#
# Elastic Constant Matrix: (Units=GPa)
#
#
# Indices 1 2 3 4 5 6 
#
# 1 187.9665 48.7427 125.7193 0.0000 5.5683 0.0000
# 2 48.7427 39.5209 39.7154 0.0000 -3.4691 0.0000
# 3 125.7193 39.7154 118.4709 0.0000 -19.6137 0.0000
# 4 0.0000 0.0000 0.0000 27.1814 0.0000 -5.8561
# 5 5.5683 -3.4691 -19.6137 0.0000 39.4128 0.0000
# 6 0.0000 0.0000 0.0000 -5.8561 0.0000 31.1072
#
#
#
# Elastic Compliance Matrix: (Units=1/GPa)
#
#
# Indices 1 2 3 4 5 6 
#
# 1 0.028913 -0.004828 -0.032486 0.000000 -0.020677 0.000000
# 2 -0.004828 0.039356 -0.008047 0.000000 0.000142 0.000000
# 3 -0.032486 -0.008047 0.050408 0.000000 0.028967 0.000000
# 4 0.000000 0.000000 0.000000 0.038345 0.000000 0.007219
# 5 -0.020677 0.000142 0.028967 0.000000 0.042722 0.000000
# 6 0.000000 0.000000 0.000000 0.007219 0.000000 0.033506
#
#
# Mechanical properties :
#
#
# Convention : Reuss Voigt Hill
#
# Bulk Modulus (GPa) = 35.77173 86.03478 60.90326
# Shear Modulus (GPa) = 15.00193 28.32567 21.66380
#
# Velocity S-wave (km/s) = 2.93023 4.02642 3.52124
# Velocity P-wave (km/s) = 5.64996 8.41769 7.16867
#
# Compressibility (1/GPa) = 0.02795503
#
# Stress axis : x y z
#
# Youngs Moduli (GPa) = 34.58679 25.40888 19.83803
#
# Poissons Ratio (x) = 0.12267 0.64447
# Poissons Ratio (y) = 0.16698 0.15963
# Poissons Ratio (z) = 1.12360 0.20446
#
# Static dielectric constant tensor:
#      x y z
#    x 1.574590 0.000000 0.016200 
#    y 0.000000 1.592300 0.000000 
#    z 0.016200 0.000000 1.577770 
# 
# From -- ./inp_files/55640.got.cif
#   From: 2010.05.17/outbox.cif.g08.bks.cpg/sg11_28_cif.got.tgz:55640.got - 2010.06.03 12:22:45.
