data_PCOD9161686
_publ_section_title
;
Structure prediction by ZEFSAII (Michael W. Deem and Ramdas Pophale) SiO2 
 PCOD9161686
Probable space group: P 21/M
;
_chemical_formula_sum "Si O2"
_cell_formula_units_Z 32
_cell_length_a 20.253545
_cell_length_b 9.032351
_cell_length_c 25.329885
_cell_angle_alpha 90.000000
_cell_angle_beta 158.952397
_cell_angle_gamma 90.000000
_cell_volume 1664.190543
_symmetry_space_group_name_H-M "P 21/M"
_symmetry_group_IT_number 11
_symmetry_cell_setting 'monoclinic'
loop_
_space_group_symop_operation_xyz
x,y,z
-x,1/2+y,-z
-x,-y,-z
x,1/2-y,z
loop_
_atom_site_type_symbol
_atom_site_label
_atom_site_fract_x
_atom_site_fract_y
_atom_site_fract_z
Si Si1 0.789558 0.919009 0.035308
Si Si2 0.746060 0.583640 0.218925
Si Si3 0.630372 0.427863 0.641826
Si Si4 0.404522 0.572711 0.262505
Si Si5 0.072540 0.423765 0.500595
Si Si6 0.423465 0.418764 0.023890
Si Si7 0.025608 0.573852 0.920306
Si Si8 0.601230 0.081387 0.316036
O O1 0.862819 0.750000 0.089539
O O2 0.736093 0.963347 0.054706
O O3 0.592182 0.916676 0.859050
O O4 0.913954 0.026548 0.093609
O O5 0.810564 0.750000 0.279467
O O6 0.653422 0.587749 0.092561
O O7 0.908479 0.466150 0.338451
O O8 0.595829 0.528226 0.149297
O O9 0.500000 0.500000 0.500000
O O10 0.629354 0.250000 0.635058
O O11 0.569939 0.463194 0.656917
O O12 0.837982 0.489079 0.792572
O O13 0.419211 0.750000 0.266810
O O14 0.552279 0.494439 0.335102
O O15 0.198139 0.532538 0.087379
O O16 0.907820 0.750000 0.477846
O O17 0.254667 0.493967 0.612042
O O18 0.000000 0.500000 0.500000
O O19 0.481725 0.250000 0.082221
O O20 0.998520 0.750000 0.903996
O O21 0.664718 0.250000 0.370808
#
# Coordination Sequence:
#
# PCOD9161686 Si02
#       8
#     4   4   4   4   4   4   4   4
#     4   9  18  34  56  82 111 144 182 228 276 329
#     4  10  20  34  53  78 107 143 188 233 281 339
#     4  11  23  40  61  87 120 156 194 239 293 350
#     4   9  20  39  62  87 117 154 196 242 289 346
#     4  12  24  38  56  79 111 149 191 240 289 340
#     4   9  18  34  55  78 108 145 185 230 279 333
#     4  10  20  36  60  89 117 148 191 238 286 345
#     4  10  20  35  58  87 116 147 188 234 284 339
#
# _framework density 19.228565
#
# number of rings (size 3 to 8) (size 9 to 14) (size 15 to 20)
#    0.000    2.000    0.000    3.750    0.000    4.000 
#    2.250    0.000    0.000    0.000    0.000    0.000 
#    0.000    0.000    0.000    0.000    0.000    0.000 
#
# Total GULP energy -178594.575365 kJ/mol
# GULP energy per Si atom -5581.080480 kJ/mol
# Density = 1.918480 g / cm^3
# Si number density = 19.228565 Si / 1000 Ang^3
#
#
#
# Elastic Constant Matrix: (Units=GPa)
#
#
# Indices 1 2 3 4 5 6 
#
# 1 148.3872 72.8289 39.4367 0.0000 8.3287 0.0000
# 2 72.8289 102.8918 40.5238 0.0000 10.1019 0.0000
# 3 39.4367 40.5238 45.8024 0.0000 6.5818 0.0000
# 4 0.0000 0.0000 0.0000 31.7692 0.0000 4.9518
# 5 8.3287 10.1019 6.5818 0.0000 24.6147 0.0000
# 6 0.0000 0.0000 0.0000 4.9518 0.0000 32.6648
#
#
#
# Elastic Compliance Matrix: (Units=1/GPa)
#
#
# Indices 1 2 3 4 5 6 
#
# 1 0.010757 -0.006081 -0.003867 0.000000 -0.000111 0.000000
# 2 -0.006081 0.018528 -0.010774 0.000000 -0.002665 0.000000
# 3 -0.003867 -0.010774 0.035225 0.000000 -0.003689 0.000000
# 4 0.000000 0.000000 0.000000 0.032239 0.000000 -0.004887
# 5 -0.000111 -0.002665 -0.003689 0.000000 0.042744 0.000000
# 6 0.000000 0.000000 0.000000 -0.004887 0.000000 0.031355
#
#
# Mechanical properties :
#
#
# Convention : Reuss Voigt Hill
#
# Bulk Modulus (GPa) = 43.35128 66.96222 55.15675
# Shear Modulus (GPa) = 22.72943 27.42920 25.07932
#
# Velocity S-wave (km/s) = 3.44185 3.78098 3.61539
# Velocity P-wave (km/s) = 6.19591 7.34581 6.79523
#
# Compressibility (1/GPa) = 0.02306737
#
# Stress axis : x y z
#
# Youngs Moduli (GPa) = 92.96026 53.97251 28.38916
#
# Poissons Ratio (x) = 0.32818 0.10977
# Poissons Ratio (y) = 0.56525 0.30587
# Poissons Ratio (z) = 0.35944 0.58151
#
# Static dielectric constant tensor:
#      x y z
#    x 1.683910 0.000000 -0.025400 
#    y 0.000000 1.670880 0.000000 
#    z -0.025400 0.000000 1.688610 
# 
# From -- ./inp_files/72184.got.cif
#   From: 2010.05.17/outbox.cif.g08.bks.cpg/sg11_37_cif.got.tgz:72184.got - 2010.06.03 12:22:45.
