data_PCOD9161065
_publ_section_title
;
Structure prediction by ZEFSAII (Michael W. Deem and Ramdas Pophale) SiO2 
 PCOD9161065
Probable space group: P 21/M
;
_chemical_formula_sum "Si O2"
_cell_formula_units_Z 32
_cell_length_a 13.786901
_cell_length_b 22.067592
_cell_length_c 16.322774
_cell_angle_alpha 90.000000
_cell_angle_beta 157.974142
_cell_angle_gamma 90.000000
_cell_volume 1862.412124
_symmetry_space_group_name_H-M "P 21/M"
_symmetry_group_IT_number 11
_symmetry_cell_setting 'monoclinic'
loop_
_space_group_symop_operation_xyz
x,y,z
-x,1/2+y,-z
-x,-y,-z
x,1/2-y,z
loop_
_atom_site_type_symbol
_atom_site_label
_atom_site_fract_x
_atom_site_fract_y
_atom_site_fract_z
Si Si1 0.706646 0.023723 0.776861
Si Si2 0.264091 0.099065 0.013097
Si Si3 0.324799 0.581832 0.416474
Si Si4 0.089010 0.979896 0.660410
Si Si5 0.855340 0.821415 0.234742
Si Si6 0.433370 0.821691 0.628366
Si Si7 0.453190 0.413843 0.924398
Si Si8 0.525044 0.972713 0.236125
O O1 0.655206 0.072447 0.665173
O O2 0.651384 0.045623 0.825597
O O3 0.510510 0.968042 0.603895
O O4 0.000000 0.000000 0.000000
O O5 0.267250 0.143641 0.938482
O O6 0.976128 0.072428 0.796778
O O7 0.343230 0.141204 0.151282
O O8 0.455169 0.042136 0.159717
O O9 0.392292 0.646828 0.508182
O O10 0.822521 0.971159 0.498347
O O11 0.265494 0.036969 0.822456
O O12 0.273273 0.921989 0.815505
O O13 0.000000 0.000000 0.500000
O O14 0.812620 0.750000 0.196876
O O15 0.705686 0.852061 0.192971
O O16 0.164737 0.831624 0.469159
O O17 0.479052 0.750000 0.659685
O O18 0.496908 0.434237 0.864594
#
# Coordination Sequence:
#
# PCOD9161065 Si02
#       8
#     4   4   4   4   4   4   4   4
#     4  11  21  36  54  82 111 145 178 228 289 333
#     4  11  19  33  53  79 111 141 174 226 274 333
#     4  10  21  34  54  79 113 140 178 226 275 337
#     4   9  18  31  47  75 103 138 174 217 268 323
#     4  10  21  34  51  75 106 146 186 221 265 321
#     4  10  20  35  55  79 109 147 182 221 272 330
#     4  10  20  32  49  73 108 143 179 221 265 323
#     4  11  21  31  54  78 109 141 176 220 281 329
#
# _framework density 17.182017999999999
#
# number of rings (size 3 to 8) (size 9 to 14) (size 15 to 20)
#    0.000    1.750    2.500    3.375    3.500    1.500 
#    0.000    0.000    0.000    0.750    0.000    3.500 
#    0.000    0.000    0.000    0.000    0.000    0.000 
#
# Total GULP energy -178371.621656 kJ/mol
# GULP energy per Si atom -5574.113177 kJ/mol
# Density = 1.714291 g / cm^3
# Si number density = 17.182018 Si / 1000 Ang^3
#
#
#
# Elastic Constant Matrix: (Units=GPa)
#
#
# Indices 1 2 3 4 5 6 
#
# 1 107.3211 34.5859 24.7993 0.0000 0.5968 0.0000
# 2 34.5859 79.1282 32.3816 0.0000 3.9112 0.0000
# 3 24.7993 32.3816 100.2376 0.0000 11.0029 0.0000
# 4 0.0000 0.0000 0.0000 19.0662 0.0000 1.3681
# 5 0.5968 3.9112 11.0029 0.0000 26.9722 0.0000
# 6 0.0000 0.0000 0.0000 1.3681 0.0000 26.4842
#
#
#
# Elastic Compliance Matrix: (Units=1/GPa)
#
#
# Indices 1 2 3 4 5 6 
#
# 1 0.011025 -0.004272 -0.001454 0.000000 0.000969 0.000000
# 2 -0.004272 0.016219 -0.004119 0.000000 -0.000577 0.000000
# 3 -0.001454 -0.004119 0.012141 0.000000 -0.004323 0.000000
# 4 0.000000 0.000000 0.000000 0.052644 0.000000 -0.002719
# 5 0.000969 -0.000577 -0.004323 0.000000 0.038901 0.000000
# 6 0.000000 0.000000 0.000000 -0.002719 0.000000 0.037899
#
#
# Mechanical properties :
#
#
# Convention : Reuss Voigt Hill
#
# Bulk Modulus (GPa) = 50.77362 52.24674 51.51018
# Shear Modulus (GPa) = 25.62987 27.49919 26.56453
#
# Velocity S-wave (km/s) = 3.86640 4.00492 3.93627
# Velocity P-wave (km/s) = 7.03894 7.20136 7.12062
#
# Compressibility (1/GPa) = 0.01969527
#
# Stress axis : x y z
#
# Youngs Moduli (GPa) = 90.70230 61.65549 82.36315
#
# Poissons Ratio (x) = 0.26338 0.11976
# Poissons Ratio (y) = 0.38746 0.33929
# Poissons Ratio (z) = 0.13188 0.25398
#
# Static dielectric constant tensor:
#      x y z
#    x 1.632390 0.000000 -0.009580 
#    y 0.000000 1.569270 0.000000 
#    z -0.009580 0.000000 1.634900 
# 
# From -- ./inp_files/60598.got.cif
#   From: 2010.05.17/outbox.cif.g08.bks.cpg/sg11_31_cif.got.tgz:60598.got - 2010.06.03 12:22:45.
