data_PCOD9161894
_publ_section_title
;
Structure prediction by ZEFSAII (Michael W. Deem and Ramdas Pophale) SiO2 
 PCOD9161894
Probable space group: P 21/M
;
_chemical_formula_sum "Si O2"
_cell_formula_units_Z 32
_cell_length_a 16.161208
_cell_length_b 8.662198
_cell_length_c 21.359143
_cell_angle_alpha 90.000000
_cell_angle_beta 153.562970
_cell_angle_gamma 90.000000
_cell_volume 1331.234436
_symmetry_space_group_name_H-M "P 21/M"
_symmetry_group_IT_number 11
_symmetry_cell_setting 'monoclinic'
loop_
_space_group_symop_operation_xyz
x,y,z
-x,1/2+y,-z
-x,-y,-z
x,1/2-y,z
loop_
_atom_site_type_symbol
_atom_site_label
_atom_site_fract_x
_atom_site_fract_y
_atom_site_fract_z
Si Si1 0.227424 0.431832 0.529234
Si Si2 0.764035 0.426378 0.959917
Si Si3 0.542921 0.069722 0.941017
Si Si4 0.885575 0.574512 0.236831
Si Si5 0.206432 0.567708 0.645519
Si Si6 0.202632 0.069872 0.142611
Si Si7 0.556266 0.061816 0.444042
Si Si8 0.895166 0.072191 0.748575
O O1 0.255272 0.250000 0.557342
O O2 0.284653 0.522120 0.630174
O O3 0.340490 0.494429 0.546818
O O4 0.011375 0.466447 0.365755
O O5 0.746054 0.250000 0.926509
O O6 0.977337 0.464947 0.122504
O O7 0.648175 0.444949 0.944979
O O8 0.709297 0.535843 0.865910
O O9 0.538208 0.250000 0.954213
O O10 0.338616 0.006175 0.787712
O O11 0.677410 0.980103 0.079988
O O12 0.888989 0.750000 0.263233
O O13 0.994857 0.575449 0.243901
O O14 0.200599 0.750000 0.649979
O O15 0.000000 0.500000 0.500000
O O16 0.183340 0.250000 0.139297
O O17 0.344414 0.008577 0.291238
O O18 0.000000 0.000000 0.000000
O O19 0.562090 0.250000 0.446160
O O20 0.688428 0.016155 0.591182
O O21 0.893682 0.250000 0.770605
#
# Coordination Sequence:
#
# PCOD9161894 Si02
#       8
#     4   4   4   4   4   4   4   4
#     4  11  21  35  58  87 115 145 183 229 276 326
#     4  10  20  34  55  83 112 141 178 220 265 320
#     4  10  20  36  59  88 116 144 182 229 276 327
#     4   9  17  32  55  84 115 147 182 224 273 325
#     4  12  25  41  58  79 111 150 189 230 277 330
#     4  11  23  38  55  76 107 144 183 226 274 325
#     4   9  19  36  58  83 109 141 181 226 274 328
#     4   8  15  30  53  80 108 136 173 220 269 317
#
# _framework density 24.037839000000002
#
# number of rings (size 3 to 8) (size 9 to 14) (size 15 to 20)
#    0.000    2.000    0.000    5.250    0.000    7.500 
#    0.000    1.250    0.000    0.000    0.000    0.000 
#    0.000    0.000    0.000    0.000    0.000    0.000 
#
# Total GULP energy -179105.849439 kJ/mol
# GULP energy per Si atom -5597.057795 kJ/mol
# Density = 2.398313 g / cm^3
# Si number density = 24.037839 Si / 1000 Ang^3
#
#
#
# Elastic Constant Matrix: (Units=GPa)
#
#
# Indices 1 2 3 4 5 6 
#
# 1 62.4214 -2.0861 19.1027 0.0000 -3.1418 0.0000
# 2 -2.0861 59.4942 40.1632 0.0000 -14.2121 0.0000
# 3 19.1027 40.1632 205.1614 0.0000 8.7983 0.0000
# 4 0.0000 0.0000 0.0000 34.8222 0.0000 -1.6254
# 5 -3.1418 -14.2121 8.7983 0.0000 33.1503 0.0000
# 6 0.0000 0.0000 0.0000 -1.6254 0.0000 22.9221
#
#
#
# Elastic Compliance Matrix: (Units=1/GPa)
#
#
# Indices 1 2 3 4 5 6 
#
# 1 0.017008 0.003004 -0.002323 0.000000 0.003516 0.000000
# 2 0.003004 0.023318 -0.005346 0.000000 0.011700 0.000000
# 3 -0.002323 -0.005346 0.006317 0.000000 -0.004189 0.000000
# 4 0.000000 0.000000 0.000000 0.028813 0.000000 0.002043
# 5 0.003516 0.011700 -0.004189 0.000000 0.036627 0.000000
# 6 0.000000 0.000000 0.000000 0.002043 0.000000 0.043771
#
#
# Mechanical properties :
#
#
# Convention : Reuss Voigt Hill
#
# Bulk Modulus (GPa) = 26.79975 49.04853 37.92414
# Shear Modulus (GPa) = 28.14991 36.17207 32.16099
#
# Velocity S-wave (km/s) = 3.42580 3.88338 3.66174
# Velocity P-wave (km/s) = 5.17893 6.36840 5.80422
#
# Compressibility (1/GPa) = 0.03731377
#
# Stress axis : x y z
#
# Youngs Moduli (GPa) = 58.79473 42.88545 158.31003
#
# Poissons Ratio (x) = -0.12884 0.36769
# Poissons Ratio (y) = -0.17664 0.84638
# Poissons Ratio (z) = 0.13656 0.22928
#
# Static dielectric constant tensor:
#      x y z
#    x 1.356610 0.000000 0.036570 
#    y 0.000000 1.817630 0.000000 
#    z 0.036570 0.000000 1.956690 
# 
# From -- ./inp_files/72211.got.cif
#   From: 2010.05.17/outbox.cif.g08.bks.cpg/sg11_37_cif.got.tgz:72211.got - 2010.06.03 12:22:45.
