data_PCOD9161006
_publ_section_title
;
Structure prediction by ZEFSAII (Michael W. Deem and Ramdas Pophale) SiO2 
 PCOD9161006
Probable space group: P 21/M
;
_chemical_formula_sum "Si O2"
_cell_formula_units_Z 24
_cell_length_a 11.754174
_cell_length_b 7.573432
_cell_length_c 20.573780
_cell_angle_alpha 90.000000
_cell_angle_beta 136.362359
_cell_angle_gamma 90.000000
_cell_volume 1263.886020
_symmetry_space_group_name_H-M "P 21/M"
_symmetry_group_IT_number 11
_symmetry_cell_setting 'monoclinic'
loop_
_space_group_symop_operation_xyz
x,y,z
-x,1/2+y,-z
-x,-y,-z
x,1/2-y,z
loop_
_atom_site_type_symbol
_atom_site_label
_atom_site_fract_x
_atom_site_fract_y
_atom_site_fract_z
Si Si1 0.381485 0.536344 0.043077
Si Si2 0.599362 0.040639 0.474723
Si Si3 0.191168 0.962260 0.091239
Si Si4 0.100319 0.967234 0.323440
Si Si5 0.289667 0.956015 0.272555
Si Si6 0.261992 0.040260 0.852357
O O1 0.386735 0.750000 0.046945
O O2 0.298438 0.471398 0.074808
O O3 0.568115 0.470300 0.108204
O O4 0.276908 0.487721 0.935958
O O5 0.605195 0.250000 0.467883
O O6 0.783261 0.977298 0.568307
O O7 0.500000 0.000000 0.500000
O O8 0.483256 0.967515 0.370197
O O9 0.212971 0.750000 0.101131
O O10 0.245847 0.032477 0.184327
O O11 0.000000 0.000000 0.000000
O O12 0.103053 0.750000 0.324218
O O13 0.186811 0.027728 0.291707
O O14 0.911903 0.027711 0.245951
O O15 0.244719 0.750000 0.251486
O O16 0.261419 0.250000 0.840645
#
# Coordination Sequence:
#
# PCOD9161006 Si02
#       6
#     4   4   4   4   4   4
#     4   9  18  30  44  66  91 114 146 184 219 258
#     4   9  16  27  43  64  88 112 143 181 219 261
#     4  10  20  32  46  66  92 120 150 183 219 265
#     4   8  14  25  43  64  82 107 144 177 210 257
#     4   9  17  29  43  61  88 118 146 178 218 263
#     4   9  16  29  48  65  86 117 147 179 221 264
#
# _framework density 18.989053999999999
#
# number of rings (size 3 to 8) (size 9 to 14) (size 15 to 20)
#    0.000    3.000    0.000    2.500    0.000    2.667 
#    0.000    5.833    0.000    1.000    0.000    0.000 
#    0.000    0.000    0.000    0.000    0.000    0.667 
#
# Total GULP energy -133725.338278 kJ/mol
# GULP energy per Si atom -5571.889095 kJ/mol
# Density = 1.894583 g / cm^3
# Si number density = 18.989054 Si / 1000 Ang^3
#
#
#
# Elastic Constant Matrix: (Units=GPa)
#
#
# Indices 1 2 3 4 5 6 
#
# 1 69.7915 -3.1296 53.8306 0.0000 -1.6957 0.0000
# 2 -3.1296 37.9619 -13.7051 0.0000 -0.7856 0.0000
# 3 53.8306 -13.7051 162.2053 0.0000 11.4650 0.0000
# 4 0.0000 0.0000 0.0000 19.4571 0.0000 0.1996
# 5 -1.6957 -0.7856 11.4650 0.0000 28.0732 0.0000
# 6 0.0000 0.0000 0.0000 0.1996 0.0000 9.4456
#
#
#
# Elastic Compliance Matrix: (Units=1/GPa)
#
#
# Indices 1 2 3 4 5 6 
#
# 1 0.019701 -0.000779 -0.006885 0.000000 0.003980 0.000000
# 2 -0.000779 0.027203 0.002581 0.000000 -0.000340 0.000000
# 3 -0.006885 0.002581 0.008951 0.000000 -0.003999 0.000000
# 4 0.000000 0.000000 0.000000 0.051406 0.000000 -0.001086
# 5 0.003980 -0.000340 -0.003999 0.000000 0.037485 0.000000
# 6 0.000000 0.000000 0.000000 -0.001086 0.000000 0.105892
#
#
# Mechanical properties :
#
#
# Convention : Reuss Voigt Hill
#
# Bulk Modulus (GPa) = 21.88780 38.21672 30.05226
# Shear Modulus (GPa) = 18.11374 26.92605 22.51990
#
# Velocity S-wave (km/s) = 3.09188 3.76969 3.44749
# Velocity P-wave (km/s) = 4.92929 6.25434 5.63093
#
# Compressibility (1/GPa) = 0.04568754
#
# Stress axis : x y z
#
# Youngs Moduli (GPa) = 50.75954 36.76100 111.72275
#
# Poissons Ratio (x) = 0.02864 0.76923
# Poissons Ratio (y) = 0.03955 -0.28836
# Poissons Ratio (z) = 0.34949 -0.09488
#
# Static dielectric constant tensor:
#      x y z
#    x 1.650620 0.000000 0.016120 
#    y 0.000000 1.721510 0.000000 
#    z 0.016120 0.000000 1.680430 
# 
# From -- ./inp_files/34076.got.cif
#   From: 2010.05.17/outbox.cif.g08.bks.cpg/sg11_18_cif.got.tgz:34076.got - 2010.06.03 12:22:45.
