data_PCOD9161701
_publ_section_title
;
Structure prediction by ZEFSAII (Michael W. Deem and Ramdas Pophale) SiO2 
 PCOD9161701
Probable space group: P 21/M
;
_chemical_formula_sum "Si O2"
_cell_formula_units_Z 32
_cell_length_a 23.088834
_cell_length_b 9.049044
_cell_length_c 14.313507
_cell_angle_alpha 90.000000
_cell_angle_beta 32.647508
_cell_angle_gamma 90.000000
_cell_volume 1613.308268
_symmetry_space_group_name_H-M "P 21/M"
_symmetry_group_IT_number 11
_symmetry_cell_setting 'monoclinic'
loop_
_space_group_symop_operation_xyz
x,y,z
-x,1/2+y,-z
-x,-y,-z
x,1/2-y,z
loop_
_atom_site_type_symbol
_atom_site_label
_atom_site_fract_x
_atom_site_fract_y
_atom_site_fract_z
Si Si1 0.608446 0.921364 0.820454
Si Si2 0.776475 0.425924 0.469470
Si Si3 0.770551 0.073309 0.265966
Si Si4 0.459423 0.072940 0.458660
Si Si5 0.155638 0.075236 0.013168
Si Si6 0.945870 0.073718 0.401956
Si Si7 0.783700 0.578384 0.748662
Si Si8 0.653749 0.925825 0.105735
O O1 0.586928 0.750000 0.830838
O O2 0.694418 0.931534 0.788272
O O3 0.668297 0.994977 0.651301
O O4 0.500000 0.000000 0.000000
O O5 0.758408 0.250000 0.499749
O O6 0.807152 0.461329 0.321656
O O7 0.870410 0.462528 0.415098
O O8 0.758178 0.250000 0.273858
O O9 0.656217 0.993523 0.408048
O O10 0.845582 0.012697 0.081647
O O11 0.455509 0.250000 0.471948
O O12 0.500000 0.000000 0.500000
O O13 0.546552 0.019096 0.264445
O O14 0.138849 0.250000 0.017612
O O15 0.271108 0.058612 0.905290
O O16 0.064892 0.027382 0.210314
O O17 0.945877 0.250000 0.414622
O O18 0.889237 0.002145 0.568019
O O19 0.810536 0.750000 0.728089
O O20 0.725710 0.523936 0.920720
O O21 0.629108 0.750000 0.127793
#
# Coordination Sequence:
#
# PCOD9161701 Si02
#       8
#     4   4   4   4   4   4   4   4
#     4  10  20  34  53  79 109 145 188 234 284 338
#     4   9  20  38  57  79 112 150 188 233 286 337
#     4  11  23  38  58  84 114 151 192 235 285 340
#     4  12  24  39  59  84 115 151 189 234 284 337
#     4  10  21  37  59  84 113 150 191 236 286 337
#     4   9  19  38  60  83 113 149 190 238 286 334
#     4   9  20  37  56  80 112 149 188 231 283 338
#     4  10  21  38  58  83 116 153 189 229 282 341
#
# _framework density 19.835018999999999
#
# number of rings (size 3 to 8) (size 9 to 14) (size 15 to 20)
#    0.000    2.000    1.250    1.875    1.750    3.500 
#    0.000    0.000    0.000    0.000    0.000    0.000 
#    0.000    0.000    0.000    0.000    0.000    0.000 
#
# Total GULP energy -178730.787600 kJ/mol
# GULP energy per Si atom -5585.337113 kJ/mol
# Density = 1.978987 g / cm^3
# Si number density = 19.835019 Si / 1000 Ang^3
#
#
#
# Elastic Constant Matrix: (Units=GPa)
#
#
# Indices 1 2 3 4 5 6 
#
# 1 17.7776 10.3658 0.8145 0.0000 19.1004 0.0000
# 2 10.3658 43.4898 28.1776 0.0000 4.5758 0.0000
# 3 0.8145 28.1776 119.1778 0.0000 14.3624 0.0000
# 4 0.0000 0.0000 0.0000 39.4923 0.0000 6.2129
# 5 19.1004 4.5758 14.3624 0.0000 36.9014 0.0000
# 6 0.0000 0.0000 0.0000 6.2129 0.0000 17.9253
#
#
#
# Elastic Compliance Matrix: (Units=1/GPa)
#
#
# Indices 1 2 3 4 5 6 
#
# 1 0.198667 -0.051496 0.023545 0.000000 -0.105610 0.000000
# 2 -0.051496 0.040531 -0.012420 0.000000 0.026463 0.000000
# 3 0.023545 -0.012420 0.013062 0.000000 -0.015731 0.000000
# 4 0.000000 0.000000 0.000000 0.026782 0.000000 -0.009283
# 5 -0.105610 0.026463 -0.015731 0.000000 0.084605 0.000000
# 6 0.000000 0.000000 0.000000 -0.009283 0.000000 0.059004
#
#
# Mechanical properties :
#
#
# Convention : Reuss Voigt Hill
#
# Bulk Modulus (GPa) = 5.83028 28.79566 17.31297
# Shear Modulus (GPa) = 8.91958 28.26962 18.59460
#
# Velocity S-wave (km/s) = 2.12289 3.77933 3.06512
# Velocity P-wave (km/s) = 2.99243 5.79599 4.61238
#
# Compressibility (1/GPa) = 0.17151839
#
# Stress axis : x y z
#
# Youngs Moduli (GPa) = 5.03355 24.67268 76.55691
#
# Poissons Ratio (x) = 1.27053 -1.80252
# Poissons Ratio (y) = 0.25921 0.95083
# Poissons Ratio (z) = -0.11851 0.30643
#
# Static dielectric constant tensor:
#      x y z
#    x 1.707720 0.000000 0.015970 
#    y 0.000000 1.666650 0.000000 
#    z 0.015970 0.000000 1.702000 
# 
# From -- ./inp_files/51638.got.cif
#   From: 2010.05.17/outbox.cif.g08.bks.cpg/sg11_26_cif.got.tgz:51638.got - 2010.06.03 12:22:45.
