data_PCOD9162096
_publ_section_title
;
Structure prediction by ZEFSAII (Michael W. Deem and Ramdas Pophale) SiO2 
 PCOD9162096
Probable space group: P 21/M
;
_chemical_formula_sum "Si O2"
_cell_formula_units_Z 24
_cell_length_a 11.157808
_cell_length_b 16.339679
_cell_length_c 10.718436
_cell_angle_alpha 90.000000
_cell_angle_beta 31.781283
_cell_angle_gamma 90.000000
_cell_volume 1029.198414
_symmetry_space_group_name_H-M "P 21/M"
_symmetry_group_IT_number 11
_symmetry_cell_setting 'monoclinic'
loop_
_space_group_symop_operation_xyz
x,y,z
-x,1/2+y,-z
-x,-y,-z
x,1/2-y,z
loop_
_atom_site_type_symbol
_atom_site_label
_atom_site_fract_x
_atom_site_fract_y
_atom_site_fract_z
Si Si1 0.896971 0.909988 0.110808
Si Si2 0.229013 0.054666 0.163765
Si Si3 0.913710 0.158810 0.303511
Si Si4 0.584538 0.620485 0.751469
Si Si5 0.512548 0.033841 0.662971
Si Si6 0.932729 0.374948 0.764712
O O1 0.634549 0.933315 0.322019
O O2 0.994600 0.879508 0.154600
O O3 0.961676 0.849736 0.940409
O O4 0.000000 0.000000 0.000000
O O5 0.362679 0.066437 0.172741
O O6 0.067467 0.133134 0.285028
O O7 0.100374 0.967232 0.263894
O O8 0.382949 0.059921 0.904209
O O9 0.820000 0.250000 0.400157
O O10 0.740002 0.084305 0.454076
O O11 0.546443 0.561445 0.665209
O O12 0.834699 0.660105 0.503992
O O13 0.331007 0.657933 0.002650
#
# Coordination Sequence:
#
# PCOD9162096 Si02
#       6
#     4   4   4   4   4   4
#     4  11  20  37  61  92 124 160 210 274 316 376
#     4  10  21  36  58  89 125 153 204 258 313 372
#     4  11  24  39  59  87 125 171 210 259 323 392
#     4  11  21  34  60  96 126 154 196 261 322 368
#     4  10  20  34  58  88 126 157 205 256 324 371
#     4  11  21  34  60  97 123 158 198 265 322 361
#
# _framework density 23.319119000000001
#
# number of rings (size 3 to 8) (size 9 to 14) (size 15 to 20)
#    0.000    1.333    6.667    2.500    4.667    4.000 
#    0.000    0.000    0.000    2.000    0.000    0.000 
#    0.000    0.000    0.000    0.000    0.000    0.000 
#
# Total GULP energy -133658.769874 kJ/mol
# GULP energy per Si atom -5569.115411 kJ/mol
# Density = 2.326604 g / cm^3
# Si number density = 23.319119 Si / 1000 Ang^3
#
#
#
# Elastic Constant Matrix: (Units=GPa)
#
#
# Indices 1 2 3 4 5 6 
#
# 1 151.1197 0.9785 21.6932 0.0000 -6.5317 0.0000
# 2 0.9785 76.7211 16.4072 0.0000 -0.7293 0.0000
# 3 21.6932 16.4072 134.6367 0.0000 -27.9509 0.0000
# 4 0.0000 0.0000 0.0000 -30.0800 0.0000 11.1835
# 5 -6.5317 -0.7293 -27.9509 0.0000 33.9868 0.0000
# 6 0.0000 0.0000 0.0000 11.1835 0.0000 0.0217
#
#
#
# Elastic Compliance Matrix: (Units=1/GPa)
#
#
# Indices 1 2 3 4 5 6 
#
# 1 0.006782 0.000134 -0.001010 0.000000 0.000475 0.000000
# 2 0.000134 0.013431 -0.001921 0.000000 -0.001266 0.000000
# 3 -0.001010 -0.001921 0.009376 0.000000 0.007476 0.000000
# 4 0.000000 0.000000 0.000000 -0.000173 0.000000 0.088952
# 5 0.000475 -0.001266 0.007476 0.000000 0.035635 0.000000
# 6 0.000000 0.000000 0.000000 0.088952 0.000000 0.239253
#
#
# Mechanical properties :
#
#
# Convention : Reuss Voigt Hill
#
# Bulk Modulus (GPa) = 41.67608 48.95948 45.31778
# Shear Modulus (GPa) = 15.72829 22.34559 19.03694
#
# Velocity S-wave (km/s) = 2.59989 3.09892 2.86031
# Velocity P-wave (km/s) = 5.18878 5.81768 5.51221
#
# Compressibility (1/GPa) = 0.02399458
#
# Stress axis : x y z
#
# Youngs Moduli (GPa) = 147.44929 74.45272 106.65205
#
# Poissons Ratio (x) = -0.00998 0.10776
# Poissons Ratio (y) = -0.01977 0.20490
# Poissons Ratio (z) = 0.14898 0.14304
#
# Static dielectric constant tensor:
#      x y z
#    x 2.429660 0.000000 -0.158060 
#    y 0.000000 1.857950 0.000000 
#    z -0.158060 0.000000 2.034940 
# 
# From -- ./inp_files/36109.got.cif
#   From: 2010.05.17/outbox.cif.g08.bks.cpg/sg11_19_cif.got.tgz:36109.got - 2010.06.03 12:22:45.
