data_PCOD9162354
_publ_section_title
;
Structure prediction by ZEFSAII (Michael W. Deem and Ramdas Pophale) SiO2 
 PCOD9162354
Probable space group: P 21/M
;
_chemical_formula_sum "Si O2"
_cell_formula_units_Z 28
_cell_length_a 7.154907
_cell_length_b 14.444983
_cell_length_c 18.420505
_cell_angle_alpha 90.000000
_cell_angle_beta 48.845372
_cell_angle_gamma 90.000000
_cell_volume 1433.444182
_symmetry_space_group_name_H-M "P 21/M"
_symmetry_group_IT_number 11
_symmetry_cell_setting 'monoclinic'
loop_
_space_group_symop_operation_xyz
x,y,z
-x,1/2+y,-z
-x,-y,-z
x,1/2-y,z
loop_
_atom_site_type_symbol
_atom_site_label
_atom_site_fract_x
_atom_site_fract_y
_atom_site_fract_z
Si Si1 0.981744 0.860839 0.051967
Si Si2 0.527571 0.560390 0.920987
Si Si3 0.471755 0.859833 0.698180
Si Si4 0.672934 0.999384 0.385703
Si Si5 0.947857 0.858586 0.903023
Si Si6 0.406134 0.138473 0.725795
Si Si7 0.245455 0.504706 0.284352
O O1 0.951973 0.750000 0.059894
O O2 0.823545 0.891601 0.162345
O O3 0.273261 0.882779 0.980569
O O4 0.888682 0.900122 0.997803
O O5 0.772208 0.617399 0.881078
O O6 0.598394 0.508436 0.829497
O O7 0.500000 0.500000 0.000000
O O8 0.516028 0.750000 0.681338
O O9 0.232029 0.876483 0.810582
O O10 0.394995 0.908673 0.642914
O O11 0.691409 0.917816 0.679407
O O12 0.624607 0.913972 0.342691
O O13 0.958177 0.994206 0.337360
O O14 0.500000 0.000000 0.500000
O O15 0.921273 0.750000 0.919733
O O16 0.412314 0.250000 0.718038
O O17 0.650040 0.095844 0.702041
#
# Coordination Sequence:
#
# PCOD9162354 Si02
#       7
#     4   4   4   4   4   4   4
#     4  10  21  37  57  86 125 166 205 249 299 366
#     4  12  22  31  56  88 124 166 207 245 300 365
#     4  10  22  40  64  94 126 160 203 254 313 376
#     4  11  25  46  67  93 124 160 210 270 324 372
#     4  10  20  35  55  84 123 164 204 246 295 361
#     4  10  24  44  65  91 127 168 213 257 309 375
#     4  11  23  40  64  92 124 166 209 261 314 369
#
# _framework density 19.533372
#
# number of rings (size 3 to 8) (size 9 to 14) (size 15 to 20)
#    0.000    1.429    2.857    2.143    2.000    5.714 
#    0.000    5.000    0.000    0.000    0.000    0.000 
#    0.000    0.000    0.000    0.000    0.000    0.000 
#
# Total GULP energy -156298.066715 kJ/mol
# GULP energy per Si atom -5582.073811 kJ/mol
# Density = 1.948891 g / cm^3
# Si number density = 19.533372 Si / 1000 Ang^3
#
#
#
# Elastic Constant Matrix: (Units=GPa)
#
#
# Indices 1 2 3 4 5 6 
#
# 1 153.4016 55.5480 27.9978 0.0000 3.9853 0.0000
# 2 55.5480 111.0836 20.2397 0.0000 1.7532 0.0000
# 3 27.9978 20.2397 205.6954 0.0000 41.5135 0.0000
# 4 0.0000 0.0000 0.0000 19.0238 0.0000 4.0890
# 5 3.9853 1.7532 41.5135 0.0000 25.5803 0.0000
# 6 0.0000 0.0000 0.0000 4.0890 0.0000 19.4713
#
#
#
# Elastic Compliance Matrix: (Units=1/GPa)
#
#
# Indices 1 2 3 4 5 6 
#
# 1 0.008063 -0.003896 -0.000765 0.000000 0.000252 0.000000
# 2 -0.003896 0.011076 -0.000786 0.000000 0.001124 0.000000
# 3 -0.000765 -0.000786 0.007447 0.000000 -0.011913 0.000000
# 4 0.000000 0.000000 0.000000 0.055051 0.000000 -0.011561
# 5 0.000252 0.001124 -0.011913 0.000000 0.058310 0.000000
# 6 0.000000 0.000000 0.000000 -0.011561 0.000000 0.053785
#
#
# Mechanical properties :
#
#
# Convention : Reuss Voigt Hill
#
# Bulk Modulus (GPa) = 63.73182 75.30573 69.51877
# Shear Modulus (GPa) = 23.82564 37.24142 30.53353
#
# Velocity S-wave (km/s) = 3.49627 4.37115 3.95795
# Velocity P-wave (km/s) = 6.99975 8.00699 7.52025
#
# Compressibility (1/GPa) = 0.01569075
#
# Stress axis : x y z
#
# Youngs Moduli (GPa) = 124.02570 90.28349 134.27595
#
# Poissons Ratio (x) = 0.35179 0.10272
# Poissons Ratio (y) = 0.48326 0.10559
# Poissons Ratio (z) = 0.09488 0.07100
#
# Static dielectric constant tensor:
#      x y z
#    x 1.801130 0.000000 0.000770 
#    y 0.000000 1.717370 0.000000 
#    z 0.000770 0.000000 1.685290 
# 
# From -- ./inp_files/57004.got.cif
#   From: 2010.05.17/outbox.cif.g08.bks.cpg/sg11_29_cif.got.tgz:57004.got - 2010.06.03 12:22:45.
