data_PCOD9162860
_publ_section_title
;
Structure prediction by ZEFSAII (Michael W. Deem and Ramdas Pophale) SiO2 
 PCOD9162860
Probable space group: P 21/M
;
_chemical_formula_sum "Si O2"
_cell_formula_units_Z 28
_cell_length_a 27.230136
_cell_length_b 9.778916
_cell_length_c 9.237558
_cell_angle_alpha 90.000000
_cell_angle_beta 39.448440
_cell_angle_gamma 90.000000
_cell_volume 1562.909009
_symmetry_space_group_name_H-M "P 21/M"
_symmetry_group_IT_number 11
_symmetry_cell_setting 'monoclinic'
loop_
_space_group_symop_operation_xyz
x,y,z
-x,1/2+y,-z
-x,-y,-z
x,1/2-y,z
loop_
_atom_site_type_symbol
_atom_site_label
_atom_site_fract_x
_atom_site_fract_y
_atom_site_fract_z
Si Si1 0.987675 0.912578 0.673147
Si Si2 0.466894 0.094021 0.198857
Si Si3 0.268733 0.913078 0.022265
Si Si4 0.558347 0.404924 0.282547
Si Si5 0.868836 0.087210 0.441402
Si Si6 0.293315 0.413138 0.684532
Si Si7 0.845482 0.587930 0.206264
O O1 0.990918 0.750000 0.631354
O O2 0.054482 0.941176 0.639196
O O3 0.907063 0.940950 0.938181
O O4 0.000000 0.000000 0.500000
O O5 0.457202 0.250000 0.169294
O O6 0.529163 0.093066 0.185316
O O7 0.382628 0.050364 0.449697
O O8 0.500000 0.000000 0.000000
O O9 0.264327 0.750000 0.000795
O O10 0.202855 0.944052 0.289116
O O11 0.352853 0.943792 0.898239
O O12 0.262787 0.000649 0.889898
O O13 0.500000 0.500000 0.500000
O O14 0.550034 0.250000 0.356738
O O15 0.867536 0.250000 0.411441
O O16 0.863056 0.000779 0.307873
O O17 0.289915 0.250000 0.724256
O O18 0.239014 0.438246 0.669368
O O19 0.851942 0.750000 0.225585
#
# Coordination Sequence:
#
# PCOD9162860 Si02
#       7
#     4   4   4   4   4   4   4
#     4  10  21  38  60  86 114 145 183 224 268 323
#     4  10  22  37  54  78 109 143 182 227 274 325
#     4  10  21  36  56  82 109 141 184 227 271 326
#     4  10  20  36  56  79 107 141 182 228 274 322
#     4  10  22  38  57  84 115 145 181 225 271 322
#     4  10  21  38  56  79 110 144 183 227 272 323
#     4  10  22  38  57  83 114 146 183 224 269 323
#
# _framework density 17.915310000000002
#
# number of rings (size 3 to 8) (size 9 to 14) (size 15 to 20)
#    0.000    2.000    1.429    1.286    2.000    3.429 
#    0.000    0.000    0.000    0.000    0.000    0.000 
#    0.000    0.000    0.000    0.000    0.000    0.000 
#
# Total GULP energy -156273.706710 kJ/mol
# GULP energy per Si atom -5581.203811 kJ/mol
# Density = 1.787453 g / cm^3
# Si number density = 17.915310 Si / 1000 Ang^3
#
#
#
# Elastic Constant Matrix: (Units=GPa)
#
#
# Indices 1 2 3 4 5 6 
#
# 1 99.1119 42.3788 33.0610 0.0000 6.6124 0.0000
# 2 42.3788 47.8482 38.5185 0.0000 21.0422 0.0000
# 3 33.0610 38.5185 63.8990 0.0000 13.5742 0.0000
# 4 0.0000 0.0000 0.0000 36.0642 0.0000 12.0577
# 5 6.6124 21.0422 13.5742 0.0000 32.8682 0.0000
# 6 0.0000 0.0000 0.0000 12.0577 0.0000 32.5820
#
#
#
# Elastic Compliance Matrix: (Units=1/GPa)
#
#
# Indices 1 2 3 4 5 6 
#
# 1 0.018110 -0.021437 0.001547 0.000000 0.009442 0.000000
# 2 -0.021437 0.077694 -0.028602 0.000000 -0.033615 0.000000
# 3 0.001547 -0.028602 0.030985 0.000000 0.005203 0.000000
# 4 0.000000 0.000000 0.000000 0.031644 0.000000 -0.011710
# 5 0.009442 -0.033615 0.005203 0.000000 0.047896 0.000000
# 6 0.000000 0.000000 0.000000 -0.011710 0.000000 0.035025
#
#
# Mechanical properties :
#
#
# Convention : Reuss Voigt Hill
#
# Bulk Modulus (GPa) = 33.55197 48.75285 41.15241
# Shear Modulus (GPa) = 14.35650 26.76295 20.55973
#
# Velocity S-wave (km/s) = 2.83389 3.86924 3.39131
# Velocity P-wave (km/s) = 5.42924 6.87266 6.19314
#
# Compressibility (1/GPa) = 0.02980451
#
# Stress axis : x y z
#
# Youngs Moduli (GPa) = 55.21792 12.87101 32.27336
#
# Poissons Ratio (x) = 0.27592 -0.04992
# Poissons Ratio (y) = 1.18373 0.92307
# Poissons Ratio (z) = -0.08540 0.36813
#
# Static dielectric constant tensor:
#      x y z
#    x 1.691980 0.000000 -0.000290 
#    y 0.000000 1.623980 0.000000 
#    z -0.000290 0.000000 1.595700 
# 
# From -- ./inp_files/28399.got.cif
#   From: 2010.05.17/outbox.cif.g08.bks.cpg/sg11_15_cif.got.tgz:28399.got - 2010.06.03 12:22:45.
