data_PCOD9162955
_publ_section_title
;
Structure prediction by ZEFSAII (Michael W. Deem and Ramdas Pophale) SiO2 
 PCOD9162955
Probable space group: P 21/M
;
_chemical_formula_sum "Si O2"
_cell_formula_units_Z 28
_cell_length_a 23.120306
_cell_length_b 11.122565
_cell_length_c 28.946023
_cell_angle_alpha 90.000000
_cell_angle_beta 169.024726
_cell_angle_gamma 90.000000
_cell_volume 1417.166815
_symmetry_space_group_name_H-M "P 21/M"
_symmetry_group_IT_number 11
_symmetry_cell_setting 'monoclinic'
loop_
_space_group_symop_operation_xyz
x,y,z
-x,1/2+y,-z
-x,-y,-z
x,1/2-y,z
loop_
_atom_site_type_symbol
_atom_site_label
_atom_site_fract_x
_atom_site_fract_y
_atom_site_fract_z
Si Si1 0.212956 0.883466 0.954343
Si Si2 0.700488 0.117830 0.149266
Si Si3 0.189312 0.117362 0.451776
Si Si4 0.758016 0.054376 0.638226
Si Si5 0.205489 0.619163 0.228553
Si Si6 0.494182 0.385225 0.333036
Si Si7 0.865970 0.886825 0.422959
O O1 0.249438 0.750000 0.003435
O O2 0.965264 0.876852 0.719514
O O3 0.529653 0.915401 0.178245
O O4 0.068133 0.978706 0.875174
O O5 0.543608 0.250000 0.022514
O O6 0.916671 0.104212 0.274467
O O7 0.919683 0.123691 0.364862
O O8 0.500000 0.000000 0.000000
O O9 0.334216 0.250000 0.573929
O O10 0.387209 0.996525 0.604795
O O11 0.797421 0.121268 0.717769
O O12 0.674047 0.114756 0.523220
O O13 0.463100 0.971496 0.414976
O O14 0.296514 0.750000 0.282165
O O15 0.867106 0.594159 0.944818
O O16 0.530572 0.250000 0.341516
O O17 0.855779 0.750000 0.393493
O O18 0.000000 0.000000 0.500000
#
# Coordination Sequence:
#
# PCOD9162955 Si02
#       7
#     4   4   4   4   4   4   4
#     4   9  18  34  57  80 108 143 184 231 279 331
#     4  10  21  36  57  82 113 145 186 233 282 340
#     4   9  19  36  56  81 110 145 186 231 278 336
#     4  10  20  36  57  81 111 152 191 233 285 339
#     4  10  21  36  55  82 115 148 192 239 286 338
#     4  10  21  37  57  82 116 151 188 237 284 335
#     4  10  21  37  57  84 113 145 185 231 280 339
#
# _framework density 19.757731
#
# number of rings (size 3 to 8) (size 9 to 14) (size 15 to 20)
#    0.000    2.286    0.000    2.143    2.000    2.857 
#    0.000    8.571    0.000    0.000    0.000    0.000 
#    0.000    0.000    0.000    0.000    0.000    0.000 
#
# Total GULP energy -155964.256138 kJ/mol
# GULP energy per Si atom -5570.152005 kJ/mol
# Density = 1.971276 g / cm^3
# Si number density = 19.757731 Si / 1000 Ang^3
#
#
#
# Elastic Constant Matrix: (Units=GPa)
#
#
# Indices 1 2 3 4 5 6 
#
# 1 45.0848 33.0894 -3.0702 0.0000 5.6549 0.0000
# 2 33.0894 160.4814 48.2950 0.0000 38.1128 0.0000
# 3 -3.0702 48.2950 67.4286 0.0000 5.7487 0.0000
# 4 0.0000 0.0000 0.0000 81.0226 0.0000 92.6144
# 5 5.6549 38.1128 5.7487 0.0000 28.3052 0.0000
# 6 0.0000 0.0000 0.0000 92.6144 0.0000 139.1281
#
#
#
# Elastic Compliance Matrix: (Units=1/GPa)
#
#
# Indices 1 2 3 4 5 6 
#
# 1 0.029110 -0.009684 0.007780 0.000000 0.005643 0.000000
# 2 -0.009684 0.015078 -0.009845 0.000000 -0.016368 0.000000
# 3 0.007780 -0.009845 0.021613 0.000000 0.007312 0.000000
# 4 0.000000 0.000000 0.000000 0.051623 0.000000 -0.034364
# 5 0.005643 -0.016368 0.007312 0.000000 0.054756 0.000000
# 6 0.000000 0.000000 0.000000 -0.034364 0.000000 0.030063
#
#
# Mechanical properties :
#
#
# Convention : Reuss Voigt Hill
#
# Bulk Modulus (GPa) = 23.63879 47.73591 35.68735
# Shear Modulus (GPa) = 20.84729 62.66991 41.75860
#
# Velocity S-wave (km/s) = 3.25183 5.63809 4.60230
# Velocity P-wave (km/s) = 5.10778 8.16071 6.80759
#
# Compressibility (1/GPa) = 0.04230335
#
# Stress axis : x y z
#
# Youngs Moduli (GPa) = 34.35303 66.32260 46.26945
#
# Poissons Ratio (x) = 0.64224 -0.35998
# Poissons Ratio (y) = 0.33266 0.45551
# Poissons Ratio (z) = -0.26727 0.65293
#
# Static dielectric constant tensor:
#      x y z
#    x 1.560020 0.000000 0.007550 
#    y 0.000000 1.637380 0.000000 
#    z 0.007550 0.000000 1.702070 
# 
# From -- ./inp_files/70468.got.cif
#   From: 2010.05.17/outbox.cif.g08.bks.cpg/sg11_36_cif.got.tgz:70468.got - 2010.06.03 12:22:45.
