data_PCOD9162545
_publ_section_title
;
Structure prediction by ZEFSAII (Michael W. Deem and Ramdas Pophale) SiO2 
 PCOD9162545
Probable space group: P 21/M
;
_chemical_formula_sum "Si O2"
_cell_formula_units_Z 24
_cell_length_a 15.127867
_cell_length_b 11.881543
_cell_length_c 5.040892
_cell_angle_alpha 90.000000
_cell_angle_beta 103.028928
_cell_angle_gamma 90.000000
_cell_volume 882.736708
_symmetry_space_group_name_H-M "P 21/M"
_symmetry_group_IT_number 11
_symmetry_cell_setting 'monoclinic'
loop_
_space_group_symop_operation_xyz
x,y,z
-x,1/2+y,-z
-x,-y,-z
x,1/2-y,z
loop_
_atom_site_type_symbol
_atom_site_label
_atom_site_fract_x
_atom_site_fract_y
_atom_site_fract_z
Si Si1 0.733479 0.879711 0.169164
Si Si2 0.523847 0.872479 0.831411
Si Si3 0.381272 0.015158 0.536155
Si Si4 0.256471 0.878994 0.107213
Si Si5 0.023590 0.366759 0.215536
Si Si6 0.907362 0.407156 0.624273
O O1 0.770894 0.750000 0.160621
O O2 0.709015 0.914693 0.454001
O O3 0.628291 0.872044 0.000809
O O4 0.768341 0.002548 0.072253
O O5 0.488399 0.750000 0.867987
O O6 0.436763 0.953318 0.807848
O O7 0.547347 0.898424 0.539051
O O8 0.348245 0.917043 0.316366
O O9 0.261345 0.750000 0.991944
O O10 0.182277 0.868749 0.292676
O O11 0.072511 0.250000 0.265174
O O12 0.937010 0.366480 0.355794
O O13 0.088390 0.459388 0.375788
O O14 0.987999 0.381764 0.893032
#
# Coordination Sequence:
#
# PCOD9162545 Si02
#       6
#     4   4   4   4   4   4
#     4  10  22  39  59  84 119 163 207 256 313 371
#     4   9  18  34  55  81 114 153 204 257 307 369
#     4  10  20  35  57  84 116 159 203 252 311 376
#     4  11  24  39  59  90 125 161 202 255 316 377
#     4  10  20  40  66  92 125 164 211 260 311 377
#     4  10  23  39  64  96 126 167 210 258 318 377
#
# _framework density 27.188175999999999
#
# number of rings (size 3 to 8) (size 9 to 14) (size 15 to 20)
#    0.000    2.000    0.000    3.000    2.333    2.667 
#    0.000    4.167    0.000    0.000    0.000    0.000 
#    0.000    0.000    0.000    0.000    0.000    0.000 
#
# Total GULP energy -133610.857678 kJ/mol
# GULP energy per Si atom -5567.119070 kJ/mol
# Density = 2.712629 g / cm^3
# Si number density = 27.188176 Si / 1000 Ang^3
#
#
#
# Elastic Constant Matrix: (Units=GPa)
#
#
# Indices 1 2 3 4 5 6 
#
# 1 81.6751 22.0281 10.1435 0.0000 -4.9736 0.0000
# 2 22.0281 199.0886 12.7393 0.0000 -7.4089 0.0000
# 3 10.1435 12.7393 66.5274 0.0000 -7.4393 0.0000
# 4 0.0000 0.0000 0.0000 -11.1545 0.0000 6.0012
# 5 -4.9736 -7.4089 -7.4393 0.0000 44.7760 0.0000
# 6 0.0000 0.0000 0.0000 6.0012 0.0000 -17.9230
#
#
#
# Elastic Compliance Matrix: (Units=1/GPa)
#
#
# Indices 1 2 3 4 5 6 
#
# 1 0.012847 -0.001283 -0.001607 0.000000 0.000948 0.000000
# 2 -0.001283 0.005235 -0.000740 0.000000 0.000601 0.000000
# 3 -0.001607 -0.000740 0.015676 0.000000 0.002304 0.000000
# 4 0.000000 0.000000 0.000000 -0.109348 0.000000 -0.036613
# 5 0.000948 0.000601 0.002304 0.000000 0.022921 0.000000
# 6 0.000000 0.000000 0.000000 -0.036613 0.000000 -0.068053
#
#
# Mechanical properties :
#
#
# Convention : Reuss Voigt Hill
#
# Bulk Modulus (GPa) = 37.73963 48.56809 43.15386
# Shear Modulus (GPa) = -47.78695 23.29836 -12.24429
#
# Velocity S-wave (km/s) = -4.19697 2.93051 -2.12446
# Velocity P-wave (km/s) = 3.09435 5.41784 3.14468
#
# Compressibility (1/GPa) = 0.02649735
#
# Stress axis : x y z
#
# Youngs Moduli (GPa) = 77.83889 191.03798 63.79326
#
# Poissons Ratio (x) = 0.24517 0.10252
# Poissons Ratio (y) = 0.09989 0.04718
# Poissons Ratio (z) = 0.12509 0.14128
#
# Static dielectric constant tensor:
#      x y z
#    x 2.109160 0.000000 0.025710 
#    y 0.000000 2.304340 0.000000 
#    z 0.025710 0.000000 2.339140 
# 
# From -- ./inp_files/7683.got.cif
#   From: 2010.05.17/outbox.cif.g08.bks.cpg/sg11_4_cif.got.tgz:7683.got - 2010.06.03 12:22:45.
