data_PCOD9162280
_publ_section_title
;
Structure prediction by ZEFSAII (Michael W. Deem and Ramdas Pophale) SiO2 
 PCOD9162280
Probable space group: P 21/M
;
_chemical_formula_sum "Si O2"
_cell_formula_units_Z 28
_cell_length_a 18.983033
_cell_length_b 8.927373
_cell_length_c 23.798667
_cell_angle_alpha 90.000000
_cell_angle_beta 155.892327
_cell_angle_gamma 90.000000
_cell_volume 1647.341691
_symmetry_space_group_name_H-M "P 21/M"
_symmetry_group_IT_number 11
_symmetry_cell_setting 'monoclinic'
loop_
_space_group_symop_operation_xyz
x,y,z
-x,1/2+y,-z
-x,-y,-z
x,1/2-y,z
loop_
_atom_site_type_symbol
_atom_site_label
_atom_site_fract_x
_atom_site_fract_y
_atom_site_fract_z
Si Si1 0.106833 0.570313 0.767778
Si Si2 0.643739 0.429327 0.145588
Si Si3 0.551247 0.429824 0.775012
Si Si4 0.811723 0.429706 0.866314
Si Si5 0.431603 0.569482 0.082719
Si Si6 0.264934 0.571691 0.489036
Si Si7 0.474624 0.429508 0.420698
O O1 0.088002 0.750000 0.757818
O O2 0.178575 0.534987 0.757339
O O3 0.926020 0.494143 0.648314
O O4 0.257646 0.526667 0.921892
O O5 0.626171 0.250000 0.133986
O O6 0.595566 0.497347 0.170605
O O7 0.500000 0.500000 0.000000
O O8 0.529605 0.250000 0.757519
O O9 0.714669 0.466270 0.854375
O O10 0.576908 0.473921 0.858341
O O11 0.384758 0.503816 0.625261
O O12 0.819463 0.250000 0.866642
O O13 0.690904 0.498864 0.730124
O O14 0.000000 0.500000 0.000000
O O15 0.445268 0.750000 0.088669
O O16 0.259277 0.750000 0.490768
O O17 0.363866 0.536409 0.502763
O O18 0.500000 0.500000 0.500000
O O19 0.456077 0.250000 0.410581
#
# Coordination Sequence:
#
# PCOD9162280 Si02
#       7
#     4   4   4   4   4   4   4
#     4   9  18  32  51  75 103 134 168 205 250 303
#     4   9  17  30  49  74 102 132 166 207 253 298
#     4   9  19  36  55  74 102 138 170 203 253 308
#     4  10  20  35  55  79 106 138 173 211 256 306
#     4   9  18  33  53  77 101 130 170 211 250 298
#     4  10  21  35  52  76 104 133 169 210 252 297
#     4  10  21  37  55  77 104 135 172 215 260 308
#
# _framework density 16.997081000000001
#
# number of rings (size 3 to 8) (size 9 to 14) (size 15 to 20)
#    0.000    2.571    0.000    2.571    0.000    6.857 
#    0.000    2.143    0.000    0.000    0.000    0.000 
#    0.000    0.000    0.000    0.000    0.000    0.000 
#
# Total GULP energy -156106.127482 kJ/mol
# GULP energy per Si atom -5575.218839 kJ/mol
# Density = 1.695839 g / cm^3
# Si number density = 16.997081 Si / 1000 Ang^3
#
#
#
# Elastic Constant Matrix: (Units=GPa)
#
#
# Indices 1 2 3 4 5 6 
#
# 1 164.6160 62.0655 102.6368 0.0000 -7.9600 0.0000
# 2 62.0655 45.6152 51.8921 0.0000 5.6839 0.0000
# 3 102.6368 51.8921 117.2443 0.0000 16.4999 0.0000
# 4 0.0000 0.0000 0.0000 31.1570 0.0000 4.5879
# 5 -7.9600 5.6839 16.4999 0.0000 23.1726 0.0000
# 6 0.0000 0.0000 0.0000 4.5879 0.0000 30.5554
#
#
#
# Elastic Compliance Matrix: (Units=1/GPa)
#
#
# Indices 1 2 3 4 5 6 
#
# 1 0.024488 -0.016199 -0.017793 0.000000 0.025054 0.000000
# 2 -0.016199 0.055117 -0.008366 0.000000 -0.013127 0.000000
# 3 -0.017793 -0.008366 0.031540 0.000000 -0.026518 0.000000
# 4 0.000000 0.000000 0.000000 0.032821 0.000000 -0.004928
# 5 0.025054 -0.013127 -0.026518 0.000000 0.073862 0.000000
# 6 0.000000 0.000000 0.000000 -0.004928 0.000000 0.033467
#
#
# Mechanical properties :
#
#
# Convention : Reuss Voigt Hill
#
# Bulk Modulus (GPa) = 37.83909 84.51825 61.17867
# Shear Modulus (GPa) = 14.50024 24.36908 19.43466
#
# Velocity S-wave (km/s) = 2.92396 3.79056 3.38511
# Velocity P-wave (km/s) = 5.80602 8.30608 7.16592
#
# Compressibility (1/GPa) = 0.02642770
#
# Stress axis : x y z
#
# Youngs Moduli (GPa) = 40.83699 18.14322 31.70568
#
# Poissons Ratio (x) = 0.29391 0.56414
# Poissons Ratio (y) = 0.66153 0.26526
# Poissons Ratio (z) = 0.72661 0.15179
#
# Static dielectric constant tensor:
#      x y z
#    x 1.597910 0.000000 -0.000020 
#    y 0.000000 1.565900 0.000000 
#    z -0.000020 0.000000 1.546800 
# 
# From -- ./inp_files/28226.got.cif
#   From: 2010.05.17/outbox.cif.g08.bks.cpg/sg11_15_cif.got.tgz:28226.got - 2010.06.03 12:22:45.
