data_PCOD9162240
_publ_section_title
;
Structure prediction by ZEFSAII (Michael W. Deem and Ramdas Pophale) SiO2 
 PCOD9162240
Probable space group: P 21/M
;
_chemical_formula_sum "Si O2"
_cell_formula_units_Z 28
_cell_length_a 6.568034
_cell_length_b 17.236364
_cell_length_c 15.695930
_cell_angle_alpha 90.000000
_cell_angle_beta 58.159805
_cell_angle_gamma 90.000000
_cell_volume 1509.534853
_symmetry_space_group_name_H-M "P 21/M"
_symmetry_group_IT_number 11
_symmetry_cell_setting 'monoclinic'
loop_
_space_group_symop_operation_xyz
x,y,z
-x,1/2+y,-z
-x,-y,-z
x,1/2-y,z
loop_
_atom_site_type_symbol
_atom_site_label
_atom_site_fract_x
_atom_site_fract_y
_atom_site_fract_z
Si Si1 0.429890 0.911628 0.995898
Si Si2 0.455898 0.159728 0.645747
Si Si3 0.299345 0.953796 0.838088
Si Si4 0.084549 0.122287 0.876509
Si Si5 0.739374 0.552627 0.454429
Si Si6 0.081980 0.165639 0.070971
Si Si7 0.754218 0.491153 0.633090
O O1 0.376174 0.913167 0.907962
O O2 0.647430 0.856187 0.967802
O O3 0.186937 0.886135 0.096628
O O4 0.500000 0.000000 0.000000
O O5 0.531879 0.250000 0.620427
O O6 0.264611 0.154329 0.765835
O O7 0.326061 0.127096 0.588468
O O8 0.661455 0.095010 0.622870
O O9 0.093629 0.897639 0.848705
O O10 0.174181 0.036212 0.881392
O O11 0.532863 0.972838 0.732800
O O12 0.074234 0.164626 0.969433
O O13 0.500000 0.500000 0.500000
O O14 0.787459 0.549625 0.545507
O O15 0.998311 0.518057 0.368677
O O16 0.014624 0.250000 0.117221
#
# Coordination Sequence:
#
# PCOD9162240 Si02
#       7
#     4   4   4   4   4   4   4
#     4  11  19  32  55  79 107 150 196 221 267 322
#     4  10  21  34  55  86 117 142 174 223 285 337
#     4  10  20  35  57  77 104 146 189 226 265 331
#     4  10  20  35  54  79 111 149 183 221 268 335
#     4   9  19  37  59  83 107 136 181 224 272 328
#     4  11  22  35  51  77 113 146 186 237 275 310
#     4   9  20  37  60  81 106 145 185 226 271 336
#
# _framework density 18.548760999999999
#
# number of rings (size 3 to 8) (size 9 to 14) (size 15 to 20)
#    0.000    2.000    2.857    1.286    2.000    4.571 
#    0.000    0.714    0.000    3.429    0.000    0.000 
#    0.000    0.000    0.000    0.000    0.000    0.000 
#
# Total GULP energy -155876.539530 kJ/mol
# GULP energy per Si atom -5567.019269 kJ/mol
# Density = 1.850654 g / cm^3
# Si number density = 18.548761 Si / 1000 Ang^3
#
#
#
# Elastic Constant Matrix: (Units=GPa)
#
#
# Indices 1 2 3 4 5 6 
#
# 1 89.9340 18.9647 19.7077 0.0000 -20.4640 0.0000
# 2 18.9647 92.6277 29.6506 0.0000 -2.7126 0.0000
# 3 19.7077 29.6506 57.1387 0.0000 -18.3622 0.0000
# 4 0.0000 0.0000 0.0000 7.3484 0.0000 -3.7037
# 5 -20.4640 -2.7126 -18.3622 0.0000 28.6775 0.0000
# 6 0.0000 0.0000 0.0000 -3.7037 0.0000 7.9340
#
#
#
# Elastic Compliance Matrix: (Units=1/GPa)
#
#
# Indices 1 2 3 4 5 6 
#
# 1 0.013863 -0.002390 -0.000547 0.000000 0.009316 0.000000
# 2 -0.002390 0.013710 -0.008085 0.000000 -0.005586 0.000000
# 3 -0.000547 -0.008085 0.027088 0.000000 0.016189 0.000000
# 4 0.000000 0.000000 0.000000 0.177954 0.000000 0.083072
# 5 0.009316 -0.005586 0.016189 0.000000 0.051356 0.000000
# 6 0.000000 0.000000 0.000000 0.083072 0.000000 0.164819
#
#
# Mechanical properties :
#
#
# Convention : Reuss Voigt Hill
#
# Bulk Modulus (GPa) = 30.65992 41.81627 36.23810
# Shear Modulus (GPa) = 10.37976 20.21714 15.29845
#
# Velocity S-wave (km/s) = 2.36814 3.30501 2.87500
# Velocity P-wave (km/s) = 4.90333 6.09566 5.53172
#
# Compressibility (1/GPa) = 0.03261587
#
# Stress axis : x y z
#
# Youngs Moduli (GPa) = 72.13421 72.94093 36.91666
#
# Poissons Ratio (x) = 0.17435 0.02020
# Poissons Ratio (y) = 0.17242 0.29847
# Poissons Ratio (z) = 0.03948 0.58972
#
# Static dielectric constant tensor:
#      x y z
#    x 1.714190 0.000000 -0.014190 
#    y 0.000000 1.642390 0.000000 
#    z -0.014190 0.000000 1.672720 
# 
# From -- ./inp_files/45980.got.cif
#   From: 2010.05.17/outbox.cif.g08.bks.cpg/sg11_23_cif.got.tgz:45980.got - 2010.06.03 12:22:45.
