data_PCOD9162256
_publ_section_title
;
Structure prediction by ZEFSAII (Michael W. Deem and Ramdas Pophale) SiO2 
 PCOD9162256
Probable space group: P 21/M
;
_chemical_formula_sum "Si O2"
_cell_formula_units_Z 32
_cell_length_a 10.667051
_cell_length_b 9.060099
_cell_length_c 18.813850
_cell_angle_alpha 90.000000
_cell_angle_beta 109.167677
_cell_angle_gamma 90.000000
_cell_volume 1717.454917
_symmetry_space_group_name_H-M "P 21/M"
_symmetry_group_IT_number 11
_symmetry_cell_setting 'monoclinic'
loop_
_space_group_symop_operation_xyz
x,y,z
-x,1/2+y,-z
-x,-y,-z
x,1/2-y,z
loop_
_atom_site_type_symbol
_atom_site_label
_atom_site_fract_x
_atom_site_fract_y
_atom_site_fract_z
Si Si1 0.874836 0.575107 0.151832
Si Si2 0.906232 0.573235 0.541516
Si Si3 0.398368 0.427463 0.535216
Si Si4 0.415861 0.424519 0.170801
Si Si5 0.742637 0.574099 0.988544
Si Si6 0.113731 0.574854 0.694508
Si Si7 0.373912 0.426054 0.691218
Si Si8 0.849425 0.424388 0.879067
O O1 0.862724 0.750000 0.165804
O O2 0.876044 0.484361 0.223912
O O3 0.013877 0.551904 0.136353
O O4 0.760199 0.534031 0.073693
O O5 0.908505 0.750000 0.530482
O O6 0.753693 0.525003 0.507969
O O7 0.000000 0.500000 0.500000
O O8 0.973790 0.542855 0.630310
O O9 0.500000 0.500000 0.500000
O O10 0.403770 0.250000 0.528815
O O11 0.429020 0.463484 0.623270
O O12 0.427642 0.250000 0.184459
O O13 0.392674 0.450500 0.081492
O O14 0.535492 0.508216 0.229677
O O15 0.276672 0.487223 0.176266
O O16 0.771797 0.750000 0.988935
O O17 0.153173 0.515047 0.040738
O O18 0.135392 0.750000 0.696761
O O19 0.228433 0.494423 0.671563
O O20 0.366578 0.250000 0.695949
O O21 0.821443 0.250000 0.873928
#
# Coordination Sequence:
#
# PCOD9162256 Si02
#       8
#     4   4   4   4   4   4   4   4
#     4  10  20  35  54  81 117 152 193 240 287 347
#     4  10  21  41  65  90 120 156 200 243 293 358
#     4  10  23  41  64  94 124 156 197 245 297 357
#     4   9  19  34  55  81 113 151 192 236 286 343
#     4   8  17  33  53  79 111 152 194 237 291 346
#     4  11  24  38  59  88 115 149 195 244 295 354
#     4  11  22  40  62  84 115 152 195 241 293 356
#     4   9  17  30  53  82 112 149 191 238 292 347
#
# _framework density 18.632221000000001
#
# number of rings (size 3 to 8) (size 9 to 14) (size 15 to 20)
#    0.750    1.500    1.250    1.500    0.000    4.500 
#    0.000    3.125    0.000    0.000    0.000    0.000 
#    0.000    0.000    0.000    0.000    0.000    0.000 
#
# Total GULP energy -178309.412744 kJ/mol
# GULP energy per Si atom -5572.169148 kJ/mol
# Density = 1.858981 g / cm^3
# Si number density = 18.632221 Si / 1000 Ang^3
#
#
#
# Elastic Constant Matrix: (Units=GPa)
#
#
# Indices 1 2 3 4 5 6 
#
# 1 55.8575 17.9210 38.4998 0.0000 4.6408 0.0000
# 2 17.9210 39.4799 48.1843 0.0000 -0.5710 0.0000
# 3 38.4998 48.1843 119.8805 0.0000 4.6388 0.0000
# 4 0.0000 0.0000 0.0000 26.1203 0.0000 -1.2000
# 5 4.6408 -0.5710 4.6388 0.0000 31.2336 0.0000
# 6 0.0000 0.0000 0.0000 -1.2000 0.0000 31.5175
#
#
#
# Elastic Compliance Matrix: (Units=1/GPa)
#
#
# Indices 1 2 3 4 5 6 
#
# 1 0.023359 -0.003158 -0.006131 0.000000 -0.002618 0.000000
# 2 -0.003158 0.050623 -0.019499 0.000000 0.004291 0.000000
# 3 -0.006131 -0.019499 0.018231 0.000000 -0.002153 0.000000
# 4 0.000000 0.000000 0.000000 0.038352 0.000000 0.001460
# 5 -0.002618 0.004291 -0.002153 0.000000 0.032804 0.000000
# 6 0.000000 0.000000 0.000000 0.001460 0.000000 0.031784
#
#
# Mechanical properties :
#
#
# Convention : Reuss Voigt Hill
#
# Bulk Modulus (GPa) = 28.87100 47.15866 38.01483
# Shear Modulus (GPa) = 18.91961 25.14847 22.03404
#
# Velocity S-wave (km/s) = 3.19003 3.67785 3.44259
# Velocity P-wave (km/s) = 5.39418 6.58792 6.02071
#
# Compressibility (1/GPa) = 0.03463683
#
# Stress axis : x y z
#
# Youngs Moduli (GPa) = 42.80931 19.75380 54.85067
#
# Poissons Ratio (x) = 0.06239 0.33630
# Poissons Ratio (y) = 0.13521 1.06953
# Poissons Ratio (z) = 0.26247 0.38518
#
# Static dielectric constant tensor:
#      x y z
#    x 1.632180 0.000000 0.025600 
#    y 0.000000 1.619820 0.000000 
#    z 0.025600 0.000000 1.677290 
# 
# From -- ./inp_files/64223.got.cif
#   From: 2010.05.17/outbox.cif.g08.bks.cpg/sg11_33_cif.got.tgz:64223.got - 2010.06.03 12:22:45.
