data_PCOD9162726
_publ_section_title
;
Structure prediction by ZEFSAII (Michael W. Deem and Ramdas Pophale) SiO2 
 PCOD9162726
Probable space group: P 21/M
;
_chemical_formula_sum "Si O2"
_cell_formula_units_Z 24
_cell_length_a 14.924915
_cell_length_b 13.483241
_cell_length_c 6.576715
_cell_angle_alpha 90.000000
_cell_angle_beta 72.896083
_cell_angle_gamma 90.000000
_cell_volume 1264.939933
_symmetry_space_group_name_H-M "P 21/M"
_symmetry_group_IT_number 11
_symmetry_cell_setting 'monoclinic'
loop_
_space_group_symop_operation_xyz
x,y,z
-x,1/2+y,-z
-x,-y,-z
x,1/2-y,z
loop_
_atom_site_type_symbol
_atom_site_label
_atom_site_fract_x
_atom_site_fract_y
_atom_site_fract_z
Si Si1 0.272361 0.037786 0.238805
Si Si2 0.399834 0.992657 0.770161
Si Si3 0.570215 0.633876 0.614343
Si Si4 0.936121 0.532744 0.732122
Si Si5 0.726797 0.365063 0.446474
Si Si6 0.077855 0.862191 0.926033
O O1 0.330572 0.111111 0.345384
O O2 0.165614 0.069181 0.271114
O O3 0.269851 0.931592 0.354499
O O4 0.329989 0.024527 0.993345
O O5 0.492026 0.933336 0.779567
O O6 0.347623 0.916082 0.653792
O O7 0.427093 0.087339 0.614069
O O8 0.548917 0.750000 0.630758
O O9 0.000000 0.500000 0.500000
O O10 0.992904 0.610138 0.832539
O O11 0.920277 0.438221 0.889243
O O12 0.705274 0.250000 0.499516
O O13 0.826961 0.371597 0.267295
O O14 0.069682 0.750000 0.005638
#
# Coordination Sequence:
#
# PCOD9162726 Si02
#       6
#     4   4   4   4   4   4
#     4  11  22  38  61  90 120 156 196 242 299 350
#     4  10  21  41  61  86 122 157 193 245 298 346
#     4  10  23  40  61  88 119 156 199 242 293 357
#     4  11  22  39  60  85 123 158 191 244 295 344
#     4  10  20  35  59  90 117 149 197 245 292 346
#     4  10  22  38  59  86 115 155 201 242 291 346
#
# _framework density 18.973234000000001
#
# number of rings (size 3 to 8) (size 9 to 14) (size 15 to 20)
#    0.000    1.667    3.333    1.000    0.000    4.000 
#    0.000    1.667    0.000    0.000    0.000    0.000 
#    0.000    0.000    0.000    0.000    0.000    0.000 
#
# Total GULP energy -134054.040725 kJ/mol
# GULP energy per Si atom -5585.585030 kJ/mol
# Density = 1.893005 g / cm^3
# Si number density = 18.973234 Si / 1000 Ang^3
#
#
#
# Elastic Constant Matrix: (Units=GPa)
#
#
# Indices 1 2 3 4 5 6 
#
# 1 120.2371 10.1874 3.9909 0.0000 3.0841 0.0000
# 2 10.1874 66.4124 3.7465 0.0000 -4.0522 0.0000
# 3 3.9909 3.7465 59.9252 0.0000 -16.9730 0.0000
# 4 0.0000 0.0000 0.0000 12.8546 0.0000 -8.4234
# 5 3.0841 -4.0522 -16.9730 0.0000 30.9236 0.0000
# 6 0.0000 0.0000 0.0000 -8.4234 0.0000 17.1167
#
#
#
# Elastic Compliance Matrix: (Units=1/GPa)
#
#
# Indices 1 2 3 4 5 6 
#
# 1 0.008500 -0.001345 -0.000914 0.000000 -0.001526 0.000000
# 2 -0.001345 0.015402 -0.000312 0.000000 0.001981 0.000000
# 3 -0.000914 -0.000312 0.019871 0.000000 0.010957 0.000000
# 4 0.000000 0.000000 0.000000 0.114820 0.000000 0.056505
# 5 -0.001526 0.001981 0.010957 0.000000 0.038763 0.000000
# 6 0.000000 0.000000 0.000000 0.056505 0.000000 0.086230
#
#
# Mechanical properties :
#
#
# Convention : Reuss Voigt Hill
#
# Bulk Modulus (GPa) = 25.88638 31.38046 28.63342
# Shear Modulus (GPa) = 16.57782 27.42230 22.00006
#
# Velocity S-wave (km/s) = 2.95913 3.80585 3.40888
# Velocity P-wave (km/s) = 5.03473 5.99065 5.53337
#
# Compressibility (1/GPa) = 0.03863035
#
# Stress axis : x y z
#
# Youngs Moduli (GPa) = 117.64177 64.92533 50.32384
#
# Poissons Ratio (x) = 0.08735 0.04600
# Poissons Ratio (y) = 0.15828 0.01571
# Poissons Ratio (z) = 0.10754 0.02027
#
# Static dielectric constant tensor:
#      x y z
#    x 1.686560 0.000000 0.007270 
#    y 0.000000 1.620570 0.000000 
#    z 0.007270 0.000000 1.633910 
# 
# From -- ./inp_files/6391.got.cif
#   From: 2010.05.17/outbox.cif.g08.bks.cpg/sg11_4_cif.got.tgz:6391.got - 2010.06.03 12:22:45.
