data_PCOD9162120
_publ_section_title
;
Structure prediction by ZEFSAII (Michael W. Deem and Ramdas Pophale) SiO2 
 PCOD9162120
Probable space group: P 21/M
;
_chemical_formula_sum "Si O2"
_cell_formula_units_Z 26
_cell_length_a 15.362714
_cell_length_b 14.972116
_cell_length_c 8.659024
_cell_angle_alpha 90.000000
_cell_angle_beta 34.002897
_cell_angle_gamma 90.000000
_cell_volume 1113.818115
_symmetry_space_group_name_H-M "P 21/M"
_symmetry_group_IT_number 11
_symmetry_cell_setting 'monoclinic'
loop_
_space_group_symop_operation_xyz
x,y,z
-x,1/2+y,-z
-x,-y,-z
x,1/2-y,z
loop_
_atom_site_type_symbol
_atom_site_label
_atom_site_fract_x
_atom_site_fract_y
_atom_site_fract_z
Si Si1 0.954968 0.147742 0.009044
Si Si2 0.764821 0.018560 0.067335
Si Si3 0.760188 0.250000 0.641012
Si Si4 0.511336 0.158618 0.791525
Si Si5 0.740371 0.601130 0.618803
Si Si6 0.070706 0.924599 0.607452
Si Si7 0.462071 0.459216 0.358262
O O1 0.905550 0.250000 0.116568
O O2 0.117595 0.147170 0.679113
O O3 0.839695 0.092752 0.069243
O O4 0.965473 0.097506 0.157215
O O5 0.637622 0.064095 0.144397
O O6 0.660554 0.949845 0.322139
O O7 0.908342 0.964974 0.782959
O O8 0.645592 0.174558 0.722396
O O9 0.870394 0.331259 0.545694
O O10 0.516050 0.250000 0.686679
O O11 0.539100 0.065319 0.671080
O O12 0.343602 0.150523 0.118821
O O13 0.805730 0.505014 0.574307
O O14 0.604703 0.587669 0.692668
#
# Coordination Sequence:
#
# PCOD9162120 Si02
#       7
#     4   4   2   4   4   4   4
#     4  11  20  35  60  86 119 156 199 251 285 345
#     4  10  22  37  58  89 120 152 191 238 306 352
#     4  10  20  34  60  84 112 152 202 244 286 324
#     4  10  22  37  59  89 115 156 201 242 287 343
#     4  11  19  37  63  84 114 154 202 243 284 351
#     4  11  19  37  59  86 114 154 201 242 288 349
#     4  11  20  37  60  85 120 155 188 244 293 355
#
# _framework density 23.343131
#
# number of rings (size 3 to 8) (size 9 to 14) (size 15 to 20)
#    0.462    0.923    5.385    1.846    0.000    0.000 
#    1.385    4.615    1.692    0.000    0.000    0.000 
#    0.000    0.000    0.000    0.000    0.000    0.000 
#
# Total GULP energy -144842.694425 kJ/mol
# GULP energy per Si atom -5570.872862 kJ/mol
# Density = 2.329000 g / cm^3
# Si number density = 23.343131 Si / 1000 Ang^3
#
#
#
# Elastic Constant Matrix: (Units=GPa)
#
#
# Indices 1 2 3 4 5 6 
#
# 1 64.9991 13.3788 33.2448 0.0000 -33.7983 0.0000
# 2 13.3788 79.6535 18.2913 0.0000 -12.9765 0.0000
# 3 33.2448 18.2913 109.2334 0.0000 -17.5222 0.0000
# 4 0.0000 0.0000 0.0000 19.6598 0.0000 -3.4197
# 5 -33.7983 -12.9765 -17.5222 0.0000 42.0491 0.0000
# 6 0.0000 0.0000 0.0000 -3.4197 0.0000 6.5746
#
#
#
# Elastic Compliance Matrix: (Units=1/GPa)
#
#
# Indices 1 2 3 4 5 6 
#
# 1 0.029217 -0.000208 -0.005466 0.000000 0.021142 0.000000
# 2 -0.000208 0.013511 -0.001669 0.000000 0.003307 0.000000
# 3 -0.005466 -0.001669 0.011049 0.000000 -0.000304 0.000000
# 4 0.000000 0.000000 0.000000 0.055925 0.000000 0.029088
# 5 0.021142 0.003307 -0.000304 0.000000 0.041669 0.000000
# 6 0.000000 0.000000 0.000000 0.029088 0.000000 0.167230
#
#
# Mechanical properties :
#
#
# Convention : Reuss Voigt Hill
#
# Bulk Modulus (GPa) = 25.58067 42.63509 34.10788
# Shear Modulus (GPa) = 14.43768 26.25477 20.34623
#
# Velocity S-wave (km/s) = 2.48966 3.35734 2.95552
# Velocity P-wave (km/s) = 4.38713 5.77349 5.12738
#
# Compressibility (1/GPa) = 0.03909202
#
# Stress axis : x y z
#
# Youngs Moduli (GPa) = 34.22712 74.01235 90.50719
#
# Poissons Ratio (x) = 0.01538 0.49469
# Poissons Ratio (y) = 0.00711 0.15103
# Poissons Ratio (z) = 0.18708 0.12351
#
# Static dielectric constant tensor:
#      x y z
#    x 1.914680 0.000000 0.026800 
#    y 0.000000 1.837870 0.000000 
#    z 0.026800 0.000000 1.971260 
# 
# From -- ./inp_files/41464.got.cif
#   From: 2010.05.17/outbox.cif.g08.bks.cpg/sg11_21_cif.got.tgz:41464.got - 2010.06.03 12:22:45.
