data_PCOD9162903
_publ_section_title
;
Structure prediction by ZEFSAII (Michael W. Deem and Ramdas Pophale) SiO2 
 PCOD9162903
Probable space group: P 21/M
;
_chemical_formula_sum "Si O2"
_cell_formula_units_Z 28
_cell_length_a 29.381247
_cell_length_b 8.297236
_cell_length_c 9.124559
_cell_angle_alpha 90.000000
_cell_angle_beta 38.938616
_cell_angle_gamma 90.000000
_cell_volume 1398.016022
_symmetry_space_group_name_H-M "P 21/M"
_symmetry_group_IT_number 11
_symmetry_cell_setting 'monoclinic'
loop_
_space_group_symop_operation_xyz
x,y,z
-x,1/2+y,-z
-x,-y,-z
x,1/2-y,z
loop_
_atom_site_type_symbol
_atom_site_label
_atom_site_fract_x
_atom_site_fract_y
_atom_site_fract_z
Si Si1 0.858345 0.562173 0.503085
Si Si2 0.281781 0.946469 0.628968
Si Si3 0.572489 0.445046 0.899416
Si Si4 0.133800 0.940012 0.842063
Si Si5 0.571985 0.055450 0.237711
Si Si6 0.280839 0.945548 0.970146
Si Si7 0.991850 0.438481 0.354919
O O1 0.855043 0.750000 0.474453
O O2 0.864461 0.465792 0.336140
O O3 0.787039 0.510940 0.770057
O O4 0.927717 0.528259 0.430495
O O5 0.283099 0.750000 0.624178
O O6 0.355369 0.001091 0.365773
O O7 0.209803 0.995230 0.722031
O O8 0.278626 0.997035 0.806118
O O9 0.573671 0.250000 0.896771
O O10 0.500000 0.500000 0.000000
O O11 0.572899 0.500446 0.067000
O O12 0.125007 0.750000 0.896420
O O13 0.066587 0.031182 0.082342
O O14 0.572608 0.250000 0.234918
O O15 0.500000 0.000000 0.500000
O O16 0.644092 0.002789 0.142584
O O17 0.277816 0.750000 0.981169
O O18 0.974075 0.250000 0.401435
O O19 0.000000 0.500000 0.500000
#
# Coordination Sequence:
#
# PCOD9162903 Si02
#       7
#     4   4   4   4   4   4   4
#     4  12  25  41  61  89 122 159 200 247 299 357
#     4   9  19  36  61  86 112 147 192 239 292 352
#     4  10  20  36  56  83 114 151 194 239 290 350
#     4  11  22  40  64  90 120 158 200 247 299 357
#     4  10  21  36  58  85 117 154 197 245 300 361
#     4  10  20  38  62  87 114 152 197 247 302 360
#     4  12  25  43  65  92 124 159 199 246 298 357
#
# _framework density 20.028383999999999
#
# number of rings (size 3 to 8) (size 9 to 14) (size 15 to 20)
#    0.000    1.429    0.000    6.000    0.000    5.714 
#    0.000    4.286    0.000    0.000    0.000    0.000 
#    0.000    0.000    0.000    0.000    0.000    0.000 
#
# Total GULP energy -156626.309439 kJ/mol
# GULP energy per Si atom -5593.796766 kJ/mol
# Density = 1.998280 g / cm^3
# Si number density = 20.028384 Si / 1000 Ang^3
#
#
#
# Elastic Constant Matrix: (Units=GPa)
#
#
# Indices 1 2 3 4 5 6 
#
# 1 156.1177 -13.3552 61.1653 0.0000 -3.6303 0.0000
# 2 -13.3552 20.2957 -11.7484 0.0000 -1.1061 0.0000
# 3 61.1653 -11.7484 148.5253 0.0000 -3.5406 0.0000
# 4 0.0000 0.0000 0.0000 36.7705 0.0000 -2.8138
# 5 -3.6303 -1.1061 -3.5406 0.0000 44.2988 0.0000
# 6 0.0000 0.0000 0.0000 -2.8138 0.0000 25.7160
#
#
#
# Elastic Compliance Matrix: (Units=1/GPa)
#
#
# Indices 1 2 3 4 5 6 
#
# 1 0.007874 0.003498 -0.002954 0.000000 0.000496 0.000000
# 2 0.003498 0.053306 0.002820 0.000000 0.001843 0.000000
# 3 -0.002954 0.002820 0.008184 0.000000 0.000482 0.000000
# 4 0.000000 0.000000 0.000000 0.027425 0.000000 0.003001
# 5 0.000496 0.001843 0.000482 0.000000 0.022699 0.000000
# 6 0.000000 0.000000 0.000000 0.003001 0.000000 0.039215
#
#
# Mechanical properties :
#
#
# Convention : Reuss Voigt Hill
#
# Bulk Modulus (GPa) = 13.14200 44.11798 28.62999
# Shear Modulus (GPa) = 28.19465 40.61552 34.40509
#
# Velocity S-wave (km/s) = 3.75605 4.50810 4.14915
# Velocity P-wave (km/s) = 5.03850 7.01234 6.10571
#
# Compressibility (1/GPa) = 0.07609195
#
# Stress axis : x y z
#
# Youngs Moduli (GPa) = 127.00773 18.75954 122.19129
#
# Poissons Ratio (x) = -0.06562 0.36094
# Poissons Ratio (y) = -0.44430 -0.34457
# Poissons Ratio (z) = 0.37517 -0.05290
#
# Static dielectric constant tensor:
#      x y z
#    x 1.679080 0.000000 0.004010 
#    y 0.000000 1.700850 0.000000 
#    z 0.004010 0.000000 1.658820 
# 
# From -- ./inp_files/28351.got.cif
#   From: 2010.05.17/outbox.cif.g08.bks.cpg/sg11_15_cif.got.tgz:28351.got - 2010.06.03 12:22:45.
