data_PCOD9162793
_publ_section_title
;
Structure prediction by ZEFSAII (Michael W. Deem and Ramdas Pophale) SiO2 
 PCOD9162793
Probable space group: P 21/M
;
_chemical_formula_sum "Si O2"
_cell_formula_units_Z 28
_cell_length_a 10.648573
_cell_length_b 13.735848
_cell_length_c 9.640633
_cell_angle_alpha 90.000000
_cell_angle_beta 113.998257
_cell_angle_gamma 90.000000
_cell_volume 1288.215391
_symmetry_space_group_name_H-M "P 21/M"
_symmetry_group_IT_number 11
_symmetry_cell_setting 'monoclinic'
loop_
_space_group_symop_operation_xyz
x,y,z
-x,1/2+y,-z
-x,-y,-z
x,1/2-y,z
loop_
_atom_site_type_symbol
_atom_site_label
_atom_site_fract_x
_atom_site_fract_y
_atom_site_fract_z
Si Si1 0.960657 0.867005 0.390560
Si Si2 0.360559 0.361302 0.079344
Si Si3 0.777345 0.133397 0.674745
Si Si4 0.145616 0.866677 0.719390
Si Si5 0.148755 0.967166 0.016716
Si Si6 0.362156 0.364029 0.769293
Si Si7 0.397792 0.941831 0.644831
O O1 0.966141 0.750000 0.392715
O O2 0.075631 0.895581 0.329744
O O3 0.015293 0.897781 0.566449
O O4 0.801520 0.888626 0.293269
O O5 0.312208 0.250000 0.060955
O O6 0.238880 0.436622 0.041117
O O7 0.469002 0.382790 0.248270
O O8 0.422380 0.376225 0.951726
O O9 0.760921 0.250000 0.653234
O O10 0.783637 0.100800 0.835683
O O11 0.659358 0.079990 0.533152
O O12 0.148425 0.750000 0.729033
O O13 0.278035 0.901729 0.693206
O O14 0.141459 0.911889 0.868289
O O15 0.000000 0.000000 0.000000
O O16 0.377083 0.250000 0.736037
O O17 0.419655 0.444573 0.690916
#
# Coordination Sequence:
#
# PCOD9162793 Si02
#       7
#     4   4   4   4   4   4   4
#     4   8  17  35  61  91 123 165 204 255 319 365
#     4  11  24  44  65  91 129 169 213 265 325 385
#     4  10  22  40  63  92 130 171 213 262 317 386
#     4  10  21  38  64  94 125 159 214 270 310 377
#     4  12  26  40  62  94 126 174 213 257 323 387
#     4  10  20  35  62  96 128 158 205 268 318 371
#     4  11  22  41  69  94 122 167 219 263 329 380
#
# _framework density 21.735495
#
# number of rings (size 3 to 8) (size 9 to 14) (size 15 to 20)
#    0.000    1.714    1.429    3.857    2.000    4.000 
#    0.000    1.429    0.000    0.000    0.000    0.000 
#    0.000    0.000    0.000    0.000    0.000    0.000 
#
# Total GULP energy -156661.692279 kJ/mol
# GULP energy per Si atom -5595.060439 kJ/mol
# Density = 2.168602 g / cm^3
# Si number density = 21.735495 Si / 1000 Ang^3
#
#
#
# Elastic Constant Matrix: (Units=GPa)
#
#
# Indices 1 2 3 4 5 6 
#
# 1 15.0397 8.7507 9.0990 0.0000 -5.0611 0.0000
# 2 8.7507 122.4474 23.6098 0.0000 -4.9060 0.0000
# 3 9.0990 23.6098 132.5940 0.0000 -9.7995 0.0000
# 4 0.0000 0.0000 0.0000 34.1531 0.0000 3.6584
# 5 -5.0611 -4.9060 -9.7995 0.0000 23.9568 0.0000
# 6 0.0000 0.0000 0.0000 3.6584 0.0000 22.8290
#
#
#
# Elastic Compliance Matrix: (Units=1/GPa)
#
#
# Indices 1 2 3 4 5 6 
#
# 1 0.075620 -0.004194 -0.003429 0.000000 0.013714 0.000000
# 2 -0.004194 0.008721 -0.001236 0.000000 0.000394 0.000000
# 3 -0.003429 -0.001236 0.008172 0.000000 0.002365 0.000000
# 4 0.000000 0.000000 0.000000 0.029791 0.000000 -0.004774
# 5 0.013714 0.000394 0.002365 0.000000 0.045687 0.000000
# 6 0.000000 0.000000 0.000000 -0.004774 0.000000 0.044569
#
#
# Mechanical properties :
#
#
# Convention : Reuss Voigt Hill
#
# Bulk Modulus (GPa) = 13.36977 39.22224 26.29600
# Shear Modulus (GPa) = 19.59180 31.42921 25.51051
#
# Velocity S-wave (km/s) = 3.00555 3.80674 3.42962
# Velocity P-wave (km/s) = 4.26719 6.11605 5.27328
#
# Compressibility (1/GPa) = 0.07479561
#
# Stress axis : x y z
#
# Youngs Moduli (GPa) = 13.22403 114.67155 122.36904
#
# Poissons Ratio (x) = 0.48088 0.41961
# Poissons Ratio (y) = 0.05546 0.15123
# Poissons Ratio (z) = 0.04535 0.14172
#
# Static dielectric constant tensor:
#      x y z
#    x 1.787960 0.000000 0.014600 
#    y 0.000000 1.791060 0.000000 
#    z 0.014600 0.000000 1.792400 
# 
# From -- ./inp_files/18159.got.cif
#   From: 2010.05.17/outbox.cif.g08.bks.cpg/sg11_10_cif.got.tgz:18159.got - 2010.06.03 12:22:45.
