data_PCOD9162116
_publ_section_title
;
Structure prediction by ZEFSAII (Michael W. Deem and Ramdas Pophale) SiO2 
 PCOD9162116
Probable space group: P 21/M
;
_chemical_formula_sum "Si O2"
_cell_formula_units_Z 28
_cell_length_a 15.314681
_cell_length_b 8.758060
_cell_length_c 11.775467
_cell_angle_alpha 90.000000
_cell_angle_beta 114.950966
_cell_angle_gamma 90.000000
_cell_volume 1431.999420
_symmetry_space_group_name_H-M "P 21/M"
_symmetry_group_IT_number 11
_symmetry_cell_setting 'monoclinic'
loop_
_space_group_symop_operation_xyz
x,y,z
-x,1/2+y,-z
-x,-y,-z
x,1/2-y,z
loop_
_atom_site_type_symbol
_atom_site_label
_atom_site_fract_x
_atom_site_fract_y
_atom_site_fract_z
Si Si1 0.971464 0.432339 0.363509
Si Si2 0.650055 0.069055 0.529458
Si Si3 0.107352 0.931839 0.051212
Si Si4 0.197640 0.433288 0.872412
Si Si5 0.586365 0.566080 0.973890
Si Si6 0.548676 0.566565 0.694210
Si Si7 0.157506 0.431078 0.313679
O O1 0.963088 0.250000 0.365682
O O2 0.873078 0.502020 0.261832
O O3 0.000000 0.500000 0.500000
O O4 0.058228 0.467666 0.323432
O O5 0.667073 0.250000 0.538771
O O6 0.563801 0.035314 0.394148
O O7 0.609196 0.016180 0.629502
O O8 0.749499 0.981534 0.563960
O O9 0.102430 0.750000 0.036935
O O10 0.159331 0.980162 0.195797
O O11 0.159832 0.003219 0.971745
O O12 0.000000 0.000000 0.000000
O O13 0.191919 0.250000 0.870668
O O14 0.309039 0.479149 0.921437
O O15 0.580756 0.750000 0.972791
O O16 0.577111 0.519875 0.836553
O O17 0.500000 0.500000 0.000000
O O18 0.563424 0.750000 0.690394
O O19 0.160279 0.250000 0.293702
#
# Coordination Sequence:
#
# PCOD9162116 Si02
#       7
#     4   4   4   4   4   4   4
#     4  11  25  43  63  86 119 162 207 252 305 365
#     4  10  20  34  59  91 119 154 197 246 305 365
#     4  12  23  37  62  94 126 161 201 250 307 365
#     4  11  23  41  65  93 127 164 205 255 311 369
#     4  10  23  41  62  88 119 160 205 253 304 359
#     4   9  19  38  59  84 121 158 196 246 306 364
#     4  11  23  39  59  87 122 161 202 248 305 368
#
# _framework density 19.553080000000001
#
# number of rings (size 3 to 8) (size 9 to 14) (size 15 to 20)
#    0.000    1.429    1.429    3.857    0.000    6.286 
#    0.000    2.857    0.000    0.000    0.000    0.000 
#    0.000    0.000    0.000    0.000    0.000    0.000 
#
# Total GULP energy -156583.031680 kJ/mol
# GULP energy per Si atom -5592.251131 kJ/mol
# Density = 1.950858 g / cm^3
# Si number density = 19.553080 Si / 1000 Ang^3
#
#
#
# Elastic Constant Matrix: (Units=GPa)
#
#
# Indices 1 2 3 4 5 6 
#
# 1 110.9261 40.6196 60.4184 0.0000 29.0475 0.0000
# 2 40.6196 50.6832 44.5711 0.0000 9.7248 0.0000
# 3 60.4184 44.5711 136.1896 0.0000 16.0348 0.0000
# 4 0.0000 0.0000 0.0000 31.5190 0.0000 2.4058
# 5 29.0475 9.7248 16.0348 0.0000 33.2508 0.0000
# 6 0.0000 0.0000 0.0000 2.4058 0.0000 35.0770
#
#
#
# Elastic Compliance Matrix: (Units=1/GPa)
#
#
# Indices 1 2 3 4 5 6 
#
# 1 0.016686 -0.008337 -0.003440 0.000000 -0.010479 0.000000
# 2 -0.008337 0.032368 -0.007037 0.000000 0.001210 0.000000
# 3 -0.003440 -0.007037 0.011212 0.000000 -0.000344 0.000000
# 4 0.000000 0.000000 0.000000 0.031894 0.000000 -0.002188
# 5 -0.010479 0.001210 -0.000344 0.000000 0.039041 0.000000
# 6 0.000000 0.000000 0.000000 -0.002188 0.000000 0.028659
#
#
# Mechanical properties :
#
#
# Convention : Reuss Voigt Hill
#
# Bulk Modulus (GPa) = 44.17306 65.44634 54.80970
# Shear Modulus (GPa) = 24.38623 30.11534 27.25078
#
# Velocity S-wave (km/s) = 3.53538 3.92878 3.73726
# Velocity P-wave (km/s) = 6.26942 7.35691 6.83483
#
# Compressibility (1/GPa) = 0.02263823
#
# Stress axis : x y z
#
# Youngs Moduli (GPa) = 59.93173 30.89461 89.18667
#
# Poissons Ratio (x) = 0.25755 0.30682
# Poissons Ratio (y) = 0.49962 0.62763
# Poissons Ratio (z) = 0.20618 0.21741
#
# Static dielectric constant tensor:
#      x y z
#    x 1.662240 0.000000 0.030850 
#    y 0.000000 1.653950 0.000000 
#    z 0.030850 0.000000 1.684940 
# 
# From -- ./inp_files/38439.got.cif
#   From: 2010.05.17/outbox.cif.g08.bks.cpg/sg11_20_cif.got.tgz:38439.got - 2010.06.03 12:22:45.
