data_PCOD9162804
_publ_section_title
;
Structure prediction by ZEFSAII (Michael W. Deem and Ramdas Pophale) SiO2 
 PCOD9162804
Probable space group: P 21/M
;
_chemical_formula_sum "Si O2"
_cell_formula_units_Z 28
_cell_length_a 14.734903
_cell_length_b 10.581858
_cell_length_c 9.798892
_cell_angle_alpha 90.000000
_cell_angle_beta 111.897659
_cell_angle_gamma 90.000000
_cell_volume 1417.635736
_symmetry_space_group_name_H-M "P 21/M"
_symmetry_group_IT_number 11
_symmetry_cell_setting 'monoclinic'
loop_
_space_group_symop_operation_xyz
x,y,z
-x,1/2+y,-z
-x,-y,-z
x,1/2-y,z
loop_
_atom_site_type_symbol
_atom_site_label
_atom_site_fract_x
_atom_site_fract_y
_atom_site_fract_z
Si Si1 0.870202 0.605029 0.379656
Si Si2 0.660603 0.890626 0.112374
Si Si3 0.968135 0.601915 0.176757
Si Si4 0.754601 0.899481 0.568069
Si Si5 0.840648 0.478063 0.867848
Si Si6 0.444644 0.103561 0.656028
Si Si7 0.642045 0.395967 0.874615
O O1 0.901162 0.750000 0.427002
O O2 0.770855 0.606672 0.232981
O O3 0.949715 0.549225 0.319546
O O4 0.831725 0.547378 0.499805
O O5 0.645036 0.750000 0.042463
O O6 0.592243 0.901379 0.207338
O O7 0.644581 0.005128 0.000358
O O8 0.943128 0.750000 0.166503
O O9 0.076346 0.588413 0.176509
O O10 0.896063 0.534072 0.029713
O O11 0.748038 0.750000 0.533259
O O12 0.645934 0.953612 0.479238
O O13 0.793916 0.918582 0.740928
O O14 0.748411 0.398182 0.865591
O O15 0.452237 0.250000 0.616864
O O16 0.555715 0.057156 0.724796
O O17 0.620115 0.250000 0.902815
#
# Coordination Sequence:
#
# PCOD9162804 Si02
#       7
#     4   4   4   4   4   4   4
#     4   8  15  31  56  78 101 132 176 230 274 309
#     4   9  16  31  56  82 105 141 190 228 260 314
#     4  10  20  36  53  74 103 138 182 231 276 319
#     4   9  18  34  55  80 105 137 182 228 268 321
#     4  11  22  32  52  79 105 144 179 222 268 330
#     4   8  17  33  54  79 110 144 179 222 274 322
#     4  11  21  33  51  80 117 150 176 218 279 328
#
# _framework density 19.751194000000002
#
# number of rings (size 3 to 8) (size 9 to 14) (size 15 to 20)
#    0.000    2.571    1.429    3.000    0.000    1.714 
#    0.000    0.000    0.000    8.571    0.000    0.000 
#    0.000    0.000    0.000    0.000    0.000    0.000 
#
# Total GULP energy -155874.092134 kJ/mol
# GULP energy per Si atom -5566.931862 kJ/mol
# Density = 1.970624 g / cm^3
# Si number density = 19.751194 Si / 1000 Ang^3
#
#
#
# Elastic Constant Matrix: (Units=GPa)
#
#
# Indices 1 2 3 4 5 6 
#
# 1 100.4211 10.2166 13.2277 0.0000 14.5606 0.0000
# 2 10.2166 39.8334 10.0766 0.0000 -3.6296 0.0000
# 3 13.2277 10.0766 52.9114 0.0000 0.1631 0.0000
# 4 0.0000 0.0000 0.0000 18.6995 0.0000 -0.6702
# 5 14.5606 -3.6296 0.1631 0.0000 26.7908 0.0000
# 6 0.0000 0.0000 0.0000 -0.6702 0.0000 20.9608
#
#
#
# Elastic Compliance Matrix: (Units=1/GPa)
#
#
# Indices 1 2 3 4 5 6 
#
# 1 0.011529 -0.002983 -0.002293 0.000000 -0.006656 0.000000
# 2 -0.002983 0.027500 -0.004508 0.000000 0.005374 0.000000
# 3 -0.002293 -0.004508 0.020330 0.000000 0.000512 0.000000
# 4 0.000000 0.000000 0.000000 0.053539 0.000000 0.001712
# 5 -0.006656 0.005374 0.000512 0.000000 0.041669 0.000000
# 6 0.000000 0.000000 0.000000 0.001712 0.000000 0.047763
#
#
# Mechanical properties :
#
#
# Convention : Reuss Voigt Hill
#
# Bulk Modulus (GPa) = 25.13253 28.91196 27.02224
# Shear Modulus (GPa) = 21.26202 23.93321 22.59762
#
# Velocity S-wave (km/s) = 3.28455 3.48477 3.38615
# Velocity P-wave (km/s) = 5.20928 5.55530 5.38507
#
# Compressibility (1/GPa) = 0.03978908
#
# Stress axis : x y z
#
# Youngs Moduli (GPa) = 86.73951 36.36393 49.18885
#
# Poissons Ratio (x) = 0.10848 0.11281
# Poissons Ratio (y) = 0.25877 0.22174
# Poissons Ratio (z) = 0.19894 0.16392
#
# Static dielectric constant tensor:
#      x y z
#    x 1.776760 0.000000 -0.011930 
#    y 0.000000 1.681300 0.000000 
#    z -0.011930 0.000000 1.685260 
# 
# From -- ./inp_files/21313.got.cif
#   From: 2010.05.17/outbox.cif.g08.bks.cpg/sg11_11_cif.got.tgz:21313.got - 2010.06.03 12:22:45.
