data_PCOD9162378
_publ_section_title
;
Structure prediction by ZEFSAII (Michael W. Deem and Ramdas Pophale) SiO2 
 PCOD9162378
Probable space group: P 21/M
;
_chemical_formula_sum "Si O2"
_cell_formula_units_Z 28
_cell_length_a 14.390278
_cell_length_b 13.705090
_cell_length_c 7.067161
_cell_angle_alpha 90.000000
_cell_angle_beta 53.099795
_cell_angle_gamma 90.000000
_cell_volume 1114.586193
_symmetry_space_group_name_H-M "P 21/M"
_symmetry_group_IT_number 11
_symmetry_cell_setting 'monoclinic'
loop_
_space_group_symop_operation_xyz
x,y,z
-x,1/2+y,-z
-x,-y,-z
x,1/2-y,z
loop_
_atom_site_type_symbol
_atom_site_label
_atom_site_fract_x
_atom_site_fract_y
_atom_site_fract_z
Si Si1 0.022898 0.639999 0.283594
Si Si2 0.225811 0.522668 0.893604
Si Si3 0.603792 0.862552 0.195534
Si Si4 0.244491 0.359778 0.372054
Si Si5 0.400032 0.967328 0.264195
Si Si6 0.041866 0.357594 0.078808
Si Si7 0.801916 0.364837 0.461396
O O1 0.042394 0.750000 0.333295
O O2 0.890244 0.610205 0.503456
O O3 0.006184 0.646478 0.075381
O O4 0.142493 0.578815 0.147303
O O5 0.345260 0.466004 0.787482
O O6 0.234340 0.591318 0.699157
O O7 0.144642 0.431069 0.946104
O O8 0.606669 0.750000 0.275021
O O9 0.471461 0.893359 0.311545
O O10 0.684911 0.854119 0.909463
O O11 0.237560 0.250000 0.463813
O O12 0.323469 0.434064 0.398393
O O13 0.300824 0.903007 0.283689
O O14 0.500000 0.000000 0.000000
O O15 0.077732 0.250000 0.096568
O O16 0.934639 0.395560 0.335520
O O17 0.805740 0.250000 0.446200
#
# Coordination Sequence:
#
# PCOD9162378 Si02
#       7
#     4   4   4   4   4   4   4
#     4   9  17  31  52  77 105 137 176 223 267 313
#     4  11  19  31  52  79 113 146 176 212 267 331
#     4  10  22  36  51  75 109 146 180 222 268 312
#     4   9  18  35  57  79 103 135 179 226 271 316
#     4  10  20  37  58  75  97 136 182 222 266 317
#     4   9  17  29  50  80 108 137 177 223 269 317
#     4  10  20  35  56  80 107 140 179 226 271 312
#
# _framework density 25.121431000000001
#
# number of rings (size 3 to 8) (size 9 to 14) (size 15 to 20)
#    0.000    2.286    0.000    5.571    0.000    1.714 
#    0.000    2.143    0.000    5.143    0.000    0.000 
#    0.000    0.000    0.000    0.000    0.000    0.000 
#
# Total GULP energy -156060.199854 kJ/mol
# GULP energy per Si atom -5573.578566 kJ/mol
# Density = 2.506425 g / cm^3
# Si number density = 25.121431 Si / 1000 Ang^3
#
#
#
# Elastic Constant Matrix: (Units=GPa)
#
#
# Indices 1 2 3 4 5 6 
#
# 1 88.4105 32.7254 27.6945 0.0000 -35.6724 0.0000
# 2 32.7254 123.5671 26.6432 0.0000 -22.4414 0.0000
# 3 27.6945 26.6432 93.6686 0.0000 -34.2757 0.0000
# 4 0.0000 0.0000 0.0000 54.3262 0.0000 -30.2950
# 5 -35.6724 -22.4414 -34.2757 0.0000 46.2081 0.0000
# 6 0.0000 0.0000 0.0000 -30.2950 0.0000 62.5862
#
#
#
# Elastic Compliance Matrix: (Units=1/GPa)
#
#
# Indices 1 2 3 4 5 6 
#
# 1 0.017017 -0.002329 0.000034 0.000000 0.012030 0.000000
# 2 -0.002329 0.009311 -0.001322 0.000000 0.001744 0.000000
# 3 0.000034 -0.001322 0.014846 0.000000 0.010396 0.000000
# 4 0.000000 0.000000 0.000000 0.025213 0.000000 0.012205
# 5 0.012030 0.001744 0.010396 0.000000 0.039487 0.000000
# 6 0.000000 0.000000 0.000000 0.012205 0.000000 0.021886
#
#
# Mechanical properties :
#
#
# Convention : Reuss Voigt Hill
#
# Bulk Modulus (GPa) = 29.46419 53.30805 41.38612
# Shear Modulus (GPa) = 34.17446 47.19631 40.68538
#
# Velocity S-wave (km/s) = 3.69232 4.33913 4.02873
# Velocity P-wave (km/s) = 5.47100 6.80957 6.17665
#
# Compressibility (1/GPa) = 0.03393950
#
# Stress axis : x y z
#
# Youngs Moduli (GPa) = 58.76622 107.39690 67.35664
#
# Poissons Ratio (x) = 0.25013 -0.00226
# Poissons Ratio (y) = 0.13687 0.08904
# Poissons Ratio (z) = -0.00197 0.14196
#
# Static dielectric constant tensor:
#      x y z
#    x 2.072330 0.000000 0.049460 
#    y 0.000000 2.056160 0.000000 
#    z 0.049460 0.000000 2.183760 
# 
# From -- ./inp_files/22091.got.cif
#   From: 2010.05.17/outbox.cif.g08.bks.cpg/sg11_12_cif.got.tgz:22091.got - 2010.06.03 12:22:45.
