data_PCOD9162261
_publ_section_title
;
Structure prediction by ZEFSAII (Michael W. Deem and Ramdas Pophale) SiO2 
 PCOD9162261
Probable space group: P 21/M
;
_chemical_formula_sum "Si O2"
_cell_formula_units_Z 28
_cell_length_a 9.638797
_cell_length_b 21.358328
_cell_length_c 14.777961
_cell_angle_alpha 90.000000
_cell_angle_beta 152.370423
_cell_angle_gamma 90.000000
_cell_volume 1410.885438
_symmetry_space_group_name_H-M "P 21/M"
_symmetry_group_IT_number 11
_symmetry_cell_setting 'monoclinic'
loop_
_space_group_symop_operation_xyz
x,y,z
-x,1/2+y,-z
-x,-y,-z
x,1/2-y,z
loop_
_atom_site_type_symbol
_atom_site_label
_atom_site_fract_x
_atom_site_fract_y
_atom_site_fract_z
Si Si1 0.807805 0.135435 0.153522
Si Si2 0.868874 0.437709 0.469656
Si Si3 0.739233 0.555934 0.123715
Si Si4 0.900408 0.682078 0.505103
Si Si5 0.825384 0.526018 0.703232
Si Si6 0.177587 0.065917 0.105206
Si Si7 0.203094 0.822054 0.064781
O O1 0.964859 0.179659 0.316362
O O2 0.019235 0.073062 0.277350
O O3 0.478146 0.115728 0.999259
O O4 0.784118 0.158895 0.035656
O O5 0.509402 0.439372 0.257790
O O6 0.000000 0.500000 0.500000
O O7 0.019397 0.437348 0.656125
O O8 0.970760 0.376002 0.475926
O O9 0.940674 0.532412 0.155718
O O10 0.500000 0.500000 0.000000
O O11 0.973497 0.750000 0.506073
O O12 0.543007 0.675424 0.296572
O O13 0.500000 0.500000 0.500000
O O14 0.776186 0.569227 0.760399
O O15 0.983945 0.128840 0.981593
O O16 0.000000 0.000000 0.000000
O O17 0.095674 0.750000 0.008752
#
# Coordination Sequence:
#
# PCOD9162261 Si02
#       7
#     4   4   4   4   4   4   4
#     4  10  21  38  62  88 120 161 207 250 304 365
#     4  12  23  39  62  92 126 162 205 259 307 370
#     4  10  20  35  57  87 125 159 199 250 304 357
#     4  11  24  41  64  92 123 163 209 254 307 372
#     4  10  20  35  54  88 121 156 200 251 302 361
#     4  11  25  36  60  92 124 161 202 259 315 359
#     4  10  22  43  64  87 122 164 208 251 307 372
#
# _framework density 19.845693000000001
#
# number of rings (size 3 to 8) (size 9 to 14) (size 15 to 20)
#    0.000    1.429    2.857    3.000    8.000    0.571 
#    0.000    0.000    0.000    0.000    0.000    0.000 
#    0.000    0.000    0.000    0.000    0.000    0.000 
#
# Total GULP energy -155935.342811 kJ/mol
# GULP energy per Si atom -5569.119386 kJ/mol
# Density = 1.980052 g / cm^3
# Si number density = 19.845693 Si / 1000 Ang^3
#
#
#
# Elastic Constant Matrix: (Units=GPa)
#
#
# Indices 1 2 3 4 5 6 
#
# 1 45.1087 35.8591 26.0624 0.0000 26.4196 0.0000
# 2 35.8591 150.9905 53.4384 0.0000 31.8521 0.0000
# 3 26.0624 53.4384 129.7023 0.0000 19.9236 0.0000
# 4 0.0000 0.0000 0.0000 25.7818 0.0000 3.7587
# 5 26.4196 31.8521 19.9236 0.0000 42.6406 0.0000
# 6 0.0000 0.0000 0.0000 3.7587 0.0000 30.2662
#
#
#
# Elastic Compliance Matrix: (Units=1/GPa)
#
#
# Indices 1 2 3 4 5 6 
#
# 1 0.038494 -0.003932 -0.003127 0.000000 -0.019452 0.000000
# 2 -0.003932 0.009109 -0.002469 0.000000 -0.003214 0.000000
# 3 -0.003127 -0.002469 0.009453 0.000000 -0.000635 0.000000
# 4 0.000000 0.000000 0.000000 0.039502 0.000000 -0.004906
# 5 -0.019452 -0.003214 -0.000635 0.000000 0.038202 0.000000
# 6 0.000000 0.000000 0.000000 -0.004906 0.000000 0.033649
#
#
# Mechanical properties :
#
#
# Convention : Reuss Voigt Hill
#
# Bulk Modulus (GPa) = 26.31572 61.83570 44.07571
# Shear Modulus (GPa) = 24.98357 33.76717 29.37537
#
# Velocity S-wave (km/s) = 3.55193 4.12938 3.85150
# Velocity P-wave (km/s) = 5.48731 7.34586 6.48353
#
# Compressibility (1/GPa) = 0.03800010
#
# Stress axis : x y z
#
# Youngs Moduli (GPa) = 25.97816 109.78626 105.78522
#
# Poissons Ratio (x) = 0.43165 0.33079
# Poissons Ratio (y) = 0.10214 0.26119
# Poissons Ratio (z) = 0.08123 0.27106
#
# Static dielectric constant tensor:
#      x y z
#    x 1.807630 0.000000 -0.039710 
#    y 0.000000 1.817250 0.000000 
#    z -0.039710 0.000000 1.749440 
# 
# From -- ./inp_files/48324.got.cif
#   From: 2010.05.17/outbox.cif.g08.bks.cpg/sg11_25_cif.got.tgz:48324.got - 2010.06.03 12:22:45.
