data_PCOD9162615
_publ_section_title
;
Structure prediction by ZEFSAII (Michael W. Deem and Ramdas Pophale) SiO2 
 PCOD9162615
Probable space group: P 21/M
;
_chemical_formula_sum "Si O2"
_cell_formula_units_Z 32
_cell_length_a 12.600006
_cell_length_b 18.134491
_cell_length_c 14.580045
_cell_angle_alpha 90.000000
_cell_angle_beta 150.330298
_cell_angle_gamma 90.000000
_cell_volume 1649.071714
_symmetry_space_group_name_H-M "P 21/M"
_symmetry_group_IT_number 11
_symmetry_cell_setting 'monoclinic'
loop_
_space_group_symop_operation_xyz
x,y,z
-x,1/2+y,-z
-x,-y,-z
x,1/2-y,z
loop_
_atom_site_type_symbol
_atom_site_label
_atom_site_fract_x
_atom_site_fract_y
_atom_site_fract_z
Si Si1 0.720738 0.097822 0.646541
Si Si2 0.075952 0.663143 0.570349
Si Si3 0.993038 0.593707 0.310953
Si Si4 0.059002 0.419549 0.359735
Si Si5 0.759759 0.576007 0.693407
Si Si6 0.836086 0.336067 0.925303
Si Si7 0.648995 0.337174 0.969586
Si Si8 0.561496 0.663519 0.007615
O O1 0.859442 0.119166 0.662553
O O2 0.467522 0.099788 0.436606
O O3 0.769303 0.144895 0.772789
O O4 0.776884 0.012510 0.712759
O O5 0.030679 0.750000 0.541802
O O6 0.047559 0.634358 0.446502
O O7 0.325176 0.651821 0.787907
O O8 0.928882 0.620737 0.533883
O O9 0.030726 0.506662 0.351685
O O10 0.745415 0.612654 0.104584
O O11 0.233707 0.407013 0.411195
O O12 0.845114 0.385797 0.153318
O O13 0.958750 0.615665 0.890960
O O14 0.892638 0.250000 0.975238
O O15 0.648580 0.349818 0.860453
O O16 0.698609 0.250000 0.021219
O O17 0.458642 0.351867 0.897969
O O18 0.616522 0.750000 0.036824
#
# Coordination Sequence:
#
# PCOD9162615 Si02
#       8
#     4   4   4   4   4   4   4   4
#     4  10  22  38  55  79 111 148 187 219 261 329
#     4  10  21  37  56  78 108 143 176 216 268 323
#     4  11  22  35  53  80 111 141 179 220 258 314
#     4   9  18  35  58  83 105 133 180 230 269 310
#     4   9  20  40  60  78 108 146 181 227 278 315
#     4  10  20  35  58  85 109 136 178 231 277 319
#     4   8  16  33  55  80 107 135 174 222 272 321
#     4   9  19  36  55  75 105 143 175 211 267 322
#
# _framework density 19.404855999999999
#
# number of rings (size 3 to 8) (size 9 to 14) (size 15 to 20)
#    0.000    2.500    0.000    2.250    0.000    6.000 
#    0.000   10.000    0.000    0.000    0.000    0.000 
#    0.000    0.000    0.000    0.000    0.000    0.000 
#
# Total GULP energy -178490.906800 kJ/mol
# GULP energy per Si atom -5577.840837 kJ/mol
# Density = 1.936069 g / cm^3
# Si number density = 19.404856 Si / 1000 Ang^3
#
#
#
# Elastic Constant Matrix: (Units=GPa)
#
#
# Indices 1 2 3 4 5 6 
#
# 1 86.4287 10.5302 -1.7722 0.0000 11.4305 0.0000
# 2 10.5302 14.1521 2.8991 0.0000 9.4954 0.0000
# 3 -1.7722 2.8991 18.2932 0.0000 1.7674 0.0000
# 4 0.0000 0.0000 0.0000 -27.9675 0.0000 -44.3710
# 5 11.4305 9.4954 1.7674 0.0000 30.3661 0.0000
# 6 0.0000 0.0000 0.0000 -44.3710 0.0000 -6.9040
#
#
#
# Elastic Compliance Matrix: (Units=1/GPa)
#
#
# Indices 1 2 3 4 5 6 
#
# 1 0.012997 -0.008685 0.002862 0.000000 -0.002343 0.000000
# 2 -0.008685 0.097713 -0.013768 0.000000 -0.026484 0.000000
# 3 0.002862 -0.013768 0.057134 0.000000 -0.000097 0.000000
# 4 0.000000 0.000000 0.000000 0.003888 0.000000 -0.024988
# 5 -0.002343 -0.026484 -0.000097 0.000000 0.042101 0.000000
# 6 0.000000 0.000000 0.000000 -0.024988 0.000000 0.015750
#
#
# Mechanical properties :
#
#
# Convention : Reuss Voigt Hill
#
# Bulk Modulus (GPa) = 7.77233 15.79869 11.78551
# Shear Modulus (GPa) = 16.04356 6.24673 11.14514
#
# Velocity S-wave (km/s) = 2.87850 1.79615 2.39916
# Velocity P-wave (km/s) = 3.88094 3.52999 3.70962
#
# Compressibility (1/GPa) = 0.12866157
#
# Stress axis : x y z
#
# Youngs Moduli (GPa) = 76.94121 10.23406 17.50283
#
# Poissons Ratio (x) = 0.08888 -0.05009
# Poissons Ratio (y) = 0.66821 0.24098
# Poissons Ratio (z) = -0.22020 0.14090
#
# Static dielectric constant tensor:
#      x y z
#    x 1.698800 0.000000 0.001840 
#    y 0.000000 1.652730 0.000000 
#    z 0.001840 0.000000 1.675860 
# 
# From -- ./inp_files/50641.got.cif
#   From: 2010.05.17/outbox.cif.g08.bks.cpg/sg11_26_cif.got.tgz:50641.got - 2010.06.03 12:22:45.
