data_PCOD9162482
_publ_section_title
;
Structure prediction by ZEFSAII (Michael W. Deem and Ramdas Pophale) SiO2 
 PCOD9162482
Probable space group: P 21/M
;
_chemical_formula_sum "Si O2"
_cell_formula_units_Z 28
_cell_length_a 22.384372
_cell_length_b 7.795720
_cell_length_c 15.095130
_cell_angle_alpha 90.000000
_cell_angle_beta 31.147732
_cell_angle_gamma 90.000000
_cell_volume 1362.497003
_symmetry_space_group_name_H-M "P 21/M"
_symmetry_group_IT_number 11
_symmetry_cell_setting 'monoclinic'
loop_
_space_group_symop_operation_xyz
x,y,z
-x,1/2+y,-z
-x,-y,-z
x,1/2-y,z
loop_
_atom_site_type_symbol
_atom_site_label
_atom_site_fract_x
_atom_site_fract_y
_atom_site_fract_z
Si Si1 0.518366 0.455226 0.579757
Si Si2 0.873306 0.454152 0.954009
Si Si3 0.128927 0.542006 0.668518
Si Si4 0.352696 0.551048 0.282259
Si Si5 0.781222 0.459411 0.259926
Si Si6 0.610586 0.950195 0.957055
Si Si7 0.299568 0.949576 0.972655
O O1 0.500000 0.500000 0.500000
O O2 0.511340 0.250000 0.599216
O O3 0.647626 0.509911 0.442232
O O4 0.417685 0.534389 0.766614
O O5 0.850512 0.250000 0.984062
O O6 0.009385 0.482869 0.778364
O O7 0.826399 0.522154 0.107739
O O8 0.800785 0.523160 0.963115
O O9 0.128100 0.750000 0.667706
O O10 0.242337 0.478099 0.472680
O O11 0.142152 0.485939 0.753962
O O12 0.358511 0.750000 0.303066
O O13 0.338230 0.538971 0.194771
O O14 0.480624 0.478597 0.138667
O O15 0.782927 0.250000 0.256241
O O16 0.598667 0.750000 0.948445
O O17 0.682301 0.965778 0.955403
O O18 0.276042 0.750000 0.019757
#
# Coordination Sequence:
#
# PCOD9162482 Si02
#       7
#     4   4   4   4   4   4   4
#     4  11  20  34  55  80 112 146 182 224 273 327
#     4  10  21  37  53  74 111 151 185 225 273 320
#     4  10  20  35  57  80 105 143 187 226 271 324
#     4   9  19  37  58  84 115 142 173 224 284 331
#     4   9  18  35  55  77 110 147 180 224 279 323
#     4  10  20  36  61  88 110 140 179 224 277 333
#     4  11  22  37  55  80 114 151 184 223 278 328
#
# _framework density 20.550504
#
# number of rings (size 3 to 8) (size 9 to 14) (size 15 to 20)
#    0.000    2.000    1.429    2.571    0.000    4.571 
#    0.000    3.571    0.000    0.000    0.000    0.000 
#    0.000    0.000    0.000    0.000    0.000    0.000 
#
# Total GULP energy -156397.101261 kJ/mol
# GULP energy per Si atom -5585.610759 kJ/mol
# Density = 2.050373 g / cm^3
# Si number density = 20.550504 Si / 1000 Ang^3
#
#
#
# Elastic Constant Matrix: (Units=GPa)
#
#
# Indices 1 2 3 4 5 6 
#
# 1 139.9947 -3.3522 46.8712 0.0000 -4.1806 0.0000
# 2 -3.3522 28.4425 -4.2483 0.0000 -2.9845 0.0000
# 3 46.8712 -4.2483 65.6260 0.0000 -10.5745 0.0000
# 4 0.0000 0.0000 0.0000 22.2391 0.0000 1.6108
# 5 -4.1806 -2.9845 -10.5745 0.0000 21.3241 0.0000
# 6 0.0000 0.0000 0.0000 1.6108 0.0000 10.9539
#
#
#
# Elastic Compliance Matrix: (Units=1/GPa)
#
#
# Indices 1 2 3 4 5 6 
#
# 1 0.009440 -0.000107 -0.007014 0.000000 -0.001642 0.000000
# 2 -0.000107 0.036390 0.003532 0.000000 0.006823 0.000000
# 3 -0.007014 0.003532 0.022100 0.000000 0.010078 0.000000
# 4 0.000000 0.000000 0.000000 0.045450 0.000000 -0.006684
# 5 -0.001642 0.006823 0.010078 0.000000 0.052526 0.000000
# 6 0.000000 0.000000 0.000000 -0.006684 0.000000 0.092274
#
#
# Mechanical properties :
#
#
# Convention : Reuss Voigt Hill
#
# Bulk Modulus (GPa) = 16.46071 34.73384 25.59728
# Shear Modulus (GPa) = 17.50651 23.88958 20.69804
#
# Velocity S-wave (km/s) = 2.92186 3.41322 3.17705
# Velocity P-wave (km/s) = 4.40571 5.69840 5.09323
#
# Compressibility (1/GPa) = 0.06075070
#
# Stress axis : x y z
#
# Youngs Moduli (GPa) = 105.93543 27.48041 45.24949
#
# Poissons Ratio (x) = 0.00295 0.31736
# Poissons Ratio (y) = 0.01137 -0.15981
# Poissons Ratio (z) = 0.74299 -0.09706
#
# Static dielectric constant tensor:
#      x y z
#    x 1.730450 0.000000 -0.000380 
#    y 0.000000 1.758210 0.000000 
#    z -0.000380 0.000000 1.717980 
# 
# From -- ./inp_files/48899.got.cif
#   From: 2010.05.17/outbox.cif.g08.bks.cpg/sg11_25_cif.got.tgz:48899.got - 2010.06.03 12:22:45.
