data_PCOD9162071
_publ_section_title
;
Structure prediction by ZEFSAII (Michael W. Deem and Ramdas Pophale) SiO2 
 PCOD9162071
Probable space group: P 21/M
;
_chemical_formula_sum "Si O2"
_cell_formula_units_Z 24
_cell_length_a 11.915954
_cell_length_b 17.663304
_cell_length_c 17.163098
_cell_angle_alpha 90.000000
_cell_angle_beta 158.134874
_cell_angle_gamma 90.000000
_cell_volume 1345.342631
_symmetry_space_group_name_H-M "P 21/M"
_symmetry_group_IT_number 11
_symmetry_cell_setting 'monoclinic'
loop_
_space_group_symop_operation_xyz
x,y,z
-x,1/2+y,-z
-x,-y,-z
x,1/2-y,z
loop_
_atom_site_type_symbol
_atom_site_label
_atom_site_fract_x
_atom_site_fract_y
_atom_site_fract_z
Si Si1 0.229525 0.839038 0.252124
Si Si2 0.692583 0.449790 0.563711
Si Si3 0.781185 0.661091 0.491270
Si Si4 0.700705 0.159862 0.953361
Si Si5 0.135203 0.417946 0.108419
Si Si6 0.766609 0.054197 0.143499
O O1 0.226924 0.750000 0.255582
O O2 0.225809 0.876662 0.333498
O O3 0.534625 0.859291 0.399921
O O4 0.950142 0.867290 0.020404
O O5 0.500000 0.500000 0.500000
O O6 0.479555 0.429125 0.354169
O O7 0.980169 0.497516 0.725656
O O8 0.858801 0.750000 0.551113
O O9 0.597045 0.653126 0.292266
O O10 0.064712 0.606304 0.683620
O O11 0.760875 0.250000 0.003577
O O12 0.674488 0.112868 0.015805
O O13 0.965426 0.121113 0.072368
O O14 0.000000 0.500000 0.000000
O O15 0.500000 0.000000 0.000000
#
# Coordination Sequence:
#
# PCOD9162071 Si02
#       6
#     4   4   4   4   4   4
#     4  10  20  34  57  89 115 141 186 240 290 339
#     4  12  20  36  58  83 113 149 183 232 285 340
#     4   9  18  35  59  84 109 142 187 236 281 337
#     4  10  20  36  60  86 110 147 195 236 280 343
#     4  11  18  32  58  87 116 139 180 233 291 333
#     4  12  24  37  55  83 116 152 192 234 281 331
#
# _framework density 17.839321999999999
#
# number of rings (size 3 to 8) (size 9 to 14) (size 15 to 20)
#    0.000    1.333    5.000    3.000    0.000    3.333 
#    0.000    1.667    0.000    2.000    0.000    0.000 
#    0.000    0.000    0.000    0.000    0.000    0.000 
#
# Total GULP energy -133962.734516 kJ/mol
# GULP energy per Si atom -5581.780605 kJ/mol
# Density = 1.779872 g / cm^3
# Si number density = 17.839322 Si / 1000 Ang^3
#
#
#
# Elastic Constant Matrix: (Units=GPa)
#
#
# Indices 1 2 3 4 5 6 
#
# 1 48.9082 49.8013 48.7622 0.0000 -3.7666 0.0000
# 2 49.8013 130.6808 69.1072 0.0000 -2.8289 0.0000
# 3 48.7622 69.1072 108.7851 0.0000 -2.6265 0.0000
# 4 0.0000 0.0000 0.0000 38.7867 0.0000 -5.2577
# 5 -3.7666 -2.8289 -2.6265 0.0000 26.1763 0.0000
# 6 0.0000 0.0000 0.0000 -5.2577 0.0000 28.6438
#
#
#
# Elastic Compliance Matrix: (Units=1/GPa)
#
#
# Indices 1 2 3 4 5 6 
#
# 1 0.043941 -0.009479 -0.013579 0.000000 0.003936 0.000000
# 2 -0.009479 0.013575 -0.004383 0.000000 -0.000337 0.000000
# 3 -0.013579 -0.004383 0.018049 0.000000 -0.000617 0.000000
# 4 0.000000 0.000000 0.000000 0.026440 0.000000 0.004853
# 5 0.003936 -0.000337 -0.000617 0.000000 0.038671 0.000000
# 6 0.000000 0.000000 0.000000 0.004853 0.000000 0.035802
#
#
# Mechanical properties :
#
#
# Convention : Reuss Voigt Hill
#
# Bulk Modulus (GPa) = 48.35201 69.30171 58.82686
# Shear Modulus (GPa) = 20.98598 26.76823 23.87711
#
# Velocity S-wave (km/s) = 3.43357 3.87786 3.66246
# Velocity P-wave (km/s) = 6.54845 7.68000 7.13669
#
# Compressibility (1/GPa) = 0.02068166
#
# Stress axis : x y z
#
# Youngs Moduli (GPa) = 22.75800 73.66393 55.40539
#
# Poissons Ratio (x) = 0.69826 0.75237
# Poissons Ratio (y) = 0.21572 0.24284
# Poissons Ratio (z) = 0.30904 0.32287
#
# Static dielectric constant tensor:
#      x y z
#    x 1.598450 0.000000 -0.006310 
#    y 0.000000 1.571310 0.000000 
#    z -0.006310 0.000000 1.619660 
# 
# From -- ./inp_files/41886.got.cif
#   From: 2010.05.17/outbox.cif.g08.bks.cpg/sg11_21_cif.got.tgz:41886.got - 2010.06.03 12:22:45.
