data_PCOD9162801
_publ_section_title
;
Structure prediction by ZEFSAII (Michael W. Deem and Ramdas Pophale) SiO2 
 PCOD9162801
Probable space group: P 21/M
;
_chemical_formula_sum "Si O2"
_cell_formula_units_Z 30
_cell_length_a 10.622973
_cell_length_b 14.196954
_cell_length_c 9.231502
_cell_angle_alpha 90.000000
_cell_angle_beta 68.491957
_cell_angle_gamma 90.000000
_cell_volume 1295.291463
_symmetry_space_group_name_H-M "P 21/M"
_symmetry_group_IT_number 11
_symmetry_cell_setting 'monoclinic'
loop_
_space_group_symop_operation_xyz
x,y,z
-x,1/2+y,-z
-x,-y,-z
x,1/2-y,z
loop_
_atom_site_type_symbol
_atom_site_label
_atom_site_fract_x
_atom_site_fract_y
_atom_site_fract_z
Si Si1 0.401914 0.140811 0.996148
Si Si2 0.875461 0.600154 0.365340
Si Si3 0.926065 0.357762 0.964235
Si Si4 0.695102 0.141368 0.555296
Si Si5 0.105635 0.250000 0.381168
Si Si6 0.044201 0.901983 0.726197
Si Si7 0.389689 0.360350 0.656511
Si Si8 0.300370 0.554026 0.143899
O O1 0.378664 0.250000 0.053077
O O2 0.327286 0.056758 0.111342
O O3 0.368700 0.132612 0.838800
O O4 0.560029 0.111939 0.942455
O O5 0.883460 0.668194 0.497019
O O6 0.957188 0.503702 0.346332
O O7 0.719669 0.581785 0.387439
O O8 0.943621 0.645000 0.194121
O O9 0.886065 0.250000 0.014031
O O10 0.808829 0.408525 0.923046
O O11 0.954712 0.409273 0.102211
O O12 0.682197 0.250000 0.613879
O O13 0.812137 0.139568 0.388187
O O14 0.546104 0.113972 0.563902
O O15 0.736555 0.079598 0.675879
O O16 0.070042 0.331729 0.276531
O O17 0.371910 0.250000 0.623849
#
# Coordination Sequence:
#
# PCOD9162801 Si02
#       8
#     4   4   4   4   2   4   4   4
#     4   9  18  35  60  96 140 173 221 288 331 395
#     4  12  25  44  73  98 132 182 229 274 337 409
#     4  12  23  42  71 102 134 172 226 285 330 404
#     4  10  20  40  71  98 134 173 217 279 338 411
#     4  12  24  46  64  96 136 182 216 280 332 400
#     4  12  26  44  69 103 134 173 229 285 337 395
#     4   9  18  38  66 100 130 173 219 267 341 397
#     4  10  20  35  66 100 127 178 231 268 338 405
#
# _framework density 23.160812
#
# number of rings (size 3 to 8) (size 9 to 14) (size 15 to 20)
#    0.000    1.333    2.667    4.400    0.000    0.533 
#    0.000    0.000    8.800    1.600    0.000    0.000 
#    0.000    0.000    0.000    0.000    0.000    0.000 
#
# Total GULP energy -167424.824414 kJ/mol
# GULP energy per Si atom -5580.827480 kJ/mol
# Density = 2.310810 g / cm^3
# Si number density = 23.160812 Si / 1000 Ang^3
#
#
#
# Elastic Constant Matrix: (Units=GPa)
#
#
# Indices 1 2 3 4 5 6 
#
# 1 82.6131 37.6509 41.6423 0.0000 15.0495 0.0000
# 2 37.6509 145.0775 5.3787 0.0000 4.8078 0.0000
# 3 41.6423 5.3787 73.2097 0.0000 12.9862 0.0000
# 4 0.0000 0.0000 0.0000 51.5816 0.0000 6.4028
# 5 15.0495 4.8078 12.9862 0.0000 24.5086 0.0000
# 6 0.0000 0.0000 0.0000 6.4028 0.0000 35.0973
#
#
#
# Elastic Compliance Matrix: (Units=1/GPa)
#
#
# Indices 1 2 3 4 5 6 
#
# 1 0.020576 -0.004752 -0.010241 0.000000 -0.006276 0.000000
# 2 -0.004752 0.008041 0.002069 0.000000 0.000244 0.000000
# 3 -0.010241 0.002069 0.020187 0.000000 -0.004813 0.000000
# 4 0.000000 0.000000 0.000000 0.019836 0.000000 -0.003619
# 5 -0.006276 0.000244 -0.004813 0.000000 0.047158 0.000000
# 6 0.000000 0.000000 0.000000 -0.003619 0.000000 0.029152
#
#
# Mechanical properties :
#
#
# Convention : Reuss Voigt Hill
#
# Bulk Modulus (GPa) = 43.56430 52.24934 47.90682
# Shear Modulus (GPa) = 28.01881 36.65273 32.33577
#
# Velocity S-wave (km/s) = 3.48192 3.98242 3.74055
# Velocity P-wave (km/s) = 5.91738 6.61472 6.27574
#
# Compressibility (1/GPa) = 0.02295458
#
# Stress axis : x y z
#
# Youngs Moduli (GPa) = 48.60005 124.35671 49.53778
#
# Poissons Ratio (x) = 0.59098 0.50734
# Poissons Ratio (y) = 0.23096 -0.10249
# Poissons Ratio (z) = 0.49774 -0.25729
#
# Static dielectric constant tensor:
#      x y z
#    x 1.869770 0.000000 -0.063950 
#    y 0.000000 1.893510 0.000000 
#    z -0.063950 0.000000 1.854280 
# 
# From -- ./inp_files/17986.got.cif
#   From: 2010.05.17/outbox.cif.g08.bks.cpg/sg11_9_cif.got.tgz:17986.got - 2010.06.03 12:22:45.
