data_PCOD9162000
_publ_section_title
;
Structure prediction by ZEFSAII (Michael W. Deem and Ramdas Pophale) SiO2 
 PCOD9162000
Probable space group: P 21/M
;
_chemical_formula_sum "Si O2"
_cell_formula_units_Z 32
_cell_length_a 6.131528
_cell_length_b 11.915230
_cell_length_c 21.834481
_cell_angle_alpha 90.000000
_cell_angle_beta 71.038323
_cell_angle_gamma 90.000000
_cell_volume 1508.634369
_symmetry_space_group_name_H-M "P 21/M"
_symmetry_group_IT_number 11
_symmetry_cell_setting 'monoclinic'
loop_
_space_group_symop_operation_xyz
x,y,z
-x,1/2+y,-z
-x,-y,-z
x,1/2-y,z
loop_
_atom_site_type_symbol
_atom_site_label
_atom_site_fract_x
_atom_site_fract_y
_atom_site_fract_z
Si Si1 0.099710 0.006960 0.397698
Si Si2 0.132484 0.868714 0.840788
Si Si3 0.663902 0.124194 0.041174
Si Si4 0.767491 0.036920 0.910050
Si Si5 0.509637 0.041317 0.278213
Si Si6 0.675447 0.391255 0.505310
Si Si7 0.688513 0.133147 0.796158
Si Si8 0.839956 0.874511 0.317575
O O1 0.283735 0.072084 0.337822
O O2 0.239502 0.933719 0.435423
O O3 0.959309 0.920365 0.367923
O O4 0.907643 0.088864 0.444082
O O5 0.003198 0.750000 0.847930
O O6 0.238343 0.875112 0.899295
O O7 0.318384 0.872669 0.769650
O O8 0.967222 0.974344 0.855065
O O9 0.601677 0.250000 0.030023
O O10 0.435216 0.051404 0.061642
O O11 0.830374 0.081891 0.971337
O O12 0.673387 0.125797 0.870224
O O13 0.428991 0.968825 0.227231
O O14 0.656533 0.961701 0.309235
O O15 0.500000 0.500000 0.500000
O O16 0.617156 0.250000 0.508636
O O17 0.580920 0.250000 0.783694
O O18 0.952147 0.132879 0.749967
O O19 0.742426 0.750000 0.335758
#
# Coordination Sequence:
#
# PCOD9162000 Si02
#       8
#     4   4   4   4   4   4   4   4
#     4  10  24  42  68 101 137 176 221 267 321 387
#     4  11  23  39  59  85 118 162 207 252 315 383
#     4  10  22  38  58  82 113 158 204 258 320 378
#     4  11  20  38  60  82 117 152 206 260 310 380
#     4  11  21  39  61  92 129 165 207 261 315 381
#     4  11  25  47  74 105 142 182 226 275 328 388
#     4  10  20  34  56  86 120 157 202 257 315 373
#     4  10  20  37  62  92 130 171 213 261 319 380
#
# _framework density 21.211236
#
# number of rings (size 3 to 8) (size 9 to 14) (size 15 to 20)
#    0.000    1.500    2.500    2.625    0.000    5.500 
#    0.000    1.875    0.000    0.000    0.000    0.000 
#    0.000    0.000    0.000    0.000    0.000    0.000 
#
# Total GULP energy -178144.330292 kJ/mol
# GULP energy per Si atom -5567.010322 kJ/mol
# Density = 2.116296 g / cm^3
# Si number density = 21.211236 Si / 1000 Ang^3
#
#
#
# Elastic Constant Matrix: (Units=GPa)
#
#
# Indices 1 2 3 4 5 6 
#
# 1 53.8827 24.3362 24.3093 0.0000 10.6764 0.0000
# 2 24.3362 100.5919 44.7172 0.0000 -8.2069 0.0000
# 3 24.3093 44.7172 120.8502 0.0000 4.1592 0.0000
# 4 0.0000 0.0000 0.0000 11.1795 0.0000 -3.5617
# 5 10.6764 -8.2069 4.1592 0.0000 30.0583 0.0000
# 6 0.0000 0.0000 0.0000 -3.5617 0.0000 -51.4234
#
#
#
# Elastic Compliance Matrix: (Units=1/GPa)
#
#
# Indices 1 2 3 4 5 6 
#
# 1 0.024095 -0.005526 -0.002467 0.000000 -0.009726 0.000000
# 2 -0.005526 0.013633 -0.004148 0.000000 0.006259 0.000000
# 3 -0.002467 -0.004148 0.010364 0.000000 -0.001690 0.000000
# 4 0.000000 0.000000 0.000000 0.087518 0.000000 -0.006062
# 5 -0.009726 0.006259 -0.001690 0.000000 0.038666 0.000000
# 6 0.000000 0.000000 0.000000 -0.006062 0.000000 -0.019027
#
#
# Mechanical properties :
#
#
# Convention : Reuss Voigt Hill
#
# Bulk Modulus (GPa) = 42.00139 51.33889 46.67014
# Shear Modulus (GPa) = 26.67119 10.09370 18.38244
#
# Velocity S-wave (km/s) = 3.54984 2.18380 2.94706
# Velocity P-wave (km/s) = 6.05362 5.53307 5.79919
#
# Compressibility (1/GPa) = 0.02380874
#
# Stress axis : x y z
#
# Youngs Moduli (GPa) = 41.50269 73.35266 96.48655
#
# Poissons Ratio (x) = 0.40534 0.23806
# Poissons Ratio (y) = 0.22934 0.40025
# Poissons Ratio (z) = 0.10240 0.30429
#
# Static dielectric constant tensor:
#      x y z
#    x 1.767970 0.000000 -0.017740 
#    y 0.000000 1.773590 0.000000 
#    z -0.017740 0.000000 1.798350 
# 
# From -- ./inp_files/67609.got.cif
#   From: 2010.05.17/outbox.cif.g08.bks.cpg/sg11_34_cif.got.tgz:67609.got - 2010.06.03 12:22:45.
