data_PCOD9162642
_publ_section_title
;
Structure prediction by ZEFSAII (Michael W. Deem and Ramdas Pophale) SiO2 
 PCOD9162642
Probable space group: P 21/M
;
_chemical_formula_sum "Si O2"
_cell_formula_units_Z 32
_cell_length_a 20.537413
_cell_length_b 7.819850
_cell_length_c 26.204294
_cell_angle_alpha 90.000000
_cell_angle_beta 21.596391
_cell_angle_gamma 90.000000
_cell_volume 1548.967508
_symmetry_space_group_name_H-M "P 21/M"
_symmetry_group_IT_number 11
_symmetry_cell_setting 'monoclinic'
loop_
_space_group_symop_operation_xyz
x,y,z
-x,1/2+y,-z
-x,-y,-z
x,1/2-y,z
loop_
_atom_site_type_symbol
_atom_site_label
_atom_site_fract_x
_atom_site_fract_y
_atom_site_fract_z
Si Si1 0.558012 0.049696 0.603265
Si Si2 0.829055 0.454569 0.091939
Si Si3 0.421300 0.456386 0.112065
Si Si4 0.663567 0.458066 0.637861
Si Si5 0.028264 0.044414 0.420476
Si Si6 0.335649 0.546467 0.583575
Si Si7 0.381209 0.546006 0.931230
Si Si8 0.061999 0.544375 0.099399
O O1 0.606513 0.250000 0.569032
O O2 0.617656 0.978060 0.614580
O O3 0.636132 0.974141 0.494227
O O4 0.346518 0.033614 0.756258
O O5 0.806238 0.250000 0.107755
O O6 0.861489 0.517258 0.010552
O O7 0.000000 0.500000 0.000000
O O8 0.415236 0.250000 0.120972
O O9 0.219891 0.520721 0.263761
O O10 0.538638 0.522116 0.074192
O O11 0.500000 0.500000 0.000000
O O12 0.658819 0.250000 0.641351
O O13 0.521400 0.515801 0.783549
O O14 0.858364 0.516684 0.512841
O O15 0.030379 0.250000 0.414180
O O16 0.000000 0.000000 0.500000
O O17 0.500000 0.500000 0.500000
O O18 0.338609 0.750000 0.577662
O O19 0.143645 0.496910 0.744506
O O20 0.362875 0.750000 0.951121
O O21 0.191255 0.479390 0.050127
O O22 0.075881 0.750000 0.088443
#
# Coordination Sequence:
#
# PCOD9162642 Si02
#       8
#     4   4   4   4   4   4   4   4
#     4  10  22  39  57  83 117 148 189 241 289 342
#     4  11  22  36  58  86 114 148 189 236 287 342
#     4  10  22  38  58  85 121 158 196 242 290 344
#     4  10  20  35  59  88 116 149 192 244 295 345
#     4  10  20  35  58  86 115 153 196 241 291 345
#     4  11  24  41  61  85 117 156 195 238 291 348
#     4  10  20  38  60  85 118 154 192 242 294 343
#     4  10  22  39  59  84 116 152 194 238 289 348
#
# _framework density 20.658923999999999
#
# number of rings (size 3 to 8) (size 9 to 14) (size 15 to 20)
#    0.000    1.750    2.500    1.500    0.000    7.500 
#    0.000    1.250    0.000    0.000    0.000    0.000 
#    0.000    0.000    0.000    0.000    0.000    0.000 
#
# Total GULP energy -178755.505014 kJ/mol
# GULP energy per Si atom -5586.109532 kJ/mol
# Density = 2.061190 g / cm^3
# Si number density = 20.658924 Si / 1000 Ang^3
#
#
#
# Elastic Constant Matrix: (Units=GPa)
#
#
# Indices 1 2 3 4 5 6 
#
# 1 97.8963 -3.7812 16.8889 0.0000 -9.0752 0.0000
# 2 -3.7812 19.5516 -11.4298 0.0000 -2.3820 0.0000
# 3 16.8889 -11.4298 96.4433 0.0000 -4.4058 0.0000
# 4 0.0000 0.0000 0.0000 24.6479 0.0000 4.4190
# 5 -9.0752 -2.3820 -4.4058 0.0000 45.2707 0.0000
# 6 0.0000 0.0000 0.0000 4.4190 0.0000 18.9851
#
#
#
# Elastic Compliance Matrix: (Units=1/GPa)
#
#
# Indices 1 2 3 4 5 6 
#
# 1 0.010740 0.001380 -0.001623 0.000000 0.002068 0.000000
# 2 0.001380 0.055703 0.006535 0.000000 0.003844 0.000000
# 3 -0.001623 0.006535 0.011479 0.000000 0.001136 0.000000
# 4 0.000000 0.000000 0.000000 0.042338 0.000000 -0.009855
# 5 0.002068 0.003844 0.001136 0.000000 0.022817 0.000000
# 6 0.000000 0.000000 0.000000 -0.009855 0.000000 0.054967
#
#
# Mechanical properties :
#
#
# Convention : Reuss Voigt Hill
#
# Bulk Modulus (GPa) = 11.04879 24.13856 17.59367
# Shear Modulus (GPa) = 23.18825 31.92828 27.55827
#
# Velocity S-wave (km/s) = 3.35391 3.93554 3.65631
# Velocity P-wave (km/s) = 4.51199 5.68868 5.13415
#
# Compressibility (1/GPa) = 0.09050768
#
# Stress axis : x y z
#
# Youngs Moduli (GPa) = 93.11143 17.95250 87.11289
#
# Poissons Ratio (x) = -0.02478 0.14136
# Poissons Ratio (y) = -0.12852 -0.56931
# Poissons Ratio (z) = 0.15109 -0.11733
#
# Static dielectric constant tensor:
#      x y z
#    x 1.745630 0.000000 -0.011730 
#    y 0.000000 1.732690 0.000000 
#    z -0.011730 0.000000 1.730000 
# 
# From -- ./inp_files/72054.got.cif
#   From: 2010.05.17/outbox.cif.g08.bks.cpg/sg11_37_cif.got.tgz:72054.got - 2010.06.03 12:22:45.
