data_PCOD9162613
_publ_section_title
;
Structure prediction by ZEFSAII (Michael W. Deem and Ramdas Pophale) SiO2 
 PCOD9162613
Probable space group: P 21/M
;
_chemical_formula_sum "Si O2"
_cell_formula_units_Z 28
_cell_length_a 18.377878
_cell_length_b 18.285931
_cell_length_c 10.393423
_cell_angle_alpha 90.000000
_cell_angle_beta 25.023651
_cell_angle_gamma 90.000000
_cell_volume 1477.418541
_symmetry_space_group_name_H-M "P 21/M"
_symmetry_group_IT_number 11
_symmetry_cell_setting 'monoclinic'
loop_
_space_group_symop_operation_xyz
x,y,z
-x,1/2+y,-z
-x,-y,-z
x,1/2-y,z
loop_
_atom_site_type_symbol
_atom_site_label
_atom_site_fract_x
_atom_site_fract_y
_atom_site_fract_z
Si Si1 0.805579 0.666548 0.853595
Si Si2 0.601867 0.524004 0.210567
Si Si3 0.044053 0.464986 0.733867
Si Si4 0.653146 0.162541 0.750273
Si Si5 0.143079 0.576528 0.356818
Si Si6 0.734666 0.669248 0.670681
Si Si7 0.270113 0.949599 0.579208
O O1 0.808456 0.750000 0.903338
O O2 0.728536 0.672745 0.834502
O O3 0.995568 0.630896 0.542104
O O4 0.690788 0.602277 0.099571
O O5 0.500000 0.500000 0.500000
O O6 0.461286 0.532683 0.321254
O O7 0.740650 0.465287 0.934655
O O8 0.058055 0.513444 0.583024
O O9 0.111850 0.384221 0.604590
O O10 0.181759 0.499188 0.613472
O O11 0.857022 0.459725 0.096340
O O12 0.671223 0.250000 0.723036
O O13 0.743944 0.124551 0.725471
O O14 0.725088 0.128236 0.502028
O O15 0.450889 0.143417 0.079700
O O16 0.765442 0.750000 0.568866
#
# Coordination Sequence:
#
# PCOD9162613 Si02
#       7
#     4   4   4   4   4   4   4
#     4  11  23  40  59  87 123 157 197 249 306 362
#     4  12  24  38  63  91 124 163 207 250 304 362
#     4  10  20  37  60  87 117 155 199 251 295 357
#     4  10  20  38  62  86 116 155 197 249 307 358
#     4  11  22  39  63  86 117 159 207 248 297 367
#     4  10  20  35  58  84 115 155 194 239 301 357
#     4  10  21  35  58  89 120 150 197 249 299 350
#
# _framework density 18.951975000000001
#
# number of rings (size 3 to 8) (size 9 to 14) (size 15 to 20)
#    0.000    1.429    2.857    2.571    2.000    2.857 
#    0.000    1.429    0.000    6.000    0.000    0.000 
#    0.000    0.000    0.000    0.000    0.000    0.000 
#
# Total GULP energy -156184.425927 kJ/mol
# GULP energy per Si atom -5578.015212 kJ/mol
# Density = 1.890884 g / cm^3
# Si number density = 18.951975 Si / 1000 Ang^3
#
#
#
# Elastic Constant Matrix: (Units=GPa)
#
#
# Indices 1 2 3 4 5 6 
#
# 1 65.6840 18.7108 35.2286 0.0000 -17.8528 0.0000
# 2 18.7108 95.3651 57.5020 0.0000 -3.6533 0.0000
# 3 35.2286 57.5020 78.2620 0.0000 -2.8334 0.0000
# 4 0.0000 0.0000 0.0000 20.4263 0.0000 -1.0288
# 5 -17.8528 -3.6533 -2.8334 0.0000 42.1541 0.0000
# 6 0.0000 0.0000 0.0000 -1.0288 0.0000 20.8822
#
#
#
# Elastic Compliance Matrix: (Units=1/GPa)
#
#
# Indices 1 2 3 4 5 6 
#
# 1 0.023727 0.003485 -0.012897 0.000000 0.009484 0.000000
# 2 0.003485 0.019359 -0.015717 0.000000 0.002097 0.000000
# 3 -0.012897 -0.015717 0.029956 0.000000 -0.004811 0.000000
# 4 0.000000 0.000000 0.000000 0.049078 0.000000 0.002418
# 5 0.009484 0.002097 -0.004811 0.000000 0.027597 0.000000
# 6 0.000000 0.000000 0.000000 0.002418 0.000000 0.048007
#
#
# Mechanical properties :
#
#
# Convention : Reuss Voigt Hill
#
# Bulk Modulus (GPa) = 43.89027 51.35488 47.62257
# Shear Modulus (GPa) = 19.56355 25.21717 22.39036
#
# Velocity S-wave (km/s) = 3.21638 3.65167 3.44092
# Velocity P-wave (km/s) = 6.08296 6.70342 6.40071
#
# Compressibility (1/GPa) = 0.02278409
#
# Stress axis : x y z
#
# Youngs Moduli (GPa) = 42.14682 51.65499 33.38183
#
# Poissons Ratio (x) = -0.18000 0.43053
# Poissons Ratio (y) = -0.14687 0.52465
# Poissons Ratio (z) = 0.54357 0.81184
#
# Static dielectric constant tensor:
#      x y z
#    x 1.671630 0.000000 -0.010580 
#    y 0.000000 1.672300 0.000000 
#    z -0.010580 0.000000 1.645140 
# 
# From -- ./inp_files/43514.got.cif
#   From: 2010.05.17/outbox.cif.g08.bks.cpg/sg11_22_cif.got.tgz:43514.got - 2010.06.03 12:22:45.
