data_PCOD9162257
_publ_section_title
;
Structure prediction by ZEFSAII (Michael W. Deem and Ramdas Pophale) SiO2 
 PCOD9162257
Probable space group: P 21/M
;
_chemical_formula_sum "Si O2"
_cell_formula_units_Z 32
_cell_length_a 9.203692
_cell_length_b 13.884346
_cell_length_c 24.887763
_cell_angle_alpha 90.000000
_cell_angle_beta 33.747650
_cell_angle_gamma 90.000000
_cell_volume 1766.793024
_symmetry_space_group_name_H-M "P 21/M"
_symmetry_group_IT_number 11
_symmetry_cell_setting 'monoclinic'
loop_
_space_group_symop_operation_xyz
x,y,z
-x,1/2+y,-z
-x,-y,-z
x,1/2-y,z
loop_
_atom_site_type_symbol
_atom_site_label
_atom_site_fract_x
_atom_site_fract_y
_atom_site_fract_z
Si Si1 0.516991 0.863160 0.552823
Si Si2 0.932814 0.638121 0.110316
Si Si3 0.019658 0.860427 0.763228
Si Si4 0.543737 0.361508 0.113510
Si Si5 0.832547 0.934116 0.254301
Si Si6 0.573886 0.488828 0.757641
Si Si7 0.306335 0.016399 0.400127
Si Si8 0.047176 0.133286 0.663109
O O1 0.560158 0.750000 0.540405
O O2 0.623500 0.905915 0.575889
O O3 0.685829 0.897440 0.450323
O O4 0.203769 0.877047 0.653636
O O5 0.885012 0.750000 0.113211
O O6 0.953791 0.623932 0.167963
O O7 0.685174 0.575577 0.169084
O O8 0.198559 0.608840 0.998552
O O9 0.076179 0.750000 0.764510
O O10 0.716012 0.866191 0.843038
O O11 0.095320 0.952381 0.775852
O O12 0.576029 0.250000 0.119886
O O13 0.488672 0.429076 0.180494
O O14 0.931029 0.899210 0.281733
O O15 0.514994 0.931010 0.349567
O O16 0.641425 0.534217 0.678830
O O17 0.809894 0.421354 0.706415
O O18 0.000000 0.000000 0.500000
O O19 0.017020 0.250000 0.670062
#
# Coordination Sequence:
#
# PCOD9162257 Si02
#       8
#     4   4   4   4   4   4   4   4
#     4   9  19  34  54  80 115 150 184 228 281 335
#     4  10  22  40  59  82 116 151 188 237 290 340
#     4   9  18  35  56  82 112 146 186 233 283 331
#     4  10  21  38  61  84 111 148 192 239 291 338
#     4  10  21  36  58  83 112 152 188 237 278 340
#     4  11  21  37  59  85 114 151 191 237 285 340
#     4  10  20  35  54  82 113 149 187 224 282 338
#     4  11  21  35  56  84 115 151 192 232 277 338
#
# _framework density 18.111913000000001
#
# number of rings (size 3 to 8) (size 9 to 14) (size 15 to 20)
#    0.000    2.000    2.500    1.125    0.000    4.000 
#    0.000    2.500    0.000    0.750    0.000    0.000 
#    0.000    0.000    0.000    0.000    0.000    0.000 
#
# Total GULP energy -178255.943203 kJ/mol
# GULP energy per Si atom -5570.498225 kJ/mol
# Density = 1.807069 g / cm^3
# Si number density = 18.111913 Si / 1000 Ang^3
#
#
#
# Elastic Constant Matrix: (Units=GPa)
#
#
# Indices 1 2 3 4 5 6 
#
# 1 49.1556 -1.5207 16.8559 0.0000 0.6357 0.0000
# 2 -1.5207 44.5717 21.3853 0.0000 0.3007 0.0000
# 3 16.8559 21.3853 108.4081 0.0000 -10.2268 0.0000
# 4 0.0000 0.0000 0.0000 24.3133 0.0000 2.1061
# 5 0.6357 0.3007 -10.2268 0.0000 23.3332 0.0000
# 6 0.0000 0.0000 0.0000 2.1061 0.0000 23.8908
#
#
#
# Elastic Compliance Matrix: (Units=1/GPa)
#
#
# Indices 1 2 3 4 5 6 
#
# 1 0.021896 0.002771 -0.004184 0.000000 -0.002466 0.000000
# 2 0.002771 0.025280 -0.005691 0.000000 -0.002896 0.000000
# 3 -0.004184 -0.005691 0.011490 0.000000 0.005223 0.000000
# 4 0.000000 0.000000 0.000000 0.041446 0.000000 -0.003654
# 5 -0.002466 -0.002896 0.005223 0.000000 0.045251 0.000000
# 6 0.000000 0.000000 0.000000 -0.003654 0.000000 0.042179
#
#
# Mechanical properties :
#
#
# Convention : Reuss Voigt Hill
#
# Bulk Modulus (GPa) = 22.49259 30.61960 26.55609
# Shear Modulus (GPa) = 23.08719 25.33512 24.21116
#
# Velocity S-wave (km/s) = 3.57416 3.74412 3.66013
# Velocity P-wave (km/s) = 5.42941 5.96940 5.70580
#
# Compressibility (1/GPa) = 0.04445909
#
# Stress axis : x y z
#
# Youngs Moduli (GPa) = 45.67077 39.55646 87.02984
#
# Poissons Ratio (x) = -0.10961 0.36411
# Poissons Ratio (y) = -0.12656 0.49528
# Poissons Ratio (z) = 0.19108 0.22511
#
# Static dielectric constant tensor:
#      x y z
#    x 1.617810 0.000000 -0.016370 
#    y 0.000000 1.629290 0.000000 
#    z -0.016370 0.000000 1.636560 
# 
# From -- ./inp_files/18093.got.cif
#   From: 2010.05.17/outbox.cif.g08.bks.cpg/sg11_10_cif.got.tgz:18093.got - 2010.06.03 12:22:45.
