data_PCOD9162292
_publ_section_title
;
Structure prediction by ZEFSAII (Michael W. Deem and Ramdas Pophale) SiO2 
 PCOD9162292
Probable space group: P 21/M
;
_chemical_formula_sum "Si O2"
_cell_formula_units_Z 32
_cell_length_a 16.210492
_cell_length_b 8.665276
_cell_length_c 26.208516
_cell_angle_alpha 90.000000
_cell_angle_beta 150.349529
_cell_angle_gamma 90.000000
_cell_volume 1821.250187
_symmetry_space_group_name_H-M "P 21/M"
_symmetry_group_IT_number 11
_symmetry_cell_setting 'monoclinic'
loop_
_space_group_symop_operation_xyz
x,y,z
-x,1/2+y,-z
-x,-y,-z
x,1/2-y,z
loop_
_atom_site_type_symbol
_atom_site_label
_atom_site_fract_x
_atom_site_fract_y
_atom_site_fract_z
Si Si1 0.347471 0.065812 0.450544
Si Si2 0.599315 0.065300 0.204839
Si Si3 0.987186 0.563032 0.234022
Si Si4 0.843234 0.935531 0.946180
Si Si5 0.481454 0.065912 0.729544
Si Si6 0.098831 0.065107 0.697559
Si Si7 0.283133 0.935191 0.526837
Si Si8 0.229959 0.062966 0.978581
O O1 0.352333 0.250000 0.453481
O O2 0.500000 0.000000 0.500000
O O3 0.171504 0.007732 0.333102
O O4 0.352182 0.003034 0.510981
O O5 0.594770 0.250000 0.208639
O O6 0.600421 0.989992 0.261388
O O7 0.755844 0.016275 0.255383
O O8 0.424093 0.016289 0.084438
O O9 0.003489 0.750000 0.241206
O O10 0.904294 0.524501 0.244036
O O11 0.875414 0.509454 0.126517
O O12 0.840599 0.750000 0.942324
O O13 0.669299 0.999576 0.830921
O O14 0.847054 0.981673 0.008103
O O15 0.000000 0.000000 0.000000
O O16 0.486525 0.250000 0.730713
O O17 0.379782 0.001363 0.627043
O O18 0.119929 0.250000 0.704782
O O19 0.914111 0.026124 0.577626
O O20 0.297098 0.750000 0.532823
O O21 0.228197 0.250000 0.975718
#
# Coordination Sequence:
#
# PCOD9162292 Si02
#       8
#     4   4   4   4   4   4   4   4
#     4  11  22  37  56  81 111 143 181 222 269 322
#     4  10  20  35  55  79 109 144 181 222 267 321
#     4   9  18  36  57  77 106 142 181 225 271 318
#     4  10  20  36  56  80 111 145 183 226 272 322
#     4  11  22  37  57  81 109 142 181 225 274 325
#     4   9  19  34  54  79 107 139 175 221 276 328
#     4  10  21  39  59  80 108 142 181 225 273 324
#     4   8  17  34  55  77 104 141 181 221 265 313
#
# _framework density 17.570347000000002
#
# number of rings (size 3 to 8) (size 9 to 14) (size 15 to 20)
#    0.000    2.250    0.000    4.875    0.000    4.500 
#    0.000    7.500    0.000    0.000    0.000    0.000 
#    0.000    0.000    0.000    0.000    0.000    0.000 
#
# Total GULP energy -178624.110442 kJ/mol
# GULP energy per Si atom -5582.003451 kJ/mol
# Density = 1.753036 g / cm^3
# Si number density = 17.570347 Si / 1000 Ang^3
#
#
#
# Elastic Constant Matrix: (Units=GPa)
#
#
# Indices 1 2 3 4 5 6 
#
# 1 162.7617 66.9682 123.1290 0.0000 13.0348 0.0000
# 2 66.9682 85.1288 61.8613 0.0000 1.5249 0.0000
# 3 123.1290 61.8613 163.5902 0.0000 -25.2111 0.0000
# 4 0.0000 0.0000 0.0000 26.3186 0.0000 4.6400
# 5 13.0348 1.5249 -25.2111 0.0000 29.7480 0.0000
# 6 0.0000 0.0000 0.0000 4.6400 0.0000 32.4244
#
#
#
# Elastic Compliance Matrix: (Units=1/GPa)
#
#
# Indices 1 2 3 4 5 6 
#
# 1 0.033698 -0.003972 -0.030028 0.000000 -0.040010 0.000000
# 2 -0.003972 0.018010 -0.004249 0.000000 -0.002784 0.000000
# 3 -0.030028 -0.004249 0.037247 0.000000 0.044941 0.000000
# 4 0.000000 0.000000 0.000000 0.038979 0.000000 -0.005578
# 5 -0.040010 -0.002784 0.044941 0.000000 0.089377 0.000000
# 6 0.000000 0.000000 0.000000 -0.005578 0.000000 0.031639
#
#
# Mechanical properties :
#
#
# Convention : Reuss Voigt Hill
#
# Bulk Modulus (GPa) = 80.28439 101.71084 90.99762
# Shear Modulus (GPa) = 15.16984 28.33303 21.75143
#
# Velocity S-wave (km/s) = 2.94152 4.02001 3.52229
# Velocity P-wave (km/s) = 7.57159 8.91968 8.27314
#
# Compressibility (1/GPa) = 0.01245572
#
# Stress axis : x y z
#
# Youngs Moduli (GPa) = 29.67492 55.52543 26.84814
#
# Poissons Ratio (x) = 0.22057 0.80619
# Poissons Ratio (y) = 0.11788 0.11409
# Poissons Ratio (z) = 0.89107 0.23595
#
# Static dielectric constant tensor:
#      x y z
#    x 1.571080 0.000000 -0.007890 
#    y 0.000000 1.591680 0.000000 
#    z -0.007890 0.000000 1.582200 
# 
# From -- ./inp_files/68986.got.cif
#   From: 2010.05.17/outbox.cif.g08.bks.cpg/sg11_35_cif.got.tgz:68986.got - 2010.06.03 12:22:45.
