data_PCOD9162308
_publ_section_title
;
Structure prediction by ZEFSAII (Michael W. Deem and Ramdas Pophale) SiO2 
 PCOD9162308
Probable space group: P 21/M
;
_chemical_formula_sum "Si O2"
_cell_formula_units_Z 32
_cell_length_a 13.375974
_cell_length_b 15.247140
_cell_length_c 11.290907
_cell_angle_alpha 90.000000
_cell_angle_beta 142.748801
_cell_angle_gamma 90.000000
_cell_volume 1393.865748
_symmetry_space_group_name_H-M "P 21/M"
_symmetry_group_IT_number 11
_symmetry_cell_setting 'monoclinic'
loop_
_space_group_symop_operation_xyz
x,y,z
-x,1/2+y,-z
-x,-y,-z
x,1/2-y,z
loop_
_atom_site_type_symbol
_atom_site_label
_atom_site_fract_x
_atom_site_fract_y
_atom_site_fract_z
Si Si1 0.820809 0.350691 0.392261
Si Si2 0.384256 0.853319 0.583204
Si Si3 0.637138 0.851805 0.417972
Si Si4 0.724345 0.652072 0.051624
Si Si5 0.103838 0.001959 0.917886
Si Si6 0.262664 0.500053 0.314805
Si Si7 0.503530 0.900115 0.048247
Si Si8 0.005904 0.648075 0.662006
O O1 0.859781 0.250000 0.456607
O O2 0.750569 0.388913 0.447675
O O3 0.964821 0.386179 0.444299
O O4 0.661730 0.355277 0.155778
O O5 0.355843 0.750000 0.531887
O O6 0.560004 0.858905 0.815076
O O7 0.363538 0.915098 0.451750
O O8 0.597737 0.750000 0.407774
O O9 0.521443 0.889912 0.205218
O O10 0.818099 0.854489 0.527536
O O11 0.655316 0.914672 0.548006
O O12 0.788344 0.750000 0.093636
O O13 0.853719 0.580313 0.131595
O O14 0.655890 0.642265 0.120024
O O15 0.922244 0.009145 0.804263
O O16 0.106395 0.912256 0.846978
O O17 0.233521 0.004774 0.147694
O O18 0.500000 0.000000 0.000000
O O19 0.057362 0.750000 0.713674
#
# Coordination Sequence:
#
# PCOD9162308 Si02
#       8
#     4   4   4   4   4   4   4   4
#     4   9  17  32  53  78 108 137 169 211 265 328
#     4   9  19  36  57  81 110 142 176 223 279 333
#     4  10  20  35  55  80 111 144 181 227 277 329
#     4  10  21  37  56  81 113 145 180 225 278 334
#     4  10  22  38  55  77 107 145 188 233 278 326
#     4  10  22  38  55  78 107 144 191 233 274 329
#     4  11  20  33  56  83 111 144 177 217 271 331
#     4   9  19  35  55  80 110 143 181 229 279 330
#
# _framework density 22.957733999999999
#
# number of rings (size 3 to 8) (size 9 to 14) (size 15 to 20)
#    0.000    2.250    0.000    4.125    0.000    3.000 
#    0.000    6.875    0.000    1.500    0.000    0.000 
#    0.000    0.000    0.000    0.000    0.000    0.000 
#
# Total GULP energy -178956.785200 kJ/mol
# GULP energy per Si atom -5592.399538 kJ/mol
# Density = 2.290548 g / cm^3
# Si number density = 22.957734 Si / 1000 Ang^3
#
#
#
# Elastic Constant Matrix: (Units=GPa)
#
#
# Indices 1 2 3 4 5 6 
#
# 1 83.0695 20.1727 13.4346 0.0000 2.7094 0.0000
# 2 20.1727 118.3457 44.9642 0.0000 -10.9960 0.0000
# 3 13.4346 44.9642 119.5738 0.0000 -21.5764 0.0000
# 4 0.0000 0.0000 0.0000 25.4181 0.0000 9.7885
# 5 2.7094 -10.9960 -21.5764 0.0000 29.4575 0.0000
# 6 0.0000 0.0000 0.0000 9.7885 0.0000 -6.2719
#
#
#
# Elastic Compliance Matrix: (Units=1/GPa)
#
#
# Indices 1 2 3 4 5 6 
#
# 1 0.012805 -0.001988 -0.001196 0.000000 -0.002796 0.000000
# 2 -0.001988 0.010199 -0.003332 0.000000 0.001549 0.000000
# 3 -0.001196 -0.003332 0.011000 0.000000 0.006923 0.000000
# 4 0.000000 0.000000 0.000000 0.024573 0.000000 0.038351
# 5 -0.002796 0.001549 0.006923 0.000000 0.039853 0.000000
# 6 0.000000 0.000000 0.000000 0.038351 0.000000 -0.099587
#
#
# Mechanical properties :
#
#
# Convention : Reuss Voigt Hill
#
# Bulk Modulus (GPa) = 47.68315 53.12577 50.40446
# Shear Modulus (GPa) = 265.02748 25.88190 145.45469
#
# Velocity S-wave (km/s) = 10.75603 3.36128 7.96838
# Velocity P-wave (km/s) = 13.23145 6.18508 10.32779
#
# Compressibility (1/GPa) = 0.02097177
#
# Stress axis : x y z
#
# Youngs Moduli (GPa) = 78.09154 98.05170 90.91276
#
# Poissons Ratio (x) = 0.19496 0.10869
# Poissons Ratio (y) = 0.15527 0.30294
# Poissons Ratio (z) = 0.09336 0.32672
#
# Static dielectric constant tensor:
#      x y z
#    x 1.871510 0.000000 0.045940 
#    y 0.000000 1.816530 0.000000 
#    z 0.045940 0.000000 1.861170 
# 
# From -- ./inp_files/22187.got.cif
#   From: 2010.05.17/outbox.cif.g08.bks.cpg/sg11_12_cif.got.tgz:22187.got - 2010.06.03 12:22:45.
