data_PCOD9162753
_publ_section_title
;
Structure prediction by ZEFSAII (Michael W. Deem and Ramdas Pophale) SiO2 
 PCOD9162753
Probable space group: P 21/M
;
_chemical_formula_sum "Si O2"
_cell_formula_units_Z 28
_cell_length_a 21.826179
_cell_length_b 8.834631
_cell_length_c 16.078427
_cell_angle_alpha 90.000000
_cell_angle_beta 27.994006
_cell_angle_gamma 90.000000
_cell_volume 1455.236293
_symmetry_space_group_name_H-M "P 21/M"
_symmetry_group_IT_number 11
_symmetry_cell_setting 'monoclinic'
loop_
_space_group_symop_operation_xyz
x,y,z
-x,1/2+y,-z
-x,-y,-z
x,1/2-y,z
loop_
_atom_site_type_symbol
_atom_site_label
_atom_site_fract_x
_atom_site_fract_y
_atom_site_fract_z
Si Si1 0.519754 0.429060 0.068171
Si Si2 0.098244 0.430009 0.688832
Si Si3 0.018344 0.072204 0.603633
Si Si4 0.106422 0.929734 0.933759
Si Si5 0.597543 0.066703 0.451301
Si Si6 0.365644 0.930300 0.407040
Si Si7 0.791818 0.925916 0.781844
O O1 0.501380 0.250000 0.083555
O O2 0.425386 0.493222 0.253307
O O3 0.500000 0.500000 0.000000
O O4 0.664683 0.472655 0.924641
O O5 0.127683 0.250000 0.660245
O O6 0.213962 0.522047 0.592801
O O7 0.087081 0.473260 0.606245
O O8 0.958119 0.455560 0.898973
O O9 0.983347 0.250000 0.651602
O O10 0.121292 0.056804 0.405554
O O11 0.889278 0.978329 0.737455
O O12 0.109482 0.750000 0.914777
O O13 0.253966 0.984808 0.746697
O O14 0.000000 0.000000 0.000000
O O15 0.593397 0.250000 0.451479
O O16 0.570955 0.024919 0.580008
O O17 0.500000 0.000000 0.500000
O O18 0.377130 0.750000 0.385115
O O19 0.754450 0.750000 0.835446
#
# Coordination Sequence:
#
# PCOD9162753 Si02
#       7
#     4   4   4   4   4   4   4
#     4  12  25  41  62  88 120 159 203 249 305 367
#     4  10  20  35  60  89 117 154 204 252 302 363
#     4   9  19  35  55  83 117 154 196 243 294 355
#     4  10  20  37  60  87 118 153 198 250 304 360
#     4  10  23  41  61  90 128 168 210 259 314 373
#     4  11  23  40  61  88 124 161 205 257 308 369
#     4  10  20  36  57  82 118 157 197 243 296 355
#
# _framework density 19.240860999999999
#
# number of rings (size 3 to 8) (size 9 to 14) (size 15 to 20)
#    0.000    1.714    1.429    3.000    0.000    5.143 
#    0.000    1.429    0.000    0.000    0.000    0.000 
#    0.000    0.000    0.000    0.000    0.000    0.000 
#
# Total GULP energy -156334.211829 kJ/mol
# GULP energy per Si atom -5583.364708 kJ/mol
# Density = 1.919707 g / cm^3
# Si number density = 19.240861 Si / 1000 Ang^3
#
#
#
# Elastic Constant Matrix: (Units=GPa)
#
#
# Indices 1 2 3 4 5 6 
#
# 1 121.4772 36.2034 50.9708 0.0000 4.2446 0.0000
# 2 36.2034 61.1448 44.4269 0.0000 7.6419 0.0000
# 3 50.9708 44.4269 78.3704 0.0000 -4.6031 0.0000
# 4 0.0000 0.0000 0.0000 27.9819 0.0000 -6.4329
# 5 4.2446 7.6419 -4.6031 0.0000 26.7522 0.0000
# 6 0.0000 0.0000 0.0000 -6.4329 0.0000 34.0826
#
#
#
# Elastic Compliance Matrix: (Units=1/GPa)
#
#
# Indices 1 2 3 4 5 6 
#
# 1 0.011667 -0.001644 -0.006806 0.000000 -0.002553 0.000000
# 2 -0.001644 0.031490 -0.017472 0.000000 -0.011741 0.000000
# 3 -0.006806 -0.017472 0.027728 0.000000 0.010842 0.000000
# 4 0.000000 0.000000 0.000000 0.037358 0.000000 0.007051
# 5 -0.002553 -0.011741 0.010842 0.000000 0.043004 0.000000
# 6 0.000000 0.000000 0.000000 0.007051 0.000000 0.030671
#
#
# Mechanical properties :
#
#
# Convention : Reuss Voigt Hill
#
# Bulk Modulus (GPa) = 52.51673 58.24385 55.38029
# Shear Modulus (GPa) = 20.82391 26.38942 23.60667
#
# Velocity S-wave (km/s) = 3.29336 3.70744 3.50652
# Velocity P-wave (km/s) = 6.46648 6.97592 6.72602
#
# Compressibility (1/GPa) = 0.01904155
#
# Stress axis : x y z
#
# Youngs Moduli (GPa) = 85.71321 31.75629 36.06497
#
# Poissons Ratio (x) = 0.05219 0.24546
# Poissons Ratio (y) = 0.14088 0.63012
# Poissons Ratio (z) = 0.58337 0.55484
#
# Static dielectric constant tensor:
#      x y z
#    x 1.665230 0.000000 0.024420 
#    y 0.000000 1.653100 0.000000 
#    z 0.024420 0.000000 1.689570 
# 
# From -- ./inp_files/54522.got.cif
#   From: 2010.05.17/outbox.cif.g08.bks.cpg/sg11_28_cif.got.tgz:54522.got - 2010.06.03 12:22:45.
