data_PCOD9162394
_publ_section_title
;
Structure prediction by ZEFSAII (Michael W. Deem and Ramdas Pophale) SiO2 
 PCOD9162394
Probable space group: P 21/M
;
_chemical_formula_sum "Si O2"
_cell_formula_units_Z 28
_cell_length_a 15.755094
_cell_length_b 8.852586
_cell_length_c 20.749919
_cell_angle_alpha 90.000000
_cell_angle_beta 148.116078
_cell_angle_gamma 90.000000
_cell_volume 1528.642824
_symmetry_space_group_name_H-M "P 21/M"
_symmetry_group_IT_number 11
_symmetry_cell_setting 'monoclinic'
loop_
_space_group_symop_operation_xyz
x,y,z
-x,1/2+y,-z
-x,-y,-z
x,1/2-y,z
loop_
_atom_site_type_symbol
_atom_site_label
_atom_site_fract_x
_atom_site_fract_y
_atom_site_fract_z
Si Si1 0.536427 0.432508 0.594242
Si Si2 0.376848 0.923917 0.010474
Si Si3 0.011959 0.073077 0.437171
Si Si4 0.610828 0.925674 0.843081
Si Si5 0.825913 0.070458 0.872856
Si Si6 0.737097 0.921576 0.186043
Si Si7 0.688883 0.074026 0.440825
O O1 0.500000 0.500000 0.500000
O O2 0.530386 0.250000 0.587953
O O3 0.712531 0.476186 0.738291
O O4 0.402805 0.492878 0.559026
O O5 0.321693 0.750000 0.978856
O O6 0.557832 0.921652 0.099260
O O7 0.380650 0.002982 0.081510
O O8 0.273654 0.020811 0.893831
O O9 0.041840 0.250000 0.463255
O O10 0.148941 0.001738 0.479924
O O11 0.000000 0.000000 0.500000
O O12 0.844446 0.036407 0.295007
O O13 0.661174 0.750000 0.875722
O O14 0.433048 0.932092 0.698373
O O15 0.719638 0.021821 0.865203
O O16 0.844329 0.250000 0.880431
O O17 0.000000 0.000000 0.000000
O O18 0.799937 0.750000 0.231078
O O19 0.714489 0.250000 0.473992
#
# Coordination Sequence:
#
# PCOD9162394 Si02
#       7
#     4   4   4   4   4   4   4
#     4  10  21  39  63  90 120 157 198 244 300 360
#     4  10  20  35  56  81 110 146 187 230 281 336
#     4  12  24  38  57  83 116 152 193 238 287 340
#     4  10  20  35  58  84 111 146 187 230 281 338
#     4  10  21  38  60  87 118 149 190 241 292 349
#     4  10  21  37  56  79 111 148 187 234 282 334
#     4  10  21  38  60  86 116 151 194 240 287 345
#
# _framework density 18.316901000000001
#
# number of rings (size 3 to 8) (size 9 to 14) (size 15 to 20)
#    0.000    1.714    0.000    4.714    0.000    7.429 
#    2.571    0.000    0.000    0.000    0.000    0.000 
#    0.000    0.000    0.000    0.000    0.000    0.000 
#
# Total GULP energy -156269.499143 kJ/mol
# GULP energy per Si atom -5581.053541 kJ/mol
# Density = 1.827521 g / cm^3
# Si number density = 18.316901 Si / 1000 Ang^3
#
#
#
# Elastic Constant Matrix: (Units=GPa)
#
#
# Indices 1 2 3 4 5 6 
#
# 1 75.4710 31.6260 37.1637 0.0000 -34.7226 0.0000
# 2 31.6260 88.8438 35.3005 0.0000 -5.5431 0.0000
# 3 37.1637 35.3005 59.6757 0.0000 -17.3998 0.0000
# 4 0.0000 0.0000 0.0000 32.2969 0.0000 -0.3979
# 5 -34.7226 -5.5431 -17.3998 0.0000 35.1155 0.0000
# 6 0.0000 0.0000 0.0000 -0.3979 0.0000 32.4718
#
#
#
# Elastic Compliance Matrix: (Units=1/GPa)
#
#
# Indices 1 2 3 4 5 6 
#
# 1 0.032621 -0.006513 -0.008600 0.000000 0.026966 0.000000
# 2 -0.006513 0.016179 -0.007770 0.000000 -0.007736 0.000000
# 3 -0.008600 -0.007770 0.027903 0.000000 0.004096 0.000000
# 4 0.000000 0.000000 0.000000 0.030967 0.000000 0.000379
# 5 0.026966 -0.007736 0.004096 0.000000 0.055951 0.000000
# 6 0.000000 0.000000 0.000000 0.000379 0.000000 0.030801
#
#
# Mechanical properties :
#
#
# Convention : Reuss Voigt Hill
#
# Bulk Modulus (GPa) = 32.32292 48.01899 40.17096
# Shear Modulus (GPa) = 19.96019 27.97021 23.96520
#
# Velocity S-wave (km/s) = 3.30466 3.91194 3.62106
# Velocity P-wave (km/s) = 5.67855 6.83206 6.28183
#
# Compressibility (1/GPa) = 0.03093780
#
# Stress axis : x y z
#
# Youngs Moduli (GPa) = 30.65551 61.80968 35.83790
#
# Poissons Ratio (x) = 0.40255 0.30819
# Poissons Ratio (y) = 0.19965 0.27846
# Poissons Ratio (z) = 0.26363 0.48027
#
# Static dielectric constant tensor:
#      x y z
#    x 1.626550 0.000000 0.001570 
#    y 0.000000 1.645000 0.000000 
#    z 0.001570 0.000000 1.654390 
# 
# From -- ./inp_files/64276.got.cif
#   From: 2010.05.17/outbox.cif.g08.bks.cpg/sg11_33_cif.got.tgz:64276.got - 2010.06.03 12:22:45.
