data_PCOD9163168
_publ_section_title
;
Structure prediction by ZEFSAII (Michael W. Deem and Ramdas Pophale) SiO2 
 PCOD9163168
Probable space group: P 21/M
;
_chemical_formula_sum "Si O2"
_cell_formula_units_Z 28
_cell_length_a 30.019338
_cell_length_b 8.797494
_cell_length_c 9.535220
_cell_angle_alpha 90.000000
_cell_angle_beta 142.570018
_cell_angle_gamma 90.000000
_cell_volume 1530.542531
_symmetry_space_group_name_H-M "P 21/M"
_symmetry_group_IT_number 11
_symmetry_cell_setting 'monoclinic'
loop_
_space_group_symop_operation_xyz
x,y,z
-x,1/2+y,-z
-x,-y,-z
x,1/2-y,z
loop_
_atom_site_type_symbol
_atom_site_label
_atom_site_fract_x
_atom_site_fract_y
_atom_site_fract_z
Si Si1 0.933209 0.433058 0.744347
Si Si2 0.199437 0.067653 0.090710
Si Si3 0.631202 0.568337 0.493866
Si Si4 0.068271 0.932948 0.585035
Si Si5 0.362687 0.433140 0.816368
Si Si6 0.795014 0.432286 0.586414
Si Si7 0.501489 0.431662 0.349423
O O1 0.938335 0.250000 0.760374
O O2 0.935568 0.480255 0.587666
O O3 0.857203 0.475794 0.630202
O O4 0.000000 0.500000 0.000000
O O5 0.191198 0.250000 0.071561
O O6 0.283800 0.031943 0.262433
O O7 0.187630 0.005401 0.218716
O O8 0.141911 0.993548 0.841853
O O9 0.622074 0.750000 0.485975
O O10 0.619125 0.528940 0.300016
O O11 0.573319 0.485715 0.446495
O O12 0.066439 0.750000 0.586915
O O13 0.000000 0.000000 0.500000
O O14 0.353707 0.250000 0.800569
O O15 0.285256 0.509482 0.657716
O O16 0.429096 0.479766 0.082065
O O17 0.794232 0.250000 0.598590
O O18 0.500000 0.500000 0.500000
O O19 0.500813 0.250000 0.355260
#
# Coordination Sequence:
#
# PCOD9163168 Si02
#       7
#     4   4   4   4   4   4   4
#     4  10  23  39  56  81 112 144 182 227 274 325
#     4  10  21  38  59  85 115 147 183 227 277 331
#     4   9  19  37  59  82 110 143 184 230 277 330
#     4  11  23  39  58  83 114 148 188 233 279 330
#     4   9  20  38  58  82 111 145 184 228 277 331
#     4  10  20  36  59  86 112 142 182 228 276 330
#     4  11  23  37  55  81 114 149 187 231 280 331
#
# _framework density 18.294167999999999
#
# number of rings (size 3 to 8) (size 9 to 14) (size 15 to 20)
#    0.000    2.000    0.000    3.857    0.000    9.714 
#    0.000    2.857    0.000    0.000    0.000    0.000 
#    0.000    0.000    0.000    0.000    0.000    0.000 
#
# Total GULP energy -156427.115390 kJ/mol
# GULP energy per Si atom -5586.682692 kJ/mol
# Density = 1.825253 g / cm^3
# Si number density = 18.294168 Si / 1000 Ang^3
#
#
#
# Elastic Constant Matrix: (Units=GPa)
#
#
# Indices 1 2 3 4 5 6 
#
# 1 184.0690 60.8675 115.7393 0.0000 6.0699 0.0000
# 2 60.8675 46.5103 59.6825 0.0000 1.5726 0.0000
# 3 115.7393 59.6825 188.4749 0.0000 -7.3026 0.0000
# 4 0.0000 0.0000 0.0000 36.0951 0.0000 3.3994
# 5 6.0699 1.5726 -7.3026 0.0000 15.2868 0.0000
# 6 0.0000 0.0000 0.0000 3.3994 0.0000 33.1312
#
#
#
# Elastic Compliance Matrix: (Units=1/GPa)
#
#
# Indices 1 2 3 4 5 6 
#
# 1 0.011335 -0.009153 -0.004279 0.000000 -0.005603 0.000000
# 2 -0.009153 0.044978 -0.008824 0.000000 -0.005208 0.000000
# 3 -0.004279 -0.008824 0.011033 0.000000 0.007877 0.000000
# 4 0.000000 0.000000 0.000000 0.027975 0.000000 -0.002870
# 5 -0.005603 -0.005208 0.007877 0.000000 0.071940 0.000000
# 6 0.000000 0.000000 0.000000 -0.002870 0.000000 0.030478
#
#
# Mechanical properties :
#
#
# Convention : Reuss Voigt Hill
#
# Bulk Modulus (GPa) = 43.79509 99.07033 71.43271
# Shear Modulus (GPa) = 20.01102 29.08697 24.54900
#
# Velocity S-wave (km/s) = 3.31092 3.99175 3.66717
# Velocity P-wave (km/s) = 6.21350 8.69006 7.55396
#
# Compressibility (1/GPa) = 0.02283361
#
# Stress axis : x y z
#
# Youngs Moduli (GPa) = 88.22158 22.23289 90.63804
#
# Poissons Ratio (x) = 0.20351 0.38786
# Poissons Ratio (y) = 0.80753 0.79976
# Poissons Ratio (z) = 0.37752 0.19618
#
# Static dielectric constant tensor:
#      x y z
#    x 1.603350 0.000000 0.002010 
#    y 0.000000 1.615490 0.000000 
#    z 0.002010 0.000000 1.609550 
# 
# From -- ./inp_files/28619.got.cif
#   From: 2010.05.17/outbox.cif.g08.bks.cpg/sg11_15_cif.got.tgz:28619.got - 2010.06.03 12:22:45.
