data_PCOD9163125
_publ_section_title
;
Structure prediction by ZEFSAII (Michael W. Deem and Ramdas Pophale) SiO2 
 PCOD9163125
Probable space group: P 21/M
;
_chemical_formula_sum "Si O2"
_cell_formula_units_Z 28
_cell_length_a 8.419129
_cell_length_b 7.797507
_cell_length_c 25.380308
_cell_angle_alpha 90.000000
_cell_angle_beta 43.521730
_cell_angle_gamma 90.000000
_cell_volume 1147.375394
_symmetry_space_group_name_H-M "P 21/M"
_symmetry_group_IT_number 11
_symmetry_cell_setting 'monoclinic'
loop_
_space_group_symop_operation_xyz
x,y,z
-x,1/2+y,-z
-x,-y,-z
x,1/2-y,z
loop_
_atom_site_type_symbol
_atom_site_label
_atom_site_fract_x
_atom_site_fract_y
_atom_site_fract_z
Si Si1 0.949980 0.050006 0.834085
Si Si2 0.808129 0.044772 0.974867
Si Si3 0.593941 0.456097 0.534747
Si Si4 0.572484 0.545066 0.316055
Si Si5 0.918215 0.957899 0.614255
Si Si6 0.335967 0.444804 0.879622
Si Si7 0.822196 0.555649 0.750407
O O1 0.968531 0.250000 0.844363
O O2 0.208878 0.974928 0.768544
O O3 0.786556 0.980250 0.919904
O O4 0.862855 0.038006 0.795523
O O5 0.766061 0.250000 0.990820
O O6 0.079752 0.010391 0.922123
O O7 0.670559 0.957706 0.055195
O O8 0.500000 0.500000 0.500000
O O9 0.597505 0.250000 0.538387
O O10 0.446861 0.522711 0.619402
O O11 0.859995 0.516605 0.471970
O O12 0.610187 0.750000 0.309702
O O13 0.325060 0.514974 0.349981
O O14 0.918066 0.750000 0.615827
O O15 0.937986 0.018372 0.670191
O O16 0.380791 0.250000 0.852324
O O17 0.547075 0.553322 0.807358
O O18 0.901227 0.750000 0.738915
#
# Coordination Sequence:
#
# PCOD9163125 Si02
#       7
#     4   4   4   4   4   4   4
#     4  10  21  37  56  80 110 143 181 226 274 323
#     4   9  19  36  57  81 109 140 178 224 272 326
#     4  10  21  37  57  84 116 148 184 226 272 322
#     4  10  21  37  59  85 111 143 186 230 271 321
#     4  10  22  38  56  81 113 147 184 226 272 324
#     4  10  20  36  59  83 108 141 180 224 274 325
#     4  11  23  37  54  79 111 146 184 225 271 325
#
# _framework density 24.403521999999999
#
# number of rings (size 3 to 8) (size 9 to 14) (size 15 to 20)
#    0.000    2.000    0.000    3.000    0.000    5.714 
#    0.000    0.000    0.000    0.000    0.000    0.000 
#    0.000    0.000    0.000    0.000    0.000    0.000 
#
# Total GULP energy -156556.689574 kJ/mol
# GULP energy per Si atom -5591.310342 kJ/mol
# Density = 2.434798 g / cm^3
# Si number density = 24.403522 Si / 1000 Ang^3
#
#
#
# Elastic Constant Matrix: (Units=GPa)
#
#
# Indices 1 2 3 4 5 6 
#
# 1 58.4256 -8.3820 -2.9333 0.0000 11.8877 0.0000
# 2 -8.3820 30.8189 10.4136 0.0000 -1.2335 0.0000
# 3 -2.9333 10.4136 95.0386 0.0000 16.5813 0.0000
# 4 0.0000 0.0000 0.0000 14.1284 0.0000 -2.1796
# 5 11.8877 -1.2335 16.5813 0.0000 47.3358 0.0000
# 6 0.0000 0.0000 0.0000 -2.1796 0.0000 27.2438
#
#
#
# Elastic Compliance Matrix: (Units=1/GPa)
#
#
# Indices 1 2 3 4 5 6 
#
# 1 0.018828 0.004606 0.000938 0.000000 -0.004937 0.000000
# 2 0.004606 0.035061 -0.003895 0.000000 0.001121 0.000000
# 3 0.000938 -0.003895 0.011755 0.000000 -0.004455 0.000000
# 4 0.000000 0.000000 0.000000 0.071664 0.000000 0.005733
# 5 -0.004937 0.001121 -0.004455 0.000000 0.023955 0.000000
# 6 0.000000 0.000000 0.000000 0.005733 0.000000 0.037164
#
#
# Mechanical properties :
#
#
# Convention : Reuss Voigt Hill
#
# Bulk Modulus (GPa) = 14.50486 20.27552 17.39019
# Shear Modulus (GPa) = 22.92409 30.08724 26.50567
#
# Velocity S-wave (km/s) = 3.06825 3.51509 3.29924
# Velocity P-wave (km/s) = 4.30219 4.98005 4.65348
#
# Compressibility (1/GPa) = 0.06894241
#
# Stress axis : x y z
#
# Youngs Moduli (GPa) = 53.11182 28.52133 85.07027
#
# Poissons Ratio (x) = -0.13138 -0.07977
# Poissons Ratio (y) = -0.24465 0.33137
# Poissons Ratio (z) = -0.04980 0.11110
#
# Static dielectric constant tensor:
#      x y z
#    x 1.979730 0.000000 0.019320 
#    y 0.000000 1.872200 0.000000 
#    z 0.019320 0.000000 1.957580 
# 
# From -- ./inp_files/28338.got.cif
#   From: 2010.05.17/outbox.cif.g08.bks.cpg/sg11_15_cif.got.tgz:28338.got - 2010.06.03 12:22:45.
