data_PCOD9163381
_publ_section_title
;
Structure prediction by ZEFSAII (Michael W. Deem and Ramdas Pophale) SiO2 
 PCOD9163381
Probable space group: P 21/M
;
_chemical_formula_sum "Si O2"
_cell_formula_units_Z 24
_cell_length_a 18.213358
_cell_length_b 11.443941
_cell_length_c 14.260935
_cell_angle_alpha 90.000000
_cell_angle_beta 21.978317
_cell_angle_gamma 90.000000
_cell_volume 1112.453941
_symmetry_space_group_name_H-M "P 21/M"
_symmetry_group_IT_number 11
_symmetry_cell_setting 'monoclinic'
loop_
_space_group_symop_operation_xyz
x,y,z
-x,1/2+y,-z
-x,-y,-z
x,1/2-y,z
loop_
_atom_site_type_symbol
_atom_site_label
_atom_site_fract_x
_atom_site_fract_y
_atom_site_fract_z
Si Si1 0.059072 0.750000 0.720473
Si Si2 0.799718 0.250000 0.652499
Si Si3 0.247386 0.250000 0.205590
Si Si4 0.260958 0.381510 0.665856
Si Si5 0.237123 0.504186 0.223003
Si Si6 0.043600 0.491875 0.089596
Si Si7 0.384558 0.250000 0.834271
Si Si8 0.370300 0.505203 0.850053
O O1 0.185560 0.750000 0.476843
O O2 0.077916 0.871107 0.753190
O O3 0.835144 0.750000 0.947675
O O4 0.710299 0.125789 0.789322
O O5 0.019790 0.250000 0.438485
O O6 0.286850 0.375560 0.206080
O O7 0.368803 0.250000 0.965079
O O8 0.241273 0.250000 0.724089
O O9 0.474573 0.402926 0.371129
O O10 0.102872 0.409694 0.772402
O O11 0.203343 0.466151 0.819571
O O12 0.000000 0.500000 0.500000
O O13 0.325320 0.509173 0.013593
O O14 0.163238 0.517586 0.041908
O O15 0.461214 0.377175 0.716615
#
# Coordination Sequence:
#
# PCOD9163381 Si02
#       8
#     2   2   2   4   4   4   2   4
#     4   9  16  35  64  79 114 159 203 241 295 364
#     4   9  16  26  52  87 110 148 199 243 293 356
#     4   7  12  24  41  68 117 142 179 237 275 333
#     4  11  24  39  57  90 124 155 203 257 305 362
#     4   9  16  29  52  88 119 153 198 244 294 359
#     4  10  21  41  61  84 118 164 201 249 303 371
#     4   7  14  29  51  84 105 145 195 231 267 357
#     4  10  20  36  62  88 123 158 198 247 306 358
#
# _framework density 21.573926
#
# number of rings (size 3 to 8) (size 9 to 14) (size 15 to 20)
#    0.000    2.667    0.833    3.500    1.167    1.333 
#    1.500    0.000    1.833    4.000    0.000    0.000 
#    0.000    0.000    0.000    0.000    0.000    0.000 
#
# Total GULP energy -133843.409788 kJ/mol
# GULP energy per Si atom -5576.808741 kJ/mol
# Density = 2.152482 g / cm^3
# Si number density = 21.573926 Si / 1000 Ang^3
#
#
#
# Elastic Constant Matrix: (Units=GPa)
#
#
# Indices 1 2 3 4 5 6 
#
# 1 4.5569 14.6556 71.0202 0.0000 1.0910 0.0000
# 2 14.6556 108.1399 3.7762 0.0000 3.6682 0.0000
# 3 71.0202 3.7762 -49.5797 0.0000 -0.6248 0.0000
# 4 0.0000 0.0000 0.0000 25.0764 0.0000 9.8863
# 5 1.0910 3.6682 -0.6248 0.0000 29.2419 0.0000
# 6 0.0000 0.0000 0.0000 9.8863 0.0000 17.4911
#
#
#
# Elastic Compliance Matrix: (Units=1/GPa)
#
#
# Indices 1 2 3 4 5 6 
#
# 1 0.009750 -0.001809 0.013826 0.000000 0.000159 0.000000
# 2 -0.001809 0.009597 -0.001846 0.000000 -0.001176 0.000000
# 3 0.013826 -0.001846 -0.000502 0.000000 -0.000295 0.000000
# 4 0.000000 0.000000 0.000000 0.051312 0.000000 -0.029003
# 5 0.000159 -0.001176 -0.000295 0.000000 0.034333 0.000000
# 6 0.000000 0.000000 0.000000 -0.029003 0.000000 0.073565
#
#
# Mechanical properties :
#
#
# Convention : Reuss Voigt Hill
#
# Bulk Modulus (GPa) = 25.51983 26.89123 26.20553
# Shear Modulus (GPa) = 29.27803 12.60622 20.94213
#
# Velocity S-wave (km/s) = 3.68788 2.41991 3.11901
# Velocity P-wave (km/s) = 5.47619 4.50552 5.01440
#
# Compressibility (1/GPa) = 0.03918522
#
# Stress axis : x y z
#
# Youngs Moduli (GPa) = 102.56865 104.20077 -1993.58641
#
# Poissons Ratio (x) = 0.18855 27.56313
# Poissons Ratio (y) = 0.18560 -3.68060
# Poissons Ratio (z) = -1.41810 0.19238
#
# Static dielectric constant tensor:
#      x y z
#    x 1.765750 0.000000 -0.029790 
#    y 0.000000 1.840560 0.000000 
#    z -0.029790 0.000000 1.759400 
# 
# From -- ./inp_files/54803.got.cif
#   From: 2010.05.17/outbox.cif.g08.bks.cpg/sg11_28_cif.got.tgz:54803.got - 2010.06.03 12:22:45.
