data_PCOD9163053
_publ_section_title
;
Structure prediction by ZEFSAII (Michael W. Deem and Ramdas Pophale) SiO2 
 PCOD9163053
Probable space group: P 21/M
;
_chemical_formula_sum "Si O2"
_cell_formula_units_Z 28
_cell_length_a 16.342993
_cell_length_b 7.700328
_cell_length_c 20.631178
_cell_angle_alpha 90.000000
_cell_angle_beta 149.449364
_cell_angle_gamma 90.000000
_cell_volume 1319.728664
_symmetry_space_group_name_H-M "P 21/M"
_symmetry_group_IT_number 11
_symmetry_cell_setting 'monoclinic'
loop_
_space_group_symop_operation_xyz
x,y,z
-x,1/2+y,-z
-x,-y,-z
x,1/2-y,z
loop_
_atom_site_type_symbol
_atom_site_label
_atom_site_fract_x
_atom_site_fract_y
_atom_site_fract_z
Si Si1 0.366275 0.456406 0.355002
Si Si2 0.128038 0.962705 0.411473
Si Si3 0.893994 0.541368 0.364718
Si Si4 0.951377 0.043426 0.787107
Si Si5 0.533026 0.542656 0.097397
Si Si6 0.302301 0.045638 0.054667
Si Si7 0.509463 0.036882 0.316314
O O1 0.500000 0.500000 0.500000
O O2 0.358192 0.250000 0.344789
O O3 0.193575 0.518281 0.261904
O O4 0.423922 0.521453 0.324318
O O5 0.127685 0.750000 0.411008
O O6 0.098062 0.023414 0.317715
O O7 0.304405 0.017448 0.555643
O O8 0.990142 0.020715 0.366829
O O9 0.884675 0.750000 0.353869
O O10 0.710197 0.476533 0.239631
O O11 0.000000 0.500000 0.500000
O O12 0.972420 0.250000 0.793025
O O13 0.122878 0.970936 0.926861
O O14 0.531289 0.750000 0.103345
O O15 0.395592 0.471128 0.050644
O O16 0.500000 0.500000 0.000000
O O17 0.284758 0.250000 0.057343
O O18 0.412989 0.974034 0.187790
O O19 0.511284 0.250000 0.317469
#
# Coordination Sequence:
#
# PCOD9163053 Si02
#       7
#     4   4   4   4   4   4   4
#     4  11  21  36  58  85 115 148 190 236 286 341
#     4   9  16  31  54  76 104 144 186 225 275 337
#     4  10  21  36  57  84 113 149 192 241 291 345
#     4  10  20  36  58  83 111 145 189 236 283 343
#     4  11  23  39  59  86 121 157 198 243 291 348
#     4  10  21  38  60  84 112 152 196 235 288 349
#     4   9  18  33  56  82 111 148 188 231 284 346
#
# _framework density 21.216481000000002
#
# number of rings (size 3 to 8) (size 9 to 14) (size 15 to 20)
#    0.000    2.000    1.429    2.571    0.000    5.714 
#    0.000    2.143    0.000    0.000    0.000    0.000 
#    0.000    0.000    0.000    0.000    0.000    0.000 
#
# Total GULP energy -156465.029372 kJ/mol
# GULP energy per Si atom -5588.036763 kJ/mol
# Density = 2.116819 g / cm^3
# Si number density = 21.216481 Si / 1000 Ang^3
#
#
#
# Elastic Constant Matrix: (Units=GPa)
#
#
# Indices 1 2 3 4 5 6 
#
# 1 63.0929 -14.7265 16.0706 0.0000 14.3094 0.0000
# 2 -14.7265 29.3912 4.6253 0.0000 -1.5923 0.0000
# 3 16.0706 4.6253 138.0143 0.0000 18.5077 0.0000
# 4 0.0000 0.0000 0.0000 5.9738 0.0000 2.7738
# 5 14.3094 -1.5923 18.5077 0.0000 42.5284 0.0000
# 6 0.0000 0.0000 0.0000 2.7738 0.0000 22.6421
#
#
#
# Elastic Compliance Matrix: (Units=1/GPa)
#
#
# Indices 1 2 3 4 5 6 
#
# 1 0.019913 0.009982 -0.001917 0.000000 -0.005492 0.000000
# 2 0.009982 0.039351 -0.002366 0.000000 -0.000855 0.000000
# 3 -0.001917 -0.002366 0.007937 0.000000 -0.002898 0.000000
# 4 0.000000 0.000000 0.000000 0.177493 0.000000 -0.021744
# 5 -0.005492 -0.000855 -0.002898 0.000000 0.026591 0.000000
# 6 0.000000 0.000000 0.000000 -0.021744 0.000000 0.046829
#
#
# Mechanical properties :
#
#
# Convention : Reuss Voigt Hill
#
# Bulk Modulus (GPa) = 12.72292 26.93749 19.83021
# Shear Modulus (GPa) = 15.01878 29.19746 22.10812
#
# Velocity S-wave (km/s) = 2.66349 3.71370 3.23154
# Velocity P-wave (km/s) = 3.93302 5.57789 4.82605
#
# Compressibility (1/GPa) = 0.07859828
#
# Stress axis : x y z
#
# Youngs Moduli (GPa) = 50.21766 25.41220 125.99720
#
# Poissons Ratio (x) = -0.25366 0.24150
# Poissons Ratio (y) = -0.50126 0.29816
# Poissons Ratio (z) = 0.09625 0.06013
#
# Static dielectric constant tensor:
#      x y z
#    x 1.718230 0.000000 -0.013480 
#    y 0.000000 1.783160 0.000000 
#    z -0.013480 0.000000 1.732010 
# 
# From -- ./inp_files/28445.got.cif
#   From: 2010.05.17/outbox.cif.g08.bks.cpg/sg11_15_cif.got.tgz:28445.got - 2010.06.03 12:22:45.
