data_PCOD9163051
_publ_section_title
;
Structure prediction by ZEFSAII (Michael W. Deem and Ramdas Pophale) SiO2 
 PCOD9163051
Probable space group: P 21/M
;
_chemical_formula_sum "Si O2"
_cell_formula_units_Z 28
_cell_length_a 9.490552
_cell_length_b 8.580907
_cell_length_c 30.097716
_cell_angle_alpha 90.000000
_cell_angle_beta 142.015384
_cell_angle_gamma 90.000000
_cell_volume 1508.519377
_symmetry_space_group_name_H-M "P 21/M"
_symmetry_group_IT_number 11
_symmetry_cell_setting 'monoclinic'
loop_
_space_group_symop_operation_xyz
x,y,z
-x,1/2+y,-z
-x,-y,-z
x,1/2-y,z
loop_
_atom_site_type_symbol
_atom_site_label
_atom_site_fract_x
_atom_site_fract_y
_atom_site_fract_z
Si Si1 0.393595 0.062289 0.792245
Si Si2 0.839048 0.563165 0.498693
Si Si3 0.082923 0.938715 0.068016
Si Si4 0.000001 0.062202 0.364134
Si Si5 0.671214 0.563434 0.634823
Si Si6 0.756951 0.561538 0.067804
Si Si7 0.934859 0.561813 0.208409
O O1 0.391563 0.250000 0.789895
O O2 0.656114 0.010011 0.857963
O O3 0.261644 0.015754 0.804838
O O4 0.241327 0.999418 0.713984
O O5 0.843503 0.750000 0.499505
O O6 0.580378 0.506765 0.427531
O O7 0.000000 0.500000 0.500000
O O8 0.931354 0.508991 0.569775
O O9 0.082304 0.750000 0.066762
O O10 0.912664 0.989328 0.065012
O O11 0.000000 0.000000 0.000000
O O12 0.992910 0.250000 0.362135
O O13 0.191544 0.013377 0.375632
O O14 0.656880 0.750000 0.631484
O O15 0.828691 0.507436 0.714696
O O16 0.750569 0.750000 0.066157
O O17 0.866409 0.512216 0.142001
O O18 0.500000 0.500000 0.000000
O O19 0.951219 0.750000 0.213205
#
# Coordination Sequence:
#
# PCOD9163051 Si02
#       7
#     4   4   4   4   4   4   4
#     4   9  18  33  54  78 106 140 179 219 263 315
#     4  11  23  38  55  79 111 145 181 223 268 316
#     4  10  21  36  54  79 108 141 179 220 265 316
#     4   9  20  37  57  81 109 140 177 219 265 318
#     4  10  20  36  58  83 109 140 178 220 266 320
#     4  10  21  36  55  79 109 143 181 222 268 320
#     4   9  18  34  54  77 107 143 179 219 265 317
#
# _framework density 18.561247000000002
#
# number of rings (size 3 to 8) (size 9 to 14) (size 15 to 20)
#    0.000    2.286    0.000    2.143    0.000    5.714 
#    0.000    4.286    0.000    0.000    0.000    0.000 
#    0.000    0.000    0.000    0.000    0.000    0.000 
#
# Total GULP energy -156348.018735 kJ/mol
# GULP energy per Si atom -5583.857812 kJ/mol
# Density = 1.851900 g / cm^3
# Si number density = 18.561247 Si / 1000 Ang^3
#
#
#
# Elastic Constant Matrix: (Units=GPa)
#
#
# Indices 1 2 3 4 5 6 
#
# 1 144.5716 30.7376 136.9716 0.0000 4.7001 0.0000
# 2 30.7376 15.8793 36.3841 0.0000 -0.2269 0.0000
# 3 136.9716 36.3841 213.3057 0.0000 1.3432 0.0000
# 4 0.0000 0.0000 0.0000 35.9029 0.0000 2.3672
# 5 4.7001 -0.2269 1.3432 0.0000 38.7734 0.0000
# 6 0.0000 0.0000 0.0000 2.3672 0.0000 25.3795
#
#
#
# Elastic Compliance Matrix: (Units=1/GPa)
#
#
# Indices 1 2 3 4 5 6 
#
# 1 0.019785 -0.015183 -0.010101 0.000000 -0.002137 0.000000
# 2 -0.015183 0.115088 -0.009899 0.000000 0.002857 0.000000
# 3 -0.010101 -0.009899 0.012859 0.000000 0.000721 0.000000
# 4 0.000000 0.000000 0.000000 0.028025 0.000000 -0.002614
# 5 -0.002137 0.002857 0.000721 0.000000 0.026042 0.000000
# 6 0.000000 0.000000 0.000000 -0.002614 0.000000 0.039646
#
#
# Mechanical properties :
#
#
# Convention : Reuss Voigt Hill
#
# Bulk Modulus (GPa) = 12.92589 86.88258 49.90423
# Shear Modulus (GPa) = 14.81045 31.32205 23.06625
#
# Velocity S-wave (km/s) = 2.82782 4.11237 3.52903
# Velocity P-wave (km/s) = 4.20013 8.33421 6.59925
#
# Compressibility (1/GPa) = 0.07736413
#
# Stress axis : x y z
#
# Youngs Moduli (GPa) = 50.54360 8.68900 77.76920
#
# Poissons Ratio (x) = 0.13193 0.78557
# Poissons Ratio (y) = 0.76741 0.76986
# Poissons Ratio (z) = 0.51056 0.08601
#
# Static dielectric constant tensor:
#      x y z
#    x 1.628260 0.000000 -0.009570 
#    y 0.000000 1.635680 0.000000 
#    z -0.009570 0.000000 1.609900 
# 
# From -- ./inp_files/24159.got.cif
#   From: 2010.05.17/outbox.cif.g08.bks.cpg/sg11_13_cif.got.tgz:24159.got - 2010.06.03 12:22:45.
