data_PCOD9163009
_publ_section_title
;
Structure prediction by ZEFSAII (Michael W. Deem and Ramdas Pophale) SiO2 
 PCOD9163009
Probable space group: P 21/M
;
_chemical_formula_sum "Si O2"
_cell_formula_units_Z 32
_cell_length_a 24.684781
_cell_length_b 8.167406
_cell_length_c 15.195163
_cell_angle_alpha 90.000000
_cell_angle_beta 151.619765
_cell_angle_gamma 90.000000
_cell_volume 1456.148091
_symmetry_space_group_name_H-M "P 21/M"
_symmetry_group_IT_number 11
_symmetry_cell_setting 'monoclinic'
loop_
_space_group_symop_operation_xyz
x,y,z
-x,1/2+y,-z
-x,-y,-z
x,1/2-y,z
loop_
_atom_site_type_symbol
_atom_site_label
_atom_site_fract_x
_atom_site_fract_y
_atom_site_fract_z
Si Si1 0.990456 0.939494 0.707427
Si Si2 0.626320 0.942698 0.967315
Si Si3 0.702130 0.940384 0.574809
Si Si4 0.233402 0.448398 0.001136
Si Si5 0.615600 0.947462 0.621619
Si Si6 0.257348 0.556009 0.696974
Si Si7 0.604236 0.058898 0.271653
Si Si8 0.055827 0.439111 0.990283
O O1 0.971005 0.750000 0.661249
O O2 0.872723 0.030693 0.518418
O O3 0.101698 0.998311 0.812472
O O4 0.020749 0.963483 0.853823
O O5 0.605239 0.750000 0.921289
O O6 0.508342 0.012929 0.841051
O O7 0.685654 0.008294 0.963047
O O8 0.716379 0.966767 0.174516
O O9 0.684461 0.750000 0.525797
O O10 0.611659 0.008510 0.515371
O O11 0.702522 0.038985 0.485726
O O12 0.812233 0.947712 0.794262
O O13 0.234778 0.250000 0.001791
O O14 0.287064 0.503259 0.171117
O O15 0.624251 0.750000 0.627777
O O16 0.500000 0.000000 0.500000
O O17 0.277273 0.750000 0.736636
O O18 0.345517 0.491778 0.747690
O O19 0.581137 0.250000 0.222985
O O20 0.027191 0.250000 0.931893
O O21 0.000000 0.500000 0.000000
#
# Coordination Sequence:
#
# PCOD9163009 Si02
#       8
#     4   4   4   4   4   4   4   4
#     4  12  25  41  63  91 124 165 214 263 312 372
#     4  10  22  41  66  93 122 160 206 259 318 375
#     4  10  21  36  57  85 120 159 196 237 293 354
#     4  10  21  41  64  87 125 168 205 256 315 370
#     4  10  20  36  57  85 120 160 199 241 297 358
#     4  11  24  42  65  91 123 163 206 260 321 378
#     4  10  22  40  63  93 126 161 203 253 312 376
#     4  11  22  39  60  87 124 163 205 251 304 362
#
# _framework density 21.975785999999999
#
# number of rings (size 3 to 8) (size 9 to 14) (size 15 to 20)
#    0.000    1.500    1.250    3.750    0.000    7.500 
#    0.000    0.000    0.000    0.000    0.000    0.000 
#    0.000    0.000    0.000    0.000    0.000    0.000 
#
# Total GULP energy -178657.756135 kJ/mol
# GULP energy per Si atom -5583.054879 kJ/mol
# Density = 2.192577 g / cm^3
# Si number density = 21.975786 Si / 1000 Ang^3
#
#
#
# Elastic Constant Matrix: (Units=GPa)
#
#
# Indices 1 2 3 4 5 6 
#
# 1 116.1104 -0.2458 9.5383 0.0000 1.6538 0.0000
# 2 -0.2458 16.2026 -5.9725 0.0000 5.5051 0.0000
# 3 9.5383 -5.9725 58.8698 0.0000 2.8290 0.0000
# 4 0.0000 0.0000 0.0000 25.6746 0.0000 -2.6103
# 5 1.6538 5.5051 2.8290 0.0000 35.2717 0.0000
# 6 0.0000 0.0000 0.0000 -2.6103 0.0000 19.9014
#
#
#
# Elastic Compliance Matrix: (Units=1/GPa)
#
#
# Indices 1 2 3 4 5 6 
#
# 1 0.008733 -0.000313 -0.001435 0.000000 -0.000246 0.000000
# 2 -0.000313 0.068309 0.007521 0.000000 -0.011250 0.000000
# 3 -0.001435 0.007521 0.018105 0.000000 -0.002559 0.000000
# 4 0.000000 0.000000 0.000000 0.039475 0.000000 0.005178
# 5 -0.000246 -0.011250 -0.002559 0.000000 0.030324 0.000000
# 6 0.000000 0.000000 0.000000 0.005178 0.000000 0.050927
#
#
# Mechanical properties :
#
#
# Convention : Reuss Voigt Hill
#
# Bulk Modulus (GPa) = 9.37261 21.98032 15.67646
# Shear Modulus (GPa) = 20.84279 28.69372 24.76826
#
# Velocity S-wave (km/s) = 3.08302 3.61736 3.36083
# Velocity P-wave (km/s) = 4.11675 5.24127 4.71267
#
# Compressibility (1/GPa) = 0.10669389
#
# Stress axis : x y z
#
# Youngs Moduli (GPa) = 114.50550 14.63943 55.23292
#
# Poissons Ratio (x) = 0.00458 0.07926
# Poissons Ratio (y) = 0.03584 -0.41543
# Poissons Ratio (z) = 0.16431 -0.11011
#
# Static dielectric constant tensor:
#      x y z
#    x 1.950750 0.000000 0.073190 
#    y 0.000000 1.768770 0.000000 
#    z 0.073190 0.000000 1.887040 
# 
# From -- ./inp_files/55774.got.cif
#   From: 2010.05.17/outbox.cif.g08.bks.cpg/sg11_28_cif.got.tgz:55774.got - 2010.06.03 12:22:45.
