data_PCOD9163268
_publ_section_title
;
Structure prediction by ZEFSAII (Michael W. Deem and Ramdas Pophale) SiO2 
 PCOD9163268
Probable space group: P 21/M
;
_chemical_formula_sum "Si O2"
_cell_formula_units_Z 28
_cell_length_a 21.574002
_cell_length_b 8.690264
_cell_length_c 16.153315
_cell_angle_alpha 90.000000
_cell_angle_beta 28.409541
_cell_angle_gamma 90.000000
_cell_volume 1440.864112
_symmetry_space_group_name_H-M "P 21/M"
_symmetry_group_IT_number 11
_symmetry_cell_setting 'monoclinic'
loop_
_space_group_symop_operation_xyz
x,y,z
-x,1/2+y,-z
-x,-y,-z
x,1/2-y,z
loop_
_atom_site_type_symbol
_atom_site_label
_atom_site_fract_x
_atom_site_fract_y
_atom_site_fract_z
Si Si1 0.891698 0.565445 0.565928
Si Si2 0.598946 0.934880 0.951934
Si Si3 0.513303 0.931546 0.576893
Si Si4 0.052188 0.430123 0.055625
Si Si5 0.787291 0.069830 0.277725
Si Si6 0.362387 0.565617 0.917702
Si Si7 0.926348 0.433299 0.792567
O O1 0.892520 0.750000 0.573205
O O2 0.745682 0.512004 0.755592
O O3 0.000000 0.500000 0.500000
O O4 0.947145 0.528789 0.410035
O O5 0.594604 0.750000 0.954918
O O6 0.500000 0.000000 0.000000
O O7 0.575230 0.990508 0.074081
O O8 0.492506 0.750000 0.593038
O O9 0.418267 0.987372 0.762621
O O10 0.500000 0.000000 0.500000
O O11 0.658462 0.970111 0.437281
O O12 0.074693 0.250000 0.010647
O O13 0.075798 0.469886 0.122035
O O14 0.902757 0.465114 0.206571
O O15 0.146776 0.531078 0.887721
O O16 0.754019 0.250000 0.321554
O O17 0.382207 0.750000 0.899005
O O18 0.207289 0.535648 0.099871
O O19 0.926946 0.250000 0.810795
#
# Coordination Sequence:
#
# PCOD9163268 Si02
#       7
#     4   4   4   4   4   4   4
#     4  10  21  38  62  89 116 152 197 245 298 354
#     4  11  24  41  63  92 125 164 207 253 310 371
#     4  11  23  38  60  89 120 158 203 248 299 362
#     4  10  21  36  57  85 114 150 197 246 297 356
#     4  10  21  38  57  80 116 156 196 244 300 354
#     4  10  22  40  61  86 119 159 201 249 305 362
#     4  10  20  36  60  87 117 151 192 246 305 358
#
# _framework density 19.432784000000002
#
# number of rings (size 3 to 8) (size 9 to 14) (size 15 to 20)
#    0.000    1.714    1.429    2.571    0.000    6.857 
#    0.000    4.286    0.000    0.000    0.000    0.000 
#    0.000    0.000    0.000    0.000    0.000    0.000 
#
# Total GULP energy -156349.856254 kJ/mol
# GULP energy per Si atom -5583.923438 kJ/mol
# Density = 1.938855 g / cm^3
# Si number density = 19.432784 Si / 1000 Ang^3
#
#
#
# Elastic Constant Matrix: (Units=GPa)
#
#
# Indices 1 2 3 4 5 6 
#
# 1 100.0086 30.2826 50.8896 0.0000 15.5175 0.0000
# 2 30.2826 18.7896 20.5829 0.0000 6.2637 0.0000
# 3 50.8896 20.5829 91.3961 0.0000 -4.2503 0.0000
# 4 0.0000 0.0000 0.0000 22.1069 0.0000 2.2670
# 5 15.5175 6.2637 -4.2503 0.0000 20.8301 0.0000
# 6 0.0000 0.0000 0.0000 2.2670 0.0000 35.6269
#
#
#
# Elastic Compliance Matrix: (Units=1/GPa)
#
#
# Indices 1 2 3 4 5 6 
#
# 1 0.023476 -0.025365 -0.007892 0.000000 -0.011471 0.000000
# 2 -0.025365 0.113414 -0.012241 0.000000 -0.017706 0.000000
# 3 -0.007892 -0.012241 0.018715 0.000000 0.013379 0.000000
# 4 0.000000 0.000000 0.000000 0.045532 0.000000 -0.002897
# 5 -0.011471 -0.017706 0.013379 0.000000 0.064607 0.000000
# 6 0.000000 0.000000 0.000000 -0.002897 0.000000 0.028253
#
#
# Mechanical properties :
#
#
# Convention : Reuss Voigt Hill
#
# Bulk Modulus (GPa) = 15.47838 45.96718 30.72278
# Shear Modulus (GPa) = 12.29920 22.94204 17.62062
#
# Velocity S-wave (km/s) = 2.51850 3.43969 3.01449
# Velocity P-wave (km/s) = 4.05457 6.28340 5.28775
#
# Compressibility (1/GPa) = 0.06460625
#
# Stress axis : x y z
#
# Youngs Moduli (GPa) = 42.59715 8.81727 53.43337
#
# Poissons Ratio (x) = 0.22365 0.42172
# Poissons Ratio (y) = 1.08049 0.65409
# Poissons Ratio (z) = 0.33619 0.10793
#
# Static dielectric constant tensor:
#      x y z
#    x 1.664410 0.000000 0.005340 
#    y 0.000000 1.693070 0.000000 
#    z 0.005340 0.000000 1.696610 
# 
# From -- ./inp_files/54490.got.cif
#   From: 2010.05.17/outbox.cif.g08.bks.cpg/sg11_28_cif.got.tgz:54490.got - 2010.06.03 12:22:45.
