data_PCOD9163325
_publ_section_title
;
Structure prediction by ZEFSAII (Michael W. Deem and Ramdas Pophale) SiO2 
 PCOD9163325
Probable space group: P 21/M
;
_chemical_formula_sum "Si O2"
_cell_formula_units_Z 32
_cell_length_a 13.115211
_cell_length_b 13.810954
_cell_length_c 16.440591
_cell_angle_alpha 90.000000
_cell_angle_beta 33.927803
_cell_angle_gamma 90.000000
_cell_volume 1662.132384
_symmetry_space_group_name_H-M "P 21/M"
_symmetry_group_IT_number 11
_symmetry_cell_setting 'monoclinic'
loop_
_space_group_symop_operation_xyz
x,y,z
-x,1/2+y,-z
-x,-y,-z
x,1/2-y,z
loop_
_atom_site_type_symbol
_atom_site_label
_atom_site_fract_x
_atom_site_fract_y
_atom_site_fract_z
Si Si1 0.001733 0.637935 0.422339
Si Si2 0.633448 0.136085 0.580155
Si Si3 0.716434 0.006778 0.682956
Si Si4 0.710268 0.028419 0.367708
Si Si5 0.693294 0.461605 0.053255
Si Si6 0.179677 0.635568 0.869782
Si Si7 0.025498 0.361665 0.751687
Si Si8 0.777018 0.862140 0.100188
O O1 0.026625 0.750000 0.429403
O O2 0.182762 0.574741 0.318830
O O3 0.950907 0.635296 0.361025
O O4 0.844109 0.584621 0.577983
O O5 0.669689 0.250000 0.567996
O O6 0.722772 0.096755 0.438840
O O7 0.411772 0.123727 0.725980
O O8 0.699560 0.071986 0.612343
O O9 0.513095 0.973355 0.839453
O O10 0.769676 0.084338 0.247639
O O11 0.500000 0.000000 0.500000
O O12 0.828876 0.932660 0.304069
O O13 0.704558 0.406581 0.132597
O O14 0.768803 0.567690 0.027858
O O15 0.827462 0.404075 0.905730
O O16 0.208618 0.750000 0.844671
O O17 0.962500 0.617711 0.026744
O O18 0.041449 0.250000 0.768665
O O19 0.783815 0.750000 0.070768
#
# Coordination Sequence:
#
# PCOD9163325 Si02
#       8
#     4   4   4   4   4   4   4   4
#     4  10  22  42  66  92 122 155 196 252 315 370
#     4  10  20  36  60  91 120 156 201 250 301 361
#     4  10  21  40  67  93 118 155 198 253 308 372
#     4  12  24  39  56  87 126 166 207 250 299 353
#     4  11  22  40  61  88 123 160 208 252 302 362
#     4  11  23  38  59  87 122 165 207 250 297 353
#     4  11  25  42  62  89 125 164 206 253 304 360
#     4   9  19  35  57  84 118 159 202 244 294 350
#
# _framework density 19.252376999999999
#
# number of rings (size 3 to 8) (size 9 to 14) (size 15 to 20)
#    0.000    1.500    2.500    3.000    1.750    3.000 
#    0.000    0.000    0.000    0.000    0.000    0.000 
#    0.000    0.000    0.000    0.000    0.000    0.000 
#
# Total GULP energy -178840.102798 kJ/mol
# GULP energy per Si atom -5588.753212 kJ/mol
# Density = 1.920856 g / cm^3
# Si number density = 19.252377 Si / 1000 Ang^3
#
#
#
# Elastic Constant Matrix: (Units=GPa)
#
#
# Indices 1 2 3 4 5 6 
#
# 1 47.8572 22.7902 10.0061 0.0000 -20.4225 0.0000
# 2 22.7902 127.5628 35.7898 0.0000 -11.1528 0.0000
# 3 10.0061 35.7898 50.6927 0.0000 -12.9116 0.0000
# 4 0.0000 0.0000 0.0000 29.3060 0.0000 -0.7659
# 5 -20.4225 -11.1528 -12.9116 0.0000 37.3990 0.0000
# 6 0.0000 0.0000 0.0000 -0.7659 0.0000 22.4002
#
#
#
# Elastic Compliance Matrix: (Units=1/GPa)
#
#
# Indices 1 2 3 4 5 6 
#
# 1 0.029059 -0.004169 0.001022 0.000000 0.014978 0.000000
# 2 -0.004169 0.010385 -0.006908 0.000000 -0.001564 0.000000
# 3 0.001022 -0.006908 0.026335 0.000000 0.007590 0.000000
# 4 0.000000 0.000000 0.000000 0.034153 0.000000 0.001168
# 5 0.014978 -0.001564 0.007590 0.000000 0.037072 0.000000
# 6 0.000000 0.000000 0.000000 0.001168 0.000000 0.044682
#
#
# Mechanical properties :
#
#
# Convention : Reuss Voigt Hill
#
# Bulk Modulus (GPa) = 21.89593 40.36499 31.13046
# Shear Modulus (GPa) = 23.03951 28.32281 25.68116
#
# Velocity S-wave (km/s) = 3.46310 3.83970 3.65625
# Velocity P-wave (km/s) = 5.23341 6.37726 5.83344
#
# Compressibility (1/GPa) = 0.04567059
#
# Stress axis : x y z
#
# Youngs Moduli (GPa) = 34.41324 96.28888 37.97200
#
# Poissons Ratio (x) = 0.40142 -0.03882
# Poissons Ratio (y) = 0.14347 0.26230
# Poissons Ratio (z) = -0.03519 0.66515
#
# Static dielectric constant tensor:
#      x y z
#    x 1.663580 0.000000 -0.007610 
#    y 0.000000 1.671260 0.000000 
#    z -0.007610 0.000000 1.668850 
# 
# From -- ./inp_files/50375.got.cif
#   From: 2010.05.17/outbox.cif.g08.bks.cpg/sg11_26_cif.got.tgz:50375.got - 2010.06.03 12:22:45.
