data_PCOD9163681
_publ_section_title
;
Structure prediction by ZEFSAII (Michael W. Deem and Ramdas Pophale) SiO2 
 PCOD9163681
Probable space group: P 21/M
;
_chemical_formula_sum "Si O2"
_cell_formula_units_Z 24
_cell_length_a 18.113529
_cell_length_b 12.623685
_cell_length_c 12.045941
_cell_angle_alpha 90.000000
_cell_angle_beta 157.013766
_cell_angle_gamma 90.000000
_cell_volume 1075.627906
_symmetry_space_group_name_H-M "P 21/M"
_symmetry_group_IT_number 11
_symmetry_cell_setting 'monoclinic'
loop_
_space_group_symop_operation_xyz
x,y,z
-x,1/2+y,-z
-x,-y,-z
x,1/2-y,z
loop_
_atom_site_type_symbol
_atom_site_label
_atom_site_fract_x
_atom_site_fract_y
_atom_site_fract_z
Si Si1 0.238250 0.441628 0.203341
Si Si2 0.676057 0.864930 0.283946
Si Si3 0.351320 0.510442 0.133397
Si Si4 0.015079 0.876464 0.577757
Si Si5 0.412452 0.921950 0.725412
Si Si6 0.913388 0.358246 0.886913
O O1 0.246819 0.440624 0.082657
O O2 0.452142 0.448118 0.542697
O O3 0.130203 0.549124 0.088713
O O4 0.111194 0.362388 0.097092
O O5 0.681126 0.750000 0.344755
O O6 0.661533 0.960877 0.348230
O O7 0.855791 0.877827 0.452467
O O8 0.492432 0.873110 0.948932
O O9 0.413166 0.435873 0.117396
O O10 0.222879 0.607083 0.916385
O O11 0.003939 0.750000 0.516202
O O12 0.000000 0.000000 0.500000
O O13 0.245547 0.865951 0.428939
O O14 0.892013 0.250000 0.921326
#
# Coordination Sequence:
#
# PCOD9163681 Si02
#       6
#     4   4   4   4   4   4
#     4   9  21  39  62  90 123 155 206 256 313 380
#     4  10  21  38  59  86 122 163 206 255 309 368
#     4  10  20  40  62  89 124 163 203 260 315 373
#     4  11  23  41  62  91 128 167 214 264 322 379
#     4  10  20  37  61  86 122 156 207 249 307 375
#     4  10  20  38  61  87 118 158 200 251 313 377
#
# _framework density 22.312548
#
# number of rings (size 3 to 8) (size 9 to 14) (size 15 to 20)
#    0.000    2.000    1.667    1.500    0.000    2.000 
#    0.000   20.833    0.000    0.000    0.000    0.000 
#    0.000    0.000    0.000    0.000    0.000    0.000 
#
# Total GULP energy -133689.592054 kJ/mol
# GULP energy per Si atom -5570.399669 kJ/mol
# Density = 2.226176 g / cm^3
# Si number density = 22.312548 Si / 1000 Ang^3
#
#
#
# Elastic Constant Matrix: (Units=GPa)
#
#
# Indices 1 2 3 4 5 6 
#
# 1 69.9575 36.0807 11.6747 0.0000 9.7262 0.0000
# 2 36.0807 149.5135 -2.0848 0.0000 6.8503 0.0000
# 3 11.6747 -2.0848 57.5023 0.0000 13.8304 0.0000
# 4 0.0000 0.0000 0.0000 124.8425 0.0000 -32.3953
# 5 9.7262 6.8503 13.8304 0.0000 26.4972 0.0000
# 6 0.0000 0.0000 0.0000 -32.3953 0.0000 -3.2981
#
#
#
# Elastic Compliance Matrix: (Units=1/GPa)
#
#
# Indices 1 2 3 4 5 6 
#
# 1 0.017385 -0.004055 -0.002738 0.000000 -0.003904 0.000000
# 2 -0.004055 0.007744 0.001404 0.000000 -0.001246 0.000000
# 3 -0.002738 0.001404 0.020405 0.000000 -0.010008 0.000000
# 4 0.000000 0.000000 0.000000 0.002257 0.000000 -0.022170
# 5 -0.003904 -0.001246 -0.010008 0.000000 0.044719 0.000000
# 6 0.000000 0.000000 0.000000 -0.022170 0.000000 -0.085438
#
#
# Mechanical properties :
#
#
# Convention : Reuss Voigt Hill
#
# Bulk Modulus (GPa) = 28.77199 40.92381 34.84790
# Shear Modulus (GPa) = 169.87148 45.02850 107.44999
#
# Velocity S-wave (km/s) = 8.73487 4.49718 6.94704
# Velocity P-wave (km/s) = 10.70764 6.73403 8.94429
#
# Compressibility (1/GPa) = 0.03475602
#
# Stress axis : x y z
#
# Youngs Moduli (GPa) = 57.51982 129.14027 49.00874
#
# Poissons Ratio (x) = 0.52363 0.13417
# Poissons Ratio (y) = 0.23323 -0.06879
# Poissons Ratio (z) = 0.15747 -0.18128
#
# Static dielectric constant tensor:
#      x y z
#    x 1.807330 0.000000 -0.033820 
#    y 0.000000 1.852770 0.000000 
#    z -0.033820 0.000000 1.864540 
# 
# From -- ./inp_files/54820.got.cif
#   From: 2010.05.17/outbox.cif.g08.bks.cpg/sg11_28_cif.got.tgz:54820.got - 2010.06.03 12:22:45.
