data_PCOD9163722
_publ_section_title
;
Structure prediction by ZEFSAII (Michael W. Deem and Ramdas Pophale) SiO2 
 PCOD9163722
Probable space group: P 21/M
;
_chemical_formula_sum "Si O2"
_cell_formula_units_Z 28
_cell_length_a 15.156729
_cell_length_b 8.887029
_cell_length_c 11.574508
_cell_angle_alpha 90.000000
_cell_angle_beta 114.002270
_cell_angle_gamma 90.000000
_cell_volume 1424.252937
_symmetry_space_group_name_H-M "P 21/M"
_symmetry_group_IT_number 11
_symmetry_cell_setting 'monoclinic'
loop_
_space_group_symop_operation_xyz
x,y,z
-x,1/2+y,-z
-x,-y,-z
x,1/2-y,z
loop_
_atom_site_type_symbol
_atom_site_label
_atom_site_fract_x
_atom_site_fract_y
_atom_site_fract_z
Si Si1 0.028541 0.071549 0.636757
Si Si2 0.414515 0.570099 0.029203
Si Si3 0.853314 0.572785 0.674066
Si Si4 0.360385 0.069260 0.490041
Si Si5 0.105339 0.072621 0.041766
Si Si6 0.197958 0.570368 0.866054
Si Si7 0.540237 0.570579 0.702005
O O1 0.033416 0.250000 0.631257
O O2 0.129695 0.006699 0.735736
O O3 0.000000 0.000000 0.500000
O O4 0.944385 0.021559 0.680316
O O5 0.423657 0.750000 0.037406
O O6 0.420137 0.506861 0.162163
O O7 0.500000 0.500000 0.000000
O O8 0.310794 0.532846 0.918259
O O9 0.871921 0.750000 0.659514
O O10 0.752234 0.528695 0.561654
O O11 0.843219 0.559180 0.806791
O O12 0.368969 0.250000 0.509214
O O13 0.397741 0.034013 0.379955
O O14 0.432253 0.986786 0.615624
O O15 0.096902 0.250000 0.009385
O O16 0.161033 0.988289 0.970308
O O17 0.000000 0.000000 0.000000
O O18 0.185911 0.750000 0.853472
O O19 0.541124 0.750000 0.717567
#
# Coordination Sequence:
#
# PCOD9163722 Si02
#       7
#     4   4   4   4   4   4   4
#     4  12  26  43  64  87 118 160 203 249 303 363
#     4  11  25  43  65  90 120 161 207 258 308 365
#     4  10  21  38  60  88 124 161 202 248 296 360
#     4   9  19  36  60  89 122 162 200 244 302 360
#     4  11  21  35  61  94 128 164 201 248 305 361
#     4  11  24  43  65  92 125 160 204 256 309 366
#     4  10  20  37  61  90 123 158 200 252 305 362
#
# _framework density 19.659427999999998
#
# number of rings (size 3 to 8) (size 9 to 14) (size 15 to 20)
#    0.000    1.429    1.429    3.857    0.000    6.286 
#    0.000    0.000    0.000    0.000    0.000    0.000 
#    0.000    0.000    0.000    0.000    0.000    0.000 
#
# Total GULP energy -156586.165287 kJ/mol
# GULP energy per Si atom -5592.363046 kJ/mol
# Density = 1.961468 g / cm^3
# Si number density = 19.659428 Si / 1000 Ang^3
#
#
#
# Elastic Constant Matrix: (Units=GPa)
#
#
# Indices 1 2 3 4 5 6 
#
# 1 97.0686 57.8884 52.5254 0.0000 28.2632 0.0000
# 2 57.8884 95.1391 66.4494 0.0000 20.0811 0.0000
# 3 52.5254 66.4494 126.6442 0.0000 23.9385 0.0000
# 4 0.0000 0.0000 0.0000 37.8675 0.0000 -1.8696
# 5 28.2632 20.0811 23.9385 0.0000 35.6215 0.0000
# 6 0.0000 0.0000 0.0000 -1.8696 0.0000 28.2764
#
#
#
# Elastic Compliance Matrix: (Units=1/GPa)
#
#
# Indices 1 2 3 4 5 6 
#
# 1 0.018867 -0.008358 -0.001719 0.000000 -0.009103 0.000000
# 2 -0.008358 0.020810 -0.007432 0.000000 -0.000105 0.000000
# 3 -0.001719 -0.007432 0.013127 0.000000 -0.003267 0.000000
# 4 0.000000 0.000000 0.000000 0.026494 0.000000 0.001752
# 5 -0.009103 -0.000105 -0.003267 0.000000 0.037550 0.000000
# 6 0.000000 0.000000 0.000000 0.001752 0.000000 0.035481
#
#
# Mechanical properties :
#
#
# Convention : Reuss Voigt Hill
#
# Bulk Modulus (GPa) = 56.22914 74.73090 65.48002
# Shear Modulus (GPa) = 25.86979 29.81900 27.84439
#
# Velocity S-wave (km/s) = 3.63147 3.89881 3.76751
# Velocity P-wave (km/s) = 6.80052 7.63956 7.23222
#
# Compressibility (1/GPa) = 0.01778437
#
# Stress axis : x y z
#
# Youngs Moduli (GPa) = 53.00267 48.05465 76.18165
#
# Poissons Ratio (x) = 0.40163 0.13097
# Poissons Ratio (y) = 0.44298 0.56622
# Poissons Ratio (z) = 0.09112 0.35716
#
# Static dielectric constant tensor:
#      x y z
#    x 1.706230 0.000000 -0.001790 
#    y 0.000000 1.653740 0.000000 
#    z -0.001790 0.000000 1.686170 
# 
# From -- ./inp_files/38501.got.cif
#   From: 2010.05.17/outbox.cif.g08.bks.cpg/sg11_20_cif.got.tgz:38501.got - 2010.06.03 12:22:45.
