data_PCOD9163960
_publ_section_title
;
Structure prediction by ZEFSAII (Michael W. Deem and Ramdas Pophale) SiO2 
 PCOD9163960
Probable space group: P 21/M
;
_chemical_formula_sum "Si O2"
_cell_formula_units_Z 24
_cell_length_a 8.875735
_cell_length_b 16.744518
_cell_length_c 11.184814
_cell_angle_alpha 90.000000
_cell_angle_beta 137.524048
_cell_angle_gamma 90.000000
_cell_volume 1122.509646
_symmetry_space_group_name_H-M "P 21/M"
_symmetry_group_IT_number 11
_symmetry_cell_setting 'monoclinic'
loop_
_space_group_symop_operation_xyz
x,y,z
-x,1/2+y,-z
-x,-y,-z
x,1/2-y,z
loop_
_atom_site_type_symbol
_atom_site_label
_atom_site_fract_x
_atom_site_fract_y
_atom_site_fract_z
Si Si1 0.431442 0.407958 0.939857
Si Si2 0.989014 0.409402 0.546179
Si Si3 0.048308 0.159076 0.100459
Si Si4 0.513362 0.890089 0.763365
Si Si5 0.624224 0.077062 0.801586
Si Si6 0.216812 0.156738 0.449372
O O1 0.553365 0.383591 0.888380
O O2 0.168954 0.403088 0.756823
O O3 0.500000 0.500000 0.000000
O O4 0.492259 0.366923 0.099658
O O5 0.737897 0.387079 0.432125
O O6 0.000000 0.500000 0.500000
O O7 0.075238 0.356296 0.486443
O O8 0.963571 0.250000 0.051642
O O9 0.295497 0.157773 0.191023
O O10 0.078376 0.128214 0.253634
O O11 0.876021 0.103944 0.928241
O O12 0.590181 0.982740 0.795751
O O13 0.446432 0.109046 0.602090
O O14 0.264567 0.250000 0.459570
#
# Coordination Sequence:
#
# PCOD9163960 Si02
#       6
#     4   4   4   4   4   4
#     4   9  18  33  60  88 113 140 184 245 283 331
#     4  11  19  37  61  89 113 147 189 243 290 336
#     4  11  25  40  55  82 123 159 190 234 290 349
#     4  11  22  36  59  90 117 147 192 241 290 339
#     4  10  20  38  62  85 109 151 199 237 280 342
#     4  10  22  39  60  84 115 156 196 235 285 348
#
# _framework density 21.380663999999999
#
# number of rings (size 3 to 8) (size 9 to 14) (size 15 to 20)
#    0.000    1.667    5.000    2.000    2.333    2.667 
#    0.000    4.167    0.000    0.000    0.000    0.000 
#    0.000    0.000    0.000    0.000    0.000    0.000 
#
# Total GULP energy -134045.634750 kJ/mol
# GULP energy per Si atom -5585.234781 kJ/mol
# Density = 2.133200 g / cm^3
# Si number density = 21.380664 Si / 1000 Ang^3
#
#
#
# Elastic Constant Matrix: (Units=GPa)
#
#
# Indices 1 2 3 4 5 6 
#
# 1 35.2073 -2.3796 16.6519 0.0000 25.2798 0.0000
# 2 -2.3796 34.4422 12.8241 0.0000 2.8508 0.0000
# 3 16.6519 12.8241 117.7073 0.0000 33.1467 0.0000
# 4 0.0000 0.0000 0.0000 12.4699 0.0000 4.8936
# 5 25.2798 2.8508 33.1467 0.0000 37.9899 0.0000
# 6 0.0000 0.0000 0.0000 4.8936 0.0000 24.4602
#
#
#
# Elastic Compliance Matrix: (Units=1/GPa)
#
#
# Indices 1 2 3 4 5 6 
#
# 1 0.056646 0.006256 0.002720 0.000000 -0.040537 0.000000
# 2 0.006256 0.030971 -0.003225 0.000000 -0.003673 0.000000
# 3 0.002720 -0.003225 0.011804 0.000000 -0.011867 0.000000
# 4 0.000000 0.000000 0.000000 0.087025 0.000000 -0.017411
# 5 -0.040537 -0.003673 -0.011867 0.000000 0.063928 0.000000
# 6 0.000000 0.000000 0.000000 -0.017411 0.000000 0.044366
#
#
# Mechanical properties :
#
#
# Convention : Reuss Voigt Hill
#
# Bulk Modulus (GPa) = 9.01516 26.83884 17.92700
# Shear Modulus (GPa) = 15.61461 25.66801 20.64131
#
# Velocity S-wave (km/s) = 2.70537 3.46862 3.11049
# Velocity P-wave (km/s) = 3.73956 5.34994 4.61553
#
# Compressibility (1/GPa) = 0.11092424
#
# Stress axis : x y z
#
# Youngs Moduli (GPa) = 17.65336 32.28811 84.71672
#
# Poissons Ratio (x) = -0.20200 -0.23044
# Poissons Ratio (y) = -0.11044 0.27320
# Poissons Ratio (z) = -0.04802 0.10413
#
# Static dielectric constant tensor:
#      x y z
#    x 1.810570 0.000000 0.005740 
#    y 0.000000 1.852440 0.000000 
#    z 0.005740 0.000000 1.778900 
# 
# From -- ./inp_files/19069.got.cif
#   From: 2010.05.17/outbox.cif.g08.bks.cpg/sg11_10_cif.got.tgz:19069.got - 2010.06.03 12:22:45.
