data_PCOD9163106
_publ_section_title
;
Structure prediction by ZEFSAII (Michael W. Deem and Ramdas Pophale) SiO2 
 PCOD9163106
Probable space group: P 21/M
;
_chemical_formula_sum "Si O2"
_cell_formula_units_Z 32
_cell_length_a 11.931940
_cell_length_b 12.943808
_cell_length_c 16.346943
_cell_angle_alpha 90.000000
_cell_angle_beta 35.208269
_cell_angle_gamma 90.000000
_cell_volume 1455.616031
_symmetry_space_group_name_H-M "P 21/M"
_symmetry_group_IT_number 11
_symmetry_cell_setting 'monoclinic'
loop_
_space_group_symop_operation_xyz
x,y,z
-x,1/2+y,-z
-x,-y,-z
x,1/2-y,z
loop_
_atom_site_type_symbol
_atom_site_label
_atom_site_fract_x
_atom_site_fract_y
_atom_site_fract_z
Si Si1 0.141816 0.041387 0.100898
Si Si2 0.306951 0.873523 0.775753
Si Si3 0.201813 0.560859 0.490406
Si Si4 0.780903 0.868699 0.780109
Si Si5 0.048155 0.126889 0.895399
Si Si6 0.611137 0.870442 0.190282
Si Si7 0.743690 0.368368 0.368495
Si Si8 0.322780 0.371584 0.334818
O O1 0.230617 0.050059 0.138900
O O2 0.971353 0.127528 0.207378
O O3 0.029342 0.939294 0.135313
O O4 0.298610 0.070932 0.940218
O O5 0.302340 0.750000 0.769001
O O6 0.353780 0.908232 0.655975
O O7 0.478491 0.896243 0.736098
O O8 0.101347 0.897168 0.940780
O O9 0.382290 0.612403 0.336572
O O10 0.268736 0.560320 0.545077
O O11 0.171868 0.449229 0.467369
O O12 0.001493 0.623212 0.613529
O O13 0.744404 0.750000 0.828725
O O14 0.654200 0.890971 0.775397
O O15 0.038294 0.250000 0.884328
O O16 0.262163 0.101859 0.803801
O O17 0.650117 0.750000 0.154583
O O18 0.687363 0.250000 0.423084
O O19 0.277649 0.250000 0.371776
#
# Coordination Sequence:
#
# PCOD9163106 Si02
#       8
#     4   4   4   4   4   4   4   4
#     4  11  20  35  62  88 115 154 205 237 287 345
#     4   9  18  36  59  85 115 154 196 235 281 349
#     4  11  22  37  62  89 121 152 193 241 304 348
#     4  10  22  43  64  84 114 155 203 250 288 343
#     4  10  21  36  56  87 130 159 187 237 299 357
#     4  11  21  35  58  93 127 154 188 239 303 357
#     4  10  20  36  58  86 119 152 191 240 290 349
#     4  10  22  40  62  85 114 158 206 243 285 345
#
# _framework density 21.983819
#
# number of rings (size 3 to 8) (size 9 to 14) (size 15 to 20)
#    0.000    1.750    1.250    4.500    1.750    0.500 
#    2.250    5.000    0.000    3.750    0.000    0.000 
#    0.000    0.000    0.000    0.000    0.000    0.000 
#
# Total GULP energy -178666.353462 kJ/mol
# GULP energy per Si atom -5583.323546 kJ/mol
# Density = 2.193378 g / cm^3
# Si number density = 21.983819 Si / 1000 Ang^3
#
#
#
# Elastic Constant Matrix: (Units=GPa)
#
#
# Indices 1 2 3 4 5 6 
#
# 1 116.4994 18.6672 10.2182 0.0000 37.9865 0.0000
# 2 18.6672 89.2417 8.6890 0.0000 27.7326 0.0000
# 3 10.2182 8.6890 57.1321 0.0000 14.5619 0.0000
# 4 0.0000 0.0000 0.0000 21.9430 0.0000 6.3602
# 5 37.9865 27.7326 14.5619 0.0000 36.4002 0.0000
# 6 0.0000 0.0000 0.0000 6.3602 0.0000 30.9736
#
#
#
# Elastic Compliance Matrix: (Units=1/GPa)
#
#
# Indices 1 2 3 4 5 6 
#
# 1 0.013378 0.002067 0.001395 0.000000 -0.016094 0.000000
# 2 0.002067 0.015025 0.000905 0.000000 -0.013967 0.000000
# 3 0.001395 0.000905 0.019668 0.000000 -0.010014 0.000000
# 4 0.000000 0.000000 0.000000 0.048457 0.000000 -0.009950
# 5 -0.016094 -0.013967 -0.010014 0.000000 0.058915 0.000000
# 6 0.000000 0.000000 0.000000 -0.009950 0.000000 0.034329
#
#
# Mechanical properties :
#
#
# Convention : Reuss Voigt Hill
#
# Bulk Modulus (GPa) = 17.60382 37.55800 27.58091
# Shear Modulus (GPa) = 25.00339 32.88326 28.94333
#
# Velocity S-wave (km/s) = 3.37613 3.87175 3.63240
# Velocity P-wave (km/s) = 4.81899 6.09169 5.49233
#
# Compressibility (1/GPa) = 0.05680587
#
# Stress axis : x y z
#
# Youngs Moduli (GPa) = 74.75073 66.55436 50.84279
#
# Poissons Ratio (x) = -0.13758 -0.07092
# Poissons Ratio (y) = -0.15452 -0.04601
# Poissons Ratio (z) = -0.10427 -0.06023
#
# Static dielectric constant tensor:
#      x y z
#    x 1.888880 0.000000 0.000300 
#    y 0.000000 1.864340 0.000000 
#    z 0.000300 0.000000 1.787210 
# 
# From -- ./inp_files/50380.got.cif
#   From: 2010.05.17/outbox.cif.g08.bks.cpg/sg11_26_cif.got.tgz:50380.got - 2010.06.03 12:22:45.
