data_PCOD9163651
_publ_section_title
;
Structure prediction by ZEFSAII (Michael W. Deem and Ramdas Pophale) SiO2 
 PCOD9163651
Probable space group: P 21/M
;
_chemical_formula_sum "Si O2"
_cell_formula_units_Z 28
_cell_length_a 9.646618
_cell_length_b 13.963807
_cell_length_c 11.628891
_cell_angle_alpha 90.000000
_cell_angle_beta 73.627425
_cell_angle_gamma 90.000000
_cell_volume 1502.931259
_symmetry_space_group_name_H-M "P 21/M"
_symmetry_group_IT_number 11
_symmetry_cell_setting 'monoclinic'
loop_
_space_group_symop_operation_xyz
x,y,z
-x,1/2+y,-z
-x,-y,-z
x,1/2-y,z
loop_
_atom_site_type_symbol
_atom_site_label
_atom_site_fract_x
_atom_site_fract_y
_atom_site_fract_z
Si Si1 0.751706 0.861145 0.822766
Si Si2 0.879628 0.859962 0.269835
Si Si3 0.400291 0.356978 0.502570
Si Si4 0.596537 0.053900 0.639780
Si Si5 0.164353 0.036714 0.956793
Si Si6 0.903515 0.482164 0.634843
Si Si7 0.462387 0.962848 0.882679
O O1 0.785589 0.750000 0.810371
O O2 0.580163 0.878714 0.840148
O O3 0.840809 0.921380 0.707344
O O4 0.795132 0.905166 0.936973
O O5 0.926375 0.750000 0.249417
O O6 0.748356 0.864669 0.391430
O O7 0.828571 0.898291 0.158646
O O8 0.005289 0.926070 0.291384
O O9 0.409064 0.250000 0.449450
O O10 0.408727 0.447485 0.416283
O O11 0.525815 0.373857 0.566918
O O12 0.507651 0.042306 0.777927
O O13 0.761477 0.075840 0.630239
O O14 0.288960 0.954602 0.915856
O O15 0.000000 0.000000 0.000000
O O16 0.000000 0.500000 0.500000
O O17 0.500000 0.000000 0.000000
#
# Coordination Sequence:
#
# PCOD9163651 Si02
#       7
#     4   4   4   4   4   4   4
#     4  10  22  40  63  90 122 165 208 248 303 364
#     4  11  22  38  61  88 117 158 203 247 300 361
#     4  10  21  37  61  87 112 151 198 245 296 354
#     4  10  20  37  61  82 118 152 194 240 295 354
#     4  11  20  39  67  86 121 158 197 255 312 355
#     4  11  22  38  60  87 124 162 195 248 303 358
#     4   9  20  37  60  86 114 157 199 240 300 357
#
# _framework density 18.63026
#
# number of rings (size 3 to 8) (size 9 to 14) (size 15 to 20)
#    0.000    1.714    4.286    0.429    0.000    3.429 
#    0.000    1.429    0.000    0.000    0.000    0.000 
#    0.000    0.000    0.000    0.000    0.000    0.000 
#
# Total GULP energy -156125.621721 kJ/mol
# GULP energy per Si atom -5575.915061 kJ/mol
# Density = 1.858786 g / cm^3
# Si number density = 18.630260 Si / 1000 Ang^3
#
#
#
# Elastic Constant Matrix: (Units=GPa)
#
#
# Indices 1 2 3 4 5 6 
#
# 1 143.4060 34.4970 26.0352 0.0000 -10.4618 0.0000
# 2 34.4970 90.0243 20.0512 0.0000 -6.5669 0.0000
# 3 26.0352 20.0512 91.2162 0.0000 1.1757 0.0000
# 4 0.0000 0.0000 0.0000 15.1948 0.0000 -0.6092
# 5 -10.4618 -6.5669 1.1757 0.0000 32.1083 0.0000
# 6 0.0000 0.0000 0.0000 -0.6092 0.0000 17.3295
#
#
#
# Elastic Compliance Matrix: (Units=1/GPa)
#
#
# Indices 1 2 3 4 5 6 
#
# 1 0.008064 -0.002537 -0.001772 0.000000 0.002173 0.000000
# 2 -0.002537 0.012679 -0.002087 0.000000 0.001843 0.000000
# 3 -0.001772 -0.002087 0.011946 0.000000 -0.001442 0.000000
# 4 0.000000 0.000000 0.000000 0.065905 0.000000 0.002317
# 5 0.002173 0.001843 -0.001442 0.000000 0.032282 0.000000
# 6 0.000000 0.000000 0.000000 0.002317 0.000000 0.057787
#
#
# Mechanical properties :
#
#
# Convention : Reuss Voigt Hill
#
# Bulk Modulus (GPa) = 50.25645 53.97927 52.11786
# Shear Modulus (GPa) = 24.02841 29.19740 26.61290
#
# Velocity S-wave (km/s) = 3.59521 3.96309 3.78362
# Velocity P-wave (km/s) = 6.65344 7.06953 6.86464
#
# Compressibility (1/GPa) = 0.01989794
#
# Stress axis : x y z
#
# Youngs Moduli (GPa) = 124.01269 78.86771 83.70974
#
# Poissons Ratio (x) = 0.20007 0.14833
# Poissons Ratio (y) = 0.31459 0.17469
# Poissons Ratio (z) = 0.21974 0.16459
#
# Static dielectric constant tensor:
#      x y z
#    x 1.664440 0.000000 -0.007200 
#    y 0.000000 1.625550 0.000000 
#    z -0.007200 0.000000 1.656530 
# 
# From -- ./inp_files/17712.got.cif
#   From: 2010.05.17/outbox.cif.g08.bks.cpg/sg11_9_cif.got.tgz:17712.got - 2010.06.03 12:22:45.
