data_PCOD9163251
_publ_section_title
;
Structure prediction by ZEFSAII (Michael W. Deem and Ramdas Pophale) SiO2 
 PCOD9163251
Probable space group: P 21/M
;
_chemical_formula_sum "Si O2"
_cell_formula_units_Z 24
_cell_length_a 9.233986
_cell_length_b 8.866384
_cell_length_c 16.387607
_cell_angle_alpha 90.000000
_cell_angle_beta 106.203860
_cell_angle_gamma 90.000000
_cell_volume 1288.388562
_symmetry_space_group_name_H-M "P 21/M"
_symmetry_group_IT_number 11
_symmetry_cell_setting 'monoclinic'
loop_
_space_group_symop_operation_xyz
x,y,z
-x,1/2+y,-z
-x,-y,-z
x,1/2-y,z
loop_
_atom_site_type_symbol
_atom_site_label
_atom_site_fract_x
_atom_site_fract_y
_atom_site_fract_z
Si Si1 0.473273 0.068712 0.754571
Si Si2 0.211302 0.069922 0.248138
Si Si3 0.949018 0.431200 0.078001
Si Si4 0.371220 0.068869 0.922337
Si Si5 0.212660 0.431361 0.587782
Si Si6 0.123547 0.930148 0.406717
O O1 0.491368 0.250000 0.752716
O O2 0.411099 0.033238 0.834701
O O3 0.350663 0.023572 0.667195
O O4 0.632708 0.992243 0.763022
O O5 0.218581 0.250000 0.255572
O O6 0.074477 0.030789 0.165694
O O7 0.180435 0.000614 0.331920
O O8 0.938438 0.250000 0.069936
O O9 0.788995 0.499430 0.078626
O O10 0.000000 0.500000 0.000000
O O11 0.366855 0.250000 0.930710
O O12 0.500000 0.000000 0.000000
O O13 0.216007 0.250000 0.578263
O O14 0.212069 0.507830 0.499324
O O15 0.052672 0.469482 0.605232
O O16 0.136062 0.750000 0.405094
#
# Coordination Sequence:
#
# PCOD9163251 Si02
#       6
#     4   4   4   4   4   4
#     4  10  22  39  59  83 114 153 193 235 286 343
#     4  11  24  39  57  84 117 152 192 238 285 338
#     4  11  24  41  62  88 118 154 195 240 291 344
#     4  11  23  40  63  90 120 154 193 238 289 346
#     4   9  19  37  59  84 113 146 189 238 286 339
#     4  10  20  36  60  86 113 149 190 234 288 346
#
# _framework density 18.627922000000002
#
# number of rings (size 3 to 8) (size 9 to 14) (size 15 to 20)
#    0.000    1.667    0.000    4.000    0.000   10.000 
#    0.000    0.000    0.000    0.000    0.000    0.000 
#    0.000    0.000    0.000    0.000    0.000    0.000 
#
# Total GULP energy -134186.376086 kJ/mol
# GULP energy per Si atom -5591.099004 kJ/mol
# Density = 1.858552 g / cm^3
# Si number density = 18.627922 Si / 1000 Ang^3
#
#
#
# Elastic Constant Matrix: (Units=GPa)
#
#
# Indices 1 2 3 4 5 6 
#
# 1 179.3507 72.7099 127.0024 0.0000 3.5986 0.0000
# 2 72.7099 54.8184 79.2330 0.0000 -0.5675 0.0000
# 3 127.0024 79.2330 189.8994 0.0000 -0.2282 0.0000
# 4 0.0000 0.0000 0.0000 31.4581 0.0000 -0.9853
# 5 3.5986 -0.5675 -0.2282 0.0000 40.2275 0.0000
# 6 0.0000 0.0000 0.0000 -0.9853 0.0000 36.1312
#
#
#
# Elastic Compliance Matrix: (Units=1/GPa)
#
#
# Indices 1 2 3 4 5 6 
#
# 1 0.013139 -0.011937 -0.003808 0.000000 -0.001365 0.000000
# 2 -0.011937 0.056814 -0.015719 0.000000 0.001780 0.000000
# 3 -0.003808 -0.015719 0.014372 0.000000 0.000200 0.000000
# 4 0.000000 0.000000 0.000000 0.031815 0.000000 0.000868
# 5 -0.001365 0.001780 0.000200 0.000000 0.025007 0.000000
# 6 0.000000 0.000000 0.000000 0.000868 0.000000 0.027701
#
#
# Mechanical properties :
#
#
# Convention : Reuss Voigt Hill
#
# Bulk Modulus (GPa) = 46.73917 109.10657 77.92287
# Shear Modulus (GPa) = 20.92840 31.23825 26.08332
#
# Velocity S-wave (km/s) = 3.35550 4.09951 3.74602
# Velocity P-wave (km/s) = 6.33702 9.00592 7.78667
#
# Compressibility (1/GPa) = 0.02139533
#
# Stress axis : x y z
#
# Youngs Moduli (GPa) = 76.10733 17.60128 69.58062
#
# Poissons Ratio (x) = 0.21011 0.26499
# Poissons Ratio (y) = 0.90852 1.09375
# Poissons Ratio (z) = 0.28985 0.27668
#
# Static dielectric constant tensor:
#      x y z
#    x 1.612340 0.000000 0.008400 
#    y 0.000000 1.623610 0.000000 
#    z 0.008400 0.000000 1.613920 
# 
# From -- ./inp_files/25758.got.cif
#   From: 2010.05.17/outbox.cif.g08.bks.cpg/sg11_13_cif.got.tgz:25758.got - 2010.06.03 12:22:45.
