data_PCOD9163867
_publ_section_title
;
Structure prediction by ZEFSAII (Michael W. Deem and Ramdas Pophale) SiO2 
 PCOD9163867
Probable space group: P 21/M
;
_chemical_formula_sum "Si O2"
_cell_formula_units_Z 20
_cell_length_a 9.863558
_cell_length_b 23.325221
_cell_length_c 5.469841
_cell_angle_alpha 90.000000
_cell_angle_beta 140.583849
_cell_angle_gamma 90.000000
_cell_volume 799.047221
_symmetry_space_group_name_H-M "P 21/M"
_symmetry_group_IT_number 11
_symmetry_cell_setting 'monoclinic'
loop_
_space_group_symop_operation_xyz
x,y,z
-x,1/2+y,-z
-x,-y,-z
x,1/2-y,z
loop_
_atom_site_type_symbol
_atom_site_label
_atom_site_fract_x
_atom_site_fract_y
_atom_site_fract_z
Si Si1 0.715115 0.926879 0.378166
Si Si2 0.013773 0.628399 0.400838
Si Si3 0.013287 0.750000 0.431408
Si Si4 0.432128 0.861746 0.286986
Si Si5 0.712444 0.447667 0.534589
Si Si6 0.721972 0.250000 0.698248
O O1 0.657215 0.873719 0.473369
O O2 0.889208 0.911173 0.418672
O O3 0.764980 0.985675 0.587787
O O4 0.490826 0.937733 0.925352
O O5 0.895998 0.689417 0.223260
O O6 0.088853 0.591590 0.274023
O O7 0.242721 0.647450 0.830645
O O8 0.182358 0.750000 0.439522
O O9 0.098110 0.750000 0.832576
O O10 0.368970 0.921977 0.325640
O O11 0.409590 0.808290 0.436654
#
# Coordination Sequence:
#
# PCOD9163867 Si02
#       6
#     4   4   2   4   4   2
#     4  10  22  36  57  90 118 154 204 253 299 367
#     4  10  21  37  59  83 118 157 202 249 309 361
#     4  10  20  39  63  88 121 160 206 256 306 371
#     4  10  21  37  59  82 117 157 199 251 307 361
#     4  10  20  38  58  84 122 157 197 253 305 363
#     4  10  20  39  65  86 121 164 204 252 316 367
#
# _framework density 25.029810999999999
#
# number of rings (size 3 to 8) (size 9 to 14) (size 15 to 20)
#    0.000    2.000    2.000    1.200    0.000    3.200 
#    0.000    2.000    0.000    0.000    0.000    0.000 
#    0.000    0.000    0.000    0.000    0.000    0.000 
#
# Total GULP energy -111782.427507 kJ/mol
# GULP energy per Si atom -5589.121375 kJ/mol
# Density = 2.497284 g / cm^3
# Si number density = 25.029811 Si / 1000 Ang^3
#
#
#
# Elastic Constant Matrix: (Units=GPa)
#
#
# Indices 1 2 3 4 5 6 
#
# 1 105.7378 -8.5621 8.9452 0.0000 -1.5228 0.0000
# 2 -8.5621 87.2296 20.2873 0.0000 0.3293 0.0000
# 3 8.9452 20.2873 84.6087 0.0000 5.4168 0.0000
# 4 0.0000 0.0000 0.0000 -8.5229 0.0000 -43.1571
# 5 -1.5228 0.3293 5.4168 0.0000 30.2780 0.0000
# 6 0.0000 0.0000 0.0000 -43.1571 0.0000 18.1102
#
#
#
# Elastic Compliance Matrix: (Units=1/GPa)
#
#
# Indices 1 2 3 4 5 6 
#
# 1 0.009687 0.001268 -0.001374 0.000000 0.000719 0.000000
# 2 0.001268 0.012312 -0.003117 0.000000 0.000488 0.000000
# 3 -0.001374 -0.003117 0.012861 0.000000 -0.002336 0.000000
# 4 0.000000 0.000000 0.000000 -0.008979 0.000000 -0.021398
# 5 0.000719 0.000488 -0.002336 0.000000 0.033476 0.000000
# 6 0.000000 0.000000 0.000000 -0.021398 0.000000 0.004226
#
#
# Mechanical properties :
#
#
# Convention : Reuss Voigt Hill
#
# Bulk Modulus (GPa) = 35.19622 35.43521 35.31572
# Shear Modulus (GPa) = 62.89282 25.10012 43.99647
#
# Velocity S-wave (km/s) = 5.01814 3.17015 4.19712
# Velocity P-wave (km/s) = 6.90419 5.25240 6.13415
#
# Compressibility (1/GPa) = 0.02841214
#
# Stress axis : x y z
#
# Youngs Moduli (GPa) = 103.23533 81.22436 77.75196
#
# Poissons Ratio (x) = -0.10297 0.10684
# Poissons Ratio (y) = -0.13087 0.24237
# Poissons Ratio (z) = 0.14186 0.25320
#
# Static dielectric constant tensor:
#      x y z
#    x 1.899510 0.000000 -0.001370 
#    y 0.000000 2.042550 0.000000 
#    z -0.001370 0.000000 2.023840 
# 
# From -- ./inp_files/806.got.cif
#   From: 2010.05.17/outbox.cif.g08.bks.cpg/sg11_1_cif.got.tgz:806.got - 2010.06.03 12:22:45.
