data_PCOD9163294
_publ_section_title
;
Structure prediction by ZEFSAII (Michael W. Deem and Ramdas Pophale) SiO2 
 PCOD9163294
Probable space group: P 21/M
;
_chemical_formula_sum "Si O2"
_cell_formula_units_Z 32
_cell_length_a 32.521141
_cell_length_b 8.518932
_cell_length_c 12.871328
_cell_angle_alpha 90.000000
_cell_angle_beta 151.986409
_cell_angle_gamma 90.000000
_cell_volume 1674.855207
_symmetry_space_group_name_H-M "P 21/M"
_symmetry_group_IT_number 11
_symmetry_cell_setting 'monoclinic'
loop_
_space_group_symop_operation_xyz
x,y,z
-x,1/2+y,-z
-x,-y,-z
x,1/2-y,z
loop_
_atom_site_type_symbol
_atom_site_label
_atom_site_fract_x
_atom_site_fract_y
_atom_site_fract_z
Si Si1 0.183525 0.562613 0.642045
Si Si2 0.302790 0.439727 0.722728
Si Si3 0.980183 0.561240 0.178638
Si Si4 0.080782 0.933393 0.743065
Si Si5 0.754171 0.568105 0.995904
Si Si6 0.673779 0.437842 0.618993
Si Si7 0.793764 0.937915 0.701894
Si Si8 0.502958 0.939662 0.889012
O O1 0.184829 0.750000 0.647323
O O2 0.246113 0.500951 0.691480
O O3 0.219759 0.504369 0.834516
O O4 0.081924 0.516538 0.390542
O O5 0.299776 0.250000 0.716715
O O6 0.260539 0.493422 0.519238
O O7 0.404227 0.488727 0.952661
O O8 0.979907 0.750000 0.200070
O O9 0.946294 0.462328 0.200181
O O10 0.898196 0.533573 0.918140
O O11 0.098745 0.750000 0.761790
O O12 0.160494 0.039066 0.884162
O O13 0.000000 0.000000 0.500000
O O14 0.735443 0.750000 0.969790
O O15 0.682963 0.494570 0.758622
O O16 0.677000 0.250000 0.627630
O O17 0.750294 0.492453 0.709617
O O18 0.582313 0.492637 0.364499
O O19 0.783585 0.750000 0.688274
O O20 0.501264 0.750000 0.887606
O O21 0.500000 0.000000 0.000000
#
# Coordination Sequence:
#
# PCOD9163294 Si02
#       8
#     4   4   4   4   4   4   4   4
#     4  11  24  41  60  84 120 164 210 254 297 357
#     4  10  22  41  62  87 121 161 204 247 300 367
#     4  10  21  36  56  85 121 161 203 249 300 351
#     4  12  22  33  54  85 118 156 202 251 298 350
#     4  12  24  39  60  86 121 162 204 251 307 364
#     4  11  22  36  59  95 128 152 194 254 309 362
#     4  10  20  36  60  88 122 160 199 244 300 362
#     4  10  21  38  64  95 124 155 195 249 306 364
#
# _framework density 19.106131000000001
#
# number of rings (size 3 to 8) (size 9 to 14) (size 15 to 20)
#    0.000    1.250    3.750    3.000    0.000    2.500 
#    0.000    0.625    0.000    0.000    0.000    0.000 
#    0.000    0.000    0.000    0.000    0.000    0.000 
#
# Total GULP energy -178487.689554 kJ/mol
# GULP energy per Si atom -5577.740299 kJ/mol
# Density = 1.906264 g / cm^3
# Si number density = 19.106131 Si / 1000 Ang^3
#
#
#
# Elastic Constant Matrix: (Units=GPa)
#
#
# Indices 1 2 3 4 5 6 
#
# 1 97.1234 14.6908 53.9709 0.0000 13.5621 0.0000
# 2 14.6908 21.2246 23.7444 0.0000 4.3797 0.0000
# 3 53.9709 23.7444 164.8136 0.0000 7.7754 0.0000
# 4 0.0000 0.0000 0.0000 21.3293 0.0000 -4.5062
# 5 13.5621 4.3797 7.7754 0.0000 21.0069 0.0000
# 6 0.0000 0.0000 0.0000 -4.5062 0.0000 28.8415
#
#
#
# Elastic Compliance Matrix: (Units=1/GPa)
#
#
# Indices 1 2 3 4 5 6 
#
# 1 0.013885 -0.004157 -0.003629 0.000000 -0.006754 0.000000
# 2 -0.004157 0.059084 -0.006816 0.000000 -0.007112 0.000000
# 3 -0.003629 -0.006816 0.008204 0.000000 0.000728 0.000000
# 4 0.000000 0.000000 0.000000 0.048484 0.000000 0.007575
# 5 -0.006754 -0.007112 0.000728 0.000000 0.053178 0.000000
# 6 0.000000 0.000000 0.000000 0.007575 0.000000 0.035856
#
#
# Mechanical properties :
#
#
# Convention : Reuss Voigt Hill
#
# Bulk Modulus (GPa) = 19.24188 51.99707 35.61947
# Shear Modulus (GPa) = 18.85251 26.95256 22.90254
#
# Velocity S-wave (km/s) = 3.14463 3.75997 3.46598
# Velocity P-wave (km/s) = 4.82471 6.79145 5.89074
#
# Compressibility (1/GPa) = 0.05196999
#
# Stress axis : x y z
#
# Youngs Moduli (GPa) = 72.02105 16.92492 121.89892
#
# Poissons Ratio (x) = 0.07035 0.44241
# Poissons Ratio (y) = 0.29936 0.83081
# Poissons Ratio (z) = 0.26139 0.11535
#
# Static dielectric constant tensor:
#      x y z
#    x 1.635520 0.000000 -0.007300 
#    y 0.000000 1.645040 0.000000 
#    z -0.007300 0.000000 1.725600 
# 
# From -- ./inp_files/45258.got.cif
#   From: 2010.05.17/outbox.cif.g08.bks.cpg/sg11_23_cif.got.tgz:45258.got - 2010.06.03 12:22:45.
