data_PCOD9163241
_publ_section_title
;
Structure prediction by ZEFSAII (Michael W. Deem and Ramdas Pophale) SiO2 
 PCOD9163241
Probable space group: P 21/M
;
_chemical_formula_sum "Si O2"
_cell_formula_units_Z 32
_cell_length_a 5.659477
_cell_length_b 29.950585
_cell_length_c 9.014113
_cell_angle_alpha 90.000000
_cell_angle_beta 95.007210
_cell_angle_gamma 90.000000
_cell_volume 1522.103022
_symmetry_space_group_name_H-M "P 21/M"
_symmetry_group_IT_number 11
_symmetry_cell_setting 'monoclinic'
loop_
_space_group_symop_operation_xyz
x,y,z
-x,1/2+y,-z
-x,-y,-z
x,1/2-y,z
loop_
_atom_site_type_symbol
_atom_site_label
_atom_site_fract_x
_atom_site_fract_y
_atom_site_fract_z
Si Si1 0.068047 0.119751 0.529511
Si Si2 0.396060 0.443894 0.747660
Si Si3 0.739079 0.586802 0.750222
Si Si4 0.261979 0.697780 0.089438
Si Si5 0.594285 0.390807 0.030701
Si Si6 0.325153 0.941021 0.506229
Si Si7 0.788654 0.801194 0.267341
Si Si8 0.132965 0.971010 0.788195
O O1 0.216556 0.083922 0.634753
O O2 0.096527 0.114299 0.354240
O O3 0.159191 0.166282 0.593855
O O4 0.799813 0.105161 0.548453
O O5 0.580804 0.463803 0.637078
O O6 0.252373 0.481961 0.826634
O O7 0.524252 0.410998 0.868022
O O8 0.640391 0.614393 0.881839
O O9 0.533807 0.571968 0.627854
O O10 0.865514 0.541599 0.812288
O O11 0.259724 0.750000 0.037565
O O12 0.271644 0.656039 0.976986
O O13 0.521613 0.692305 0.186112
O O14 0.016898 0.691841 0.169878
O O15 0.732990 0.430643 0.121507
O O16 0.152737 0.967261 0.608677
O O17 0.799457 0.750000 0.314584
#
# Coordination Sequence:
#
# PCOD9163241 Si02
#       8
#     4   4   4   4   4   4   4   4
#     4  10  20  36  60  85 115 156 200 253 310 368
#     4  11  21  34  57  87 112 157 211 256 305 364
#     4   9  22  38  53  81 120 160 199 244 302 365
#     4  10  22  40  66  96 124 156 200 255 312 368
#     4  11  22  37  58  85 123 161 200 253 308 368
#     4   9  20  37  57  78 112 155 206 256 305 357
#     4  10  21  39  65  97 124 151 198 260 314 366
#     4  10  22  37  54  80 122 163 204 254 307 364
#
# _framework density 21.023544999999999
#
# number of rings (size 3 to 8) (size 9 to 14) (size 15 to 20)
#    0.000    2.000    1.250    1.500    3.500    8.000 
#    0.000    0.625    0.000    6.750    0.000    0.000 
#    0.000    0.000    0.000    0.000    0.000    0.000 
#
# Total GULP energy -178340.324097 kJ/mol
# GULP energy per Si atom -5573.135128 kJ/mol
# Density = 2.097569 g / cm^3
# Si number density = 21.023545 Si / 1000 Ang^3
#
#
#
# Elastic Constant Matrix: (Units=GPa)
#
#
# Indices 1 2 3 4 5 6 
#
# 1 65.3707 -2.7915 13.8740 0.0000 3.9257 0.0000
# 2 -2.7915 82.8513 20.4635 0.0000 -0.1773 0.0000
# 3 13.8740 20.4635 78.7276 0.0000 -7.0121 0.0000
# 4 0.0000 0.0000 0.0000 22.7145 0.0000 -0.3497
# 5 3.9257 -0.1773 -7.0121 0.0000 23.2527 0.0000
# 6 0.0000 0.0000 0.0000 -0.3497 0.0000 24.8294
#
#
#
# Elastic Compliance Matrix: (Units=1/GPa)
#
#
# Indices 1 2 3 4 5 6 
#
# 1 0.016352 0.001431 -0.003595 0.000000 -0.003834 0.000000
# 2 0.001431 0.013043 -0.003756 0.000000 -0.001275 0.000000
# 3 -0.003595 -0.003756 0.014760 0.000000 0.005029 0.000000
# 4 0.000000 0.000000 0.000000 0.044034 0.000000 0.000620
# 5 -0.003834 -0.001275 0.005029 0.000000 0.045160 0.000000
# 6 0.000000 0.000000 0.000000 0.000620 0.000000 0.040284
#
#
# Mechanical properties :
#
#
# Convention : Reuss Voigt Hill
#
# Bulk Modulus (GPa) = 30.94633 32.22685 31.58659
# Shear Modulus (GPa) = 25.47852 27.18624 26.33238
#
# Velocity S-wave (km/s) = 3.48502 3.59992 3.54293
# Velocity P-wave (km/s) = 5.56288 5.71327 5.63857
#
# Compressibility (1/GPa) = 0.03231401
#
# Stress axis : x y z
#
# Youngs Moduli (GPa) = 61.15588 76.66975 67.75183
#
# Poissons Ratio (x) = -0.10969 0.24356
# Poissons Ratio (y) = -0.08749 0.25447
# Poissons Ratio (z) = 0.21985 0.28796
#
# Static dielectric constant tensor:
#      x y z
#    x 1.956030 0.000000 -0.061630 
#    y 0.000000 1.773250 0.000000 
#    z -0.061630 0.000000 1.755840 
# 
# From -- ./inp_files/3403.got.cif
#   From: 2010.05.17/outbox.cif.g08.bks.cpg/sg11_2_cif.got.tgz:3403.got - 2010.06.03 12:22:45.
