data_PCOD9163023
_publ_section_title
;
Structure prediction by ZEFSAII (Michael W. Deem and Ramdas Pophale) SiO2 
 PCOD9163023
Probable space group: P 21/M
;
_chemical_formula_sum "Si O2"
_cell_formula_units_Z 28
_cell_length_a 9.765719
_cell_length_b 8.062367
_cell_length_c 26.140978
_cell_angle_alpha 90.000000
_cell_angle_beta 40.681202
_cell_angle_gamma 90.000000
_cell_volume 1341.640146
_symmetry_space_group_name_H-M "P 21/M"
_symmetry_group_IT_number 11
_symmetry_cell_setting 'monoclinic'
loop_
_space_group_symop_operation_xyz
x,y,z
-x,1/2+y,-z
-x,-y,-z
x,1/2-y,z
loop_
_atom_site_type_symbol
_atom_site_label
_atom_site_fract_x
_atom_site_fract_y
_atom_site_fract_z
Si Si1 0.368355 0.548696 0.262140
Si Si2 0.226146 0.550281 0.415824
Si Si3 0.870171 0.051811 0.987372
Si Si4 0.790819 0.441267 0.184940
Si Si5 0.658081 0.557702 0.330928
Si Si6 0.432086 0.448021 0.075909
Si Si7 0.085576 0.948194 0.248082
O O1 0.384125 0.750000 0.255534
O O2 0.265235 0.500586 0.345836
O O3 0.603139 0.476703 0.197896
O O4 0.224782 0.489219 0.256027
O O5 0.239258 0.750000 0.412894
O O6 0.423475 0.484765 0.393543
O O7 0.000000 0.500000 0.500000
O O8 0.872196 0.250000 0.982925
O O9 0.991186 0.980721 0.903987
O O10 0.628451 0.996381 0.055663
O O11 0.000000 0.000000 0.000000
O O12 0.784466 0.250000 0.202470
O O13 0.740486 0.549547 0.248952
O O14 0.636302 0.750000 0.352432
O O15 0.849093 0.483069 0.309605
O O16 0.414001 0.250000 0.082629
O O17 0.218496 0.519879 0.159074
O O18 0.500000 0.500000 0.000000
O O19 0.067566 0.750000 0.259471
#
# Coordination Sequence:
#
# PCOD9163023 Si02
#       7
#     4   4   4   4   4   4   4
#     4   9  19  36  57  80 107 142 178 217 266 319
#     4   9  18  34  56  81 110 140 173 212 256 310
#     4  11  23  37  52  73 102 137 178 225 272 317
#     4  11  21  33  52  77 103 136 178 221 264 315
#     4   9  19  36  56  78 104 137 174 213 258 312
#     4  11  24  38  53  76 107 142 181 224 271 318
#     4  10  20  36  58  79 103 138 180 222 267 317
#
# _framework density 20.869980000000002
#
# number of rings (size 3 to 8) (size 9 to 14) (size 15 to 20)
#    0.000    2.000    0.000    4.714    0.000   11.429 
#    0.000    0.714    0.000    0.000    0.000    0.000 
#    0.000    0.000    0.000    0.000    0.000    0.000 
#
# Total GULP energy -156372.705224 kJ/mol
# GULP energy per Si atom -5584.739472 kJ/mol
# Density = 2.082248 g / cm^3
# Si number density = 20.869980 Si / 1000 Ang^3
#
#
#
# Elastic Constant Matrix: (Units=GPa)
#
#
# Indices 1 2 3 4 5 6 
#
# 1 103.3050 1.7244 19.7714 0.0000 -29.1802 0.0000
# 2 1.7244 24.9371 0.2311 0.0000 -4.5746 0.0000
# 3 19.7714 0.2311 90.2082 0.0000 -32.1403 0.0000
# 4 0.0000 0.0000 0.0000 25.8042 0.0000 -4.2476
# 5 -29.1802 -4.5746 -32.1403 0.0000 34.7522 0.0000
# 6 0.0000 0.0000 0.0000 -4.2476 0.0000 15.5749
#
#
#
# Elastic Compliance Matrix: (Units=1/GPa)
#
#
# Indices 1 2 3 4 5 6 
#
# 1 0.012876 0.001388 0.001628 0.000000 0.012500 0.000000
# 2 0.001388 0.041694 0.002923 0.000000 0.009357 0.000000
# 3 0.001628 0.002923 0.016921 0.000000 0.017401 0.000000
# 4 0.000000 0.000000 0.000000 0.040575 0.000000 0.011066
# 5 0.012500 0.009357 0.017401 0.000000 0.056596 0.000000
# 6 0.000000 0.000000 0.000000 0.011066 0.000000 0.067224
#
#
# Mechanical properties :
#
#
# Convention : Reuss Voigt Hill
#
# Bulk Modulus (GPa) = 11.99501 29.10045 20.54773
# Shear Modulus (GPa) = 19.85715 28.34115 24.09915
#
# Velocity S-wave (km/s) = 3.08794 3.68908 3.40182
# Velocity P-wave (km/s) = 4.29811 5.66743 5.02959
#
# Compressibility (1/GPa) = 0.08336800
#
# Stress axis : x y z
#
# Youngs Moduli (GPa) = 77.66296 23.98405 59.09828
#
# Poissons Ratio (x) = -0.03328 -0.09621
# Poissons Ratio (y) = -0.10776 -0.17273
# Poissons Ratio (z) = -0.12643 -0.07010
#
# Static dielectric constant tensor:
#      x y z
#    x 1.808280 0.000000 -0.029150 
#    y 0.000000 1.737790 0.000000 
#    z -0.029150 0.000000 1.714330 
# 
# From -- ./inp_files/28154.got.cif
#   From: 2010.05.17/outbox.cif.g08.bks.cpg/sg11_15_cif.got.tgz:28154.got - 2010.06.03 12:22:45.
