data_PCOD9163726
_publ_section_title
;
Structure prediction by ZEFSAII (Michael W. Deem and Ramdas Pophale) SiO2 
 PCOD9163726
Probable space group: P 21/M
;
_chemical_formula_sum "Si O2"
_cell_formula_units_Z 28
_cell_length_a 10.182532
_cell_length_b 15.289995
_cell_length_c 8.582877
_cell_angle_alpha 90.000000
_cell_angle_beta 62.902004
_cell_angle_gamma 90.000000
_cell_volume 1189.590878
_symmetry_space_group_name_H-M "P 21/M"
_symmetry_group_IT_number 11
_symmetry_cell_setting 'monoclinic'
loop_
_space_group_symop_operation_xyz
x,y,z
-x,1/2+y,-z
-x,-y,-z
x,1/2-y,z
loop_
_atom_site_type_symbol
_atom_site_label
_atom_site_fract_x
_atom_site_fract_y
_atom_site_fract_z
Si Si1 0.959519 0.353025 0.666525
Si Si2 0.138426 0.154328 0.995884
Si Si3 0.386816 0.376876 0.109329
Si Si4 0.294012 0.492396 0.724145
Si Si5 0.308051 0.152457 0.501940
Si Si6 0.855037 0.351728 0.370402
Si Si7 0.683746 0.435090 0.953709
O O1 0.940584 0.250000 0.703806
O O2 0.904578 0.370638 0.520194
O O3 0.849819 0.403157 0.841777
O O4 0.133423 0.370946 0.582664
O O5 0.121766 0.250000 0.927505
O O6 0.278313 0.158229 0.036238
O O7 0.997639 0.142730 0.181470
O O8 0.167582 0.072007 0.868732
O O9 0.360933 0.344586 0.296339
O O10 0.344515 0.479564 0.134011
O O11 0.558188 0.366574 0.973487
O O12 0.379732 0.421050 0.573183
O O13 0.247485 0.571696 0.638504
O O14 0.353649 0.536530 0.849332
O O15 0.328306 0.250000 0.556054
O O16 0.801458 0.250000 0.391230
#
# Coordination Sequence:
#
# PCOD9163726 Si02
#       7
#     4   4   4   4   4   4   4
#     4  10  22  39  60  90 122 157 212 264 302 367
#     4  10  20  37  61  91 122 161 210 256 302 364
#     4  10  21  41  65  86 121 165 214 256 306 371
#     4  11  24  37  59  92 134 161 197 255 326 367
#     4  11  23  39  64  94 123 165 215 259 306 375
#     4  10  21  38  60  90 124 161 207 256 310 368
#     4  10  24  40  60  93 123 165 207 255 319 379
#
# _framework density 23.537504999999999
#
# number of rings (size 3 to 8) (size 9 to 14) (size 15 to 20)
#    0.000    1.714    1.429    2.143    6.000    3.429 
#    0.000    1.429    0.000    5.143    0.000    0.000 
#    0.000    0.000    0.000    0.000    0.000    0.000 
#
# Total GULP energy -156457.028672 kJ/mol
# GULP energy per Si atom -5587.751024 kJ/mol
# Density = 2.348393 g / cm^3
# Si number density = 23.537505 Si / 1000 Ang^3
#
#
#
# Elastic Constant Matrix: (Units=GPa)
#
#
# Indices 1 2 3 4 5 6 
#
# 1 41.5955 42.3448 7.9711 0.0000 -4.3142 0.0000
# 2 42.3448 101.7237 32.7031 0.0000 13.1463 0.0000
# 3 7.9711 32.7031 73.2874 0.0000 21.7959 0.0000
# 4 0.0000 0.0000 0.0000 91.7317 0.0000 17.6132
# 5 -4.3142 13.1463 21.7959 0.0000 41.6014 0.0000
# 6 0.0000 0.0000 0.0000 17.6132 0.0000 16.1555
#
#
#
# Elastic Compliance Matrix: (Units=1/GPa)
#
#
# Indices 1 2 3 4 5 6 
#
# 1 0.046434 -0.021099 0.001125 0.000000 0.010893 0.000000
# 2 -0.021099 0.021108 -0.005318 0.000000 -0.006072 0.000000
# 3 0.001125 -0.005318 0.018197 0.000000 -0.007736 0.000000
# 4 0.000000 0.000000 0.000000 0.013788 0.000000 -0.015032
# 5 0.010893 -0.006072 -0.007736 0.000000 0.031139 0.000000
# 6 0.000000 0.000000 0.000000 -0.015032 0.000000 0.078286
#
#
# Mechanical properties :
#
#
# Convention : Reuss Voigt Hill
#
# Bulk Modulus (GPa) = 28.44632 42.51608 35.48120
# Shear Modulus (GPa) = 18.43285 38.80355 28.61820
#
# Velocity S-wave (km/s) = 2.80148 4.06468 3.49069
# Velocity P-wave (km/s) = 4.75143 6.33492 5.59943
#
# Compressibility (1/GPa) = 0.03515393
#
# Stress axis : x y z
#
# Youngs Moduli (GPa) = 21.53582 47.37563 54.95522
#
# Poissons Ratio (x) = 0.99957 -0.06181
# Poissons Ratio (y) = 0.45438 0.29227
# Poissons Ratio (z) = -0.02422 0.25196
#
# Static dielectric constant tensor:
#      x y z
#    x 1.885630 0.000000 0.005410 
#    y 0.000000 1.919220 0.000000 
#    z 0.005410 0.000000 1.886570 
# 
# From -- ./inp_files/17910.got.cif
#   From: 2010.05.17/outbox.cif.g08.bks.cpg/sg11_9_cif.got.tgz:17910.got - 2010.06.03 12:22:45.
