data_PCOD9163010
_publ_section_title
;
Structure prediction by ZEFSAII (Michael W. Deem and Ramdas Pophale) SiO2 
 PCOD9163010
Probable space group: P 21/M
;
_chemical_formula_sum "Si O2"
_cell_formula_units_Z 26
_cell_length_a 12.771945
_cell_length_b 14.473242
_cell_length_c 7.211901
_cell_angle_alpha 90.000000
_cell_angle_beta 69.839986
_cell_angle_gamma 90.000000
_cell_volume 1251.454496
_symmetry_space_group_name_H-M "P 21/M"
_symmetry_group_IT_number 11
_symmetry_cell_setting 'monoclinic'
loop_
_space_group_symop_operation_xyz
x,y,z
-x,1/2+y,-z
-x,-y,-z
x,1/2-y,z
loop_
_atom_site_type_symbol
_atom_site_label
_atom_site_fract_x
_atom_site_fract_y
_atom_site_fract_z
Si Si1 0.530788 0.858361 0.079362
Si Si2 0.022135 0.750000 0.528905
Si Si3 0.692327 0.919635 0.304357
Si Si4 0.053356 0.750000 0.957004
Si Si5 0.112599 0.943902 0.456621
Si Si6 0.350413 0.009134 0.273772
Si Si7 0.839495 0.750000 0.351381
Si Si8 0.119676 0.548933 0.890690
O O1 0.511612 0.750000 0.063444
O O2 0.603289 0.875344 0.220846
O O3 0.419229 0.918588 0.172665
O O4 0.598398 0.904647 0.868241
O O5 0.898621 0.750000 0.516074
O O6 0.024046 0.750000 0.752847
O O7 0.085885 0.839904 0.417111
O O8 0.639560 0.974038 0.510786
O O9 0.767067 0.840516 0.355802
O O10 0.775288 0.983848 0.130840
O O11 0.116014 0.654040 0.963188
O O12 0.939849 0.750000 0.142149
O O13 0.132421 0.941784 0.662934
O O14 0.220685 0.991642 0.306974
O O15 0.000000 0.000000 0.500000
O O16 0.000000 0.500000 0.000000
#
# Coordination Sequence:
#
# PCOD9163010 Si02
#       8
#     4   2   4   2   4   4   2   4
#     4  11  25  45  72  94 124 173 218 271 321 380
#     4  10  22  36  57  88 128 170 211 251 320 386
#     4  11  23  41  64  95 126 169 215 271 324 378
#     4  10  22  36  54  86 128 180 210 253 323 389
#     4  10  22  39  61  93 125 169 200 258 325 379
#     4  10  25  45  67  96 133 164 220 270 322 383
#     4  12  22  34  61  96 126 168 213 258 315 387
#     4  10  20  36  57  85 131 163 210 259 313 387
#
# _framework density 20.775824
#
# number of rings (size 3 to 8) (size 9 to 14) (size 15 to 20)
#    0.000    1.538    2.308    2.308    4.308    1.231 
#    2.769    0.000    6.769    0.000    0.000    0.000 
#    0.000    0.000    0.000    0.000    0.000    0.000 
#
# Total GULP energy -145261.610795 kJ/mol
# GULP energy per Si atom -5586.985031 kJ/mol
# Density = 2.072854 g / cm^3
# Si number density = 20.775824 Si / 1000 Ang^3
#
#
#
# Elastic Constant Matrix: (Units=GPa)
#
#
# Indices 1 2 3 4 5 6 
#
# 1 61.8316 22.8646 24.2801 0.0000 -10.2240 0.0000
# 2 22.8646 166.8606 45.5688 0.0000 -21.5219 0.0000
# 3 24.2801 45.5688 109.3321 0.0000 -13.5123 0.0000
# 4 0.0000 0.0000 0.0000 16.8368 0.0000 -0.2649
# 5 -10.2240 -21.5219 -13.5123 0.0000 35.4629 0.0000
# 6 0.0000 0.0000 0.0000 -0.2649 0.0000 22.3329
#
#
#
# Elastic Compliance Matrix: (Units=1/GPa)
#
#
# Indices 1 2 3 4 5 6 
#
# 1 0.018425 -0.001227 -0.003165 0.000000 0.003362 0.000000
# 2 -0.001227 0.007204 -0.002344 0.000000 0.003125 0.000000
# 3 -0.003165 -0.002344 0.011058 0.000000 0.001879 0.000000
# 4 0.000000 0.000000 0.000000 0.059405 0.000000 0.000704
# 5 0.003362 0.003125 0.001879 0.000000 0.031780 0.000000
# 6 0.000000 0.000000 0.000000 0.000704 0.000000 0.044785
#
#
# Mechanical properties :
#
#
# Convention : Reuss Voigt Hill
#
# Bulk Modulus (GPa) = 43.07308 58.16128 50.61718
# Shear Modulus (GPa) = 25.79061 31.28058 28.53559
#
# Velocity S-wave (km/s) = 3.52714 3.88445 3.71010
# Velocity P-wave (km/s) = 6.11269 6.94075 6.53984
#
# Compressibility (1/GPa) = 0.02321636
#
# Stress axis : x y z
#
# Youngs Moduli (GPa) = 54.27311 138.80407 90.42851
#
# Poissons Ratio (x) = 0.17029 0.28621
# Poissons Ratio (y) = 0.06659 0.21197
# Poissons Ratio (z) = 0.17178 0.32536
#
# Static dielectric constant tensor:
#      x y z
#    x 1.749510 0.000000 0.013370 
#    y 0.000000 1.759570 0.000000 
#    z 0.013370 0.000000 1.749750 
# 
# From -- ./inp_files/17651.got.cif
#   From: 2010.05.17/outbox.cif.g08.bks.cpg/sg11_9_cif.got.tgz:17651.got - 2010.06.03 12:22:45.
