data_PCOD9163263
_publ_section_title
;
Structure prediction by ZEFSAII (Michael W. Deem and Ramdas Pophale) SiO2 
 PCOD9163263
Probable space group: P 21/M
;
_chemical_formula_sum "Si O2"
_cell_formula_units_Z 24
_cell_length_a 15.238545
_cell_length_b 8.481481
_cell_length_c 15.574390
_cell_angle_alpha 90.000000
_cell_angle_beta 140.185874
_cell_angle_gamma 90.000000
_cell_volume 1288.870045
_symmetry_space_group_name_H-M "P 21/M"
_symmetry_group_IT_number 11
_symmetry_cell_setting 'monoclinic'
loop_
_space_group_symop_operation_xyz
x,y,z
-x,1/2+y,-z
-x,-y,-z
x,1/2-y,z
loop_
_atom_site_type_symbol
_atom_site_label
_atom_site_fract_x
_atom_site_fract_y
_atom_site_fract_z
Si Si1 0.345073 0.559468 0.106446
Si Si2 0.845949 0.938630 0.886470
Si Si3 0.348569 0.442032 0.607950
Si Si4 0.650372 0.439412 0.086857
Si Si5 0.154617 0.060732 0.617170
Si Si6 0.350318 0.059182 0.414601
O O1 0.341667 0.750000 0.107625
O O2 0.234805 0.494513 0.089926
O O3 0.498087 0.508775 0.249695
O O4 0.320828 0.511831 0.989740
O O5 0.847787 0.750000 0.886287
O O6 0.760021 0.994366 0.738567
O O7 0.000000 0.000000 0.000000
O O8 0.347900 0.250000 0.608303
O O9 0.238889 0.494304 0.596222
O O10 0.319441 0.492947 0.488712
O O11 0.649334 0.250000 0.089078
O O12 0.761876 0.503072 0.237115
O O13 0.500000 0.500000 0.000000
O O14 0.153970 0.250000 0.616328
O O15 0.000000 0.000000 0.500000
O O16 0.352558 0.250000 0.415946
O O17 0.500000 0.000000 0.500000
#
# Coordination Sequence:
#
# PCOD9163263 Si02
#       6
#     4   4   4   4   4   4
#     4  10  20  38  63  87 115 158 200 242 300 360
#     4  11  24  39  58  89 123 158 196 246 300 354
#     4   9  18  36  61  85 115 154 195 239 295 359
#     4  11  22  38  62  91 120 158 203 251 305 364
#     4  11  23  41  61  89 124 161 202 249 305 362
#     4  10  20  36  60  87 113 148 194 240 290 348
#
# _framework density 18.620963
#
# number of rings (size 3 to 8) (size 9 to 14) (size 15 to 20)
#    0.000    1.667    3.333    1.500    0.000    3.333 
#    0.000    5.000    0.000    0.000    0.000    0.000 
#    0.000    0.000    0.000    0.000    0.000    0.000 
#
# Total GULP energy -134078.592828 kJ/mol
# GULP energy per Si atom -5586.608034 kJ/mol
# Density = 1.857858 g / cm^3
# Si number density = 18.620963 Si / 1000 Ang^3
#
#
#
# Elastic Constant Matrix: (Units=GPa)
#
#
# Indices 1 2 3 4 5 6 
#
# 1 210.7988 36.2746 134.6633 0.0000 -8.5652 0.0000
# 2 36.2746 29.5964 37.3000 0.0000 -3.2571 0.0000
# 3 134.6633 37.3000 202.4545 0.0000 -5.7686 0.0000
# 4 0.0000 0.0000 0.0000 30.1505 0.0000 3.6167
# 5 -8.5652 -3.2571 -5.7686 0.0000 43.2434 0.0000
# 6 0.0000 0.0000 0.0000 3.6167 0.0000 32.8541
#
#
#
# Elastic Compliance Matrix: (Units=1/GPa)
#
#
# Indices 1 2 3 4 5 6 
#
# 1 0.008685 -0.004311 -0.004962 0.000000 0.000734 0.000000
# 2 -0.004311 0.046363 -0.005621 0.000000 0.001888 0.000000
# 3 -0.004962 -0.005621 0.009271 0.000000 -0.000169 0.000000
# 4 0.000000 0.000000 0.000000 0.033611 0.000000 -0.003700
# 5 0.000734 0.001888 -0.000169 0.000000 0.023390 0.000000
# 6 0.000000 0.000000 0.000000 -0.003700 0.000000 0.030845
#
#
# Mechanical properties :
#
#
# Convention : Reuss Voigt Hill
#
# Bulk Modulus (GPa) = 28.95877 95.48061 62.21969
# Shear Modulus (GPa) = 25.84491 36.89041 31.36766
#
# Velocity S-wave (km/s) = 3.72956 4.45581 4.10876
# Velocity P-wave (km/s) = 5.84223 8.82380 7.48302
#
# Compressibility (1/GPa) = 0.03453186
#
# Stress axis : x y z
#
# Youngs Moduli (GPa) = 115.13749 21.56896 107.86878
#
# Poissons Ratio (x) = 0.09298 0.53523
# Poissons Ratio (y) = 0.49634 0.60629
# Poissons Ratio (z) = 0.57130 0.12123
#
# Static dielectric constant tensor:
#      x y z
#    x 1.616840 0.000000 -0.025280 
#    y 0.000000 1.645450 0.000000 
#    z -0.025280 0.000000 1.623820 
# 
# From -- ./inp_files/20394.got.cif
#   From: 2010.05.17/outbox.cif.g08.bks.cpg/sg11_11_cif.got.tgz:20394.got - 2010.06.03 12:22:45.
