data_PCOD9163399
_publ_section_title
;
Structure prediction by ZEFSAII (Michael W. Deem and Ramdas Pophale) SiO2 
 PCOD9163399
Probable space group: P 21/M
;
_chemical_formula_sum "Si O2"
_cell_formula_units_Z 32
_cell_length_a 12.101001
_cell_length_b 18.156405
_cell_length_c 14.116454
_cell_angle_alpha 90.000000
_cell_angle_beta 148.379950
_cell_angle_gamma 90.000000
_cell_volume 1626.085281
_symmetry_space_group_name_H-M "P 21/M"
_symmetry_group_IT_number 11
_symmetry_cell_setting 'monoclinic'
loop_
_space_group_symop_operation_xyz
x,y,z
-x,1/2+y,-z
-x,-y,-z
x,1/2-y,z
loop_
_atom_site_type_symbol
_atom_site_label
_atom_site_fract_x
_atom_site_fract_y
_atom_site_fract_z
Si Si1 0.796439 0.027768 0.042172
Si Si2 0.634515 0.162234 0.428000
Si Si3 0.012283 0.942888 0.371641
Si Si4 0.416777 0.334753 0.619416
Si Si5 0.193500 0.402245 0.089996
Si Si6 0.067007 0.163182 0.198760
Si Si7 0.754447 0.338326 0.722443
Si Si8 0.318371 0.447460 0.709684
O O1 0.873816 0.112094 0.091098
O O2 0.940739 0.984351 0.223581
O O3 0.554641 0.023988 0.898901
O O4 0.814341 0.985527 0.954262
O O5 0.625738 0.250000 0.415765
O O6 0.422585 0.128852 0.229143
O O7 0.640213 0.138927 0.542705
O O8 0.851620 0.130124 0.546780
O O9 0.808199 0.929589 0.287497
O O10 0.174160 0.994773 0.547278
O O11 0.453719 0.250000 0.671854
O O12 0.237771 0.337012 0.407548
O O13 0.625687 0.365456 0.719733
O O14 0.347558 0.379591 0.659637
O O15 0.159153 0.379320 0.174336
O O16 0.994688 0.362795 0.896396
O O17 0.021746 0.250000 0.143234
O O18 0.744978 0.250000 0.718853
#
# Coordination Sequence:
#
# PCOD9163399 Si02
#       8
#     4   4   4   4   4   4   4   4
#     4  12  24  42  67  98 124 172 220 266 320 391
#     4  11  22  40  64  93 131 171 211 263 325 384
#     4  11  24  45  64  92 125 165 221 270 314 381
#     4  10  21  40  66  94 126 170 216 263 325 385
#     4  12  22  38  63  96 132 168 211 259 320 392
#     4  11  23  40  63  96 136 171 210 267 326 389
#     4  10  20  36  62  92 127 168 205 257 323 384
#     4  11  24  43  68  87 124 171 215 271 324 363
#
# _framework density 19.679165999999999
#
# number of rings (size 3 to 8) (size 9 to 14) (size 15 to 20)
#    0.000    1.000    5.000    2.625    0.000    2.000 
#    0.000    2.500    0.000    0.000    0.000    0.000 
#    0.000    0.000    0.000    0.000    0.000    0.000 
#
# Total GULP energy -178687.485607 kJ/mol
# GULP energy per Si atom -5583.983925 kJ/mol
# Density = 1.963438 g / cm^3
# Si number density = 19.679166 Si / 1000 Ang^3
#
#
#
# Elastic Constant Matrix: (Units=GPa)
#
#
# Indices 1 2 3 4 5 6 
#
# 1 82.6579 38.8501 21.0768 0.0000 16.0193 0.0000
# 2 38.8501 66.2369 28.7762 0.0000 1.5737 0.0000
# 3 21.0768 28.7762 109.3290 0.0000 17.5096 0.0000
# 4 0.0000 0.0000 0.0000 29.7409 0.0000 -1.0561
# 5 16.0193 1.5737 17.5096 0.0000 32.4081 0.0000
# 6 0.0000 0.0000 0.0000 -1.0561 0.0000 63.0292
#
#
#
# Elastic Compliance Matrix: (Units=1/GPa)
#
#
# Indices 1 2 3 4 5 6 
#
# 1 0.018983 -0.011255 0.000786 0.000000 -0.009261 0.000000
# 2 -0.011255 0.023811 -0.005258 0.000000 0.007248 0.000000
# 3 0.000786 -0.005258 0.011386 0.000000 -0.006285 0.000000
# 4 0.000000 0.000000 0.000000 0.033644 0.000000 0.000564
# 5 -0.009261 0.007248 -0.006285 0.000000 0.038478 0.000000
# 6 0.000000 0.000000 0.000000 0.000564 0.000000 0.015875
#
#
# Mechanical properties :
#
#
# Convention : Reuss Voigt Hill
#
# Bulk Modulus (GPa) = 44.00527 48.40335 46.20431
# Shear Modulus (GPa) = 27.59287 36.33703 31.96495
#
# Velocity S-wave (km/s) = 3.74857 4.30172 4.03464
# Velocity P-wave (km/s) = 6.41449 7.02301 6.72564
#
# Compressibility (1/GPa) = 0.02272455
#
# Stress axis : x y z
#
# Youngs Moduli (GPa) = 52.67975 41.99701 87.82948
#
# Poissons Ratio (x) = 0.47270 -0.06906
# Poissons Ratio (y) = 0.59293 0.46183
# Poissons Ratio (z) = -0.04142 0.22083
#
# Static dielectric constant tensor:
#      x y z
#    x 1.700320 0.000000 -0.001550 
#    y 0.000000 1.676550 0.000000 
#    z -0.001550 0.000000 1.703880 
# 
# From -- ./inp_files/39975.got.cif
#   From: 2010.05.17/outbox.cif.g08.bks.cpg/sg11_20_cif.got.tgz:39975.got - 2010.06.03 12:22:45.
