data_PCOD9163148
_publ_section_title
;
Structure prediction by ZEFSAII (Michael W. Deem and Ramdas Pophale) SiO2 
 PCOD9163148
Probable space group: P 21/M
;
_chemical_formula_sum "Si O2"
_cell_formula_units_Z 32
_cell_length_a 14.679405
_cell_length_b 21.827985
_cell_length_c 5.495316
_cell_angle_alpha 90.000000
_cell_angle_beta 109.929241
_cell_angle_gamma 90.000000
_cell_volume 1655.371314
_symmetry_space_group_name_H-M "P 21/M"
_symmetry_group_IT_number 11
_symmetry_cell_setting 'monoclinic'
loop_
_space_group_symop_operation_xyz
x,y,z
-x,1/2+y,-z
-x,-y,-z
x,1/2-y,z
loop_
_atom_site_type_symbol
_atom_site_label
_atom_site_fract_x
_atom_site_fract_y
_atom_site_fract_z
Si Si1 0.729663 0.353518 0.655603
Si Si2 0.586535 0.583714 0.590214
Si Si3 0.941790 0.823856 0.558655
Si Si4 0.452782 0.184632 0.093677
Si Si5 0.354490 0.841356 0.924663
Si Si6 0.951065 0.324848 0.842532
Si Si7 0.612531 0.455356 0.792663
Si Si8 0.282045 0.178710 0.576542
O O1 0.689735 0.323555 0.372944
O O2 0.674960 0.418618 0.646112
O O3 0.701751 0.321099 0.885419
O O4 0.844812 0.354229 0.741678
O O5 0.528709 0.628791 0.714413
O O6 0.629641 0.526984 0.780172
O O7 0.503488 0.555787 0.340135
O O8 0.665732 0.627943 0.541775
O O9 0.946412 0.750000 0.559302
O O10 0.995417 0.842667 0.857035
O O11 0.828188 0.839048 0.471064
O O12 0.991017 0.843449 0.349589
O O13 0.461684 0.250000 0.229132
O O14 0.535165 0.181022 0.963597
O O15 0.347791 0.179732 0.878436
O O16 0.355901 0.915828 0.945575
O O17 0.941701 0.250000 0.832324
O O18 0.283550 0.250000 0.483695
#
# Coordination Sequence:
#
# PCOD9163148 Si02
#       8
#     4   4   4   4   4   4   4   4
#     4  10  20  37  58  84 113 154 192 236 291 338
#     4  11  20  39  58  84 116 163 199 240 286 346
#     4   9  20  36  57  85 114 148 194 245 292 349
#     4  11  22  34  54  86 123 155 189 236 297 357
#     4  10  20  38  53  88 117 155 191 231 286 341
#     4  10  20  36  59  85 113 149 194 244 298 351
#     4   9  22  36  59  85 116 158 204 243 274 348
#     4  10  21  36  57  86 119 153 193 240 300 354
#
# _framework density 19.331009999999999
#
# number of rings (size 3 to 8) (size 9 to 14) (size 15 to 20)
#    0.750    1.250    2.500    1.125    1.750    2.500 
#    0.000    0.000    0.000    1.500    0.000    0.000 
#    0.000    0.000    0.000    0.000    0.000    0.000 
#
# Total GULP energy -178214.711539 kJ/mol
# GULP energy per Si atom -5569.209736 kJ/mol
# Density = 1.928701 g / cm^3
# Si number density = 19.331010 Si / 1000 Ang^3
#
#
#
# Elastic Constant Matrix: (Units=GPa)
#
#
# Indices 1 2 3 4 5 6 
#
# 1 143.0407 13.9110 51.3384 0.0000 1.2296 0.0000
# 2 13.9110 80.2944 1.3157 0.0000 -9.0249 0.0000
# 3 51.3384 1.3157 95.3891 0.0000 -5.6351 0.0000
# 4 0.0000 0.0000 0.0000 7.6861 0.0000 6.9401
# 5 1.2296 -9.0249 -5.6351 0.0000 34.1720 0.0000
# 6 0.0000 0.0000 0.0000 6.9401 0.0000 19.2888
#
#
#
# Elastic Compliance Matrix: (Units=1/GPa)
#
#
# Indices 1 2 3 4 5 6 
#
# 1 0.008910 -0.001639 -0.004864 0.000000 -0.001556 0.000000
# 2 -0.001639 0.013137 0.000918 0.000000 0.003680 0.000000
# 3 -0.004864 0.000918 0.013242 0.000000 0.002601 0.000000
# 4 0.000000 0.000000 0.000000 0.192713 0.000000 -0.069338
# 5 -0.001556 0.003680 0.002601 0.000000 0.030721 0.000000
# 6 0.000000 0.000000 0.000000 -0.069338 0.000000 0.076792
#
#
# Mechanical properties :
#
#
# Convention : Reuss Voigt Hill
#
# Bulk Modulus (GPa) = 41.46166 50.20601 45.83384
# Shear Modulus (GPa) = 14.09551 29.03999 21.56775
#
# Velocity S-wave (km/s) = 2.70324 3.88009 3.34384
# Velocity P-wave (km/s) = 5.58911 6.78982 6.21851
#
# Compressibility (1/GPa) = 0.02411867
#
# Stress axis : x y z
#
# Youngs Moduli (GPa) = 112.23792 76.12298 75.51479
#
# Poissons Ratio (x) = 0.12474 0.36734
# Poissons Ratio (y) = 0.18393 -0.06933
# Poissons Ratio (z) = 0.54598 -0.06989
#
# Static dielectric constant tensor:
#      x y z
#    x 1.672090 0.000000 -0.028080 
#    y 0.000000 1.689730 0.000000 
#    z -0.028080 0.000000 1.720630 
# 
# From -- ./inp_files/5486.got.cif
#   From: 2010.05.17/outbox.cif.g08.bks.cpg/sg11_3_cif.got.tgz:5486.got - 2010.06.03 12:22:45.
