data_PCOD9163906
_publ_section_title
;
Structure prediction by ZEFSAII (Michael W. Deem and Ramdas Pophale) SiO2 
 PCOD9163906
Probable space group: P 21/M
;
_chemical_formula_sum "Si O2"
_cell_formula_units_Z 28
_cell_length_a 9.161256
_cell_length_b 10.539111
_cell_length_c 23.726316
_cell_angle_alpha 90.000000
_cell_angle_beta 148.679946
_cell_angle_gamma 90.000000
_cell_volume 1190.805263
_symmetry_space_group_name_H-M "P 21/M"
_symmetry_group_IT_number 11
_symmetry_cell_setting 'monoclinic'
loop_
_space_group_symop_operation_xyz
x,y,z
-x,1/2+y,-z
-x,-y,-z
x,1/2-y,z
loop_
_atom_site_type_symbol
_atom_site_label
_atom_site_fract_x
_atom_site_fract_y
_atom_site_fract_z
Si Si1 0.320595 0.893952 0.876930
Si Si2 0.184696 0.900716 0.954487
Si Si3 0.523448 0.937837 0.349897
Si Si4 0.783959 0.523642 0.267310
Si Si5 0.649250 0.113103 0.582421
Si Si6 0.865556 0.115274 0.408109
Si Si7 0.221911 0.609234 0.134822
O O1 0.443454 0.750000 0.922844
O O2 0.207047 0.912371 0.776395
O O3 0.531188 0.014664 0.949873
O O4 0.117932 0.905465 0.864714
O O5 0.204074 0.750000 0.975203
O O6 0.974909 0.985082 0.923442
O O7 0.375926 0.912331 0.359579
O O8 0.361807 0.884707 0.243168
O O9 0.841992 0.885690 0.462275
O O10 0.604079 0.082219 0.361663
O O11 0.874816 0.480409 0.359457
O O12 0.474193 0.580875 0.174549
O O13 0.025472 0.615794 0.326171
O O14 0.516125 0.250000 0.526247
O O15 0.500000 0.000000 0.500000
O O16 0.817800 0.250000 0.365555
O O17 0.097277 0.750000 0.082128
#
# Coordination Sequence:
#
# PCOD9163906 Si02
#       7
#     4   4   4   4   4   4   4
#     4  10  22  43  71 101 132 167 210 262 323 386
#     4  10  23  43  69  99 130 167 214 263 320 386
#     4  10  22  38  60  89 122 169 215 261 318 375
#     4  11  24  40  64  96 130 168 214 269 324 382
#     4  12  25  42  62  91 127 169 218 271 323 378
#     4  10  20  38  60  89 126 165 212 262 319 381
#     4  11  23  41  65  93 129 173 218 265 320 383
#
# _framework density 23.513500000000001
#
# number of rings (size 3 to 8) (size 9 to 14) (size 15 to 20)
#    0.000    1.429    1.429    3.429    0.000    6.286 
#    0.000    0.000    0.000    0.000    0.000    0.000 
#    0.000    0.000    0.000    0.000    0.000    0.000 
#
# Total GULP energy -156200.985115 kJ/mol
# GULP energy per Si atom -5578.606611 kJ/mol
# Density = 2.345998 g / cm^3
# Si number density = 23.513500 Si / 1000 Ang^3
#
#
#
# Elastic Constant Matrix: (Units=GPa)
#
#
# Indices 1 2 3 4 5 6 
#
# 1 153.1294 65.5344 16.9911 0.0000 -4.9391 0.0000
# 2 65.5344 160.7922 26.3930 0.0000 0.7103 0.0000
# 3 16.9911 26.3930 53.9043 0.0000 -15.4963 0.0000
# 4 0.0000 0.0000 0.0000 17.4772 0.0000 -7.5663
# 5 -4.9391 0.7103 -15.4963 0.0000 39.8569 0.0000
# 6 0.0000 0.0000 0.0000 -7.5663 0.0000 -10.9189
#
#
#
# Elastic Compliance Matrix: (Units=1/GPa)
#
#
# Indices 1 2 3 4 5 6 
#
# 1 0.007979 -0.003129 -0.000769 0.000000 0.000746 0.000000
# 2 -0.003129 0.008080 -0.003516 0.000000 -0.001899 0.000000
# 3 -0.000769 -0.003516 0.023086 0.000000 0.008943 0.000000
# 4 0.000000 0.000000 0.000000 0.044013 0.000000 -0.030499
# 5 0.000746 -0.001899 0.008943 0.000000 0.028693 0.000000
# 6 0.000000 0.000000 0.000000 -0.030499 0.000000 -0.070450
#
#
# Mechanical properties :
#
#
# Convention : Reuss Voigt Hill
#
# Bulk Modulus (GPa) = 41.12144 65.07365 53.09754
# Shear Modulus (GPa) = 77.71864 26.54354 52.13109
#
# Velocity S-wave (km/s) = 5.75539 3.36350 4.71369
# Velocity P-wave (km/s) = 7.85445 6.54364 7.22882
#
# Compressibility (1/GPa) = 0.02431821
#
# Stress axis : x y z
#
# Youngs Moduli (GPa) = 125.33026 123.76213 43.31632
#
# Poissons Ratio (x) = 0.38727 0.03329
# Poissons Ratio (y) = 0.39217 0.15229
# Poissons Ratio (z) = 0.09632 0.43511
#
# Static dielectric constant tensor:
#      x y z
#    x 1.877250 0.000000 0.022380 
#    y 0.000000 1.959470 0.000000 
#    z 0.022380 0.000000 1.928630 
# 
# From -- ./inp_files/26445.got.cif
#   From: 2010.05.17/outbox.cif.g08.bks.cpg/sg11_14_cif.got.tgz:26445.got - 2010.06.03 12:22:45.
