data_PCOD9164668
_publ_section_title
;
Structure prediction by ZEFSAII (Michael W. Deem and Ramdas Pophale) SiO2 
 PCOD9164668
Probable space group: P 21/M
;
_chemical_formula_sum "Si O2"
_cell_formula_units_Z 32
_cell_length_a 14.208584
_cell_length_b 8.680026
_cell_length_c 23.242972
_cell_angle_alpha 90.000000
_cell_angle_beta 147.346283
_cell_angle_gamma 90.000000
_cell_volume 1546.690919
_symmetry_space_group_name_H-M "P 21/M"
_symmetry_group_IT_number 11
_symmetry_cell_setting 'monoclinic'
loop_
_space_group_symop_operation_xyz
x,y,z
-x,1/2+y,-z
-x,-y,-z
x,1/2-y,z
loop_
_atom_site_type_symbol
_atom_site_label
_atom_site_fract_x
_atom_site_fract_y
_atom_site_fract_z
Si Si1 0.673511 0.065776 0.560820
Si Si2 0.571650 0.065492 0.380166
Si Si3 0.193968 0.934843 0.608292
Si Si4 0.653965 0.069939 0.001869
Si Si5 0.722509 0.563618 0.224551
Si Si6 0.175180 0.429562 0.016762
Si Si7 0.217673 0.931022 0.163186
Si Si8 0.945658 0.564709 0.234576
O O1 0.668744 0.250000 0.566269
O O2 0.668180 0.034769 0.489708
O O3 0.860232 0.007094 0.679888
O O4 0.500000 0.000000 0.500000
O O5 0.544091 0.250000 0.361997
O O6 0.682670 0.016819 0.381490
O O7 0.385470 0.982262 0.284725
O O8 0.187150 0.750000 0.604447
O O9 0.266063 0.992461 0.706508
O O10 0.000000 0.000000 0.500000
O O11 0.656158 0.250000 0.016646
O O12 0.794156 0.987095 0.113885
O O13 0.453889 0.015071 0.899575
O O14 0.716839 0.037875 0.969336
O O15 0.718184 0.750000 0.227903
O O16 0.885005 0.520670 0.267751
O O17 0.215345 0.250000 0.026195
O O18 0.213941 0.470522 0.102714
O O19 0.968022 0.454449 0.901503
O O20 0.227004 0.750000 0.153450
O O21 0.951543 0.750000 0.236208
#
# Coordination Sequence:
#
# PCOD9164668 Si02
#       8
#     4   4   4   4   4   4   4   4
#     4  10  23  42  63  87 117 157 204 252 303 360
#     4  10  22  40  61  86 118 157 197 241 304 366
#     4  11  23  39  63  92 123 160 202 248 304 367
#     4  11  23  37  60  92 123 157 204 255 302 356
#     4  10  22  41  63  90 126 163 202 252 307 363
#     4  10  21  37  56  82 119 160 198 241 300 361
#     4  10  21  36  57  85 116 152 199 250 296 352
#     4  10  22  42  64  85 120 164 204 250 308 371
#
# _framework density 20.689332
#
# number of rings (size 3 to 8) (size 9 to 14) (size 15 to 20)
#    0.000    1.750    0.000    3.375    1.750    9.000 
#    0.000    1.250    0.000    0.000    0.000    0.000 
#    0.000    0.000    0.000    0.000    0.000    0.000 
#
# Total GULP energy -178849.655902 kJ/mol
# GULP energy per Si atom -5589.051747 kJ/mol
# Density = 2.064224 g / cm^3
# Si number density = 20.689332 Si / 1000 Ang^3
#
#
#
# Elastic Constant Matrix: (Units=GPa)
#
#
# Indices 1 2 3 4 5 6 
#
# 1 70.7379 14.0408 32.2895 0.0000 14.6948 0.0000
# 2 14.0408 16.6530 27.2419 0.0000 9.3155 0.0000
# 3 32.2895 27.2419 121.3606 0.0000 23.4598 0.0000
# 4 0.0000 0.0000 0.0000 34.5760 0.0000 -3.5188
# 5 14.6948 9.3155 23.4598 0.0000 26.2788 0.0000
# 6 0.0000 0.0000 0.0000 -3.5188 0.0000 25.8734
#
#
#
# Elastic Compliance Matrix: (Units=1/GPa)
#
#
# Indices 1 2 3 4 5 6 
#
# 1 0.017833 -0.009511 -0.001612 0.000000 -0.005161 0.000000
# 2 -0.009511 0.107282 -0.018404 0.000000 -0.016282 0.000000
# 3 -0.001612 -0.018404 0.013735 0.000000 -0.004836 0.000000
# 4 0.000000 0.000000 0.000000 0.029328 0.000000 0.003989
# 5 -0.005161 -0.016282 -0.004836 0.000000 0.051029 0.000000
# 6 0.000000 0.000000 0.000000 0.003989 0.000000 0.039192
#
#
# Mechanical properties :
#
#
# Convention : Reuss Voigt Hill
#
# Bulk Modulus (GPa) = 12.53199 39.54399 26.03799
# Shear Modulus (GPa) = 14.53274 26.35760 20.44517
#
# Velocity S-wave (km/s) = 2.65321 3.57314 3.14697
# Velocity P-wave (km/s) = 3.93146 6.01480 5.08106
#
# Compressibility (1/GPa) = 0.07979577
#
# Stress axis : x y z
#
# Youngs Moduli (GPa) = 56.07734 9.32119 72.80831
#
# Poissons Ratio (x) = 0.08866 0.11736
# Poissons Ratio (y) = 0.53338 1.33994
# Poissons Ratio (z) = 0.09039 0.17154
#
# Static dielectric constant tensor:
#      x y z
#    x 1.739190 0.000000 0.010980 
#    y 0.000000 1.694380 0.000000 
#    z 0.010980 0.000000 1.740510 
# 
# From -- ./inp_files/69125.got.cif
#   From: 2010.05.17/outbox.cif.g08.bks.cpg/sg11_35_cif.got.tgz:69125.got - 2010.06.03 12:22:45.
