data_PCOD9164027
_publ_section_title
;
Structure prediction by ZEFSAII (Michael W. Deem and Ramdas Pophale) SiO2 
 PCOD9164027
Probable space group: P 21/M
;
_chemical_formula_sum "Si O2"
_cell_formula_units_Z 32
_cell_length_a 19.019067
_cell_length_b 13.506342
_cell_length_c 12.275993
_cell_angle_alpha 90.000000
_cell_angle_beta 30.722871
_cell_angle_gamma 90.000000
_cell_volume 1611.045019
_symmetry_space_group_name_H-M "P 21/M"
_symmetry_group_IT_number 11
_symmetry_cell_setting 'monoclinic'
loop_
_space_group_symop_operation_xyz
x,y,z
-x,1/2+y,-z
-x,-y,-z
x,1/2-y,z
loop_
_atom_site_type_symbol
_atom_site_label
_atom_site_fract_x
_atom_site_fract_y
_atom_site_fract_z
Si Si1 0.712298 0.970744 0.061213
Si Si2 0.760508 0.131984 0.825871
Si Si3 0.203024 0.980328 0.810002
Si Si4 0.568828 0.368761 0.634801
Si Si5 0.558333 0.370169 0.900970
Si Si6 0.085024 0.130678 0.796175
Si Si7 0.750394 0.870207 0.640561
Si Si8 0.918499 0.868414 0.633509
O O1 0.579388 0.905543 0.209690
O O2 0.731139 0.989974 0.162945
O O3 0.846827 0.917401 0.832471
O O4 0.702888 0.072510 0.005449
O O5 0.748322 0.250000 0.859016
O O6 0.675487 0.104251 0.831390
O O7 0.921467 0.108623 0.595500
O O8 0.312780 0.920630 0.592230
O O9 0.153494 0.076342 0.808156
O O10 0.069153 0.911809 0.008005
O O11 0.577498 0.250000 0.614769
O O12 0.582548 0.397576 0.743587
O O13 0.553662 0.250000 0.906680
O O14 0.407505 0.403817 0.141177
O O15 0.085101 0.250000 0.805568
O O16 0.169987 0.100575 0.574737
O O17 0.748197 0.750000 0.642107
O O18 0.832889 0.897625 0.639775
O O19 0.907151 0.750000 0.659573
#
# Coordination Sequence:
#
# PCOD9164027 Si02
#       8
#     4   4   4   4   4   4   4   4
#     4  12  24  40  63  93 128 173 222 262 318 396
#     4  10  23  38  60  97 134 165 207 270 337 389
#     4  11  26  43  62  97 129 167 231 266 314 392
#     4  11  24  44  66  90 130 176 218 272 329 383
#     4   9  19  38  63  94 123 160 209 261 327 393
#     4  10  23  44  69  92 125 169 214 275 333 384
#     4   9  17  35  65  93 120 159 209 258 325 395
#     4  10  20  38  63  93 128 166 209 265 332 398
#
# _framework density 19.862883
#
# number of rings (size 3 to 8) (size 9 to 14) (size 15 to 20)
#    0.000    1.750    1.250    2.250    1.750    6.500 
#    0.000    1.250    0.000    0.000    0.000    0.000 
#    0.000    0.000    0.000    0.000    0.000    0.000 
#
# Total GULP energy -179005.275861 kJ/mol
# GULP energy per Si atom -5593.914871 kJ/mol
# Density = 1.981767 g / cm^3
# Si number density = 19.862883 Si / 1000 Ang^3
#
#
#
# Elastic Constant Matrix: (Units=GPa)
#
#
# Indices 1 2 3 4 5 6 
#
# 1 106.6326 20.8586 32.7532 0.0000 7.0573 0.0000
# 2 20.8586 84.1222 17.5325 0.0000 4.3455 0.0000
# 3 32.7532 17.5325 98.3174 0.0000 10.7006 0.0000
# 4 0.0000 0.0000 0.0000 34.3548 0.0000 3.9337
# 5 7.0573 4.3455 10.7006 0.0000 35.3184 0.0000
# 6 0.0000 0.0000 0.0000 3.9337 0.0000 28.1685
#
#
#
# Elastic Compliance Matrix: (Units=1/GPa)
#
#
# Indices 1 2 3 4 5 6 
#
# 1 0.010792 -0.001972 -0.003139 0.000000 -0.000963 0.000000
# 2 -0.001972 0.012733 -0.001537 0.000000 -0.000707 0.000000
# 3 -0.003139 -0.001537 0.011791 0.000000 -0.002756 0.000000
# 4 0.000000 0.000000 0.000000 0.029581 0.000000 -0.004131
# 5 -0.000963 -0.000707 -0.002756 0.000000 0.029428 0.000000
# 6 0.000000 0.000000 0.000000 -0.004131 0.000000 0.036077
#
#
# Mechanical properties :
#
#
# Convention : Reuss Voigt Hill
#
# Bulk Modulus (GPa) = 45.41161 47.92898 46.67029
# Shear Modulus (GPa) = 33.10442 34.09687 33.60065
#
# Velocity S-wave (km/s) = 4.08689 4.14770 4.11740
# Velocity P-wave (km/s) = 6.72178 6.86441 6.79347
#
# Compressibility (1/GPa) = 0.02202080
#
# Stress axis : x y z
#
# Youngs Moduli (GPa) = 92.66551 78.53456 84.81235
#
# Poissons Ratio (x) = 0.15487 0.26619
# Poissons Ratio (y) = 0.18273 0.13034
# Poissons Ratio (z) = 0.29084 0.12069
#
# Static dielectric constant tensor:
#      x y z
#    x 1.655590 0.000000 -0.011380 
#    y 0.000000 1.734350 0.000000 
#    z -0.011380 0.000000 1.663620 
# 
# From -- ./inp_files/41610.got.cif
#   From: 2010.05.17/outbox.cif.g08.bks.cpg/sg11_21_cif.got.tgz:41610.got - 2010.06.03 12:22:45.
