data_PCOD9164915
_publ_section_title
;
Structure prediction by ZEFSAII (Michael W. Deem and Ramdas Pophale) SiO2 
 PCOD9164915
Probable space group: P 21/M
;
_chemical_formula_sum "Si O2"
_cell_formula_units_Z 32
_cell_length_a 34.334040
_cell_length_b 8.644248
_cell_length_c 13.069850
_cell_angle_alpha 90.000000
_cell_angle_beta 24.722083
_cell_angle_gamma 90.000000
_cell_volume 1622.275544
_symmetry_space_group_name_H-M "P 21/M"
_symmetry_group_IT_number 11
_symmetry_cell_setting 'monoclinic'
loop_
_space_group_symop_operation_xyz
x,y,z
-x,1/2+y,-z
-x,-y,-z
x,1/2-y,z
loop_
_atom_site_type_symbol
_atom_site_label
_atom_site_fract_x
_atom_site_fract_y
_atom_site_fract_z
Si Si1 0.127508 0.565065 0.488551
Si Si2 0.087533 0.436066 0.024041
Si Si3 0.398403 0.937427 0.211752
Si Si4 0.616235 0.563664 0.402009
Si Si5 0.312178 0.434744 0.985649
Si Si6 0.591530 0.436616 0.041953
Si Si7 0.743416 0.065311 0.271554
Si Si8 0.104938 0.064201 0.756408
O O1 0.130184 0.750000 0.479127
O O2 0.206406 0.494260 0.228965
O O3 0.152120 0.510527 0.545420
O O4 0.021237 0.515206 0.717122
O O5 0.088021 0.250000 0.029004
O O6 0.152899 0.506136 0.954017
O O7 0.132320 0.479064 0.806463
O O8 0.401826 0.750000 0.204174
O O9 0.323460 0.988010 0.475087
O O10 0.376032 0.987140 0.148526
O O11 0.500000 0.000000 0.000000
O O12 0.620099 0.750000 0.395924
O O13 0.516583 0.516686 0.685619
O O14 0.697875 0.497708 0.277191
O O15 0.629252 0.514502 0.253330
O O16 0.312207 0.250000 0.989738
O O17 0.354400 0.498481 0.989886
O O18 0.597164 0.250000 0.032248
O O19 0.743057 0.250000 0.271190
O O20 0.106300 0.250000 0.744033
O O21 0.000000 0.000000 0.000000
#
# Coordination Sequence:
#
# PCOD9164915 Si02
#       8
#     4   4   4   4   4   4   4   4
#     4  10  21  38  58  82 115 155 198 246 297 349
#     4   9  20  37  57  82 114 155 196 234 288 352
#     4  10  21  37  58  88 121 155 191 235 289 347
#     4  10  22  42  63  83 115 158 199 242 292 350
#     4  11  24  39  60  90 117 150 200 249 295 349
#     4  10  21  39  62  87 119 157 192 234 295 354
#     4  11  23  36  58  91 121 153 196 242 291 349
#     4   9  17  31  52  80 112 150 190 234 287 343
#
# _framework density 19.725379
#
# number of rings (size 3 to 8) (size 9 to 14) (size 15 to 20)
#    0.000    2.000    1.250    2.625    1.750    5.500 
#    0.000    0.625    0.000    0.000    0.000    0.000 
#    0.000    0.000    0.000    0.000    0.000    0.000 
#
# Total GULP energy -178658.351784 kJ/mol
# GULP energy per Si atom -5583.073493 kJ/mol
# Density = 1.968048 g / cm^3
# Si number density = 19.725379 Si / 1000 Ang^3
#
#
#
# Elastic Constant Matrix: (Units=GPa)
#
#
# Indices 1 2 3 4 5 6 
#
# 1 113.1243 14.5410 19.4335 0.0000 -7.2359 0.0000
# 2 14.5410 6.0240 2.5060 0.0000 1.8517 0.0000
# 3 19.4335 2.5060 34.3388 0.0000 -0.5667 0.0000
# 4 0.0000 0.0000 0.0000 25.1802 0.0000 -3.6442
# 5 -7.2359 1.8517 -0.5667 0.0000 33.0710 0.0000
# 6 0.0000 0.0000 0.0000 -3.6442 0.0000 29.1098
#
#
#
# Elastic Compliance Matrix: (Units=1/GPa)
#
#
# Indices 1 2 3 4 5 6 
#
# 1 0.014535 -0.034276 -0.005642 0.000000 0.005003 0.000000
# 2 -0.034276 0.255265 0.000410 0.000000 -0.021785 0.000000
# 3 -0.005642 0.000410 0.032273 0.000000 -0.000704 0.000000
# 4 0.000000 0.000000 0.000000 0.040447 0.000000 0.005063
# 5 0.005003 -0.021785 -0.000704 0.000000 0.032540 0.000000
# 6 0.000000 0.000000 0.000000 0.005063 0.000000 0.034987
#
#
# Mechanical properties :
#
#
# Convention : Reuss Voigt Hill
#
# Bulk Modulus (GPa) = 4.48316 25.16091 14.82203
# Shear Modulus (GPa) = 8.87446 25.27264 17.07355
#
# Velocity S-wave (km/s) = 2.12339 3.58330 2.94524
# Velocity P-wave (km/s) = 2.87914 5.46840 4.36994
#
# Compressibility (1/GPa) = 0.22305698
#
# Stress axis : x y z
#
# Youngs Moduli (GPa) = 68.80018 3.91750 30.98569
#
# Poissons Ratio (x) = 0.13427 0.17482
# Poissons Ratio (y) = 2.35817 -0.01269
# Poissons Ratio (z) = 0.38816 -0.00160
#
# Static dielectric constant tensor:
#      x y z
#    x 1.687570 0.000000 0.015690 
#    y 0.000000 1.659060 0.000000 
#    z 0.015690 0.000000 1.699850 
# 
# From -- ./inp_files/45222.got.cif
#   From: 2010.05.17/outbox.cif.g08.bks.cpg/sg11_23_cif.got.tgz:45222.got - 2010.06.03 12:22:45.
