data_PCOD9164059
_publ_section_title
;
Structure prediction by ZEFSAII (Michael W. Deem and Ramdas Pophale) SiO2 
 PCOD9164059
Probable space group: P 21/M
;
_chemical_formula_sum "Si O2"
_cell_formula_units_Z 24
_cell_length_a 13.995897
_cell_length_b 14.165509
_cell_length_c 11.721571
_cell_angle_alpha 90.000000
_cell_angle_beta 146.877104
_cell_angle_gamma 90.000000
_cell_volume 1269.868024
_symmetry_space_group_name_H-M "P 21/M"
_symmetry_group_IT_number 11
_symmetry_cell_setting 'monoclinic'
loop_
_space_group_symop_operation_xyz
x,y,z
-x,1/2+y,-z
-x,-y,-z
x,1/2-y,z
loop_
_atom_site_type_symbol
_atom_site_label
_atom_site_fract_x
_atom_site_fract_y
_atom_site_fract_z
Si Si1 0.546119 0.016147 0.414265
Si Si2 0.046119 0.983853 0.177974
Si Si3 0.045044 0.638190 0.729073
Si Si4 0.250000 0.364465 0.742769
Si Si5 0.250000 0.137328 0.004806
Si Si6 0.454956 0.861810 0.138984
O O1 0.505648 0.922460 0.299981
O O2 0.500000 0.000000 0.500000
O O3 0.750000 0.039681 0.606809
O O4 0.419818 0.095569 0.236515
O O5 0.005649 0.077540 0.211316
O O6 0.919818 0.904431 0.103122
O O7 0.000000 0.000000 0.000000
O O8 0.015045 0.750000 0.719119
O O9 0.920582 0.607715 0.500347
O O10 0.250000 0.625614 0.908766
O O11 0.249999 0.250000 0.747284
O O12 0.420582 0.392285 0.840816
O O13 0.250000 0.396371 0.873101
O O14 0.250000 0.250000 0.007999
O O15 0.484955 0.750000 0.189029
#
# Coordination Sequence:
#
# PCOD9164059 Si02
#       6
#     4   4   4   4   4   4
#     4  12  24  43  66  93 129 165 218 265 309 382
#     4  12  24  43  66  93 129 165 218 265 309 382
#     4  10  20  38  65  96 127 165 211 263 316 368
#     4   9  20  39  63  94 131 167 210 256 312 384
#     4  11  26  45  64  94 133 169 207 262 321 372
#     4  10  20  38  65  96 127 165 211 263 316 368
#
# _framework density 18.899602000000002
#
# number of rings (size 3 to 8) (size 9 to 14) (size 15 to 20)
#    0.000    1.333    5.000    0.000    0.000    4.667 
#    0.000    3.333    0.000    0.000    0.000    0.000 
#    0.000    0.000    0.000    0.000    0.000    0.000 
#
# Total GULP energy -134128.774105 kJ/mol
# GULP energy per Si atom -5588.698921 kJ/mol
# Density = 1.885659 g / cm^3
# Si number density = 18.899602 Si / 1000 Ang^3
#
#
#
# Elastic Constant Matrix: (Units=GPa)
#
#
# Indices 1 2 3 4 5 6 
#
# 1 176.0013 62.5098 110.0790 0.0000 -5.3430 0.0000
# 2 62.5098 100.4362 59.6141 0.0000 -3.4766 0.0000
# 3 110.0790 59.6141 179.4349 0.0000 9.4657 0.0000
# 4 0.0000 0.0000 0.0000 41.5249 0.0000 -16.2560
# 5 -5.3430 -3.4766 9.4657 0.0000 48.5180 0.0000
# 6 0.0000 0.0000 0.0000 -16.2560 0.0000 55.0632
#
#
#
# Elastic Compliance Matrix: (Units=1/GPa)
#
#
# Indices 1 2 3 4 5 6 
#
# 1 0.010161 -0.003110 -0.005302 0.000000 0.001931 0.000000
# 2 -0.003110 0.013496 -0.002636 0.000000 0.001139 0.000000
# 3 -0.005302 -0.002636 0.009844 0.000000 -0.002693 0.000000
# 4 0.000000 0.000000 0.000000 0.027229 0.000000 0.008039
# 5 0.001931 0.001139 -0.002693 0.000000 0.021431 0.000000
# 6 0.000000 0.000000 0.000000 0.008039 0.000000 0.020534
#
#
# Mechanical properties :
#
#
# Convention : Reuss Voigt Hill
#
# Bulk Modulus (GPa) = 87.68498 102.25315 94.96906
# Shear Modulus (GPa) = 38.88232 43.93252 41.40742
#
# Velocity S-wave (km/s) = 4.54068 4.82656 4.68580
# Velocity P-wave (km/s) = 8.60152 9.23481 8.92379
#
# Compressibility (1/GPa) = 0.01140446
#
# Stress axis : x y z
#
# Youngs Moduli (GPa) = 98.41281 74.09424 101.58824
#
# Poissons Ratio (x) = 0.23045 0.53864
# Poissons Ratio (y) = 0.30609 0.26778
# Poissons Ratio (z) = 0.52181 0.19531
#
# Static dielectric constant tensor:
#      x y z
#    x 1.632000 0.000000 0.012620 
#    y 0.000000 1.655040 0.000000 
#    z 0.012620 0.000000 1.642510 
# 
# From -- ./inp_files/39719.got.cif
#   From: 2010.05.17/outbox.cif.g08.bks.cpg/sg11_20_cif.got.tgz:39719.got - 2010.06.03 12:22:45.
