data_PCOD9164261
_publ_section_title
;
Structure prediction by ZEFSAII (Michael W. Deem and Ramdas Pophale) SiO2 
 PCOD9164261
Probable space group: P 21/M
;
_chemical_formula_sum "Si O2"
_cell_formula_units_Z 32
_cell_length_a 19.240372
_cell_length_b 14.301810
_cell_length_c 5.193337
_cell_angle_alpha 90.000000
_cell_angle_beta 95.571818
_cell_angle_gamma 90.000000
_cell_volume 1422.309761
_symmetry_space_group_name_H-M "P 21/M"
_symmetry_group_IT_number 11
_symmetry_cell_setting 'monoclinic'
loop_
_space_group_symop_operation_xyz
x,y,z
-x,1/2+y,-z
-x,-y,-z
x,1/2-y,z
loop_
_atom_site_type_symbol
_atom_site_label
_atom_site_fract_x
_atom_site_fract_y
_atom_site_fract_z
Si Si1 0.508940 0.564707 0.252845
Si Si2 0.662002 0.545821 0.353614
Si Si3 0.035489 0.636320 0.140862
Si Si4 0.746201 0.430872 0.003417
Si Si5 0.630567 0.351104 0.642641
Si Si6 0.798685 0.575844 0.662510
Si Si7 0.120590 0.862844 0.668574
Si Si8 0.877525 0.859116 0.190415
O O1 0.500000 0.500000 0.500000
O O2 0.589106 0.598135 0.286383
O O3 0.445069 0.636290 0.251919
O O4 0.500000 0.500000 0.000000
O O5 0.700631 0.515348 0.106114
O O6 0.644119 0.443754 0.474763
O O7 0.719689 0.599495 0.542624
O O8 0.035051 0.750000 0.140287
O O9 0.082902 0.605354 0.395810
O O10 0.955478 0.608051 0.150822
O O11 0.070402 0.608467 0.886181
O O12 0.801668 0.395159 0.229768
O O13 0.691401 0.356937 0.877210
O O14 0.788616 0.472701 0.778504
O O15 0.633663 0.250000 0.510560
O O16 0.845374 0.588005 0.424614
O O17 0.831617 0.630454 0.915251
O O18 0.123145 0.750000 0.660094
O O19 0.880307 0.750000 0.265062
#
# Coordination Sequence:
#
# PCOD9164261 Si02
#       8
#     4   4   4   4   4   4   4   4
#     4  10  20  40  64  89 121 171 205 246 306 368
#     4  10  22  41  65  87 135 173 205 245 321 377
#     4   9  20  38  59  84 117 160 206 263 324 368
#     4  11  22  39  61  89 133 173 202 248 313 382
#     4  10  22  38  64  99 125 163 218 261 296 362
#     4  11  23  39  63  94 123 162 210 256 318 386
#     4  10  21  36  57  86 122 163 210 256 309 369
#     4  11  22  42  68  88 114 157 216 272 316 373
#
# _framework density 22.498616999999999
#
# number of rings (size 3 to 8) (size 9 to 14) (size 15 to 20)
#    0.000    1.750    2.500    1.500    3.500    3.000 
#    0.000    5.000    0.000    0.000    0.000    0.000 
#    0.000    0.000    0.000    0.000    0.000    0.000 
#
# Total GULP energy -178792.247615 kJ/mol
# GULP energy per Si atom -5587.257738 kJ/mol
# Density = 2.244741 g / cm^3
# Si number density = 22.498617 Si / 1000 Ang^3
#
#
#
# Elastic Constant Matrix: (Units=GPa)
#
#
# Indices 1 2 3 4 5 6 
#
# 1 160.9155 25.8746 34.7240 0.0000 -2.0585 0.0000
# 2 25.8746 54.6374 4.0373 0.0000 2.4977 0.0000
# 3 34.7240 4.0373 116.8813 0.0000 -11.0397 0.0000
# 4 0.0000 0.0000 0.0000 22.3222 0.0000 6.1806
# 5 -2.0585 2.4977 -11.0397 0.0000 34.1504 0.0000
# 6 0.0000 0.0000 0.0000 6.1806 0.0000 4.3713
#
#
#
# Elastic Compliance Matrix: (Units=1/GPa)
#
#
# Indices 1 2 3 4 5 6 
#
# 1 0.007172 -0.003248 -0.002017 0.000000 0.000018 0.000000
# 2 -0.003248 0.019905 0.000125 0.000000 -0.001611 0.000000
# 3 -0.002017 0.000125 0.009426 0.000000 0.002916 0.000000
# 4 0.000000 0.000000 0.000000 0.073619 0.000000 -0.104089
# 5 0.000018 -0.001611 0.002916 0.000000 0.030344 0.000000
# 6 0.000000 0.000000 0.000000 -0.104089 0.000000 0.375933
#
#
# Mechanical properties :
#
#
# Convention : Reuss Voigt Hill
#
# Bulk Modulus (GPa) = 38.13361 51.30067 44.71714
# Shear Modulus (GPa) = 9.33847 30.02201 19.68024
#
# Velocity S-wave (km/s) = 2.03953 3.65690 2.96079
# Velocity P-wave (km/s) = 4.74683 6.37822 5.62202
#
# Compressibility (1/GPa) = 0.02622358
#
# Stress axis : x y z
#
# Youngs Moduli (GPa) = 139.42706 50.23819 106.08937
#
# Poissons Ratio (x) = 0.16319 0.21397
# Poissons Ratio (y) = 0.45290 -0.01329
# Poissons Ratio (z) = 0.28121 -0.00629
#
# Static dielectric constant tensor:
#      x y z
#    x 1.857230 0.000000 -0.008010 
#    y 0.000000 1.872260 0.000000 
#    z -0.008010 0.000000 1.835170 
# 
# From -- ./inp_files/8086.got.cif
#   From: 2010.05.17/outbox.cif.g08.bks.cpg/sg11_5_cif.got.tgz:8086.got - 2010.06.03 12:22:45.
