data_PCOD9164420
_publ_section_title
;
Structure prediction by ZEFSAII (Michael W. Deem and Ramdas Pophale) SiO2 
 PCOD9164420
Probable space group: P 21/M
;
_chemical_formula_sum "Si O2"
_cell_formula_units_Z 28
_cell_length_a 5.218922
_cell_length_b 27.548629
_cell_length_c 10.847505
_cell_angle_alpha 90.000000
_cell_angle_beta 84.803218
_cell_angle_gamma 90.000000
_cell_volume 1553.180050
_symmetry_space_group_name_H-M "P 21/M"
_symmetry_group_IT_number 11
_symmetry_cell_setting 'monoclinic'
loop_
_space_group_symop_operation_xyz
x,y,z
-x,1/2+y,-z
-x,-y,-z
x,1/2-y,z
loop_
_atom_site_type_symbol
_atom_site_label
_atom_site_fract_x
_atom_site_fract_y
_atom_site_fract_z
Si Si1 0.963332 0.603433 0.157126
Si Si2 0.275594 0.556453 0.584546
Si Si3 0.322996 0.513882 0.122042
Si Si4 0.797283 0.195823 0.945500
Si Si5 0.628754 0.550189 0.346837
Si Si6 0.235567 0.080454 0.268041
Si Si7 0.733078 0.844425 0.947554
O O1 0.834763 0.589165 0.291716
O O2 0.124913 0.557095 0.104298
O O3 0.757452 0.616781 0.059585
O O4 0.137276 0.652026 0.151935
O O5 0.406141 0.567741 0.448089
O O6 0.247443 0.497695 0.595912
O O7 0.494144 0.571759 0.674418
O O8 0.003439 0.580370 0.627537
O O9 0.498561 0.532339 0.226595
O O10 0.186518 0.465776 0.180700
O O11 0.500000 0.500000 0.000000
O O12 0.803194 0.250000 0.893233
O O13 0.527038 0.184479 0.020119
O O14 0.020747 0.189125 0.037533
O O15 0.252018 0.127179 0.180614
#
# Coordination Sequence:
#
# PCOD9164420 Si02
#       7
#     4   4   4   4   4   4   4
#     4  10  21  34  56  83 114 146 188 233 277 339
#     4  10  23  34  54  73 115 163 195 222 264 312
#     4  11  22  32  54  80 120 160 186 232 274 331
#     4  10  21  38  58  84 112 139 174 231 304 351
#     4  10  21  35  49  78 114 158 199 229 262 320
#     4  11  21  37  53  80 113 153 187 225 265 332
#     4  10  22  36  58  85 114 138 183 229 283 348
#
# _framework density 18.027529000000001
#
# number of rings (size 3 to 8) (size 9 to 14) (size 15 to 20)
#    0.857    0.857    1.429    3.857    6.000    2.857 
#    0.000    0.000    0.000    0.000    0.000    6.000 
#    0.000    0.000    0.000    0.000    0.000    0.000 
#
# Total GULP energy -156216.739342 kJ/mol
# GULP energy per Si atom -5579.169262 kJ/mol
# Density = 1.798650 g / cm^3
# Si number density = 18.027529 Si / 1000 Ang^3
#
#
#
# Elastic Constant Matrix: (Units=GPa)
#
#
# Indices 1 2 3 4 5 6 
#
# 1 86.5686 23.6725 14.4845 0.0000 -13.2818 0.0000
# 2 23.6725 67.9855 25.1966 0.0000 -11.0282 0.0000
# 3 14.4845 25.1966 79.6364 0.0000 -20.3455 0.0000
# 4 0.0000 0.0000 0.0000 6.2111 0.0000 -0.2864
# 5 -13.2818 -11.0282 -20.3455 0.0000 27.5248 0.0000
# 6 0.0000 0.0000 0.0000 -0.2864 0.0000 -11.7169
#
#
#
# Elastic Compliance Matrix: (Units=1/GPa)
#
#
# Indices 1 2 3 4 5 6 
#
# 1 0.013358 -0.003871 0.000056 0.000000 0.004936 0.000000
# 2 -0.003871 0.018051 -0.004483 0.000000 0.002050 0.000000
# 3 0.000056 -0.004483 0.016659 0.000000 0.010545 0.000000
# 4 0.000000 0.000000 0.000000 0.160822 0.000000 -0.003931
# 5 0.004936 0.002050 0.010545 0.000000 0.047329 0.000000
# 6 0.000000 0.000000 0.000000 -0.003931 0.000000 -0.085251
#
#
# Mechanical properties :
#
#
# Convention : Reuss Voigt Hill
#
# Bulk Modulus (GPa) = 31.77424 40.09974 35.93699
# Shear Modulus (GPa) = 25.24536 15.79291 20.51914
#
# Velocity S-wave (km/s) = 3.74622 2.96302 3.37740
# Velocity P-wave (km/s) = 6.03124 5.83077 5.93185
#
# Compressibility (1/GPa) = 0.03147204
#
# Stress axis : x y z
#
# Youngs Moduli (GPa) = 74.86081 55.39774 60.02630
#
# Poissons Ratio (x) = 0.21447 -0.00339
# Poissons Ratio (y) = 0.28982 0.26912
# Poissons Ratio (z) = -0.00423 0.24837
#
# Static dielectric constant tensor:
#      x y z
#    x 1.666300 0.000000 0.010610 
#    y 0.000000 1.615110 0.000000 
#    z 0.010610 0.000000 1.617840 
# 
# From -- ./inp_files/30092.got.cif
#   From: 2010.05.17/outbox.cif.g08.bks.cpg/sg11_16_cif.got.tgz:30092.got - 2010.06.03 12:22:45.
