data_PCOD9164876
_publ_section_title
;
Structure prediction by ZEFSAII (Michael W. Deem and Ramdas Pophale) SiO2 
 PCOD9164876
Probable space group: P 21/M
;
_chemical_formula_sum "Si O2"
_cell_formula_units_Z 24
_cell_length_a 21.016146
_cell_length_b 9.389267
_cell_length_c 11.545836
_cell_angle_alpha 90.000000
_cell_angle_beta 31.459683
_cell_angle_gamma 90.000000
_cell_volume 1189.039188
_symmetry_space_group_name_H-M "P 21/M"
_symmetry_group_IT_number 11
_symmetry_cell_setting 'monoclinic'
loop_
_space_group_symop_operation_xyz
x,y,z
-x,1/2+y,-z
-x,-y,-z
x,1/2-y,z
loop_
_atom_site_type_symbol
_atom_site_label
_atom_site_fract_x
_atom_site_fract_y
_atom_site_fract_z
Si Si1 0.860696 0.909611 0.989827
Si Si2 0.404786 0.586830 0.004157
Si Si3 0.205253 0.002366 0.147046
Si Si4 0.974022 0.601018 0.387893
Si Si5 0.324732 0.082338 0.353052
Si Si6 0.869776 0.420703 0.194127
O O1 0.864042 0.750000 0.031195
O O2 0.994569 0.964113 0.738440
O O3 0.781828 0.915145 0.994212
O O4 0.819882 0.024774 0.146806
O O5 0.384803 0.750000 0.074847
O O6 0.327385 0.562347 0.008403
O O7 0.357899 0.479205 0.175417
O O8 0.549792 0.567439 0.768621
O O9 0.093913 0.897822 0.284344
O O10 0.141785 0.087847 0.350339
O O11 0.970069 0.750000 0.327195
O O12 0.780592 0.488218 0.427569
O O13 0.293735 0.250000 0.396703
O O14 0.878513 0.250000 0.187701
O O15 0.000000 0.500000 0.000000
#
# Coordination Sequence:
#
# PCOD9164876 Si02
#       6
#     4   4   4   4   4   4
#     4  10  21  37  57  87 122 154 197 246 299 357
#     4  10  21  40  65  90 121 164 206 252 304 358
#     4   9  20  31  59  85 123 156 203 244 306 351
#     4   9  18  32  52  83 121 156 196 243 295 351
#     4  10  23  42  63  90 123 157 207 257 300 360
#     4  12  26  44  66  88 121 161 202 247 304 366
#
# _framework density 20.184363999999999
#
# number of rings (size 3 to 8) (size 9 to 14) (size 15 to 20)
#    1.000    1.000    0.000    3.500    2.333    2.667 
#    0.000    0.833    0.000    0.000    0.000    0.000 
#    0.000    0.000    0.000    0.000    0.000    0.000 
#
# Total GULP energy -133689.866929 kJ/mol
# GULP energy per Si atom -5570.411122 kJ/mol
# Density = 2.013842 g / cm^3
# Si number density = 20.184364 Si / 1000 Ang^3
#
#
#
# Elastic Constant Matrix: (Units=GPa)
#
#
# Indices 1 2 3 4 5 6 
#
# 1 84.2688 19.9557 31.5303 0.0000 -31.1414 0.0000
# 2 19.9557 167.9372 50.3675 0.0000 -7.1379 0.0000
# 3 31.5303 50.3675 75.8035 0.0000 -10.0485 0.0000
# 4 0.0000 0.0000 0.0000 19.6953 0.0000 9.0002
# 5 -31.1414 -7.1379 -10.0485 0.0000 28.2460 0.0000
# 6 0.0000 0.0000 0.0000 9.0002 0.0000 20.3127
#
#
#
# Elastic Compliance Matrix: (Units=1/GPa)
#
#
# Indices 1 2 3 4 5 6 
#
# 1 0.022661 0.000245 -0.006579 0.000000 0.022706 0.000000
# 2 0.000245 0.007440 -0.004996 0.000000 0.000373 0.000000
# 3 -0.006579 -0.004996 0.019016 0.000000 -0.001751 0.000000
# 4 0.000000 0.000000 0.000000 0.063664 0.000000 -0.028209
# 5 0.022706 0.000373 -0.001751 0.000000 0.059908 0.000000
# 6 0.000000 0.000000 0.000000 -0.028209 0.000000 0.061729
#
#
# Mechanical properties :
#
#
# Convention : Reuss Voigt Hill
#
# Bulk Modulus (GPa) = 37.79618 59.07960 48.43789
# Shear Modulus (GPa) = 18.80437 28.72787 23.76612
#
# Velocity S-wave (km/s) = 3.05557 3.77672 3.43512
# Velocity P-wave (km/s) = 5.58702 6.95354 6.30740
#
# Compressibility (1/GPa) = 0.02645770
#
# Stress axis : x y z
#
# Youngs Moduli (GPa) = 44.12848 134.41469 52.58745
#
# Poissons Ratio (x) = -0.03300 0.34598
# Poissons Ratio (y) = -0.01083 0.26272
# Poissons Ratio (z) = 0.29033 0.67152
#
# Static dielectric constant tensor:
#      x y z
#    x 1.793370 0.000000 0.003240 
#    y 0.000000 1.736190 0.000000 
#    z 0.003240 0.000000 1.698950 
# 
# From -- ./inp_files/38603.got.cif
#   From: 2010.05.17/outbox.cif.g08.bks.cpg/sg11_20_cif.got.tgz:38603.got - 2010.06.03 12:22:45.
