data_PCOD9164794
_publ_section_title
;
Structure prediction by ZEFSAII (Michael W. Deem and Ramdas Pophale) SiO2 
 PCOD9164794
Probable space group: P 21/M
;
_chemical_formula_sum "Si O2"
_cell_formula_units_Z 32
_cell_length_a 25.342826
_cell_length_b 7.452347
_cell_length_c 15.118717
_cell_angle_alpha 90.000000
_cell_angle_beta 24.343536
_cell_angle_gamma 90.000000
_cell_volume 1177.004612
_symmetry_space_group_name_H-M "P 21/M"
_symmetry_group_IT_number 11
_symmetry_cell_setting 'monoclinic'
loop_
_space_group_symop_operation_xyz
x,y,z
-x,1/2+y,-z
-x,-y,-z
x,1/2-y,z
loop_
_atom_site_type_symbol
_atom_site_label
_atom_site_fract_x
_atom_site_fract_y
_atom_site_fract_z
Si Si1 0.077018 0.951798 0.270242
Si Si2 0.726612 0.466133 0.887601
Si Si3 0.720455 0.544146 0.522705
Si Si4 0.945138 0.969850 0.307298
Si Si5 0.879976 0.038244 0.119293
Si Si6 0.499283 0.532432 0.630504
Si Si7 0.288950 0.045699 0.810719
Si Si8 0.545946 0.034846 0.028659
O O1 0.037819 0.750000 0.352754
O O2 0.966953 0.034964 0.375002
O O3 0.150272 0.033419 0.243866
O O4 0.189014 0.941633 0.024673
O O5 0.745594 0.250000 0.859589
O O6 0.593377 0.502889 0.144276
O O7 0.681536 0.532944 0.859652
O O8 0.704836 0.750000 0.575466
O O9 0.772742 0.548165 0.343766
O O10 0.581122 0.461074 0.729963
O O11 0.821077 0.467164 0.440809
O O12 0.942669 0.750000 0.312811
O O13 0.066892 0.018696 0.057703
O O14 0.859434 0.250000 0.147564
O O15 0.000000 0.000000 0.000000
O O16 0.505391 0.750000 0.616453
O O17 0.644659 0.473373 0.381071
O O18 0.409943 0.450389 0.691639
O O19 0.246539 0.250000 0.864415
O O20 0.555755 0.250000 0.025864
O O21 0.500000 0.000000 0.000000
#
# Coordination Sequence:
#
# PCOD9164794 Si02
#       8
#     4   4   4   4   4   4   4   4
#     4   9  16  28  45  63  90 126 156 184 222 276
#     4   8  15  29  48  67  86 115 155 193 234 287
#     4   9  18  33  52  73  98 129 166 207 247 288
#     4   8  15  28  47  72 100 132 167 194 223 273
#     4   9  16  28  47  73 105 138 172 205 236 276
#     4   8  14  25  39  55  82 121 158 187 219 265
#     4   9  15  22  35  59  90 121 155 190 220 258
#     4  10  21  37  56  75  94 119 157 207 258 304
#
# _framework density 27.187659
#
# number of rings (size 3 to 8) (size 9 to 14) (size 15 to 20)
#    0.000    3.250    0.000    2.250    0.000    2.000 
#    0.000    6.875    0.000    0.750    0.000    0.000 
#    0.000    0.000    0.000    0.000    0.000    0.000 
#
# Total GULP energy -178318.817066 kJ/mol
# GULP energy per Si atom -5572.463033 kJ/mol
# Density = 2.712578 g / cm^3
# Si number density = 27.187659 Si / 1000 Ang^3
#
#
#
# Elastic Constant Matrix: (Units=GPa)
#
#
# Indices 1 2 3 4 5 6 
#
# 1 249.9569 13.5009 30.2677 0.0000 -32.1583 0.0000
# 2 13.5009 98.2804 16.6320 0.0000 -10.5403 0.0000
# 3 30.2677 16.6320 84.3141 0.0000 -17.8898 0.0000
# 4 0.0000 0.0000 0.0000 9.7577 0.0000 2.4715
# 5 -32.1583 -10.5403 -17.8898 0.0000 20.4672 0.0000
# 6 0.0000 0.0000 0.0000 2.4715 0.0000 21.3085
#
#
#
# Elastic Compliance Matrix: (Units=1/GPa)
#
#
# Indices 1 2 3 4 5 6 
#
# 1 0.005019 0.000180 -0.000177 0.000000 0.007824 0.000000
# 2 0.000180 0.010870 -0.001180 0.000000 0.004849 0.000000
# 3 -0.000177 -0.001180 0.014694 0.000000 0.011958 0.000000
# 4 0.000000 0.000000 0.000000 0.105585 0.000000 -0.012246
# 5 0.007824 0.004849 0.011958 0.000000 0.074100 0.000000
# 6 0.000000 0.000000 0.000000 -0.012246 0.000000 0.048350
#
#
# Mechanical properties :
#
#
# Convention : Reuss Voigt Hill
#
# Bulk Modulus (GPa) = 35.42599 61.48364 48.45481
# Shear Modulus (GPa) = 18.49236 35.11672 26.80454
#
# Velocity S-wave (km/s) = 2.61085 3.59784 3.14332
# Velocity P-wave (km/s) = 4.70608 6.31846 5.57091
#
# Compressibility (1/GPa) = 0.02822786
#
# Stress axis : x y z
#
# Youngs Moduli (GPa) = 199.24355 91.99640 68.05535
#
# Poissons Ratio (x) = -0.01652 0.01206
# Poissons Ratio (y) = -0.03578 0.08030
# Poissons Ratio (z) = 0.03530 0.10855
#
# Static dielectric constant tensor:
#      x y z
#    x 2.585600 0.000000 0.259550 
#    y 0.000000 1.992990 0.000000 
#    z 0.259550 0.000000 2.389490 
# 
# From -- ./inp_files/55562.got.cif
#   From: 2010.05.17/outbox.cif.g08.bks.cpg/sg11_28_cif.got.tgz:55562.got - 2010.06.03 12:22:45.
