data_PCOD9164479
_publ_section_title
;
Structure prediction by ZEFSAII (Michael W. Deem and Ramdas Pophale) SiO2 
 PCOD9164479
Probable space group: P 21/M
;
_chemical_formula_sum "Si O2"
_cell_formula_units_Z 32
_cell_length_a 12.118499
_cell_length_b 14.627200
_cell_length_c 8.044204
_cell_angle_alpha 90.000000
_cell_angle_beta 109.141121
_cell_angle_gamma 90.000000
_cell_volume 1347.079968
_symmetry_space_group_name_H-M "P 21/M"
_symmetry_group_IT_number 11
_symmetry_cell_setting 'monoclinic'
loop_
_space_group_symop_operation_xyz
x,y,z
-x,1/2+y,-z
-x,-y,-z
x,1/2-y,z
loop_
_atom_site_type_symbol
_atom_site_label
_atom_site_fract_x
_atom_site_fract_y
_atom_site_fract_z
Si Si1 0.350433 0.142311 0.929634
Si Si2 0.780238 0.643223 0.784302
Si Si3 0.419763 0.860244 0.104617
Si Si4 0.343381 0.854107 0.601977
Si Si5 0.813069 0.999084 0.323281
Si Si6 0.199164 0.854330 0.182060
Si Si7 0.555617 0.861515 0.507579
Si Si8 0.951533 0.506638 0.742917
O O1 0.348388 0.250000 0.882613
O O2 0.487935 0.114367 0.993826
O O3 0.270464 0.084506 0.765767
O O4 0.287597 0.133710 0.075741
O O5 0.800422 0.750000 0.764530
O O6 0.685367 0.605462 0.605099
O O7 0.899007 0.589656 0.821551
O O8 0.404717 0.750000 0.092358
O O9 0.289911 0.893994 0.088838
O O10 0.498798 0.883052 0.304639
O O11 0.356456 0.750000 0.668941
O O12 0.274250 0.850061 0.391295
O O13 0.467791 0.893395 0.607779
O O14 0.269653 0.913481 0.692188
O O15 0.884226 0.989259 0.531385
O O16 0.912800 0.009547 0.232952
O O17 0.165740 0.750000 0.123227
O O18 0.091605 0.917283 0.179950
O O19 0.557457 0.750000 0.521065
#
# Coordination Sequence:
#
# PCOD9164479 Si02
#       8
#     4   4   4   4   4   4   4   4
#     4  10  21  36  53  74 104 139 170 207 256 305
#     4  10  21  36  53  74 104 139 170 207 256 305
#     4   8  14  28  52  77  99 127 165 208 255 309
#     4   8  15  30  52  77 104 132 164 208 261 310
#     4  10  21  35  53  78 104 134 175 217 253 296
#     4   8  15  30  52  77 104 132 164 208 261 310
#     4   8  14  28  52  77  99 127 165 208 255 309
#     4  10  21  35  53  78 104 134 175 217 253 296
#
# _framework density 23.755084
#
# number of rings (size 3 to 8) (size 9 to 14) (size 15 to 20)
#    0.000    3.000    0.000    2.250    0.000    4.000 
#    0.000    8.750    0.000    2.250    0.000    0.000 
#    0.000    0.000    0.000    0.000    0.000    0.000 
#
# Total GULP energy -178910.302941 kJ/mol
# GULP energy per Si atom -5590.946967 kJ/mol
# Density = 2.370102 g / cm^3
# Si number density = 23.755084 Si / 1000 Ang^3
#
#
#
# Elastic Constant Matrix: (Units=GPa)
#
#
# Indices 1 2 3 4 5 6 
#
# 1 188.7786 56.1044 37.7216 0.0000 -45.3603 0.0000
# 2 56.1044 76.4339 10.2112 0.0000 -15.6307 0.0000
# 3 37.7216 10.2112 74.2909 0.0000 -9.9575 0.0000
# 4 0.0000 0.0000 0.0000 30.4417 0.0000 1.8600
# 5 -45.3603 -15.6307 -9.9575 0.0000 45.3326 0.0000
# 6 0.0000 0.0000 0.0000 1.8600 0.0000 40.0870
#
#
#
# Elastic Compliance Matrix: (Units=1/GPa)
#
#
# Indices 1 2 3 4 5 6 
#
# 1 0.008901 -0.004785 -0.002977 0.000000 0.006602 0.000000
# 2 -0.004785 0.016776 0.000265 0.000000 0.001054 0.000000
# 3 -0.002977 0.000265 0.014990 0.000000 0.000406 0.000000
# 4 0.000000 0.000000 0.000000 0.032943 0.000000 -0.001529
# 5 0.006602 0.001054 0.000406 0.000000 0.029118 0.000000
# 6 0.000000 0.000000 0.000000 -0.001529 0.000000 0.025017
#
#
# Mechanical properties :
#
#
# Convention : Reuss Voigt Hill
#
# Bulk Modulus (GPa) = 38.95156 60.84197 49.89677
# Shear Modulus (GPa) = 33.04788 38.86999 35.95893
#
# Velocity S-wave (km/s) = 3.73391 4.04949 3.89490
# Velocity P-wave (km/s) = 5.91796 6.89436 6.42474
#
# Compressibility (1/GPa) = 0.02567291
#
# Stress axis : x y z
#
# Youngs Moduli (GPa) = 112.35163 59.60898 66.71149
#
# Poissons Ratio (x) = 0.28526 0.19858
# Poissons Ratio (y) = 0.53765 -0.01770
# Poissons Ratio (z) = 0.33443 -0.01581
#
# Static dielectric constant tensor:
#      x y z
#    x 1.855890 0.000000 -0.013200 
#    y 0.000000 1.890010 0.000000 
#    z -0.013200 0.000000 1.971870 
# 
# From -- ./inp_files/17752.got.cif
#   From: 2010.05.17/outbox.cif.g08.bks.cpg/sg11_9_cif.got.tgz:17752.got - 2010.06.03 12:22:45.
