data_PCOD9164168
_publ_section_title
;
Structure prediction by ZEFSAII (Michael W. Deem and Ramdas Pophale) SiO2 
 PCOD9164168
Probable space group: P 21/M
;
_chemical_formula_sum "Si O2"
_cell_formula_units_Z 28
_cell_length_a 10.042148
_cell_length_b 26.658484
_cell_length_c 5.208155
_cell_angle_alpha 90.000000
_cell_angle_beta 98.644734
_cell_angle_gamma 90.000000
_cell_volume 1378.427250
_symmetry_space_group_name_H-M "P 21/M"
_symmetry_group_IT_number 11
_symmetry_cell_setting 'monoclinic'
loop_
_space_group_symop_operation_xyz
x,y,z
-x,1/2+y,-z
-x,-y,-z
x,1/2-y,z
loop_
_atom_site_type_symbol
_atom_site_label
_atom_site_fract_x
_atom_site_fract_y
_atom_site_fract_z
Si Si1 0.764734 0.381958 0.518844
Si Si2 0.517867 0.059066 0.496162
Si Si3 0.372828 0.806913 0.860377
Si Si4 0.911839 0.192536 0.927908
Si Si5 0.013358 0.440428 0.484259
Si Si6 0.123492 0.111390 0.036570
Si Si7 0.423911 0.112850 0.953272
O O1 0.669433 0.423400 0.623026
O O2 0.863395 0.343434 0.687069
O O3 0.867361 0.414813 0.377739
O O4 0.653292 0.342953 0.385684
O O5 0.423442 0.084516 0.682262
O O6 0.500000 0.000000 0.500000
O O7 0.487645 0.077864 0.197236
O O8 0.412001 0.750000 0.815939
O O9 0.223451 0.806141 0.940180
O O10 0.484256 0.837380 0.050090
O O11 0.943864 0.250000 0.867921
O O12 0.038018 0.161854 0.073524
O O13 0.000000 0.500000 0.500000
O O14 0.062405 0.418591 0.773107
O O15 0.110747 0.423567 0.282701
O O16 0.274916 0.125064 0.006223
#
# Coordination Sequence:
#
# PCOD9164168 Si02
#       7
#     4   4   4   4   4   4   4
#     4  10  21  38  64  90 126 156 221 254 306 368
#     4  11  24  41  63  90 125 169 207 255 307 365
#     4  10  20  39  64  89 123 163 207 261 312 363
#     4  10  20  39  64  89 123 163 207 261 312 363
#     4  11  24  41  63  90 125 169 207 255 307 365
#     4  11  24  42  62  92 129 160 207 256 308 376
#     4  11  24  42  62  92 129 160 207 256 308 376
#
# _framework density 20.313005
#
# number of rings (size 3 to 8) (size 9 to 14) (size 15 to 20)
#    0.000    1.429    2.857    2.143    4.000    0.571 
#    0.000    0.000    0.000    5.143    0.000    0.000 
#    0.000    0.000    0.000    0.000    0.000    0.000 
#
# Total GULP energy -155996.158848 kJ/mol
# GULP energy per Si atom -5571.291387 kJ/mol
# Density = 2.026677 g / cm^3
# Si number density = 20.313005 Si / 1000 Ang^3
#
#
#
# Elastic Constant Matrix: (Units=GPa)
#
#
# Indices 1 2 3 4 5 6 
#
# 1 82.9640 9.5633 -7.3941 0.0000 -10.8668 0.0000
# 2 9.5633 68.2456 4.6043 0.0000 14.8456 0.0000
# 3 -7.3941 4.6043 56.2442 0.0000 -8.9336 0.0000
# 4 0.0000 0.0000 0.0000 20.5730 0.0000 0.5228
# 5 -10.8668 14.8456 -8.9336 0.0000 27.0854 0.0000
# 6 0.0000 0.0000 0.0000 0.5228 0.0000 44.7947
#
#
#
# Elastic Compliance Matrix: (Units=1/GPa)
#
#
# Indices 1 2 3 4 5 6 
#
# 1 0.014062 -0.004207 0.003646 0.000000 0.009150 0.000000
# 2 -0.004207 0.018378 -0.004143 0.000000 -0.013127 0.000000
# 3 0.003646 -0.004143 0.020252 0.000000 0.010413 0.000000
# 4 0.000000 0.000000 0.000000 0.048622 0.000000 -0.000567
# 5 0.009150 -0.013127 0.010413 0.000000 0.051221 0.000000
# 6 0.000000 0.000000 0.000000 -0.000567 0.000000 0.022331
#
#
# Mechanical properties :
#
#
# Convention : Reuss Voigt Hill
#
# Bulk Modulus (GPa) = 23.10254 24.55565 23.82909
# Shear Modulus (GPa) = 25.16361 31.86931 28.51646
#
# Velocity S-wave (km/s) = 3.52347 3.96525 3.75087
# Velocity P-wave (km/s) = 5.28688 5.75144 5.52405
#
# Compressibility (1/GPa) = 0.04328528
#
# Stress axis : x y z
#
# Youngs Moduli (GPa) = 71.11431 54.41433 49.37755
#
# Poissons Ratio (x) = 0.22892 -0.18005
# Poissons Ratio (y) = 0.29918 0.20455
# Poissons Ratio (z) = -0.25931 0.22541
#
# Static dielectric constant tensor:
#      x y z
#    x 1.790060 0.000000 0.027620 
#    y 0.000000 1.689310 0.000000 
#    z 0.027620 0.000000 1.786470 
# 
# From -- ./inp_files/3041.got.cif
#   From: 2010.05.17/outbox.cif.g08.bks.cpg/sg11_2_cif.got.tgz:3041.got - 2010.06.03 12:22:45.
