data_PCOD9164936
_publ_section_title
;
Structure prediction by ZEFSAII (Michael W. Deem and Ramdas Pophale) SiO2 
 PCOD9164936
Probable space group: P 21/M
;
_chemical_formula_sum "Si O2"
_cell_formula_units_Z 32
_cell_length_a 13.328074
_cell_length_b 14.631295
_cell_length_c 18.682410
_cell_angle_alpha 90.000000
_cell_angle_beta 152.309974
_cell_angle_gamma 90.000000
_cell_volume 1692.951180
_symmetry_space_group_name_H-M "P 21/M"
_symmetry_group_IT_number 11
_symmetry_cell_setting 'monoclinic'
loop_
_space_group_symop_operation_xyz
x,y,z
-x,1/2+y,-z
-x,-y,-z
x,1/2-y,z
loop_
_atom_site_type_symbol
_atom_site_label
_atom_site_fract_x
_atom_site_fract_y
_atom_site_fract_z
Si Si1 0.361250 0.003288 0.235289
Si Si2 0.256177 0.859850 0.530482
Si Si3 0.082148 0.857755 0.809702
Si Si4 0.983373 0.503324 0.109338
Si Si5 0.564538 0.138768 0.078147
Si Si6 0.264762 0.142245 0.537262
Si Si7 0.079147 0.359850 0.804780
Si Si8 0.105505 0.638768 0.591851
O O1 0.514787 0.091642 0.332555
O O2 0.204524 0.999946 0.204525
O O3 0.523638 0.917848 0.336542
O O4 0.209937 0.003354 0.069974
O O5 0.278100 0.750000 0.544581
O O6 0.148024 0.888104 0.537462
O O7 0.099682 0.886254 0.366571
O O8 0.096239 0.750000 0.835506
O O9 0.893357 0.868724 0.631107
O O10 0.037506 0.917860 0.850470
O O11 0.302984 0.887040 0.908999
O O12 0.967964 0.591656 0.150269
O O13 0.569792 0.250000 0.082547
O O14 0.701812 0.107526 0.233911
O O15 0.316345 0.111887 0.926832
O O16 0.313974 0.250000 0.574776
O O17 0.120913 0.112952 0.514962
O O18 0.077614 0.250000 0.811060
O O19 0.108192 0.750000 0.595396
#
# Coordination Sequence:
#
# PCOD9164936 Si02
#       8
#     4   4   4   4   4   4   4   4
#     4  11  25  41  56  78 109 148 193 234 274 326
#     4  10  21  37  59  86 113 144 183 227 276 328
#     4   9  19  37  61  87 114 145 181 225 278 330
#     4  11  25  41  56  78 109 148 193 234 274 326
#     4   8  15  31  56  85 115 144 175 216 271 333
#     4   9  19  37  61  87 114 145 181 225 278 330
#     4  10  21  37  59  86 113 144 183 227 276 328
#     4   8  15  31  56  85 115 144 175 216 271 333
#
# _framework density 18.901904999999999
#
# number of rings (size 3 to 8) (size 9 to 14) (size 15 to 20)
#    0.000    2.500    0.000    3.000    0.000    7.000 
#    0.000    7.500    0.000    0.000    0.000    0.000 
#    0.000    0.000    0.000    0.000    0.000    0.000 
#
# Total GULP energy -178708.962819 kJ/mol
# GULP energy per Si atom -5584.655088 kJ/mol
# Density = 1.885888 g / cm^3
# Si number density = 18.901905 Si / 1000 Ang^3
#
#
#
# Elastic Constant Matrix: (Units=GPa)
#
#
# Indices 1 2 3 4 5 6 
#
# 1 276.9885 51.3823 -15.8494 0.0000 -95.2682 0.0000
# 2 51.3823 73.2930 41.4578 0.0000 3.7926 0.0000
# 3 -15.8494 41.4578 207.4404 0.0000 126.4157 0.0000
# 4 0.0000 0.0000 0.0000 27.0983 0.0000 1.9433
# 5 -95.2682 3.7926 126.4157 0.0000 125.6230 0.0000
# 6 0.0000 0.0000 0.0000 1.9433 0.0000 30.9298
#
#
#
# Elastic Compliance Matrix: (Units=1/GPa)
#
#
# Indices 1 2 3 4 5 6 
#
# 1 0.008341 -0.002511 -0.007141 0.000000 0.013587 0.000000
# 2 -0.002511 0.018768 -0.006301 0.000000 0.003870 0.000000
# 3 -0.007141 -0.006301 0.022544 0.000000 -0.027911 0.000000
# 4 0.000000 0.000000 0.000000 0.037070 0.000000 -0.002329
# 5 0.013587 0.003870 -0.027911 0.000000 0.046235 0.000000
# 6 0.000000 0.000000 0.000000 -0.002329 0.000000 0.032478
#
#
# Mechanical properties :
#
#
# Convention : Reuss Voigt Hill
#
# Bulk Modulus (GPa) = 56.35059 79.07813 67.71436
# Shear Modulus (GPa) = 24.59946 68.77897 46.68921
#
# Velocity S-wave (km/s) = 3.61144 6.03873 4.97538
# Velocity P-wave (km/s) = 6.87509 9.51570 8.30107
#
# Compressibility (1/GPa) = 0.01774604
#
# Stress axis : x y z
#
# Youngs Moduli (GPa) = 119.89455 53.28153 44.35837
#
# Poissons Ratio (x) = 0.13379 0.31676
# Poissons Ratio (y) = 0.30106 0.27951
# Poissons Ratio (z) = 0.85617 0.33574
#
# Static dielectric constant tensor:
#      x y z
#    x 1.626690 0.000000 0.000000 
#    y 0.000000 1.684010 0.000000 
#    z 0.000000 0.000000 1.626700 
# 
# From -- ./inp_files/59499.got.cif
#   From: 2010.05.17/outbox.cif.g08.bks.cpg/sg11_30_cif.got.tgz:59499.got - 2010.06.03 12:22:45.
