data_PCOD9164881
_publ_section_title
;
Structure prediction by ZEFSAII (Michael W. Deem and Ramdas Pophale) SiO2 
 PCOD9164881
Probable space group: P 21/M
;
_chemical_formula_sum "Si O2"
_cell_formula_units_Z 24
_cell_length_a 9.072624
_cell_length_b 18.383876
_cell_length_c 15.389223
_cell_angle_alpha 90.000000
_cell_angle_beta 32.035518
_cell_angle_gamma 90.000000
_cell_volume 1361.529148
_symmetry_space_group_name_H-M "P 21/M"
_symmetry_group_IT_number 11
_symmetry_cell_setting 'monoclinic'
loop_
_space_group_symop_operation_xyz
x,y,z
-x,1/2+y,-z
-x,-y,-z
x,1/2-y,z
loop_
_atom_site_type_symbol
_atom_site_label
_atom_site_fract_x
_atom_site_fract_y
_atom_site_fract_z
Si Si1 0.697008 0.536196 0.655712
Si Si2 0.362811 0.166693 0.450201
Si Si3 0.639813 0.947400 0.305163
Si Si4 0.025478 0.665060 0.186471
Si Si5 0.579666 0.575031 0.912904
Si Si6 0.816589 0.087775 0.324079
O O1 0.690393 0.607036 0.596955
O O2 0.470927 0.479963 0.729266
O O3 0.629017 0.557737 0.787321
O O4 0.000000 0.500000 0.500000
O O5 0.348373 0.250000 0.427471
O O6 0.142726 0.156001 0.638733
O O7 0.659392 0.148263 0.345942
O O8 0.852436 0.880687 0.201547
O O9 0.367744 0.925037 0.497142
O O10 0.787327 0.012667 0.284746
O O11 0.034329 0.750000 0.161043
O O12 0.328002 0.631148 0.046431
O O13 0.868028 0.602752 0.809502
O O14 0.500000 0.500000 0.000000
#
# Coordination Sequence:
#
# PCOD9164881 Si02
#       6
#     4   4   4   4   4   4
#     4  11  21  35  61  88 112 147 197 244 274 330
#     4   9  20  40  61  80 111 155 192 229 284 343
#     4   9  17  36  57  82 108 147 193 229 273 341
#     4  10  21  37  58  82 117 152 183 231 295 346
#     4  12  22  35  57  90 119 145 187 241 294 336
#     4   9  17  33  60  83 109 145 190 230 274 344
#
# _framework density 17.627237999999998
#
# number of rings (size 3 to 8) (size 9 to 14) (size 15 to 20)
#    0.000    2.000    3.333    2.000    0.000    2.000 
#    0.000    0.833    0.000    1.000    0.000    0.000 
#    0.000    0.000    0.000    0.000    0.000    0.000 
#
# Total GULP energy -133958.748829 kJ/mol
# GULP energy per Si atom -5581.614535 kJ/mol
# Density = 1.758712 g / cm^3
# Si number density = 17.627238 Si / 1000 Ang^3
#
#
#
# Elastic Constant Matrix: (Units=GPa)
#
#
# Indices 1 2 3 4 5 6 
#
# 1 119.3319 59.9155 63.2981 0.0000 -23.7397 0.0000
# 2 59.9155 118.4559 56.6655 0.0000 -14.3781 0.0000
# 3 63.2981 56.6655 82.6805 0.0000 -31.6596 0.0000
# 4 0.0000 0.0000 0.0000 23.2940 0.0000 -6.2266
# 5 -23.7397 -14.3781 -31.6596 0.0000 36.1038 0.0000
# 6 0.0000 0.0000 0.0000 -6.2266 0.0000 22.3850
#
#
#
# Elastic Compliance Matrix: (Units=1/GPa)
#
#
# Indices 1 2 3 4 5 6 
#
# 1 0.014838 -0.003141 -0.008958 0.000000 0.000651 0.000000
# 2 -0.003141 0.013587 -0.008470 0.000000 -0.004082 0.000000
# 3 -0.008958 -0.008470 0.031933 0.000000 0.018739 0.000000
# 4 0.000000 0.000000 0.000000 0.046378 0.000000 0.012900
# 5 0.000651 -0.004082 0.018739 0.000000 0.042932 0.000000
# 6 0.000000 0.000000 0.000000 0.012900 0.000000 0.048261
#
#
# Mechanical properties :
#
#
# Convention : Reuss Voigt Hill
#
# Bulk Modulus (GPa) = 52.02914 75.58074 63.80494
# Shear Modulus (GPa) = 20.36866 25.72917 23.04891
#
# Velocity S-wave (km/s) = 3.40298 3.82465 3.61996
# Velocity P-wave (km/s) = 6.70975 7.90407 7.33127
#
# Compressibility (1/GPa) = 0.01922000
#
# Stress axis : x y z
#
# Youngs Moduli (GPa) = 67.39427 73.59847 31.31528
#
# Poissons Ratio (x) = 0.23118 0.28052
# Poissons Ratio (y) = 0.21169 0.26525
# Poissons Ratio (z) = 0.60370 0.62341
#
# Static dielectric constant tensor:
#      x y z
#    x 1.589590 0.000000 -0.000760 
#    y 0.000000 1.589380 0.000000 
#    z -0.000760 0.000000 1.600680 
# 
# From -- ./inp_files/13931.got.cif
#   From: 2010.05.17/outbox.cif.g08.bks.cpg/sg11_7_cif.got.tgz:13931.got - 2010.06.03 12:22:45.
