data_PCOD9164471
_publ_section_title
;
Structure prediction by ZEFSAII (Michael W. Deem and Ramdas Pophale) SiO2 
 PCOD9164471
Probable space group: P 21/M
;
_chemical_formula_sum "Si O2"
_cell_formula_units_Z 32
_cell_length_a 10.948634
_cell_length_b 8.394565
_cell_length_c 16.705603
_cell_angle_alpha 90.000000
_cell_angle_beta 85.620745
_cell_angle_gamma 90.000000
_cell_volume 1530.912954
_symmetry_space_group_name_H-M "P 21/M"
_symmetry_group_IT_number 11
_symmetry_cell_setting 'monoclinic'
loop_
_space_group_symop_operation_xyz
x,y,z
-x,1/2+y,-z
-x,-y,-z
x,1/2-y,z
loop_
_atom_site_type_symbol
_atom_site_label
_atom_site_fract_x
_atom_site_fract_y
_atom_site_fract_z
Si Si1 0.629827 0.937827 0.461974
Si Si2 0.128843 0.061084 0.458967
Si Si3 0.193767 0.556168 0.964775
Si Si4 0.716473 0.058896 0.876993
Si Si5 0.144297 0.937642 0.279468
Si Si6 0.343968 0.562214 0.716193
Si Si7 0.077180 0.560894 0.811551
Si Si8 0.454199 0.941903 0.873706
O O1 0.629458 0.750000 0.475675
O O2 0.750679 0.004640 0.501196
O O3 0.500000 0.000000 0.500000
O O4 0.642634 0.973138 0.367426
O O5 0.127504 0.250000 0.470013
O O6 0.138875 0.021765 0.364760
O O7 0.000000 0.000000 0.500000
O O8 0.185979 0.750000 0.964741
O O9 0.098523 0.502046 0.901805
O O10 0.329179 0.514499 0.925037
O O11 0.194991 0.499225 0.056213
O O12 0.728496 0.250000 0.874840
O O13 0.753120 0.999268 0.787377
O O14 0.576910 0.015945 0.901829
O O15 0.161773 0.750000 0.293050
O O16 0.020922 0.966090 0.234873
O O17 0.364888 0.750000 0.700444
O O18 0.208382 0.547137 0.760690
O O19 0.435379 0.509034 0.782038
O O20 0.045809 0.750000 0.813974
O O21 0.462946 0.750000 0.875982
#
# Coordination Sequence:
#
# PCOD9164471 Si02
#       8
#     4   4   4   4   4   4   4   4
#     4  11  25  41  61  90 121 154 194 242 299 359
#     4  11  25  45  68  92 119 157 203 250 300 363
#     4   8  16  34  57  81 111 149 193 239 290 341
#     4  10  21  35  52  79 117 155 190 235 288 341
#     4  11  24  38  55  84 120 154 190 238 291 345
#     4   9  19  36  58  84 112 144 185 236 289 343
#     4   9  18  36  61  83 108 150 197 239 288 343
#     4   9  18  33  56  82 110 147 191 236 282 342
#
# _framework density 20.902560000000001
#
# number of rings (size 3 to 8) (size 9 to 14) (size 15 to 20)
#    0.000    2.250    0.000    3.750    1.750    6.500 
#    0.000    2.500    0.000    0.000    0.000    0.000 
#    0.000    0.000    0.000    0.000    0.000    0.000 
#
# Total GULP energy -178672.574737 kJ/mol
# GULP energy per Si atom -5583.517961 kJ/mol
# Density = 2.085498 g / cm^3
# Si number density = 20.902560 Si / 1000 Ang^3
#
#
#
# Elastic Constant Matrix: (Units=GPa)
#
#
# Indices 1 2 3 4 5 6 
#
# 1 93.7566 10.8129 38.8369 0.0000 11.8279 0.0000
# 2 10.8129 15.1059 6.9721 0.0000 -3.8521 0.0000
# 3 38.8369 6.9721 115.3537 0.0000 12.0457 0.0000
# 4 0.0000 0.0000 0.0000 13.0104 0.0000 6.7031
# 5 11.8279 -3.8521 12.0457 0.0000 25.8574 0.0000
# 6 0.0000 0.0000 0.0000 6.7031 0.0000 25.1959
#
#
#
# Elastic Compliance Matrix: (Units=1/GPa)
#
#
# Indices 1 2 3 4 5 6 
#
# 1 0.014060 -0.010077 -0.003465 0.000000 -0.006319 0.000000
# 2 -0.010077 0.079519 -0.003292 0.000000 0.017989 0.000000
# 3 -0.003465 -0.003292 0.010427 0.000000 -0.003763 0.000000
# 4 0.000000 0.000000 0.000000 0.089071 0.000000 -0.023696
# 5 -0.006319 0.017989 -0.003763 0.000000 0.045997 0.000000
# 6 0.000000 0.000000 0.000000 -0.023696 0.000000 0.045993
#
#
# Mechanical properties :
#
#
# Convention : Reuss Voigt Hill
#
# Bulk Modulus (GPa) = 14.21672 37.49555 25.85614
# Shear Modulus (GPa) = 14.61210 23.98568 19.29889
#
# Velocity S-wave (km/s) = 2.64684 3.39115 3.04185
# Velocity P-wave (km/s) = 4.01960 5.77152 4.97331
#
# Compressibility (1/GPa) = 0.07033973
#
# Stress axis : x y z
#
# Youngs Moduli (GPa) = 71.12132 12.57556 95.90027
#
# Poissons Ratio (x) = 0.12672 0.33229
# Poissons Ratio (y) = 0.71667 0.31572
# Poissons Ratio (z) = 0.24643 0.04140
#
# Static dielectric constant tensor:
#      x y z
#    x 1.757520 0.000000 0.000440 
#    y 0.000000 1.668600 0.000000 
#    z 0.000440 0.000000 1.762200 
# 
# From -- ./inp_files/49333.got.cif
#   From: 2010.05.17/outbox.cif.g08.bks.cpg/sg11_25_cif.got.tgz:49333.got - 2010.06.03 12:22:45.
