data_PCOD9164965
_publ_section_title
;
Structure prediction by ZEFSAII (Michael W. Deem and Ramdas Pophale) SiO2 
 PCOD9164965
Probable space group: P 21/M
;
_chemical_formula_sum "Si O2"
_cell_formula_units_Z 30
_cell_length_a 13.965020
_cell_length_b 7.843892
_cell_length_c 12.654035
_cell_angle_alpha 90.000000
_cell_angle_beta 95.728278
_cell_angle_gamma 90.000000
_cell_volume 1379.202660
_symmetry_space_group_name_H-M "P 21/M"
_symmetry_group_IT_number 11
_symmetry_cell_setting 'monoclinic'
loop_
_space_group_symop_operation_xyz
x,y,z
-x,1/2+y,-z
-x,-y,-z
x,1/2-y,z
loop_
_atom_site_type_symbol
_atom_site_label
_atom_site_fract_x
_atom_site_fract_y
_atom_site_fract_z
Si Si1 0.523873 0.953531 0.882283
Si Si2 0.664429 0.042400 0.271812
Si Si3 0.940103 0.565785 0.591291
Si Si4 0.051747 0.750000 0.786418
Si Si5 0.828437 0.560356 0.127255
Si Si6 0.239712 0.554025 0.317957
Si Si7 0.260443 0.552008 0.097152
Si Si8 0.611495 0.044194 0.500741
O O1 0.534522 0.750000 0.873815
O O2 0.434852 0.004636 0.798339
O O3 0.625574 0.037947 0.868980
O O4 0.500000 0.000000 0.000000
O O5 0.674304 0.250000 0.268691
O O6 0.654766 0.988575 0.392598
O O7 0.753869 0.969535 0.216134
O O8 0.896166 0.750000 0.557687
O O9 0.852790 0.450358 0.618024
O O10 0.000000 0.500000 0.500000
O O11 0.009232 0.604766 0.697594
O O12 0.098664 0.596880 0.862882
O O13 0.870796 0.750000 0.139343
O O14 0.768150 0.546136 0.011581
O O15 0.265201 0.750000 0.297830
O O16 0.215135 0.478554 0.200467
O O17 0.327402 0.475879 0.393510
O O18 0.234886 0.750000 0.077096
O O19 0.619985 0.250000 0.501974
O O20 0.500000 0.000000 0.500000
#
# Coordination Sequence:
#
# PCOD9164965 Si02
#       8
#     4   4   4   2   4   4   4   4
#     4  11  21  33  54  90 129 182 232 281 334 406
#     4  10  21  37  59  90 138 178 224 286 347 400
#     4  10  24  44  73 101 134 172 221 283 344 413
#     4  10  26  48  70 104 144 162 230 290 344 406
#     4  12  24  41  70 100 133 184 226 282 352 412
#     4  10  23  42  70  98 133 182 230 281 347 414
#     4  11  22  40  64  92 138 183 232 289 344 412
#     4  10  22  39  61  94 135 179 225 276 338 405
#
# _framework density 21.751698000000001
#
# number of rings (size 3 to 8) (size 9 to 14) (size 15 to 20)
#    0.400    1.067    2.667    2.000    1.867    3.733 
#    0.000    0.667    0.000    0.000    0.000    0.000 
#    0.000    0.000    0.000    0.000    0.000    0.000 
#
# Total GULP energy -167026.623039 kJ/mol
# GULP energy per Si atom -5567.554101 kJ/mol
# Density = 2.170219 g / cm^3
# Si number density = 21.751698 Si / 1000 Ang^3
#
#
#
# Elastic Constant Matrix: (Units=GPa)
#
#
# Indices 1 2 3 4 5 6 
#
# 1 25.6064 7.6845 12.6816 0.0000 -4.0081 0.0000
# 2 7.6845 84.0366 15.7304 0.0000 12.4180 0.0000
# 3 12.6816 15.7304 91.8967 0.0000 -10.1485 0.0000
# 4 0.0000 0.0000 0.0000 15.0992 0.0000 8.5887
# 5 -4.0081 12.4180 -10.1485 0.0000 35.0605 0.0000
# 6 0.0000 0.0000 0.0000 8.5887 0.0000 28.0622
#
#
#
# Elastic Compliance Matrix: (Units=1/GPa)
#
#
# Indices 1 2 3 4 5 6 
#
# 1 0.043331 -0.003792 -0.004788 0.000000 0.004910 0.000000
# 2 -0.003792 0.013587 -0.002461 0.000000 -0.005958 0.000000
# 3 -0.004788 -0.002461 0.012396 0.000000 0.003912 0.000000
# 4 0.000000 0.000000 0.000000 0.080189 0.000000 -0.024543
# 5 0.004910 -0.005958 0.003912 0.000000 0.032326 0.000000
# 6 0.000000 0.000000 0.000000 -0.024543 0.000000 0.043147
#
#
# Mechanical properties :
#
#
# Convention : Reuss Voigt Hill
#
# Bulk Modulus (GPa) = 21.17171 30.41475 25.79323
# Shear Modulus (GPa) = 19.02586 26.67394 22.84990
#
# Velocity S-wave (km/s) = 2.96071 3.50564 3.24464
# Velocity P-wave (km/s) = 4.63058 5.51354 5.09124
#
# Compressibility (1/GPa) = 0.04723285
#
# Stress axis : x y z
#
# Youngs Moduli (GPa) = 23.07842 73.59810 80.67266
#
# Poissons Ratio (x) = 0.27905 0.38628
# Poissons Ratio (y) = 0.08750 0.19850
# Poissons Ratio (z) = 0.11050 0.18109
#
# Static dielectric constant tensor:
#      x y z
#    x 1.819790 0.000000 -0.019460 
#    y 0.000000 1.821850 0.000000 
#    z -0.019460 0.000000 1.844410 
# 
# From -- ./inp_files/37561.got.cif
#   From: 2010.05.17/outbox.cif.g08.bks.cpg/sg11_19_cif.got.tgz:37561.got - 2010.06.03 12:22:45.
