data_PCOD9164860
_publ_section_title
;
Structure prediction by ZEFSAII (Michael W. Deem and Ramdas Pophale) SiO2 
 PCOD9164860
Probable space group: P 21/M
;
_chemical_formula_sum "Si O2"
_cell_formula_units_Z 28
_cell_length_a 16.146119
_cell_length_b 8.546836
_cell_length_c 21.858986
_cell_angle_alpha 90.000000
_cell_angle_beta 151.691238
_cell_angle_gamma 90.000000
_cell_volume 1430.493896
_symmetry_space_group_name_H-M "P 21/M"
_symmetry_group_IT_number 11
_symmetry_cell_setting 'monoclinic'
loop_
_space_group_symop_operation_xyz
x,y,z
-x,1/2+y,-z
-x,-y,-z
x,1/2-y,z
loop_
_atom_site_type_symbol
_atom_site_label
_atom_site_fract_x
_atom_site_fract_y
_atom_site_fract_z
Si Si1 0.231708 0.938488 0.302448
Si Si2 0.723935 0.562479 0.427343
Si Si3 0.584231 0.937791 0.465690
Si Si4 0.432776 0.060773 0.152129
Si Si5 0.922166 0.939211 0.013529
Si Si6 0.071027 0.435422 0.611070
Si Si7 0.445006 0.937097 0.897816
O O1 0.234850 0.750000 0.306583
O O2 0.398922 0.993828 0.371534
O O3 0.264925 0.002257 0.391445
O O4 0.057360 0.986555 0.154636
O O5 0.744664 0.750000 0.439047
O O6 0.616756 0.514922 0.417744
O O7 0.609779 0.507370 0.295744
O O8 0.911766 0.482164 0.551626
O O9 0.582250 0.750000 0.466565
O O10 0.439552 0.250000 0.159373
O O11 0.269085 0.008660 0.087598
O O12 0.429776 0.016650 0.078248
O O13 0.919624 0.750000 0.008178
O O14 0.000000 0.000000 0.000000
O O15 0.091397 0.250000 0.619538
O O16 0.251484 0.507743 0.752144
O O17 0.000000 0.500000 0.500000
O O18 0.446124 0.750000 0.901681
O O19 0.500000 0.000000 0.000000
#
# Coordination Sequence:
#
# PCOD9164860 Si02
#       7
#     4   4   4   4   4   4   4
#     4   9  18  34  54  77 113 154 192 238 293 351
#     4  11  22  37  61  90 120 154 199 250 304 365
#     4   9  19  34  53  81 113 149 193 242 293 353
#     4  10  22  39  60  86 120 159 203 252 305 370
#     4  10  21  37  57  84 116 154 198 244 297 360
#     4  12  24  41  65  92 122 159 203 254 309 368
#     4  11  24  43  65  93 130 170 211 260 316 377
#
# _framework density 19.573657999999998
#
# number of rings (size 3 to 8) (size 9 to 14) (size 15 to 20)
#    0.000    1.714    1.429    3.000    0.000    5.143 
#    0.000    4.286    0.000    0.000    0.000    0.000 
#    0.000    0.000    0.000    0.000    0.000    0.000 
#
# Total GULP energy -156310.561464 kJ/mol
# GULP energy per Si atom -5582.520052 kJ/mol
# Density = 1.952911 g / cm^3
# Si number density = 19.573658 Si / 1000 Ang^3
#
#
#
# Elastic Constant Matrix: (Units=GPa)
#
#
# Indices 1 2 3 4 5 6 
#
# 1 117.2807 30.1082 48.2636 0.0000 -10.6200 0.0000
# 2 30.1082 30.8941 17.2727 0.0000 -2.0803 0.0000
# 3 48.2636 17.2727 110.9276 0.0000 -2.1890 0.0000
# 4 0.0000 0.0000 0.0000 32.1373 0.0000 -4.0690
# 5 -10.6200 -2.0803 -2.1890 0.0000 32.9236 0.0000
# 6 0.0000 0.0000 0.0000 -4.0690 0.0000 28.8713
#
#
#
# Elastic Compliance Matrix: (Units=1/GPa)
#
#
# Indices 1 2 3 4 5 6 
#
# 1 0.013142 -0.010322 -0.004045 0.000000 0.003318 0.000000
# 2 -0.010322 0.043679 -0.002325 0.000000 -0.000724 0.000000
# 3 -0.004045 -0.002325 0.011123 0.000000 -0.000712 0.000000
# 4 0.000000 0.000000 0.000000 0.031682 0.000000 0.004465
# 5 0.003318 -0.000724 -0.000712 0.000000 0.031350 0.000000
# 6 0.000000 0.000000 0.000000 0.004465 0.000000 0.035266
#
#
# Mechanical properties :
#
#
# Convention : Reuss Voigt Hill
#
# Bulk Modulus (GPa) = 28.93525 50.04347 39.48936
# Shear Modulus (GPa) = 23.68039 29.68364 26.68202
#
# Velocity S-wave (km/s) = 3.48200 3.89846 3.69610
# Velocity P-wave (km/s) = 5.56603 6.77394 6.19947
#
# Compressibility (1/GPa) = 0.03455992
#
# Stress axis : x y z
#
# Youngs Moduli (GPa) = 76.09469 22.89414 89.90605
#
# Poissons Ratio (x) = 0.23632 0.36367
# Poissons Ratio (y) = 0.78547 0.20899
# Poissons Ratio (z) = 0.30780 0.05322
#
# Static dielectric constant tensor:
#      x y z
#    x 1.725810 0.000000 0.017820 
#    y 0.000000 1.664490 0.000000 
#    z 0.017820 0.000000 1.674430 
# 
# From -- ./inp_files/65477.got.cif
#   From: 2010.05.17/outbox.cif.g08.bks.cpg/sg11_33_cif.got.tgz:65477.got - 2010.06.03 12:22:45.
