data_PCOD9164591
_publ_section_title
;
Structure prediction by ZEFSAII (Michael W. Deem and Ramdas Pophale) SiO2 
 PCOD9164591
Probable space group: P 21/M
;
_chemical_formula_sum "Si O2"
_cell_formula_units_Z 32
_cell_length_a 12.371888
_cell_length_b 28.631981
_cell_length_c 7.214792
_cell_angle_alpha 90.000000
_cell_angle_beta 150.552919
_cell_angle_gamma 90.000000
_cell_volume 1256.435722
_symmetry_space_group_name_H-M "P 21/M"
_symmetry_group_IT_number 11
_symmetry_cell_setting 'monoclinic'
loop_
_space_group_symop_operation_xyz
x,y,z
-x,1/2+y,-z
-x,-y,-z
x,1/2-y,z
loop_
_atom_site_type_symbol
_atom_site_label
_atom_site_fract_x
_atom_site_fract_y
_atom_site_fract_z
Si Si1 0.542405 0.698143 0.322012
Si Si2 0.025665 0.492276 0.762406
Si Si3 0.609810 0.571327 0.747241
Si Si4 0.141616 0.195548 0.513112
Si Si5 0.360590 0.047931 0.782966
Si Si6 0.227585 0.597657 0.663179
Si Si7 0.889391 0.663907 0.106714
Si Si8 0.211731 0.874780 0.021084
O O1 0.446952 0.750000 0.185764
O O2 0.623059 0.688429 0.233485
O O3 0.768308 0.696076 0.778202
O O4 0.373608 0.663473 0.167451
O O5 0.886890 0.534588 0.646597
O O6 0.000000 0.500000 0.500000
O O7 0.276189 0.475256 0.169548
O O8 0.880585 0.446616 0.596791
O O9 0.641316 0.566529 0.012154
O O10 0.751240 0.615656 0.892883
O O11 0.358957 0.587227 0.344094
O O12 0.081568 0.250000 0.392291
O O13 0.979530 0.156779 0.181070
O O14 0.136425 0.185636 0.725993
O O15 0.517741 0.085044 0.916907
O O16 0.500000 0.000000 0.000000
O O17 0.118619 0.598776 0.703570
O O18 0.139592 0.646044 0.446366
#
# Coordination Sequence:
#
# PCOD9164591 Si02
#       8
#     4   4   4   4   4   4   4   4
#     4  10  21  37  57  80 113 148 182 226 276 326
#     4   8  15  32  50  70 100 137 174 213 267 323
#     4   9  18  32  54  74 104 142 178 222 272 321
#     4  10  21  37  57  81 113 149 182 224 279 325
#     4   9  17  30  51  74 100 137 176 215 267 328
#     4   9  18  31  52  77 103 137 177 222 269 318
#     4   9  19  35  55  80 108 145 187 224 267 327
#     4  10  21  36  53  82 111 137 183 234 268 324
#
# _framework density 25.468869999999999
#
# number of rings (size 3 to 8) (size 9 to 14) (size 15 to 20)
#    0.000    2.750    0.000    0.750    3.500    0.000 
#    0.000    6.250    0.000    7.500    0.000    0.000 
#    0.000    0.000    0.000    0.000    0.000    0.000 
#
# Total GULP energy -178528.712626 kJ/mol
# GULP energy per Si atom -5579.022270 kJ/mol
# Density = 2.541090 g / cm^3
# Si number density = 25.468870 Si / 1000 Ang^3
#
#
#
# Elastic Constant Matrix: (Units=GPa)
#
#
# Indices 1 2 3 4 5 6 
#
# 1 66.0880 21.0367 3.0863 0.0000 10.3617 0.0000
# 2 21.0367 89.7208 12.8929 0.0000 11.6168 0.0000
# 3 3.0863 12.8929 84.4981 0.0000 13.2864 0.0000
# 4 0.0000 0.0000 0.0000 32.3561 0.0000 12.8466
# 5 10.3617 11.6168 13.2864 0.0000 33.7706 0.0000
# 6 0.0000 0.0000 0.0000 12.8466 0.0000 35.6307
#
#
#
# Elastic Compliance Matrix: (Units=1/GPa)
#
#
# Indices 1 2 3 4 5 6 
#
# 1 0.016876 -0.003496 0.000578 0.000000 -0.004203 0.000000
# 2 -0.003496 0.012509 -0.001357 0.000000 -0.002697 0.000000
# 3 0.000578 -0.001357 0.012765 0.000000 -0.004732 0.000000
# 4 0.000000 0.000000 0.000000 0.036069 0.000000 -0.013005
# 5 -0.004203 -0.002697 -0.004732 0.000000 0.033691 0.000000
# 6 0.000000 0.000000 0.000000 -0.013005 0.000000 0.032755
#
#
# Mechanical properties :
#
#
# Convention : Reuss Voigt Hill
#
# Bulk Modulus (GPa) = 29.76162 34.92652 32.34407
# Shear Modulus (GPa) = 30.41089 33.90422 32.15755
#
# Velocity S-wave (km/s) = 3.45924 3.65252 3.55719
# Velocity P-wave (km/s) = 5.25985 5.61525 5.44045
#
# Compressibility (1/GPa) = 0.03360032
#
# Stress axis : x y z
#
# Youngs Moduli (GPa) = 59.25564 79.93933 78.34124
#
# Poissons Ratio (x) = 0.27945 -0.04527
# Poissons Ratio (y) = 0.20714 0.10631
# Poissons Ratio (z) = -0.03424 0.10848
#
# Static dielectric constant tensor:
#      x y z
#    x 1.103710 0.000000 0.643200 
#    y 0.000000 1.968840 0.000000 
#    z 0.643200 0.000000 1.748370 
# 
# From -- ./inp_files/23462.got.cif
#   From: 2010.05.17/outbox.cif.g08.bks.cpg/sg11_12_cif.got.tgz:23462.got - 2010.06.03 12:22:45.
