data_PCOD9164914
_publ_section_title
;
Structure prediction by ZEFSAII (Michael W. Deem and Ramdas Pophale) SiO2 
 PCOD9164914
Probable space group: P 21/M
;
_chemical_formula_sum "Si O2"
_cell_formula_units_Z 28
_cell_length_a 27.789948
_cell_length_b 8.698428
_cell_length_c 9.974029
_cell_angle_alpha 90.000000
_cell_angle_beta 141.638180
_cell_angle_gamma 90.000000
_cell_volume 1496.334503
_symmetry_space_group_name_H-M "P 21/M"
_symmetry_group_IT_number 11
_symmetry_cell_setting 'monoclinic'
loop_
_space_group_symop_operation_xyz
x,y,z
-x,1/2+y,-z
-x,-y,-z
x,1/2-y,z
loop_
_atom_site_type_symbol
_atom_site_label
_atom_site_fract_x
_atom_site_fract_y
_atom_site_fract_z
Si Si1 0.359307 0.434395 0.473569
Si Si2 0.515918 0.934321 0.886501
Si Si3 0.683920 0.565354 0.316121
Si Si4 0.768422 0.434854 0.003473
Si Si5 0.980937 0.065092 0.813873
Si Si6 0.194655 0.564957 0.618285
Si Si7 0.068668 0.435305 0.742939
O O1 0.360514 0.250000 0.474356
O O2 0.446949 0.496103 0.648024
O O3 0.329258 0.482563 0.557444
O O4 0.301640 0.497791 0.235988
O O5 0.509805 0.750000 0.874238
O O6 0.605994 0.975441 0.061592
O O7 0.500000 0.000000 0.000000
O O8 0.690238 0.750000 0.330866
O O9 0.757674 0.496001 0.403852
O O10 0.766898 0.250000 0.994333
O O11 0.767734 0.483174 0.158182
O O12 0.849568 0.494315 0.120436
O O13 0.979868 0.250000 0.817596
O O14 0.894947 0.013952 0.581442
O O15 0.044089 0.021918 0.840420
O O16 0.000000 0.000000 0.000000
O O17 0.195171 0.750000 0.615906
O O18 0.071345 0.250000 0.738150
O O19 0.000000 0.500000 0.500000
#
# Coordination Sequence:
#
# PCOD9164914 Si02
#       7
#     4   4   4   4   4   4   4
#     4  10  21  37  58  88 117 146 190 238 282 337
#     4   9  17  33  56  84 116 150 188 233 282 335
#     4   9  20  36  57  85 116 147 185 232 281 334
#     4  11  23  40  59  83 115 151 192 236 283 337
#     4  10  23  41  58  83 115 147 188 237 281 334
#     4  10  22  40  57  80 115 150 188 233 283 337
#     4  11  22  40  62  84 113 149 191 235 281 336
#
# _framework density 18.712392999999999
#
# number of rings (size 3 to 8) (size 9 to 14) (size 15 to 20)
#    0.000    2.000    1.429    2.571    2.000    6.286 
#    0.000    0.714    0.000    0.000    0.000    0.000 
#    0.000    0.000    0.000    0.000    0.000    0.000 
#
# Total GULP energy -156271.110760 kJ/mol
# GULP energy per Si atom -5581.111099 kJ/mol
# Density = 1.866980 g / cm^3
# Si number density = 18.712393 Si / 1000 Ang^3
#
#
#
# Elastic Constant Matrix: (Units=GPa)
#
#
# Indices 1 2 3 4 5 6 
#
# 1 31.6824 1.2230 -12.3116 0.0000 -12.2328 0.0000
# 2 1.2230 30.7337 14.0084 0.0000 -3.6665 0.0000
# 3 -12.3116 14.0084 96.6226 0.0000 -10.9036 0.0000
# 4 0.0000 0.0000 0.0000 36.2385 0.0000 2.7635
# 5 -12.2328 -3.6665 -10.9036 0.0000 28.1571 0.0000
# 6 0.0000 0.0000 0.0000 2.7635 0.0000 29.7711
#
#
#
# Elastic Compliance Matrix: (Units=1/GPa)
#
#
# Indices 1 2 3 4 5 6 
#
# 1 0.043311 -0.002963 0.008395 0.000000 0.021682 0.000000
# 2 -0.002963 0.035240 -0.005348 0.000000 0.001231 0.000000
# 3 0.008395 -0.005348 0.013100 0.000000 0.008024 0.000000
# 4 0.000000 0.000000 0.000000 0.027792 0.000000 -0.002580
# 5 0.021682 0.001231 0.008024 0.000000 0.048202 0.000000
# 6 0.000000 0.000000 0.000000 -0.002580 0.000000 0.033829
#
#
# Mechanical properties :
#
#
# Convention : Reuss Voigt Hill
#
# Bulk Modulus (GPa) = 10.89101 18.31982 14.60541
# Shear Modulus (GPa) = 21.55987 29.24126 25.40056
#
# Velocity S-wave (km/s) = 3.39805 3.95735 3.68831
# Velocity P-wave (km/s) = 4.60744 5.54006 5.09513
#
# Compressibility (1/GPa) = 0.09181889
#
# Stress axis : x y z
#
# Youngs Moduli (GPa) = 23.08867 28.37700 76.33585
#
# Poissons Ratio (x) = 0.08409 -0.64084
# Poissons Ratio (y) = 0.06842 0.40823
# Poissons Ratio (z) = -0.19383 0.15175
#
# Static dielectric constant tensor:
#      x y z
#    x 1.627940 0.000000 0.004470 
#    y 0.000000 1.631930 0.000000 
#    z 0.004470 0.000000 1.643720 
# 
# From -- ./inp_files/28231.got.cif
#   From: 2010.05.17/outbox.cif.g08.bks.cpg/sg11_15_cif.got.tgz:28231.got - 2010.06.03 12:22:45.
