data_PCOD9164195
_publ_section_title
;
Structure prediction by ZEFSAII (Michael W. Deem and Ramdas Pophale) SiO2 
 PCOD9164195
Probable space group: P 21/M
;
_chemical_formula_sum "Si O2"
_cell_formula_units_Z 30
_cell_length_a 12.098660
_cell_length_b 9.245339
_cell_length_c 14.945263
_cell_angle_alpha 90.000000
_cell_angle_beta 105.806984
_cell_angle_gamma 90.000000
_cell_volume 1608.504073
_symmetry_space_group_name_H-M "P 21/M"
_symmetry_group_IT_number 11
_symmetry_cell_setting 'monoclinic'
loop_
_space_group_symop_operation_xyz
x,y,z
-x,1/2+y,-z
-x,-y,-z
x,1/2-y,z
loop_
_atom_site_type_symbol
_atom_site_label
_atom_site_fract_x
_atom_site_fract_y
_atom_site_fract_z
Si Si1 0.841385 0.422341 0.202900
Si Si2 0.117598 0.923869 0.995403
Si Si3 0.289974 0.082762 0.680483
Si Si4 0.879304 0.078753 0.490576
Si Si5 0.546527 0.250000 0.497343
Si Si6 0.528632 0.487285 0.647108
Si Si7 0.930741 0.417177 0.699844
Si Si8 0.261746 0.578042 0.194565
O O1 0.830281 0.250000 0.210686
O O2 0.741151 0.504361 0.233717
O O3 0.960486 0.477976 0.272933
O O4 0.851006 0.458224 0.100012
O O5 0.101332 0.750000 0.998334
O O6 0.219082 0.963499 0.086568
O O7 0.000000 0.000000 0.000000
O O8 0.253479 0.250000 0.675464
O O9 0.421432 0.073569 0.680022
O O10 0.216702 0.999091 0.588720
O O11 0.883964 0.250000 0.470487
O O12 0.859819 0.064813 0.592569
O O13 0.000000 0.000000 0.500000
O O14 0.566888 0.374551 0.579396
O O15 0.515687 0.374394 0.415794
O O16 0.634135 0.507962 0.738330
O O17 0.971737 0.250000 0.709911
O O18 0.848821 0.440200 0.765764
O O19 0.290953 0.750000 0.201109
#
# Coordination Sequence:
#
# PCOD9164195 Si02
#       8
#     4   4   4   4   2   4   4   4
#     4  11  23  39  59  89 124 163 206 259 316 368
#     4  10  21  39  65  94 123 163 209 264 323 374
#     4  12  25  40  62  88 126 171 214 251 310 385
#     4  11  23  36  55  87 124 161 204 252 306 371
#     4  10  24  42  66  90 126 166 210 260 302 370
#     4  11  24  43  65  97 127 166 214 255 316 369
#     4  10  21  35  59  87 119 160 203 248 313 376
#     4  10  20  39  65  91 125 161 206 262 317 377
#
# _framework density 18.650869
#
# number of rings (size 3 to 8) (size 9 to 14) (size 15 to 20)
#    0.000    1.333    4.000    1.200    5.600    1.067 
#    2.400    0.667    0.000    0.000    0.000    0.000 
#    0.000    0.000    0.000    0.000    0.000    0.000 
#
# Total GULP energy -167042.643568 kJ/mol
# GULP energy per Si atom -5568.088119 kJ/mol
# Density = 1.860842 g / cm^3
# Si number density = 18.650869 Si / 1000 Ang^3
#
#
#
# Elastic Constant Matrix: (Units=GPa)
#
#
# Indices 1 2 3 4 5 6 
#
# 1 52.5034 14.0214 38.6410 0.0000 9.0130 0.0000
# 2 14.0214 84.0347 39.4520 0.0000 -8.3488 0.0000
# 3 38.6410 39.4520 136.0773 0.0000 -7.8702 0.0000
# 4 0.0000 0.0000 0.0000 21.3218 0.0000 0.5098
# 5 9.0130 -8.3488 -7.8702 0.0000 19.3905 0.0000
# 6 0.0000 0.0000 0.0000 0.5098 0.0000 2.5866
#
#
#
# Elastic Compliance Matrix: (Units=1/GPa)
#
#
# Indices 1 2 3 4 5 6 
#
# 1 0.029184 -0.002653 -0.008570 0.000000 -0.018186 0.000000
# 2 -0.002653 0.014395 -0.003062 0.000000 0.006188 0.000000
# 3 -0.008570 -0.003062 0.011084 0.000000 0.007164 0.000000
# 4 0.000000 0.000000 0.000000 0.047122 0.000000 -0.009289
# 5 -0.018186 0.006188 0.007164 0.000000 0.065597 0.000000
# 6 0.000000 0.000000 0.000000 -0.009289 0.000000 0.388446
#
#
# Mechanical properties :
#
#
# Convention : Reuss Voigt Hill
#
# Bulk Modulus (GPa) = 38.32384 50.76048 44.54216
# Shear Modulus (GPa) = 8.43034 20.69316 14.56175
#
# Velocity S-wave (km/s) = 2.12835 3.33453 2.79723
# Velocity P-wave (km/s) = 5.16067 6.48850 5.86230
#
# Compressibility (1/GPa) = 0.02609342
#
# Stress axis : x y z
#
# Youngs Moduli (GPa) = 34.26553 69.46908 90.21664
#
# Poissons Ratio (x) = 0.18429 0.77314
# Poissons Ratio (y) = 0.09090 0.27626
# Poissons Ratio (z) = 0.29365 0.21273
#
# Static dielectric constant tensor:
#      x y z
#    x 1.647550 0.000000 -0.013440 
#    y 0.000000 1.617230 0.000000 
#    z -0.013440 0.000000 1.646820 
# 
# From -- ./inp_files/38352.got.cif
#   From: 2010.05.17/outbox.cif.g08.bks.cpg/sg11_20_cif.got.tgz:38352.got - 2010.06.03 12:22:45.
