data_PCOD9164796
_publ_section_title
;
Structure prediction by ZEFSAII (Michael W. Deem and Ramdas Pophale) SiO2 
 PCOD9164796
Probable space group: P 21/M
;
_chemical_formula_sum "Si O2"
_cell_formula_units_Z 28
_cell_length_a 20.192029
_cell_length_b 8.631578
_cell_length_c 15.961394
_cell_angle_alpha 90.000000
_cell_angle_beta 36.124074
_cell_angle_gamma 90.000000
_cell_volume 1640.027616
_symmetry_space_group_name_H-M "P 21/M"
_symmetry_group_IT_number 11
_symmetry_cell_setting 'monoclinic'
loop_
_space_group_symop_operation_xyz
x,y,z
-x,1/2+y,-z
-x,-y,-z
x,1/2-y,z
loop_
_atom_site_type_symbol
_atom_site_label
_atom_site_fract_x
_atom_site_fract_y
_atom_site_fract_z
Si Si1 0.375631 0.935584 0.639089
Si Si2 0.644757 0.561668 0.026939
Si Si3 0.616377 0.436972 0.696746
Si Si4 0.000272 0.434053 0.905029
Si Si5 0.373521 0.435862 0.137988
Si Si6 0.763710 0.436474 0.386681
Si Si7 0.773316 0.935947 0.059575
O O1 0.377846 0.750000 0.646707
O O2 0.303139 0.971823 0.630366
O O3 0.500000 0.000000 0.500000
O O4 0.316392 0.012191 0.779133
O O5 0.642626 0.750000 0.031556
O O6 0.514774 0.511785 0.175018
O O7 0.726587 0.509895 0.017228
O O8 0.680833 0.517995 0.895562
O O9 0.614723 0.250000 0.700775
O O10 0.667445 0.497232 0.732009
O O11 0.689141 0.485588 0.542436
O O12 0.994234 0.250000 0.916825
O O13 0.114914 0.486616 0.743515
O O14 0.892460 0.495974 0.965368
O O15 0.000000 0.500000 0.000000
O O16 0.375382 0.250000 0.140713
O O17 0.500000 0.500000 0.000000
O O18 0.777498 0.250000 0.376654
O O19 0.780997 0.750000 0.051089
#
# Coordination Sequence:
#
# PCOD9164796 Si02
#       7
#     4   4   4   4   4   4   4
#     4  11  22  35  52  76 108 141 174 212 262 319
#     4   8  16  31  52  78 108 141 171 207 264 320
#     4   9  17  32  53  79 109 140 173 212 262 318
#     4  12  24  39  57  77 102 137 182 226 267 313
#     4   9  16  29  49  75 107 141 175 212 256 313
#     4  10  21  37  56  76 105 142 178 219 265 316
#     4  11  21  36  57  78 103 138 179 223 266 315
#
# _framework density 17.072883000000001
#
# number of rings (size 3 to 8) (size 9 to 14) (size 15 to 20)
#    0.000    2.000    1.429    4.286    0.000    3.429 
#    0.000   10.000    0.000    0.857    0.000    0.000 
#    0.000    0.000    0.000    0.000    0.000    0.000 
#
# Total GULP energy -156213.574532 kJ/mol
# GULP energy per Si atom -5579.056233 kJ/mol
# Density = 1.703402 g / cm^3
# Si number density = 17.072883 Si / 1000 Ang^3
#
#
#
# Elastic Constant Matrix: (Units=GPa)
#
#
# Indices 1 2 3 4 5 6 
#
# 1 159.3488 36.7233 54.1626 0.0000 7.9352 0.0000
# 2 36.7233 35.4310 14.5340 0.0000 -1.9567 0.0000
# 3 54.1626 14.5340 29.9706 0.0000 -6.8131 0.0000
# 4 0.0000 0.0000 0.0000 28.3444 0.0000 1.0327
# 5 7.9352 -1.9567 -6.8131 0.0000 33.6596 0.0000
# 6 0.0000 0.0000 0.0000 1.0327 0.0000 25.8436
#
#
#
# Elastic Compliance Matrix: (Units=1/GPa)
#
#
# Indices 1 2 3 4 5 6 
#
# 1 0.022007 -0.007465 -0.039234 0.000000 -0.013564 0.000000
# 2 -0.007465 0.037835 -0.004149 0.000000 0.003119 0.000000
# 3 -0.039234 -0.004149 0.113554 0.000000 0.031993 0.000000
# 4 0.000000 0.000000 0.000000 0.035332 0.000000 -0.001412
# 5 -0.013564 0.003119 0.031993 0.000000 0.039564 0.000000
# 6 0.000000 0.000000 0.000000 -0.001412 0.000000 0.038751
#
#
# Mechanical properties :
#
#
# Convention : Reuss Voigt Hill
#
# Bulk Modulus (GPa) = 13.94676 48.39893 31.17284
# Shear Modulus (GPa) = 12.11717 25.52489 18.82103
#
# Velocity S-wave (km/s) = 2.66697 3.87079 3.32383
# Velocity P-wave (km/s) = 4.20361 6.95610 5.74707
#
# Compressibility (1/GPa) = 0.07170124
#
# Stress axis : x y z
#
# Youngs Moduli (GPa) = 45.44022 26.43067 8.80636
#
# Poissons Ratio (x) = 0.19729 0.34551
# Poissons Ratio (y) = 0.33919 0.03653
# Poissons Ratio (z) = 1.78281 0.10965
#
# Static dielectric constant tensor:
#      x y z
#    x 1.588560 0.000000 0.028870 
#    y 0.000000 1.579220 0.000000 
#    z 0.028870 0.000000 1.604410 
# 
# From -- ./inp_files/42321.got.cif
#   From: 2010.05.17/outbox.cif.g08.bks.cpg/sg11_22_cif.got.tgz:42321.got - 2010.06.03 12:22:45.
