data_PCOD9164716
_publ_section_title
;
Structure prediction by ZEFSAII (Michael W. Deem and Ramdas Pophale) SiO2 
 PCOD9164716
Probable space group: P 21/M
;
_chemical_formula_sum "Si O2"
_cell_formula_units_Z 30
_cell_length_a 16.840187
_cell_length_b 14.708234
_cell_length_c 9.554684
_cell_angle_alpha 90.000000
_cell_angle_beta 149.163595
_cell_angle_gamma 90.000000
_cell_volume 1213.088975
_symmetry_space_group_name_H-M "P 21/M"
_symmetry_group_IT_number 11
_symmetry_cell_setting 'monoclinic'
loop_
_space_group_symop_operation_xyz
x,y,z
-x,1/2+y,-z
-x,-y,-z
x,1/2-y,z
loop_
_atom_site_type_symbol
_atom_site_label
_atom_site_fract_x
_atom_site_fract_y
_atom_site_fract_z
Si Si1 0.289985 0.397357 0.695390
Si Si2 0.786857 0.853531 0.890068
Si Si3 0.200576 0.941956 0.058907
Si Si4 0.634566 0.396254 0.159484
Si Si5 0.009407 0.350854 0.065286
Si Si6 0.447064 0.643632 0.273509
Si Si7 0.967846 0.894640 0.480015
Si Si8 0.108470 0.750000 0.478609
O O1 0.317670 0.504875 0.714567
O O2 0.167116 0.363109 0.394438
O O3 0.200254 0.380694 0.705394
O O4 0.465566 0.362077 0.954065
O O5 0.767071 0.750000 0.917313
O O6 0.933630 0.849803 0.008212
O O7 0.630248 0.864680 0.561812
O O8 0.796270 0.951844 0.977336
O O9 0.116230 0.925730 0.079253
O O10 0.093598 0.880612 0.794839
O O11 0.369735 0.901341 0.292305
O O12 0.770678 0.327757 0.395469
O O13 0.616021 0.402904 0.962206
O O14 0.944600 0.250000 0.995135
O O15 0.405793 0.750000 0.199423
O O16 0.011418 0.829583 0.419879
O O17 0.000000 0.000000 0.500000
#
# Coordination Sequence:
#
# PCOD9164716 Si02
#       8
#     4   4   4   4   4   4   4   2
#     4  10  22  34  58  87 119 149 190 240 291 340
#     4  10  22  38  55  83 113 150 193 233 284 338
#     4  11  21  35  59  84 112 145 192 235 284 334
#     4  11  20  36  57  89 116 153 191 240 285 345
#     4  10  21  36  59  84 112 146 192 238 281 341
#     4  11  19  35  60  86 113 150 191 234 279 338
#     4  11  22  40  57  90 119 150 192 241 291 349
#     4  12  22  36  62  86 122 148 196 240 290 342
#
# _framework density 24.730255
#
# number of rings (size 3 to 8) (size 9 to 14) (size 15 to 20)
#    0.000    1.333    4.667    1.200    4.667    0.000 
#    1.200    0.000    0.000    0.000    0.000    0.000 
#    0.000    0.000    0.000    0.000    0.000    0.000 
#
# Total GULP energy -167273.538502 kJ/mol
# GULP energy per Si atom -5575.784617 kJ/mol
# Density = 2.467397 g / cm^3
# Si number density = 24.730255 Si / 1000 Ang^3
#
#
#
# Elastic Constant Matrix: (Units=GPa)
#
#
# Indices 1 2 3 4 5 6 
#
# 1 84.7040 10.2941 22.0629 0.0000 45.3089 0.0000
# 2 10.2941 125.0106 19.6165 0.0000 9.2942 0.0000
# 3 22.0629 19.6165 79.5169 0.0000 20.6008 0.0000
# 4 0.0000 0.0000 0.0000 19.5961 0.0000 18.1681
# 5 45.3089 9.2942 20.6008 0.0000 54.0388 0.0000
# 6 0.0000 0.0000 0.0000 18.1681 0.0000 28.1507
#
#
#
# Elastic Compliance Matrix: (Units=1/GPa)
#
#
# Indices 1 2 3 4 5 6 
#
# 1 0.021562 -0.000257 -0.001384 0.000000 -0.017507 0.000000
# 2 -0.000257 0.008350 -0.001856 0.000000 -0.000513 0.000000
# 3 -0.001384 -0.001856 0.014463 0.000000 -0.004034 0.000000
# 4 0.000000 0.000000 0.000000 0.127055 0.000000 -0.082000
# 5 -0.017507 -0.000513 -0.004034 0.000000 0.034810 0.000000
# 6 0.000000 0.000000 0.000000 -0.082000 0.000000 0.088445
#
#
# Mechanical properties :
#
#
# Convention : Reuss Voigt Hill
#
# Bulk Modulus (GPa) = 26.75036 43.68649 35.21843
# Shear Modulus (GPa) = 15.91655 36.17430 26.04543
#
# Velocity S-wave (km/s) = 2.53969 3.82875 3.24880
# Velocity P-wave (km/s) = 4.40913 6.10322 5.32399
#
# Compressibility (1/GPa) = 0.03738267
#
# Stress axis : x y z
#
# Youngs Moduli (GPa) = 46.37738 119.76309 69.14293
#
# Poissons Ratio (x) = 0.03076 0.09567
# Poissons Ratio (y) = 0.01191 0.12830
# Poissons Ratio (z) = 0.06417 0.22223
#
# Static dielectric constant tensor:
#      x y z
#    x 2.043970 0.000000 -0.066170 
#    y 0.000000 1.891860 0.000000 
#    z -0.066170 0.000000 2.079520 
# 
# From -- ./inp_files/41588.got.cif
#   From: 2010.05.17/outbox.cif.g08.bks.cpg/sg11_21_cif.got.tgz:41588.got - 2010.06.03 12:22:45.
