data_PCOD9165011
_publ_section_title
;
Structure prediction by ZEFSAII (Michael W. Deem and Ramdas Pophale) SiO2 
 PCOD9165011
Probable space group: P 21/M
;
_chemical_formula_sum "Si O2"
_cell_formula_units_Z 28
_cell_length_a 28.820746
_cell_length_b 7.688284
_cell_length_c 9.697876
_cell_angle_alpha 90.000000
_cell_angle_beta 146.192479
_cell_angle_gamma 90.000000
_cell_volume 1195.644430
_symmetry_space_group_name_H-M "P 21/M"
_symmetry_group_IT_number 11
_symmetry_cell_setting 'monoclinic'
loop_
_space_group_symop_operation_xyz
x,y,z
-x,1/2+y,-z
-x,-y,-z
x,1/2-y,z
loop_
_atom_site_type_symbol
_atom_site_label
_atom_site_fract_x
_atom_site_fract_y
_atom_site_fract_z
Si Si1 0.778631 0.953967 0.927470
Si Si2 0.331347 0.542893 0.740163
Si Si3 0.880249 0.460986 0.428742
Si Si4 0.397601 0.951266 0.621844
Si Si5 0.060547 0.452986 0.834135
Si Si6 0.527608 0.956591 0.722240
Si Si7 0.856967 0.461208 0.686172
O O1 0.769462 0.750000 0.871264
O O2 0.858799 0.029317 0.043240
O O3 0.803693 0.975149 0.148251
O O4 0.693118 0.042302 0.673277
O O5 0.325004 0.750000 0.704177
O O6 0.383786 0.470166 0.739808
O O7 0.236725 0.478128 0.507865
O O8 0.380725 0.512662 0.003203
O O9 0.880242 0.250000 0.425619
O O10 0.875199 0.514637 0.575024
O O11 0.968170 0.525528 0.582272
O O12 0.421820 0.750000 0.701787
O O13 0.463589 0.031596 0.678783
O O14 0.057960 0.250000 0.789690
O O15 0.079864 0.468170 0.044342
O O16 0.524717 0.750000 0.723954
O O17 0.500000 0.000000 0.500000
O O18 0.859803 0.250000 0.699066
#
# Coordination Sequence:
#
# PCOD9165011 Si02
#       7
#     4   4   4   4   4   4   4
#     4  11  23  37  58  89 119 155 202 248 293 344
#     4  10  21  40  64  90 119 154 198 243 289 348
#     4  10  22  38  57  84 121 161 198 243 298 352
#     4  10  22  42  65  87 117 158 198 238 293 354
#     4  10  21  38  58  85 120 156 199 248 295 347
#     4  11  25  42  64  93 123 156 191 237 295 351
#     4  10  21  37  61  88 116 156 200 241 292 351
#
# _framework density 23.418333000000001
#
# number of rings (size 3 to 8) (size 9 to 14) (size 15 to 20)
#    0.000    1.714    1.429    2.143    2.000    4.000 
#    0.000    0.000    0.000    0.000    0.000    0.000 
#    0.000    0.000    0.000    0.000    0.000    0.000 
#
# Total GULP energy -156600.370696 kJ/mol
# GULP energy per Si atom -5592.870382 kJ/mol
# Density = 2.336503 g / cm^3
# Si number density = 23.418333 Si / 1000 Ang^3
#
#
#
# Elastic Constant Matrix: (Units=GPa)
#
#
# Indices 1 2 3 4 5 6 
#
# 1 62.7307 4.5898 5.8340 0.0000 -1.7001 0.0000
# 2 4.5898 49.3151 -15.0838 0.0000 6.4094 0.0000
# 3 5.8340 -15.0838 119.1711 0.0000 -7.1196 0.0000
# 4 0.0000 0.0000 0.0000 23.6399 0.0000 -6.3813
# 5 -1.7001 6.4094 -7.1196 0.0000 31.4778 0.0000
# 6 0.0000 0.0000 0.0000 -6.3813 0.0000 8.2137
#
#
#
# Elastic Compliance Matrix: (Units=1/GPa)
#
#
# Indices 1 2 3 4 5 6 
#
# 1 0.016203 -0.001943 -0.000976 0.000000 0.001050 0.000000
# 2 -0.001943 0.021771 0.002615 0.000000 -0.003947 0.000000
# 3 -0.000976 0.002615 0.008855 0.000000 0.001418 0.000000
# 4 0.000000 0.000000 0.000000 0.053527 0.000000 0.041585
# 5 0.001050 -0.003947 0.001418 0.000000 0.032949 0.000000
# 6 0.000000 0.000000 0.000000 0.041585 0.000000 0.154055
#
#
# Mechanical properties :
#
#
# Convention : Reuss Voigt Hill
#
# Bulk Modulus (GPa) = 21.63578 24.65521 23.14549
# Shear Modulus (GPa) = 16.48125 28.39140 22.43633
#
# Velocity S-wave (km/s) = 2.65576 3.48567 3.09862
# Velocity P-wave (km/s) = 4.32006 5.17213 4.76518
#
# Compressibility (1/GPa) = 0.04621974
#
# Stress axis : x y z
#
# Youngs Moduli (GPa) = 61.71857 45.93182 112.93347
#
# Poissons Ratio (x) = 0.08925 0.11027
# Poissons Ratio (y) = 0.11993 -0.29532
# Poissons Ratio (z) = 0.06026 -0.12011
#
# Static dielectric constant tensor:
#      x y z
#    x 1.927340 0.000000 0.023820 
#    y 0.000000 1.856320 0.000000 
#    z 0.023820 0.000000 1.713190 
# 
# From -- ./inp_files/28337.got.cif
#   From: 2010.05.17/outbox.cif.g08.bks.cpg/sg11_15_cif.got.tgz:28337.got - 2010.06.03 12:22:45.
