data_PCOD9165619
_publ_section_title
;
Structure prediction by ZEFSAII (Michael W. Deem and Ramdas Pophale) SiO2 
 PCOD9165619
Probable space group: P 21/M
;
_chemical_formula_sum "Si O2"
_cell_formula_units_Z 28
_cell_length_a 9.150169
_cell_length_b 22.207906
_cell_length_c 9.662611
_cell_angle_alpha 90.000000
_cell_angle_beta 134.000517
_cell_angle_gamma 90.000000
_cell_volume 1412.412419
_symmetry_space_group_name_H-M "P 21/M"
_symmetry_group_IT_number 11
_symmetry_cell_setting 'monoclinic'
loop_
_space_group_symop_operation_xyz
x,y,z
-x,1/2+y,-z
-x,-y,-z
x,1/2-y,z
loop_
_atom_site_type_symbol
_atom_site_label
_atom_site_fract_x
_atom_site_fract_y
_atom_site_fract_z
Si Si1 0.616517 0.016282 0.717302
Si Si2 0.937771 0.680250 0.524891
Si Si3 0.705193 0.594255 0.959689
Si Si4 0.650584 0.180010 0.383095
Si Si5 0.788836 0.181508 0.047782
Si Si6 0.148242 0.635117 0.208885
Si Si7 0.411618 0.407256 0.814030
O O1 0.773189 0.069095 0.783297
O O2 0.465167 0.043062 0.734701
O O3 0.500000 0.000000 0.500000
O O4 0.717685 0.958475 0.854693
O O5 0.870319 0.750000 0.469363
O O6 0.765433 0.635528 0.360967
O O7 0.142815 0.673388 0.569775
O O8 0.012078 0.668114 0.730112
O O9 0.525388 0.638572 0.794248
O O10 0.654049 0.569237 0.078792
O O11 0.917273 0.629504 0.106447
O O12 0.591113 0.250000 0.340858
O O13 0.708716 0.159936 0.576039
O O14 0.726789 0.250000 0.042313
O O15 0.835929 0.175461 0.917238
O O16 0.610754 0.134607 0.963556
#
# Coordination Sequence:
#
# PCOD9165619 Si02
#       7
#     4   4   4   4   4   4   4
#     4  11  25  45  66  91 129 168 216 276 321 372
#     4  10  21  39  64  96 128 164 210 259 317 383
#     4  12  24  44  65  95 126 171 216 259 324 377
#     4  11  23  40  65  99 133 163 208 265 314 384
#     4  10  22  39  61  94 129 163 207 262 320 382
#     4  11  24  43  66  92 132 168 215 265 323 382
#     4  11  23  41  67  91 126 171 213 264 316 385
#
# _framework density 19.824238000000001
#
# number of rings (size 3 to 8) (size 9 to 14) (size 15 to 20)
#    0.000    1.143    4.286    1.714    2.000    1.714 
#    0.000    4.286    0.000    0.000    0.000    0.000 
#    0.000    0.000    0.000    0.000    0.000    0.000 
#
# Total GULP energy -156532.632785 kJ/mol
# GULP energy per Si atom -5590.451171 kJ/mol
# Density = 1.977912 g / cm^3
# Si number density = 19.824238 Si / 1000 Ang^3
#
#
#
# Elastic Constant Matrix: (Units=GPa)
#
#
# Indices 1 2 3 4 5 6 
#
# 1 43.9318 -14.1407 15.0644 0.0000 -13.3032 0.0000
# 2 -14.1407 52.9924 21.5164 0.0000 4.5268 0.0000
# 3 15.0644 21.5164 113.2072 0.0000 -17.8814 0.0000
# 4 0.0000 0.0000 0.0000 30.1728 0.0000 -5.9000
# 5 -13.3032 4.5268 -17.8814 0.0000 36.5244 0.0000
# 6 0.0000 0.0000 0.0000 -5.9000 0.0000 25.3724
#
#
#
# Elastic Compliance Matrix: (Units=1/GPa)
#
#
# Indices 1 2 3 4 5 6 
#
# 1 0.029449 0.009037 -0.004464 0.000000 0.007421 0.000000
# 2 0.009037 0.024032 -0.006200 0.000000 -0.002722 0.000000
# 3 -0.004464 -0.006200 0.011348 0.000000 0.004698 0.000000
# 4 0.000000 0.000000 0.000000 0.034721 0.000000 0.008074
# 5 0.007421 -0.002722 0.004698 0.000000 0.032719 0.000000
# 6 0.000000 0.000000 0.000000 0.008074 0.000000 0.041290
#
#
# Mechanical properties :
#
#
# Convention : Reuss Voigt Hill
#
# Bulk Modulus (GPa) = 16.24047 28.33464 22.28755
# Shear Modulus (GPa) = 25.33703 30.92668 28.13185
#
# Velocity S-wave (km/s) = 3.57891 3.95402 3.77113
# Velocity P-wave (km/s) = 5.02873 5.93040 5.49808
#
# Compressibility (1/GPa) = 0.06157457
#
# Stress axis : x y z
#
# Youngs Moduli (GPa) = 33.95668 41.61097 88.12199
#
# Poissons Ratio (x) = -0.37604 0.39340
# Poissons Ratio (y) = -0.30687 0.54637
# Poissons Ratio (z) = 0.15159 0.25799
#
# Static dielectric constant tensor:
#      x y z
#    x 1.693200 0.000000 -0.027620 
#    y 0.000000 1.682060 0.000000 
#    z -0.027620 0.000000 1.671020 
# 
# From -- ./inp_files/14511.got.cif
#   From: 2010.05.17/outbox.cif.g08.bks.cpg/sg11_8_cif.got.tgz:14511.got - 2010.06.03 12:22:45.
