data_PCOD9165576
_publ_section_title
;
Structure prediction by ZEFSAII (Michael W. Deem and Ramdas Pophale) SiO2 
 PCOD9165576
Probable space group: P 21/M
;
_chemical_formula_sum "Si O2"
_cell_formula_units_Z 28
_cell_length_a 15.624468
_cell_length_b 9.135651
_cell_length_c 11.580755
_cell_angle_alpha 90.000000
_cell_angle_beta 125.601909
_cell_angle_gamma 90.000000
_cell_volume 1344.050605
_symmetry_space_group_name_H-M "P 21/M"
_symmetry_group_IT_number 11
_symmetry_cell_setting 'monoclinic'
loop_
_space_group_symop_operation_xyz
x,y,z
-x,1/2+y,-z
-x,-y,-z
x,1/2-y,z
loop_
_atom_site_type_symbol
_atom_site_label
_atom_site_fract_x
_atom_site_fract_y
_atom_site_fract_z
Si Si1 0.346817 0.422248 0.110179
Si Si2 0.167113 0.084819 0.146248
Si Si3 0.549398 0.423048 0.425995
Si Si4 0.979220 0.412396 0.812896
Si Si5 0.615320 0.426132 0.093577
Si Si6 0.037777 0.081457 0.417000
Si Si7 0.711088 0.577106 0.395148
O O1 0.327657 0.250000 0.066895
O O2 0.267837 0.461605 0.152050
O O3 0.463230 0.434589 0.255164
O O4 0.333130 0.520059 0.986239
O O5 0.184675 0.250000 0.206570
O O6 0.070890 0.092948 0.979714
O O7 0.125057 0.976581 0.209806
O O8 0.500000 0.500000 0.500000
O O9 0.567553 0.250000 0.461489
O O10 0.651706 0.505516 0.457612
O O11 0.960025 0.250000 0.752814
O O12 0.014478 0.514893 0.737356
O O13 0.608733 0.250000 0.094948
O O14 0.674027 0.492232 0.250829
O O15 0.500000 0.500000 0.000000
O O16 0.011873 0.250000 0.407518
O O17 0.163228 0.065150 0.499464
O O18 0.000000 0.000000 0.500000
O O19 0.683601 0.750000 0.365553
#
# Coordination Sequence:
#
# PCOD9165576 Si02
#       7
#     4   4   4   4   4   4   4
#     4  10  22  40  63  91 124 165 209 251 310 372
#     4   9  20  39  63  90 124 163 202 253 311 369
#     4  11  24  41  64  94 131 170 211 259 311 376
#     4  10  21  39  63  92 124 160 206 258 312 368
#     4  12  24  40  64  93 125 161 205 255 308 366
#     4  11  26  45  66  91 125 167 211 260 317 379
#     4  11  25  45  67  91 125 169 212 260 319 376
#
# _framework density 20.832547000000002
#
# number of rings (size 3 to 8) (size 9 to 14) (size 15 to 20)
#    0.000    1.429    1.429    3.000    4.000    4.000 
#    0.000    0.000    0.000    0.000    0.000    0.000 
#    0.000    0.000    0.000    0.000    0.000    0.000 
#
# Total GULP energy -156596.534381 kJ/mol
# GULP energy per Si atom -5592.733371 kJ/mol
# Density = 2.078513 g / cm^3
# Si number density = 20.832547 Si / 1000 Ang^3
#
#
#
# Elastic Constant Matrix: (Units=GPa)
#
#
# Indices 1 2 3 4 5 6 
#
# 1 92.2743 58.7564 -6.7395 0.0000 -18.4374 0.0000
# 2 58.7564 154.9081 38.3803 0.0000 -21.7925 0.0000
# 3 -6.7395 38.3803 44.4227 0.0000 -19.2828 0.0000
# 4 0.0000 0.0000 0.0000 28.7667 0.0000 -8.2197
# 5 -18.4374 -21.7925 -19.2828 0.0000 27.5986 0.0000
# 6 0.0000 0.0000 0.0000 -8.2197 0.0000 38.5673
#
#
#
# Elastic Compliance Matrix: (Units=1/GPa)
#
#
# Indices 1 2 3 4 5 6 
#
# 1 0.025826 -0.012631 0.025822 0.000000 0.025321 0.000000
# 2 -0.012631 0.014485 -0.018844 0.000000 -0.010167 0.000000
# 3 0.025822 -0.018844 0.062778 0.000000 0.046233 0.000000
# 4 0.000000 0.000000 0.000000 0.037017 0.000000 0.007889
# 5 0.025321 -0.010167 0.046233 0.000000 0.077424 0.000000
# 6 0.000000 0.000000 0.000000 0.007889 0.000000 0.027610
#
#
# Mechanical properties :
#
#
# Convention : Reuss Voigt Hill
#
# Bulk Modulus (GPa) = 10.89529 52.48884 31.69206
# Shear Modulus (GPa) = 17.41912 32.40040 24.90976
#
# Velocity S-wave (km/s) = 2.89476 3.94798 3.46166
# Velocity P-wave (km/s) = 4.05144 6.78471 5.58778
#
# Compressibility (1/GPa) = 0.09178282
#
# Stress axis : x y z
#
# Youngs Moduli (GPa) = 38.72099 69.03638 15.92903
#
# Poissons Ratio (x) = 0.87202 -0.41133
# Poissons Ratio (y) = 0.48910 0.30017
# Poissons Ratio (z) = -0.99987 1.30095
#
# Static dielectric constant tensor:
#      x y z
#    x 1.746620 0.000000 0.003210 
#    y 0.000000 1.717050 0.000000 
#    z 0.003210 0.000000 1.754120 
# 
# From -- ./inp_files/38420.got.cif
#   From: 2010.05.17/outbox.cif.g08.bks.cpg/sg11_20_cif.got.tgz:38420.got - 2010.06.03 12:22:45.
