data_PCOD9165878
_publ_section_title
;
Structure prediction by ZEFSAII (Michael W. Deem and Ramdas Pophale) SiO2 
 PCOD9165878
Probable space group: P 21/M
;
_chemical_formula_sum "Si O2"
_cell_formula_units_Z 32
_cell_length_a 11.035634
_cell_length_b 8.503453
_cell_length_c 28.257254
_cell_angle_alpha 90.000000
_cell_angle_beta 145.359853
_cell_angle_gamma 90.000000
_cell_volume 1507.273961
_symmetry_space_group_name_H-M "P 21/M"
_symmetry_group_IT_number 11
_symmetry_cell_setting 'monoclinic'
loop_
_space_group_symop_operation_xyz
x,y,z
-x,1/2+y,-z
-x,-y,-z
x,1/2-y,z
loop_
_atom_site_type_symbol
_atom_site_label
_atom_site_fract_x
_atom_site_fract_y
_atom_site_fract_z
Si Si1 0.186042 0.927435 0.092435
Si Si2 0.349356 0.069984 0.991323
Si Si3 0.421367 0.424438 0.851334
Si Si4 0.033774 0.427677 0.175623
Si Si5 0.596722 0.069031 0.745856
Si Si6 0.764547 0.941384 0.439221
Si Si7 0.999532 0.931646 0.728427
Si Si8 0.474262 0.560983 0.437537
O O1 0.109594 0.750000 0.080353
O O2 0.403623 0.915218 0.132914
O O3 0.279350 0.007857 0.169976
O O4 0.000000 0.000000 0.000000
O O5 0.295942 0.250000 0.964795
O O6 0.473513 0.048554 0.079590
O O7 0.500000 0.000000 0.000000
O O8 0.136908 0.966992 0.919427
O O9 0.407513 0.250000 0.869389
O O10 0.184996 0.476326 0.760591
O O11 0.117534 0.250000 0.198082
O O12 0.219925 0.554632 0.234395
O O13 0.928769 0.437345 0.193518
O O14 0.552017 0.250000 0.744303
O O15 0.389337 0.003899 0.653459
O O16 0.765781 0.750000 0.440048
O O17 0.649467 0.988585 0.452828
O O18 0.000000 0.000000 0.500000
O O19 0.991626 0.750000 0.710754
O O20 0.763475 0.001688 0.651263
O O21 0.500000 0.500000 0.500000
O O22 0.480078 0.750000 0.440133
#
# Coordination Sequence:
#
# PCOD9165878 Si02
#       8
#     4   4   4   4   4   4   4   4
#     4  10  23  41  62  89 124 169 218 267 322 382
#     4  12  23  35  54  82 117 160 205 252 308 366
#     4  11  23  39  59  88 127 166 212 263 317 381
#     4  11  22  36  58  89 122 155 201 255 308 368
#     4  10  21  41  65  89 121 165 213 260 315 382
#     4  10  23  42  68 100 134 171 220 274 333 402
#     4  11  23  39  62  92 125 162 207 257 316 381
#     4  11  24  44  69  99 135 175 217 269 335 403
#
# _framework density 21.230381000000001
#
# number of rings (size 3 to 8) (size 9 to 14) (size 15 to 20)
#    0.000    1.250    2.500    3.375    0.000    7.000 
#    0.000    1.250    0.000    0.000    0.000    0.000 
#    0.000    0.000    0.000    0.000    0.000    0.000 
#
# Total GULP energy -178342.827859 kJ/mol
# GULP energy per Si atom -5573.213371 kJ/mol
# Density = 2.118206 g / cm^3
# Si number density = 21.230381 Si / 1000 Ang^3
#
#
#
# Elastic Constant Matrix: (Units=GPa)
#
#
# Indices 1 2 3 4 5 6 
#
# 1 104.0628 21.4731 65.5939 0.0000 16.0169 0.0000
# 2 21.4731 57.4941 21.3700 0.0000 1.2505 0.0000
# 3 65.5939 21.3700 151.0595 0.0000 12.9185 0.0000
# 4 0.0000 0.0000 0.0000 29.4988 0.0000 2.0661
# 5 16.0169 1.2505 12.9185 0.0000 41.6879 0.0000
# 6 0.0000 0.0000 0.0000 2.0661 0.0000 24.5800
#
#
#
# Elastic Compliance Matrix: (Units=1/GPa)
#
#
# Indices 1 2 3 4 5 6 
#
# 1 0.014262 -0.003232 -0.005419 0.000000 -0.003703 0.000000
# 2 -0.003232 0.019094 -0.001392 0.000000 0.001100 0.000000
# 3 -0.005419 -0.001392 0.009233 0.000000 -0.000737 0.000000
# 4 0.000000 0.000000 0.000000 0.034100 0.000000 -0.002866
# 5 -0.003703 0.001100 -0.000737 0.000000 0.025606 0.000000
# 6 0.000000 0.000000 0.000000 -0.002866 0.000000 0.040924
#
#
# Mechanical properties :
#
#
# Convention : Reuss Voigt Hill
#
# Bulk Modulus (GPa) = 44.43838 58.83226 51.63532
# Shear Modulus (GPa) = 29.27283 32.76530 31.01907
#
# Velocity S-wave (km/s) = 3.71727 3.93278 3.82654
# Velocity P-wave (km/s) = 6.27703 6.95657 6.62551
#
# Compressibility (1/GPa) = 0.02250307
#
# Stress axis : x y z
#
# Youngs Moduli (GPa) = 70.11450 52.37365 108.30716
#
# Poissons Ratio (x) = 0.16927 0.58693
# Poissons Ratio (y) = 0.22661 0.15074
# Poissons Ratio (z) = 0.37996 0.07289
#
# Static dielectric constant tensor:
#      x y z
#    x 1.816270 0.000000 -0.018440 
#    y 0.000000 1.803050 0.000000 
#    z -0.018440 0.000000 1.789160 
# 
# From -- ./inp_files/42825.got.cif
#   From: 2010.05.17/outbox.cif.g08.bks.cpg/sg11_22_cif.got.tgz:42825.got - 2010.06.03 12:22:45.
