data_PCOD9165066
_publ_section_title
;
Structure prediction by ZEFSAII (Michael W. Deem and Ramdas Pophale) SiO2 
 PCOD9165066
Probable space group: P 21/M
;
_chemical_formula_sum "Si O2"
_cell_formula_units_Z 32
_cell_length_a 13.566333
_cell_length_b 19.379501
_cell_length_c 10.509293
_cell_angle_alpha 90.000000
_cell_angle_beta 147.174492
_cell_angle_gamma 90.000000
_cell_volume 1497.765599
_symmetry_space_group_name_H-M "P 21/M"
_symmetry_group_IT_number 11
_symmetry_cell_setting 'monoclinic'
loop_
_space_group_symop_operation_xyz
x,y,z
-x,1/2+y,-z
-x,-y,-z
x,1/2-y,z
loop_
_atom_site_type_symbol
_atom_site_label
_atom_site_fract_x
_atom_site_fract_y
_atom_site_fract_z
Si Si1 0.155004 0.171599 0.000123
Si Si2 0.798697 0.527898 0.074848
Si Si3 0.286833 0.008659 0.735396
Si Si4 0.308205 0.385438 0.416161
Si Si5 0.625075 0.034714 0.438862
Si Si6 0.755736 0.175324 0.691171
Si Si7 0.975607 0.597869 0.697668
Si Si8 0.681042 0.172861 0.908418
O O1 0.190264 0.250000 0.992148
O O2 0.156446 0.108051 0.902100
O O3 0.957395 0.171605 0.852052
O O4 0.293656 0.151109 0.264618
O O5 0.809638 0.502054 0.233095
O O6 0.929247 0.472989 0.147666
O O7 0.589131 0.521106 0.808817
O O8 0.187485 0.077565 0.574927
O O9 0.280693 0.963480 0.599168
O O10 0.500000 0.000000 0.000000
O O11 0.302329 0.468807 0.403710
O O12 0.490363 0.366682 0.691399
O O13 0.133055 0.364355 0.308318
O O14 0.655665 0.107385 0.536066
O O15 0.677023 0.250000 0.565461
O O16 0.749007 0.174207 0.836107
O O17 0.148508 0.639806 0.833751
O O18 0.645722 0.250000 0.915049
#
# Coordination Sequence:
#
# PCOD9165066 Si02
#       8
#     4   4   4   4   4   4   4   4
#     4  11  23  37  58  89 128 170 208 259 326 389
#     4  11  22  39  63  93 125 161 216 269 311 379
#     4   9  21  41  64  93 123 161 210 265 320 366
#     4  11  22  37  61  93 129 162 210 263 319 383
#     4  10  21  37  64  95 124 163 218 265 317 385
#     4  10  22  39  58  89 132 172 207 258 326 392
#     4  11  22  39  66  94 124 165 210 265 320 382
#     4  11  23  39  60  90 131 172 211 258 324 391
#
# _framework density 21.365158999999998
#
# number of rings (size 3 to 8) (size 9 to 14) (size 15 to 20)
#    0.000    1.500    2.500    3.000    1.750    4.000 
#    0.000    0.625    0.000    3.000    0.000    0.000 
#    0.000    0.000    0.000    0.000    0.000    0.000 
#
# Total GULP energy -178337.258340 kJ/mol
# GULP energy per Si atom -5573.039323 kJ/mol
# Density = 2.131653 g / cm^3
# Si number density = 21.365159 Si / 1000 Ang^3
#
#
#
# Elastic Constant Matrix: (Units=GPa)
#
#
# Indices 1 2 3 4 5 6 
#
# 1 60.1037 13.7106 7.0391 0.0000 14.0494 0.0000
# 2 13.7106 126.5408 31.0696 0.0000 8.6673 0.0000
# 3 7.0391 31.0696 96.2668 0.0000 23.7910 0.0000
# 4 0.0000 0.0000 0.0000 20.2679 0.0000 7.4340
# 5 14.0494 8.6673 23.7910 0.0000 30.6727 0.0000
# 6 0.0000 0.0000 0.0000 7.4340 0.0000 22.5536
#
#
#
# Elastic Compliance Matrix: (Units=1/GPa)
#
#
# Indices 1 2 3 4 5 6 
#
# 1 0.019066 -0.001792 0.001506 0.000000 -0.009395 0.000000
# 2 -0.001792 0.008754 -0.002828 0.000000 0.000541 0.000000
# 3 0.001506 -0.002828 0.013811 0.000000 -0.010603 0.000000
# 4 0.000000 0.000000 0.000000 0.056125 0.000000 -0.018500
# 5 -0.009395 0.000541 -0.010603 0.000000 0.044977 0.000000
# 6 0.000000 0.000000 0.000000 -0.018500 0.000000 0.050437
#
#
# Mechanical properties :
#
#
# Convention : Reuss Voigt Hill
#
# Bulk Modulus (GPa) = 28.24588 42.94997 35.59793
# Shear Modulus (GPa) = 23.67444 30.10498 26.88971
#
# Velocity S-wave (km/s) = 3.33240 3.75783 3.55149
# Velocity P-wave (km/s) = 5.29677 6.24298 5.78924
#
# Compressibility (1/GPa) = 0.03540339
#
# Stress axis : x y z
#
# Youngs Moduli (GPa) = 52.44819 114.23260 72.40755
#
# Poissons Ratio (x) = 0.20472 -0.10905
# Poissons Ratio (y) = 0.09399 0.20476
# Poissons Ratio (z) = -0.07899 0.32304
#
# Static dielectric constant tensor:
#      x y z
#    x 1.820730 0.000000 0.009610 
#    y 0.000000 1.798660 0.000000 
#    z 0.009610 0.000000 1.812640 
# 
# From -- ./inp_files/40058.got.cif
#   From: 2010.05.17/outbox.cif.g08.bks.cpg/sg11_21_cif.got.tgz:40058.got - 2010.06.03 12:22:45.
