data_PCOD9165026
_publ_section_title
;
Structure prediction by ZEFSAII (Michael W. Deem and Ramdas Pophale) SiO2 
 PCOD9165026
Probable space group: P 21/M
;
_chemical_formula_sum "Si O2"
_cell_formula_units_Z 28
_cell_length_a 8.128316
_cell_length_b 17.072695
_cell_length_c 12.624782
_cell_angle_alpha 90.000000
_cell_angle_beta 133.893014
_cell_angle_gamma 90.000000
_cell_volume 1262.531704
_symmetry_space_group_name_H-M "P 21/M"
_symmetry_group_IT_number 11
_symmetry_cell_setting 'monoclinic'
loop_
_space_group_symop_operation_xyz
x,y,z
-x,1/2+y,-z
-x,-y,-z
x,1/2-y,z
loop_
_atom_site_type_symbol
_atom_site_label
_atom_site_fract_x
_atom_site_fract_y
_atom_site_fract_z
Si Si1 0.783238 0.447753 0.173033
Si Si2 0.137637 0.371654 0.816952
Si Si3 0.674610 0.336129 0.506301
Si Si4 0.818049 0.660216 0.709984
Si Si5 0.731923 0.022352 0.372692
Si Si6 0.964843 0.903911 0.992475
Si Si7 0.539648 0.108970 0.854682
O O1 0.667455 0.434926 0.233439
O O2 0.871572 0.536024 0.213960
O O3 0.993919 0.389470 0.264782
O O4 0.634661 0.437117 0.001653
O O5 0.897029 0.335950 0.677440
O O6 0.146250 0.373490 0.948276
O O7 0.341671 0.342450 0.829360
O O8 0.665857 0.250000 0.446683
O O9 0.429718 0.342864 0.453086
O O10 0.688907 0.414215 0.442917
O O11 0.890370 0.750000 0.750789
O O12 0.814540 0.622748 0.825735
O O13 0.583747 0.943386 0.290535
O O14 0.000000 0.000000 0.500000
O O15 0.218155 0.865501 0.087611
O O16 0.000000 0.000000 0.000000
#
# Coordination Sequence:
#
# PCOD9165026 Si02
#       7
#     4   4   4   4   4   4   4
#     4  10  21  37  63  90 117 156 200 261 302 355
#     4  11  21  39  61  91 122 158 203 252 302 362
#     4  11  25  41  57  87 130 163 202 253 309 372
#     4  10  23  41  59  88 124 156 204 259 306 373
#     4  11  20  36  63  89 118 158 203 251 300 363
#     4  11  21  37  67  93 116 162 202 255 310 362
#     4  10  21  37  61  99 122 143 205 267 294 353
#
# _framework density 22.177659999999999
#
# number of rings (size 3 to 8) (size 9 to 14) (size 15 to 20)
#    0.000    1.429    5.714    2.571    2.000    2.857 
#    0.000    2.857    0.000    0.000    0.000    0.000 
#    0.000    0.000    0.000    0.000    0.000    0.000 
#
# Total GULP energy -155945.680393 kJ/mol
# GULP energy per Si atom -5569.488585 kJ/mol
# Density = 2.212718 g / cm^3
# Si number density = 22.177660 Si / 1000 Ang^3
#
#
#
# Elastic Constant Matrix: (Units=GPa)
#
#
# Indices 1 2 3 4 5 6 
#
# 1 71.5319 2.6711 13.9503 0.0000 9.2001 0.0000
# 2 2.6711 69.8906 7.2167 0.0000 17.4015 0.0000
# 3 13.9503 7.2167 89.8895 0.0000 34.4671 0.0000
# 4 0.0000 0.0000 0.0000 9.2824 0.0000 -7.6844
# 5 9.2001 17.4015 34.4671 0.0000 43.2251 0.0000
# 6 0.0000 0.0000 0.0000 -7.6844 0.0000 -16.5498
#
#
#
# Elastic Compliance Matrix: (Units=1/GPa)
#
#
# Indices 1 2 3 4 5 6 
#
# 1 0.014520 0.000076 -0.001531 0.000000 -0.001901 0.000000
# 2 0.000076 0.016084 0.001708 0.000000 -0.007853 0.000000
# 3 -0.001531 0.001708 0.016369 0.000000 -0.013414 0.000000
# 4 0.000000 0.000000 0.000000 0.077818 0.000000 -0.036133
# 5 -0.001901 -0.007853 -0.013414 0.000000 0.037397 0.000000
# 6 0.000000 0.000000 0.000000 -0.036133 0.000000 -0.043647
#
#
# Mechanical properties :
#
#
# Convention : Reuss Voigt Hill
#
# Bulk Modulus (GPa) = 21.06144 30.99870 26.03007
# Shear Modulus (GPa) = 37.35221 21.02313 29.18767
#
# Velocity S-wave (km/s) = 4.10839 3.08221 3.63172
# Velocity P-wave (km/s) = 5.65884 5.16473 5.41742
#
# Compressibility (1/GPa) = 0.04748013
#
# Stress axis : x y z
#
# Youngs Moduli (GPa) = 68.87097 62.17304 61.09238
#
# Poissons Ratio (x) = -0.00475 0.09352
# Poissons Ratio (y) = -0.00526 -0.10436
# Poissons Ratio (z) = 0.10543 -0.10620
#
# Static dielectric constant tensor:
#      x y z
#    x 1.917640 0.000000 0.010250 
#    y 0.000000 1.821120 0.000000 
#    z 0.010250 0.000000 1.843620 
# 
# From -- ./inp_files/48036.got.cif
#   From: 2010.05.17/outbox.cif.g08.bks.cpg/sg11_25_cif.got.tgz:48036.got - 2010.06.03 12:22:45.
