data_PCOD9165411
_publ_section_title
;
Structure prediction by ZEFSAII (Michael W. Deem and Ramdas Pophale) SiO2 
 PCOD9165411
Probable space group: P 21/M
;
_chemical_formula_sum "Si O2"
_cell_formula_units_Z 28
_cell_length_a 15.612598
_cell_length_b 16.712233
_cell_length_c 5.031582
_cell_angle_alpha 90.000000
_cell_angle_beta 114.795260
_cell_angle_gamma 90.000000
_cell_volume 1191.818761
_symmetry_space_group_name_H-M "P 21/M"
_symmetry_group_IT_number 11
_symmetry_cell_setting 'monoclinic'
loop_
_space_group_symop_operation_xyz
x,y,z
-x,1/2+y,-z
-x,-y,-z
x,1/2-y,z
loop_
_atom_site_type_symbol
_atom_site_label
_atom_site_fract_x
_atom_site_fract_y
_atom_site_fract_z
Si Si1 0.542291 0.588049 0.489601
Si Si2 0.870340 0.585934 0.260794
Si Si3 0.660340 0.386716 0.889093
Si Si4 0.075981 0.250000 0.888946
Si Si5 0.335980 0.067864 0.877378
Si Si6 0.914716 0.084468 0.299065
Si Si7 0.781219 0.342813 0.535110
Si Si8 0.945304 0.250000 0.204805
O O1 0.500000 0.500000 0.500000
O O2 0.447748 0.637263 0.305398
O O3 0.607622 0.577681 0.319191
O O4 0.606926 0.615128 0.819193
O O5 0.872038 0.666092 0.089167
O O6 0.773588 0.589875 0.296423
O O7 0.874543 0.497961 0.131817
O O8 0.971347 0.582413 0.542998
O O9 0.718361 0.379252 0.690695
O O10 0.662544 0.476885 0.011477
O O11 0.711290 0.339328 0.188428
O O12 0.992025 0.250000 0.559795
O O13 0.031366 0.250000 0.117396
O O14 0.866572 0.101882 0.524677
O O15 0.893233 0.165623 0.112918
O O16 0.808773 0.250000 0.615500
#
# Coordination Sequence:
#
# PCOD9165411 Si02
#       8
#     4   4   4   2   4   4   4   2
#     4  10  21  38  67  97 129 166 219 281 342 392
#     4  10  23  43  68 100 133 180 228 275 329 392
#     4  11  22  41  65  99 131 170 220 281 338 407
#     4  10  24  44  64  90 129 174 223 276 320 386
#     4  11  21  39  66 100 128 172 225 274 331 402
#     4  10  22  43  66 101 137 179 224 276 333 399
#     4  12  24  41  66  98 137 177 218 273 345 403
#     4  10  22  44  64  90 131 176 217 270 332 386
#
# _framework density 23.493504999999999
#
# number of rings (size 3 to 8) (size 9 to 14) (size 15 to 20)
#    0.000    1.429    2.143    4.714    0.000    5.143 
#    2.571    0.000    9.429    0.000    0.000    0.000 
#    0.000    0.000    0.000    0.000    0.000    0.000 
#
# Total GULP energy -156428.472334 kJ/mol
# GULP energy per Si atom -5586.731155 kJ/mol
# Density = 2.344003 g / cm^3
# Si number density = 23.493505 Si / 1000 Ang^3
#
#
#
# Elastic Constant Matrix: (Units=GPa)
#
#
# Indices 1 2 3 4 5 6 
#
# 1 231.3659 34.9510 71.1033 0.0000 -5.9564 0.0000
# 2 34.9510 127.1441 11.6292 0.0000 -13.6957 0.0000
# 3 71.1033 11.6292 91.5495 0.0000 -11.7564 0.0000
# 4 0.0000 0.0000 0.0000 18.2042 0.0000 -0.0571
# 5 -5.9564 -13.6957 -11.7564 0.0000 49.7555 0.0000
# 6 0.0000 0.0000 0.0000 -0.0571 0.0000 15.1232
#
#
#
# Elastic Compliance Matrix: (Units=1/GPa)
#
#
# Indices 1 2 3 4 5 6 
#
# 1 0.005879 -0.001282 -0.004494 0.000000 -0.000711 0.000000
# 2 -0.001282 0.008437 0.000208 0.000000 0.002218 0.000000
# 3 -0.004494 0.000208 0.014774 0.000000 0.003010 0.000000
# 4 0.000000 0.000000 0.000000 0.054933 0.000000 0.000207
# 5 -0.000711 0.002218 0.003010 0.000000 0.021335 0.000000
# 6 0.000000 0.000000 0.000000 0.000207 0.000000 0.066124
#
#
# Mechanical properties :
#
#
# Convention : Reuss Voigt Hill
#
# Bulk Modulus (GPa) = 55.69524 76.15851 65.92688
# Shear Modulus (GPa) = 26.51095 38.77500 32.64298
#
# Velocity S-wave (km/s) = 3.36287 4.06699 3.73157
# Velocity P-wave (km/s) = 6.23190 7.38519 6.83292
#
# Compressibility (1/GPa) = 0.01795486
#
# Stress axis : x y z
#
# Youngs Moduli (GPa) = 170.10841 118.52203 67.68821
#
# Poissons Ratio (x) = 0.15189 0.30421
# Poissons Ratio (y) = 0.21799 -0.01411
# Poissons Ratio (z) = 0.76450 -0.02470
#
# Static dielectric constant tensor:
#      x y z
#    x 1.869420 0.000000 0.060220 
#    y 0.000000 1.973410 0.000000 
#    z 0.060220 0.000000 1.976890 
# 
# From -- ./inp_files/6727.got.cif
#   From: 2010.05.17/outbox.cif.g08.bks.cpg/sg11_4_cif.got.tgz:6727.got - 2010.06.03 12:22:45.
