data_PCOD9165800
_publ_section_title
;
Structure prediction by ZEFSAII (Michael W. Deem and Ramdas Pophale) SiO2 
 PCOD9165800
Probable space group: P 21/M
;
_chemical_formula_sum "Si O2"
_cell_formula_units_Z 16
_cell_length_a 8.958976
_cell_length_b 11.959497
_cell_length_c 8.402518
_cell_angle_alpha 90.000000
_cell_angle_beta 48.146600
_cell_angle_gamma 90.000000
_cell_volume 670.582420
_symmetry_space_group_name_H-M "P 21/M"
_symmetry_group_IT_number 11
_symmetry_cell_setting 'monoclinic'
loop_
_space_group_symop_operation_xyz
x,y,z
-x,1/2+y,-z
-x,-y,-z
x,1/2-y,z
loop_
_atom_site_type_symbol
_atom_site_label
_atom_site_fract_x
_atom_site_fract_y
_atom_site_fract_z
Si Si1 0.844075 0.520771 0.471590
Si Si2 0.382763 0.877580 0.586163
Si Si3 0.385944 0.371252 0.091868
Si Si4 0.780597 0.422198 0.955110
O O1 0.767304 0.406191 0.450836
O O2 0.675072 0.589097 0.686017
O O3 0.000000 0.500000 0.500000
O O4 0.983265 0.586322 0.246987
O O5 0.469230 0.750000 0.506268
O O6 0.500000 0.000000 0.500000
O O7 0.269146 0.879853 0.835349
O O8 0.304468 0.250000 0.124283
O O9 0.292666 0.449981 0.023483
O O10 0.627725 0.370294 0.932370
#
# Coordination Sequence:
#
# PCOD9165800 Si02
#       4
#     4   4   4   4
#     4  10  23  44  69 101 138 183 235 293 353 419
#     4  12  26  47  72 106 147 190 241 297 357 426
#     4  10  21  40  66 101 141 180 230 287 355 426
#     4  10  22  42  66 101 140 181 237 287 354 417
#
# _framework density 23.859855
#
# number of rings (size 3 to 8) (size 9 to 14) (size 15 to 20)
#    0.000    1.500    2.500    1.500    0.000    7.000 
#    0.000    6.250    0.000    0.000    0.000    0.000 
#    0.000    0.000    0.000    0.000    0.000    0.000 
#
# Total GULP energy -89086.209613 kJ/mol
# GULP energy per Si atom -5567.888101 kJ/mol
# Density = 2.380555 g / cm^3
# Si number density = 23.859855 Si / 1000 Ang^3
#
#
#
# Elastic Constant Matrix: (Units=GPa)
#
#
# Indices 1 2 3 4 5 6 
#
# 1 59.8561 34.0589 6.4450 0.0000 14.2561 0.0000
# 2 34.0589 177.4572 41.4632 0.0000 6.2916 0.0000
# 3 6.4450 41.4632 77.9344 0.0000 -6.6411 0.0000
# 4 0.0000 0.0000 0.0000 8.8414 0.0000 0.0711
# 5 14.2561 6.2916 -6.6411 0.0000 34.9061 0.0000
# 6 0.0000 0.0000 0.0000 0.0711 0.0000 -8.5181
#
#
#
# Elastic Compliance Matrix: (Units=1/GPa)
#
#
# Indices 1 2 3 4 5 6 
#
# 1 0.020672 -0.003576 -0.000479 0.000000 -0.007889 0.000000
# 2 -0.003576 0.007172 -0.003564 0.000000 -0.000510 0.000000
# 3 -0.000479 -0.003564 0.015083 0.000000 0.003708 0.000000
# 4 0.000000 0.000000 0.000000 0.113097 0.000000 0.000944
# 5 -0.007889 -0.000510 0.003708 0.000000 0.032668 0.000000
# 6 0.000000 0.000000 0.000000 0.000944 0.000000 -0.117389
#
#
# Mechanical properties :
#
#
# Convention : Reuss Voigt Hill
#
# Bulk Modulus (GPa) = 36.11476 53.24245 44.67861
# Shear Modulus (GPa) = 52.20815 22.59790 37.40303
#
# Velocity S-wave (km/s) = 4.68281 3.08085 3.96361
# Velocity P-wave (km/s) = 6.66388 5.91766 6.30182
#
# Compressibility (1/GPa) = 0.02768951
#
# Stress axis : x y z
#
# Youngs Moduli (GPa) = 48.37440 139.42744 66.30065
#
# Poissons Ratio (x) = 0.49857 0.03178
# Poissons Ratio (y) = 0.17298 0.23627
# Poissons Ratio (z) = 0.02319 0.49686
#
# Static dielectric constant tensor:
#      x y z
#    x 2.040690 0.000000 -0.125500 
#    y 0.000000 2.022390 0.000000 
#    z -0.125500 0.000000 2.098600 
# 
# From -- ./inp_files/11645.got.cif
#   From: 2010.05.17/outbox.cif.g08.bks.cpg/sg11_6_cif.got.tgz:11645.got - 2010.06.03 12:22:45.
