data_PCOD9165370
_publ_section_title
;
Structure prediction by ZEFSAII (Michael W. Deem and Ramdas Pophale) SiO2 
 PCOD9165370
Probable space group: P 21/M
;
_chemical_formula_sum "Si O2"
_cell_formula_units_Z 32
_cell_length_a 31.997249
_cell_length_b 8.923938
_cell_length_c 12.360702
_cell_angle_alpha 90.000000
_cell_angle_beta 150.693503
_cell_angle_gamma 90.000000
_cell_volume 1727.620936
_symmetry_space_group_name_H-M "P 21/M"
_symmetry_group_IT_number 11
_symmetry_cell_setting 'monoclinic'
loop_
_space_group_symop_operation_xyz
x,y,z
-x,1/2+y,-z
-x,-y,-z
x,1/2-y,z
loop_
_atom_site_type_symbol
_atom_site_label
_atom_site_fract_x
_atom_site_fract_y
_atom_site_fract_z
Si Si1 0.593281 0.929465 0.701685
Si Si2 0.247006 0.068691 0.798305
Si Si3 0.276031 0.072657 0.622075
Si Si4 0.773957 0.428075 0.715203
Si Si5 0.478687 0.072606 0.067494
Si Si6 0.911675 0.927141 0.168044
Si Si7 0.627389 0.929325 0.534500
Si Si8 0.111977 0.572405 0.655926
O O1 0.583581 0.750000 0.685391
O O2 0.633890 0.965517 0.676138
O O3 0.500000 0.000000 0.500000
O O4 0.659993 0.975390 0.944889
O O5 0.241712 0.250000 0.794281
O O6 0.238434 0.027638 0.653252
O O7 0.175896 0.995177 0.712857
O O8 0.259851 0.250000 0.568093
O O9 0.242407 0.983017 0.443448
O O10 0.378314 0.054355 0.860987
O O11 0.770091 0.250000 0.712629
O O12 0.700672 0.497837 0.626761
O O13 0.862962 0.489121 0.962588
O O14 0.498059 0.250000 0.109633
O O15 0.537486 0.992073 0.288254
O O16 0.500000 0.000000 0.000000
O O17 0.894446 0.750000 0.123469
O O18 0.013541 0.950898 0.397971
O O19 0.877926 0.991165 0.205984
O O20 0.630579 0.750000 0.528387
O O21 0.125577 0.750000 0.700028
#
# Coordination Sequence:
#
# PCOD9165370 Si02
#       8
#     4   4   4   4   4   4   4   4
#     4  10  22  38  57  83 114 151 192 237 286 338
#     4  10  21  39  61  84 115 159 200 235 286 348
#     4  10  22  39  58  80 114 158 200 243 292 347
#     4  12  24  37  58  87 115 147 193 245 294 344
#     4  11  21  35  56  81 111 151 198 243 288 340
#     4  10  21  39  63  89 121 152 184 233 291 350
#     4  11  22  36  56  83 117 153 191 238 295 351
#     4  10  21  38  63  94 120 149 189 234 286 344
#
# _framework density 18.522582
#
# number of rings (size 3 to 8) (size 9 to 14) (size 15 to 20)
#    0.000    1.500    1.250    4.125    0.000    6.000 
#    0.000    0.625    0.000    0.000    0.000    0.000 
#    0.000    0.000    0.000    0.000    0.000    0.000 
#
# Total GULP energy -178896.403434 kJ/mol
# GULP energy per Si atom -5590.512607 kJ/mol
# Density = 1.848042 g / cm^3
# Si number density = 18.522582 Si / 1000 Ang^3
#
#
#
# Elastic Constant Matrix: (Units=GPa)
#
#
# Indices 1 2 3 4 5 6 
#
# 1 117.1216 52.6894 44.3921 0.0000 -3.7887 0.0000
# 2 52.6894 76.5783 52.8772 0.0000 -9.1542 0.0000
# 3 44.3921 52.8772 82.9776 0.0000 -19.2209 0.0000
# 4 0.0000 0.0000 0.0000 33.2229 0.0000 2.1952
# 5 -3.7887 -9.1542 -19.2209 0.0000 28.6354 0.0000
# 6 0.0000 0.0000 0.0000 2.1952 0.0000 26.0702
#
#
#
# Elastic Compliance Matrix: (Units=1/GPa)
#
#
# Indices 1 2 3 4 5 6 
#
# 1 0.012730 -0.007062 -0.002893 0.000000 -0.002515 0.000000
# 2 -0.007062 0.027455 -0.014092 0.000000 -0.001616 0.000000
# 3 -0.002893 -0.014092 0.025395 0.000000 0.012158 0.000000
# 4 0.000000 0.000000 0.000000 0.030268 0.000000 -0.002549
# 5 -0.002515 -0.001616 0.012158 0.000000 0.042233 0.000000
# 6 0.000000 0.000000 0.000000 -0.002549 0.000000 0.038573
#
#
# Mechanical properties :
#
#
# Convention : Reuss Voigt Hill
#
# Bulk Modulus (GPa) = 57.18524 64.06611 60.62568
# Shear Modulus (GPa) = 21.68479 26.03362 23.85920
#
# Velocity S-wave (km/s) = 3.42529 3.75308 3.59292
# Velocity P-wave (km/s) = 6.82523 7.31054 7.07205
#
# Compressibility (1/GPa) = 0.01748703
#
# Stress axis : x y z
#
# Youngs Moduli (GPa) = 78.55287 36.42374 39.37751
#
# Poissons Ratio (x) = 0.25723 0.11391
# Poissons Ratio (y) = 0.55476 0.55489
# Poissons Ratio (z) = 0.22724 0.51327
#
# Static dielectric constant tensor:
#      x y z
#    x 1.622340 0.000000 -0.004480 
#    y 0.000000 1.619850 0.000000 
#    z -0.004480 0.000000 1.635780 
# 
# From -- ./inp_files/45322.got.cif
#   From: 2010.05.17/outbox.cif.g08.bks.cpg/sg11_23_cif.got.tgz:45322.got - 2010.06.03 12:22:45.
