data_PCOD9165640
_publ_section_title
;
Structure prediction by ZEFSAII (Michael W. Deem and Ramdas Pophale) SiO2 
 PCOD9165640
Probable space group: P 21/M
;
_chemical_formula_sum "Si O2"
_cell_formula_units_Z 32
_cell_length_a 14.248246
_cell_length_b 13.732667
_cell_length_c 9.240692
_cell_angle_alpha 90.000000
_cell_angle_beta 118.058276
_cell_angle_gamma 90.000000
_cell_volume 1595.587254
_symmetry_space_group_name_H-M "P 21/M"
_symmetry_group_IT_number 11
_symmetry_cell_setting 'monoclinic'
loop_
_space_group_symop_operation_xyz
x,y,z
-x,1/2+y,-z
-x,-y,-z
x,1/2-y,z
loop_
_atom_site_type_symbol
_atom_site_label
_atom_site_fract_x
_atom_site_fract_y
_atom_site_fract_z
Si Si1 0.100290 0.367698 0.131679
Si Si2 0.668547 0.133243 0.740767
Si Si3 0.455092 0.362064 0.074164
Si Si4 0.540026 0.561754 0.247857
Si Si5 0.745402 0.508129 0.551363
Si Si6 0.129565 0.634330 0.921284
Si Si7 0.878340 0.019755 0.373170
Si Si8 0.206616 0.136686 0.904617
O O1 0.109996 0.250000 0.158236
O O2 0.177409 0.424323 0.296928
O O3 0.978743 0.396895 0.076952
O O4 0.136637 0.388836 0.994163
O O5 0.670665 0.250000 0.722404
O O6 0.556760 0.100586 0.726481
O O7 0.693847 0.074407 0.614192
O O8 0.762673 0.103679 0.920453
O O9 0.485883 0.250000 0.127123
O O10 0.522124 0.447019 0.198815
O O11 0.460599 0.382549 0.905986
O O12 0.331574 0.376207 0.028271
O O13 0.650814 0.570469 0.411318
O O14 0.813135 0.461096 0.470853
O O15 0.129217 0.750000 0.926119
O O16 0.128413 0.600773 0.755289
O O17 0.827466 0.926689 0.256208
O O18 0.000000 0.000000 0.500000
O O19 0.190237 0.250000 0.860412
#
# Coordination Sequence:
#
# PCOD9165640 Si02
#       8
#     4   4   4   4   4   4   4   4
#     4  10  22  41  66  94 125 167 215 264 316 377
#     4  11  26  45  66  92 127 174 218 263 323 385
#     4  10  21  39  65  95 125 165 216 265 319 380
#     4  11  23  42  64  93 130 170 212 268 320 382
#     4  12  25  41  65  98 132 166 211 267 323 383
#     4  10  23  43  65  89 125 172 218 258 313 389
#     4  12  24  39  62  95 130 167 203 263 327 375
#     4  10  22  41  65  92 122 162 214 263 311 376
#
# _framework density 20.055312000000001
#
# number of rings (size 3 to 8) (size 9 to 14) (size 15 to 20)
#    0.000    1.250    2.500    3.000    3.500    4.000 
#    0.000    1.250    0.000    0.000    0.000    0.000 
#    0.000    0.000    0.000    0.000    0.000    0.000 
#
# Total GULP energy -178969.205674 kJ/mol
# GULP energy per Si atom -5592.787677 kJ/mol
# Density = 2.000967 g / cm^3
# Si number density = 20.055312 Si / 1000 Ang^3
#
#
#
# Elastic Constant Matrix: (Units=GPa)
#
#
# Indices 1 2 3 4 5 6 
#
# 1 140.1756 3.8932 21.8756 0.0000 -19.1771 0.0000
# 2 3.8932 58.1419 -12.7117 0.0000 -3.6419 0.0000
# 3 21.8756 -12.7117 51.9595 0.0000 -5.4783 0.0000
# 4 0.0000 0.0000 0.0000 -9.4014 0.0000 -1.5664
# 5 -19.1771 -3.6419 -5.4783 0.0000 41.0319 0.0000
# 6 0.0000 0.0000 0.0000 -1.5664 0.0000 31.3145
#
#
#
# Elastic Compliance Matrix: (Units=1/GPa)
#
#
# Indices 1 2 3 4 5 6 
#
# 1 0.008131 -0.001071 -0.003342 0.000000 0.003259 0.000000
# 2 -0.001071 0.018517 0.005174 0.000000 0.001834 0.000000
# 3 -0.003342 0.005174 0.022114 0.000000 0.001850 0.000000
# 4 0.000000 0.000000 0.000000 -0.105488 0.000000 -0.005277
# 5 0.003259 0.001834 0.001850 0.000000 0.026304 0.000000
# 6 0.000000 0.000000 0.000000 -0.005277 0.000000 0.031670
#
#
# Mechanical properties :
#
#
# Convention : Reuss Voigt Hill
#
# Bulk Modulus (GPa) = 19.88648 30.71011 25.29830
# Shear Modulus (GPa) = 303.28613 28.40366 165.84489
#
# Velocity S-wave (km/s) = 12.31069 3.76741 9.10348
# Velocity P-wave (km/s) = 14.56050 5.85410 11.09682
#
# Compressibility (1/GPa) = 0.05028542
#
# Stress axis : x y z
#
# Youngs Moduli (GPa) = 122.98616 54.00396 45.22107
#
# Poissons Ratio (x) = 0.05783 0.15111
# Poissons Ratio (y) = 0.13171 -0.23399
# Poissons Ratio (z) = 0.41098 -0.27944
#
# Static dielectric constant tensor:
#      x y z
#    x 1.695000 0.000000 0.000550 
#    y 0.000000 1.730770 0.000000 
#    z 0.000550 0.000000 1.674510 
# 
# From -- ./inp_files/22217.got.cif
#   From: 2010.05.17/outbox.cif.g08.bks.cpg/sg11_12_cif.got.tgz:22217.got - 2010.06.03 12:22:45.
