data_PCOD9165656
_publ_section_title
;
Structure prediction by ZEFSAII (Michael W. Deem and Ramdas Pophale) SiO2 
 PCOD9165656
Probable space group: P 21/M
;
_chemical_formula_sum "Si O2"
_cell_formula_units_Z 22
_cell_length_a 14.166503
_cell_length_b 8.832753
_cell_length_c 7.218388
_cell_angle_alpha 90.000000
_cell_angle_beta 94.811009
_cell_angle_gamma 90.000000
_cell_volume 900.048976
_symmetry_space_group_name_H-M "P 21/M"
_symmetry_group_IT_number 11
_symmetry_cell_setting 'monoclinic'
loop_
_space_group_symop_operation_xyz
x,y,z
-x,1/2+y,-z
-x,-y,-z
x,1/2-y,z
loop_
_atom_site_type_symbol
_atom_site_label
_atom_site_fract_x
_atom_site_fract_y
_atom_site_fract_z
Si Si1 0.654484 0.250000 0.144895
Si Si2 0.869279 0.430254 0.813540
Si Si3 0.072538 0.428158 0.786042
Si Si4 0.440671 0.750000 0.248931
Si Si5 0.658735 0.526431 0.671548
Si Si6 0.728049 0.919797 0.293232
Si Si7 0.440248 0.250000 0.082192
O O1 0.697656 0.414007 0.207576
O O2 0.544913 0.250000 0.190106
O O3 0.644113 0.250000 0.920365
O O4 0.861917 0.250000 0.799023
O O5 0.768044 0.491943 0.736379
O O6 0.965901 0.479360 0.722958
O O7 0.891204 0.482283 0.027108
O O8 0.064235 0.250000 0.834305
O O9 0.158820 0.440303 0.657450
O O10 0.416996 0.606655 0.364763
O O11 0.531090 0.750000 0.129682
O O12 0.669075 0.596488 0.471255
O O13 0.616500 0.610982 0.843081
O O14 0.723286 0.750000 0.196134
#
# Coordination Sequence:
#
# PCOD9165656 Si02
#       7
#     2   4   4   2   4   4   2
#     4  10  25  47  69  93 134 182 228 286 340 396
#     4  10  21  39  66  97 133 179 222 272 329 406
#     4   9  21  40  63  99 136 173 225 270 329 405
#     4  10  23  45  64  93 122 174 233 282 332 406
#     4  12  22  43  66  95 134 171 224 283 342 401
#     4  11  24  44  68 103 139 180 224 278 342 413
#     4  10  26  44  63  96 132 172 231 284 344 402
#
# _framework density 24.443113
#
# number of rings (size 3 to 8) (size 9 to 14) (size 15 to 20)
#    0.545    1.091    1.818    2.182    2.545    1.455 
#    3.273    0.000    0.000    0.000    0.000    0.000 
#    0.000    0.000    0.000    0.000    0.000    0.000 
#
# Total GULP energy -122629.700201 kJ/mol
# GULP energy per Si atom -5574.077282 kJ/mol
# Density = 2.438748 g / cm^3
# Si number density = 24.443113 Si / 1000 Ang^3
#
#
#
# Elastic Constant Matrix: (Units=GPa)
#
#
# Indices 1 2 3 4 5 6 
#
# 1 174.4482 54.1781 31.0978 0.0000 -35.3923 0.0000
# 2 54.1781 111.6530 19.8628 0.0000 -4.6654 0.0000
# 3 31.0978 19.8628 63.4015 0.0000 -26.9593 0.0000
# 4 0.0000 0.0000 0.0000 30.7186 0.0000 -7.1331
# 5 -35.3923 -4.6654 -26.9593 0.0000 52.9216 0.0000
# 6 0.0000 0.0000 0.0000 -7.1331 0.0000 38.9254
#
#
#
# Elastic Compliance Matrix: (Units=1/GPa)
#
#
# Indices 1 2 3 4 5 6 
#
# 1 0.007886 -0.003486 -0.000848 0.000000 0.004535 0.000000
# 2 -0.003486 0.011057 -0.002976 0.000000 -0.002873 0.000000
# 3 -0.000848 -0.002976 0.021404 0.000000 0.010075 0.000000
# 4 0.000000 0.000000 0.000000 0.034000 0.000000 0.006231
# 5 0.004535 -0.002873 0.010075 0.000000 0.026808 0.000000
# 6 0.000000 0.000000 0.000000 0.006231 0.000000 0.026832
#
#
# Mechanical properties :
#
#
# Convention : Reuss Voigt Hill
#
# Bulk Modulus (GPa) = 38.86685 62.19781 50.53233
# Shear Modulus (GPa) = 33.07242 40.80404 36.93823
#
# Velocity S-wave (km/s) = 3.68236 4.09020 3.89162
# Velocity P-wave (km/s) = 5.83225 6.91429 6.39619
#
# Compressibility (1/GPa) = 0.02572887
#
# Stress axis : x y z
#
# Youngs Moduli (GPa) = 126.80225 90.43729 46.71963
#
# Poissons Ratio (x) = 0.31531 0.03960
# Poissons Ratio (y) = 0.44209 0.13902
# Poissons Ratio (z) = 0.10747 0.26910
#
# Static dielectric constant tensor:
#      x y z
#    x 1.953860 0.000000 0.023520 
#    y 0.000000 1.715810 0.000000 
#    z 0.023520 0.000000 1.936550 
# 
# From -- ./inp_files/20436.got.cif
#   From: 2010.05.17/outbox.cif.g08.bks.cpg/sg11_11_cif.got.tgz:20436.got - 2010.06.03 12:22:45.
