data_PCOD9165281
_publ_section_title
;
Structure prediction by ZEFSAII (Michael W. Deem and Ramdas Pophale) SiO2 
 PCOD9165281
Probable space group: P 21/M
;
_chemical_formula_sum "Si O2"
_cell_formula_units_Z 28
_cell_length_a 23.288357
_cell_length_b 8.517282
_cell_length_c 8.540726
_cell_angle_alpha 90.000000
_cell_angle_beta 132.312013
_cell_angle_gamma 90.000000
_cell_volume 1252.757335
_symmetry_space_group_name_H-M "P 21/M"
_symmetry_group_IT_number 11
_symmetry_cell_setting 'monoclinic'
loop_
_space_group_symop_operation_xyz
x,y,z
-x,1/2+y,-z
-x,-y,-z
x,1/2-y,z
loop_
_atom_site_type_symbol
_atom_site_label
_atom_site_fract_x
_atom_site_fract_y
_atom_site_fract_z
Si Si1 0.391925 0.936776 0.631996
Si Si2 0.534472 0.063756 0.724060
Si Si3 0.681747 0.441238 0.175116
Si Si4 0.746830 0.566667 0.804505
Si Si5 0.957982 0.935792 0.697160
Si Si6 0.169636 0.561947 0.734345
Si Si7 0.880954 0.065968 0.867369
O O1 0.403260 0.750000 0.659491
O O2 0.351041 0.991146 0.717268
O O3 0.473474 0.018102 0.747101
O O4 0.332496 0.978788 0.383645
O O5 0.538878 0.250000 0.719101
O O6 0.500000 0.000000 0.500000
O O7 0.619576 0.005473 0.930460
O O8 0.682030 0.250000 0.177186
O O9 0.768253 0.487627 0.286038
O O10 0.731877 0.750000 0.798830
O O11 0.806713 0.536229 0.772295
O O12 0.790902 0.494734 0.033967
O O13 0.947979 0.750000 0.703360
O O14 0.913077 0.988502 0.460119
O O15 0.917850 0.027758 0.767265
O O16 0.049805 0.965957 0.881168
O O17 0.162714 0.750000 0.723888
O O18 0.859485 0.250000 0.835045
#
# Coordination Sequence:
#
# PCOD9165281 Si02
#       7
#     4   4   4   4   4   4   4
#     4  11  22  40  63  88 118 154 196 243 298 359
#     4  11  22  39  61  89 122 157 197 242 294 349
#     4   9  21  39  61  86 115 153 197 241 288 348
#     4  12  25  40  59  87 120 155 199 251 303 355
#     4  10  21  38  61  90 121 154 197 248 298 353
#     4  11  22  39  62  87 118 159 202 245 298 358
#     4  10  21  39  62  87 118 158 200 244 299 359
#
# _framework density 22.350695000000002
#
# number of rings (size 3 to 8) (size 9 to 14) (size 15 to 20)
#    0.000    1.429    0.000    5.571    0.000    4.571 
#    0.000    6.429    0.000    0.000    0.000    0.000 
#    0.000    0.000    0.000    0.000    0.000    0.000 
#
# Total GULP energy -156700.582788 kJ/mol
# GULP energy per Si atom -5596.449385 kJ/mol
# Density = 2.229982 g / cm^3
# Si number density = 22.350695 Si / 1000 Ang^3
#
#
#
# Elastic Constant Matrix: (Units=GPa)
#
#
# Indices 1 2 3 4 5 6 
#
# 1 42.1317 -2.0395 -8.4099 0.0000 2.0847 0.0000
# 2 -2.0395 43.0046 9.6000 0.0000 6.1115 0.0000
# 3 -8.4099 9.6000 104.1417 0.0000 6.5864 0.0000
# 4 0.0000 0.0000 0.0000 29.8099 0.0000 -0.9994
# 5 2.0847 6.1115 6.5864 0.0000 33.1896 0.0000
# 6 0.0000 0.0000 0.0000 -0.9994 0.0000 31.4513
#
#
#
# Elastic Compliance Matrix: (Units=1/GPa)
#
#
# Indices 1 2 3 4 5 6 
#
# 1 0.024288 0.001004 0.002002 0.000000 -0.002108 0.000000
# 2 0.001004 0.024316 -0.001897 0.000000 -0.004164 0.000000
# 3 0.002002 -0.001897 0.010051 0.000000 -0.001771 0.000000
# 4 0.000000 0.000000 0.000000 0.033582 0.000000 0.001067
# 5 -0.002108 -0.004164 -0.001771 0.000000 0.031381 0.000000
# 6 0.000000 0.000000 0.000000 0.001067 0.000000 0.031829
#
#
# Mechanical properties :
#
#
# Convention : Reuss Voigt Hill
#
# Bulk Modulus (GPa) = 16.42745 20.84213 18.63479
# Shear Modulus (GPa) = 28.81540 31.56533 30.19037
#
# Velocity S-wave (km/s) = 3.59449 3.76210 3.67925
# Velocity P-wave (km/s) = 4.95913 5.31192 5.13856
#
# Compressibility (1/GPa) = 0.06087371
#
# Stress axis : x y z
#
# Youngs Moduli (GPa) = 41.17317 41.12478 99.49404
#
# Poissons Ratio (x) = -0.04131 -0.19919
# Poissons Ratio (y) = -0.04136 0.18874
# Poissons Ratio (z) = -0.08243 0.07802
#
# Static dielectric constant tensor:
#      x y z
#    x 1.845160 0.000000 -0.022060 
#    y 0.000000 1.752840 0.000000 
#    z -0.022060 0.000000 1.852450 
# 
# From -- ./inp_files/28538.got.cif
#   From: 2010.05.17/outbox.cif.g08.bks.cpg/sg11_15_cif.got.tgz:28538.got - 2010.06.03 12:22:45.
