data_PCOD9165982
_publ_section_title
;
Structure prediction by ZEFSAII (Michael W. Deem and Ramdas Pophale) SiO2 
 PCOD9165982
Probable space group: P 21/M
;
_chemical_formula_sum "Si O2"
_cell_formula_units_Z 28
_cell_length_a 5.478586
_cell_length_b 11.322431
_cell_length_c 21.264019
_cell_angle_alpha 90.000000
_cell_angle_beta 65.035529
_cell_angle_gamma 90.000000
_cell_volume 1195.789420
_symmetry_space_group_name_H-M "P 21/M"
_symmetry_group_IT_number 11
_symmetry_cell_setting 'monoclinic'
loop_
_space_group_symop_operation_xyz
x,y,z
-x,1/2+y,-z
-x,-y,-z
x,1/2-y,z
loop_
_atom_site_type_symbol
_atom_site_label
_atom_site_fract_x
_atom_site_fract_y
_atom_site_fract_z
Si Si1 0.089522 0.520986 0.090724
Si Si2 0.714707 0.372093 0.413083
Si Si3 0.536299 0.546711 0.336479
Si Si4 0.869025 0.376272 0.532803
Si Si5 0.079978 0.621261 0.226150
Si Si6 0.732403 0.885346 0.722036
Si Si7 0.638753 0.112326 0.065004
O O1 0.336968 0.434840 0.084294
O O2 0.049259 0.604189 0.154875
O O3 0.814408 0.455934 0.098960
O O4 0.198009 0.589709 0.017639
O O5 0.605129 0.250000 0.396612
O O6 0.586257 0.484936 0.397256
O O7 0.686932 0.364820 0.490063
O O8 0.024007 0.378561 0.355195
O O9 0.264043 0.614060 0.383576
O O10 0.785391 0.623030 0.288776
O O11 0.515689 0.438408 0.289896
O O12 0.024099 0.250000 0.515875
O O13 0.000000 0.500000 0.500000
O O14 0.214536 0.750000 0.224311
O O15 0.203328 0.496768 0.238874
O O16 0.698505 0.750000 0.749902
O O17 0.632755 0.250000 0.080316
#
# Coordination Sequence:
#
# PCOD9165982 Si02
#       7
#     4   4   4   4   4   4   4
#     4  10  23  42  68 104 139 189 232 284 356 415
#     4   9  19  37  60  87 118 154 204 264 329 391
#     4  11  22  40  63  93 124 168 214 274 332 410
#     4  11  22  38  61  89 119 160 213 271 337 400
#     4  11  26  45  64  95 136 179 223 273 341 418
#     4  10  22  41  64  91 125 168 218 273 332 400
#     4  10  21  42  71 104 141 180 237 296 344 410
#
# _framework density 23.415495
#
# number of rings (size 3 to 8) (size 9 to 14) (size 15 to 20)
#    0.000    1.714    1.429    2.143    2.000    3.429 
#    0.000    2.143    0.000    0.000    0.000    0.000 
#    0.000    0.000    0.000    0.000    0.000    0.000 
#
# Total GULP energy -156027.744396 kJ/mol
# GULP energy per Si atom -5572.419443 kJ/mol
# Density = 2.336220 g / cm^3
# Si number density = 23.415495 Si / 1000 Ang^3
#
#
#
# Elastic Constant Matrix: (Units=GPa)
#
#
# Indices 1 2 3 4 5 6 
#
# 1 61.9004 31.5719 3.4027 0.0000 8.8668 0.0000
# 2 31.5719 197.4917 39.6632 0.0000 13.8103 0.0000
# 3 3.4027 39.6632 91.9862 0.0000 11.3053 0.0000
# 4 0.0000 0.0000 0.0000 -0.4013 0.0000 -8.2254
# 5 8.8668 13.8103 11.3053 0.0000 21.7952 0.0000
# 6 0.0000 0.0000 0.0000 -8.2254 0.0000 5.0231
#
#
#
# Elastic Compliance Matrix: (Units=1/GPa)
#
#
# Indices 1 2 3 4 5 6 
#
# 1 0.018407 -0.002754 0.001295 0.000000 -0.006415 0.000000
# 2 -0.002754 0.006079 -0.002332 0.000000 -0.001521 0.000000
# 3 0.001295 -0.002332 0.012509 0.000000 -0.005538 0.000000
# 4 0.000000 0.000000 0.000000 -0.072094 0.000000 -0.118057
# 5 -0.006415 -0.001521 -0.005538 0.000000 0.052328 0.000000
# 6 0.000000 0.000000 0.000000 -0.118057 0.000000 0.005760
#
#
# Mechanical properties :
#
#
# Convention : Reuss Voigt Hill
#
# Bulk Modulus (GPa) = 33.99845 55.62822 44.81334
# Shear Modulus (GPa) = 123.83405 23.73275 73.78340
#
# Velocity S-wave (km/s) = 7.28013 3.18708 5.61951
# Velocity P-wave (km/s) = 9.23137 6.11162 7.82848
#
# Compressibility (1/GPa) = 0.02941310
#
# Stress axis : x y z
#
# Youngs Moduli (GPa) = 54.32571 164.51246 79.93934
#
# Poissons Ratio (x) = 0.45310 -0.10353
# Poissons Ratio (y) = 0.14962 0.18643
# Poissons Ratio (z) = -0.07036 0.38366
#
# Static dielectric constant tensor:
#      x y z
#    x 1.973900 0.000000 -0.017930 
#    y 0.000000 1.952070 0.000000 
#    z -0.017930 0.000000 1.876740 
# 
# From -- ./inp_files/62665.got.cif
#   From: 2010.05.17/outbox.cif.g08.bks.cpg/sg11_32_cif.got.tgz:62665.got - 2010.06.03 12:22:45.
