data_PCOD9165754
_publ_section_title
;
Structure prediction by ZEFSAII (Michael W. Deem and Ramdas Pophale) SiO2 
 PCOD9165754
Probable space group: P 21/M
;
_chemical_formula_sum "Si O2"
_cell_formula_units_Z 28
_cell_length_a 10.182809
_cell_length_b 8.703661
_cell_length_c 26.682659
_cell_angle_alpha 90.000000
_cell_angle_beta 141.451665
_cell_angle_gamma 90.000000
_cell_volume 1473.697794
_symmetry_space_group_name_H-M "P 21/M"
_symmetry_group_IT_number 11
_symmetry_cell_setting 'monoclinic'
loop_
_space_group_symop_operation_xyz
x,y,z
-x,1/2+y,-z
-x,-y,-z
x,1/2-y,z
loop_
_atom_site_type_symbol
_atom_site_label
_atom_site_fract_x
_atom_site_fract_y
_atom_site_fract_z
Si Si1 0.993681 0.566233 0.258169
Si Si2 0.540459 0.432714 0.140734
Si Si3 0.317410 0.932973 0.981633
Si Si4 0.873159 0.433087 0.812794
Si Si5 0.732400 0.434857 0.563627
Si Si6 0.461904 0.933938 0.742748
Si Si7 0.960902 0.565401 0.433222
O O1 0.949719 0.750000 0.247676
O O2 0.773718 0.477685 0.191905
O O3 0.120232 0.537825 0.244924
O O4 0.125627 0.520377 0.346300
O O5 0.508468 0.250000 0.126712
O O6 0.527457 0.476939 0.195273
O O7 0.378840 0.519210 0.056335
O O8 0.313495 0.750000 0.975170
O O9 0.092803 0.003110 0.899752
O O10 0.500000 0.000000 0.000000
O O11 0.863777 0.250000 0.817811
O O12 0.673672 0.511543 0.778810
O O13 0.500000 0.500000 0.500000
O O14 0.720950 0.250000 0.559991
O O15 0.852765 0.483841 0.549125
O O16 0.442618 0.750000 0.734132
O O17 0.258602 0.008115 0.655819
O O18 0.958067 0.750000 0.434299
O O19 0.000000 0.500000 0.500000
#
# Coordination Sequence:
#
# PCOD9165754 Si02
#       7
#     4   4   4   4   4   4   4
#     4  10  21  40  64  91 124 164 211 261 313 374
#     4  11  23  40  66  94 124 168 213 259 315 376
#     4  12  24  40  64  95 130 166 209 264 317 376
#     4  11  24  41  65  96 128 168 212 262 317 374
#     4  10  23  41  63  94 127 162 208 257 313 370
#     4  11  25  44  65  94 129 168 214 261 315 381
#     4  11  24  43  66  93 127 169 211 260 319 380
#
# _framework density 18.999825000000001
#
# number of rings (size 3 to 8) (size 9 to 14) (size 15 to 20)
#    0.000    1.143    2.857    3.000    2.000    4.571 
#    0.000    0.000    0.000    0.000    0.000    0.000 
#    0.000    0.000    0.000    0.000    0.000    0.000 
#
# Total GULP energy -156601.067681 kJ/mol
# GULP energy per Si atom -5592.895274 kJ/mol
# Density = 1.895658 g / cm^3
# Si number density = 18.999825 Si / 1000 Ang^3
#
#
#
# Elastic Constant Matrix: (Units=GPa)
#
#
# Indices 1 2 3 4 5 6 
#
# 1 142.6668 42.7621 69.2780 0.0000 -2.7095 0.0000
# 2 42.7621 49.2411 27.7900 0.0000 -10.1389 0.0000
# 3 69.2780 27.7900 115.7062 0.0000 -9.4101 0.0000
# 4 0.0000 0.0000 0.0000 37.2184 0.0000 3.7664
# 5 -2.7095 -10.1389 -9.4101 0.0000 40.4195 0.0000
# 6 0.0000 0.0000 0.0000 3.7664 0.0000 31.9651
#
#
#
# Elastic Compliance Matrix: (Units=1/GPa)
#
#
# Indices 1 2 3 4 5 6 
#
# 1 0.011965 -0.007793 -0.005490 0.000000 -0.002431 0.000000
# 2 -0.007793 0.029465 -0.001888 0.000000 0.006429 0.000000
# 3 -0.005490 -0.001888 0.012552 0.000000 0.002081 0.000000
# 4 0.000000 0.000000 0.000000 0.027193 0.000000 -0.003204
# 5 -0.002431 0.006429 0.002081 0.000000 0.026675 0.000000
# 6 0.000000 0.000000 0.000000 -0.003204 0.000000 0.031662
#
#
# Mechanical properties :
#
#
# Convention : Reuss Voigt Hill
#
# Bulk Modulus (GPa) = 42.30008 65.25269 53.77638
# Shear Modulus (GPa) = 28.13217 33.10619 30.61918
#
# Velocity S-wave (km/s) = 3.85210 4.17879 4.01877
# Velocity P-wave (km/s) = 6.48819 7.59615 7.06393
#
# Compressibility (1/GPa) = 0.02364062
#
# Stress axis : x y z
#
# Youngs Moduli (GPa) = 83.57913 33.93863 79.66685
#
# Poissons Ratio (x) = 0.26447 0.43736
# Poissons Ratio (y) = 0.65130 0.15043
# Poissons Ratio (z) = 0.45883 0.06408
#
# Static dielectric constant tensor:
#      x y z
#    x 1.644670 0.000000 -0.022300 
#    y 0.000000 1.639010 0.000000 
#    z -0.022300 0.000000 1.630430 
# 
# From -- ./inp_files/70897.got.cif
#   From: 2010.05.17/outbox.cif.g08.bks.cpg/sg11_36_cif.got.tgz:70897.got - 2010.06.03 12:22:45.
