data_PCOD9165330
_publ_section_title
;
Structure prediction by ZEFSAII (Michael W. Deem and Ramdas Pophale) SiO2 
 PCOD9165330
Probable space group: P 21/M
;
_chemical_formula_sum "Si O2"
_cell_formula_units_Z 24
_cell_length_a 12.753477
_cell_length_b 8.742487
_cell_length_c 12.023290
_cell_angle_alpha 90.000000
_cell_angle_beta 89.912367
_cell_angle_gamma 90.000000
_cell_volume 1340.560482
_symmetry_space_group_name_H-M "P 21/M"
_symmetry_group_IT_number 11
_symmetry_cell_setting 'monoclinic'
loop_
_space_group_symop_operation_xyz
x,y,z
-x,1/2+y,-z
-x,-y,-z
x,1/2-y,z
loop_
_atom_site_type_symbol
_atom_site_label
_atom_site_fract_x
_atom_site_fract_y
_atom_site_fract_z
Si Si1 0.999276 0.932901 0.376147
Si Si2 0.194396 0.067498 0.240869
Si Si3 0.621907 0.432512 0.621938
Si Si4 0.193410 0.932620 0.765309
Si Si5 0.375257 0.432529 0.620611
Si Si6 0.882651 0.932926 0.005844
O O1 0.993893 0.750000 0.379770
O O2 0.103483 0.986410 0.311977
O O3 0.000000 0.000000 0.500000
O O4 0.900340 0.998500 0.309043
O O5 0.186581 0.250000 0.257251
O O6 0.304775 0.007193 0.285718
O O7 0.173837 0.035241 0.111202
O O8 0.637073 0.250000 0.619338
O O9 0.498503 0.463576 0.640342
O O10 0.650835 0.501647 0.501445
O O11 0.187193 0.750000 0.763337
O O12 0.301324 0.989946 0.711265
O O13 0.176192 0.993460 0.889781
O O14 0.359246 0.250000 0.620694
O O15 0.888893 0.750000 0.020705
O O16 0.000000 0.000000 0.000000
#
# Coordination Sequence:
#
# PCOD9165330 Si02
#       6
#     4   4   4   4   4   4
#     4  12  24  38  58  84 119 154 192 241 296 354
#     4  11  23  39  60  87 119 153 196 242 293 353
#     4  10  21  38  62  90 120 156 197 242 296 354
#     4  12  24  39  60  87 119 154 199 245 295 353
#     4  10  21  39  62  88 120 157 198 243 295 353
#     4  11  23  40  62  86 117 158 200 244 294 353
#
# _framework density 17.902958999999999
#
# number of rings (size 3 to 8) (size 9 to 14) (size 15 to 20)
#    0.000    1.000    1.667    6.000    0.000    4.000 
#    0.000    0.833    0.000    0.000    0.000    0.000 
#    0.000    0.000    0.000    0.000    0.000    0.000 
#
# Total GULP energy -134261.228294 kJ/mol
# GULP energy per Si atom -5594.217846 kJ/mol
# Density = 1.786221 g / cm^3
# Si number density = 17.902959 Si / 1000 Ang^3
#
#
#
# Elastic Constant Matrix: (Units=GPa)
#
#
# Indices 1 2 3 4 5 6 
#
# 1 90.6392 67.0413 81.0224 0.0000 9.4298 0.0000
# 2 67.0413 134.4371 92.9255 0.0000 18.0199 0.0000
# 3 81.0224 92.9255 161.7433 0.0000 15.3071 0.0000
# 4 0.0000 0.0000 0.0000 34.8079 0.0000 0.9120
# 5 9.4298 18.0199 15.3071 0.0000 -8.9615 0.0000
# 6 0.0000 0.0000 0.0000 0.9120 0.0000 28.8943
#
#
#
# Elastic Compliance Matrix: (Units=1/GPa)
#
#
# Indices 1 2 3 4 5 6 
#
# 1 0.022272 -0.005505 -0.007889 0.000000 -0.001109 0.000000
# 2 -0.005505 0.012568 -0.005429 0.000000 0.010206 0.000000
# 3 -0.007889 -0.005429 0.012975 0.000000 0.002944 0.000000
# 4 0.000000 0.000000 0.000000 0.028753 0.000000 -0.000908
# 5 -0.001109 0.010206 0.002944 0.000000 -0.087203 0.000000
# 6 0.000000 0.000000 0.000000 -0.000908 0.000000 0.034638
#
#
# Mechanical properties :
#
#
# Convention : Reuss Voigt Hill
#
# Bulk Modulus (GPa) = 98.33776 96.53313 97.43544
# Shear Modulus (GPa) = 76.87784 20.67015 48.77399
#
# Velocity S-wave (km/s) = 6.56008 3.40158 5.22520
# Velocity P-wave (km/s) = 10.60316 8.33456 9.53656
#
# Compressibility (1/GPa) = 0.01016903
#
# Stress axis : x y z
#
# Youngs Moduli (GPa) = 44.89976 79.56564 77.07097
#
# Poissons Ratio (x) = 0.43800 0.60802
# Poissons Ratio (y) = 0.24717 0.41843
# Poissons Ratio (z) = 0.35422 0.43197
#
# Static dielectric constant tensor:
#      x y z
#    x 1.596360 0.000000 0.002660 
#    y 0.000000 1.596770 0.000000 
#    z 0.002660 0.000000 1.583580 
# 
# From -- ./inp_files/33778.got.cif
#   From: 2010.05.17/outbox.cif.g08.bks.cpg/sg11_17_cif.got.tgz:33778.got - 2010.06.03 12:22:45.
