data_PCOD9165543
_publ_section_title
;
Structure prediction by ZEFSAII (Michael W. Deem and Ramdas Pophale) SiO2 
 PCOD9165543
Probable space group: P 21/M
;
_chemical_formula_sum "Si O2"
_cell_formula_units_Z 30
_cell_length_a 21.996667
_cell_length_b 12.431579
_cell_length_c 5.207182
_cell_angle_alpha 90.000000
_cell_angle_beta 80.296590
_cell_angle_gamma 90.000000
_cell_volume 1403.549707
_symmetry_space_group_name_H-M "P 21/M"
_symmetry_group_IT_number 11
_symmetry_cell_setting 'monoclinic'
loop_
_space_group_symop_operation_xyz
x,y,z
-x,1/2+y,-z
-x,-y,-z
x,1/2-y,z
loop_
_atom_site_type_symbol
_atom_site_label
_atom_site_fract_x
_atom_site_fract_y
_atom_site_fract_z
Si Si1 0.077749 0.374554 0.902754
Si Si2 0.263540 0.980473 0.196553
Si Si3 0.133277 0.750000 0.857858
Si Si4 0.950636 0.080036 0.760664
Si Si5 0.146062 0.545636 0.559597
Si Si6 0.625911 0.626094 0.934730
Si Si7 0.572334 0.980387 0.465356
Si Si8 0.316403 0.626100 0.666376
O O1 0.089108 0.250000 0.963274
O O2 0.134499 0.438933 0.733649
O O3 0.019882 0.379546 0.746914
O O4 0.055635 0.456313 0.141698
O O5 0.287531 0.943447 0.457881
O O6 0.190515 0.984891 0.290909
O O7 0.303040 0.086007 0.102126
O O8 0.282910 0.898335 0.959748
O O9 0.170133 0.652956 0.680004
O O10 0.092153 0.656155 0.034287
O O11 0.920131 0.085350 0.503646
O O12 0.622990 0.750000 0.870870
O O13 0.591817 0.559566 0.734399
O O14 0.594422 0.602791 0.230648
O O15 0.500000 0.000000 0.500000
O O16 0.612926 0.085524 0.368135
O O17 0.314018 0.750000 0.604262
#
# Coordination Sequence:
#
# PCOD9165543 Si02
#       8
#     4   4   2   4   4   4   4   4
#     4  10  22  40  59  84 116 150 192 247 313 372
#     4  10  24  39  61  87 125 157 209 254 297 361
#     4  10  22  36  60  90 116 146 204 242 312 372
#     4  10  21  41  60  84 117 150 191 250 312 374
#     4  11  24  37  61  89 113 158 200 255 305 369
#     4  10  21  40  62  89 125 172 205 247 311 356
#     4  10  21  39  62  95 127 158 209 260 293 363
#     4  10  22  39  60  89 124 166 197 249 311 355
#
# _framework density 21.374378
#
# number of rings (size 3 to 8) (size 9 to 14) (size 15 to 20)
#    0.000    1.867    0.667    2.000    5.600    2.133 
#    0.000    0.000    0.000    0.000    0.000    0.000 
#    0.000    0.000    0.000    0.000    0.000    0.000 
#
# Total GULP energy -167041.318986 kJ/mol
# GULP energy per Si atom -5568.043966 kJ/mol
# Density = 2.132573 g / cm^3
# Si number density = 21.374378 Si / 1000 Ang^3
#
#
#
# Elastic Constant Matrix: (Units=GPa)
#
#
# Indices 1 2 3 4 5 6 
#
# 1 61.0091 8.5046 6.8243 0.0000 -9.9043 0.0000
# 2 8.5046 119.0508 -1.3991 0.0000 -16.4920 0.0000
# 3 6.8243 -1.3991 69.5169 0.0000 -13.3626 0.0000
# 4 0.0000 0.0000 0.0000 7.4224 0.0000 0.1619
# 5 -9.9043 -16.4920 -13.3626 0.0000 34.2695 0.0000
# 6 0.0000 0.0000 0.0000 0.1619 0.0000 3.6632
#
#
#
# Elastic Compliance Matrix: (Units=1/GPa)
#
#
# Indices 1 2 3 4 5 6 
#
# 1 0.017284 -0.000643 -0.000874 0.000000 0.004345 0.000000
# 2 -0.000643 0.009102 0.001138 0.000000 0.004638 0.000000
# 3 -0.000874 0.001138 0.015729 0.000000 0.006428 0.000000
# 4 0.000000 0.000000 0.000000 0.134857 0.000000 -0.005962
# 5 0.004345 0.004638 0.006428 0.000000 0.035175 0.000000
# 6 0.000000 0.000000 0.000000 -0.005962 0.000000 0.273250
#
#
# Mechanical properties :
#
#
# Convention : Reuss Voigt Hill
#
# Bulk Modulus (GPa) = 24.18079 30.82627 27.50353
# Shear Modulus (GPa) = 10.00117 24.78082 17.39099
#
# Velocity S-wave (km/s) = 2.16546 3.40865 2.85553
# Velocity P-wave (km/s) = 4.19402 5.47222 4.87519
#
# Compressibility (1/GPa) = 0.04135514
#
# Stress axis : x y z
#
# Youngs Moduli (GPa) = 57.85772 109.87123 63.57534
#
# Poissons Ratio (x) = 0.07066 0.05560
# Poissons Ratio (y) = 0.03721 -0.07234
# Poissons Ratio (z) = 0.05060 -0.12501
#
# Static dielectric constant tensor:
#      x y z
#    x 1.842970 0.000000 0.006500 
#    y 0.000000 1.747680 0.000000 
#    z 0.006500 0.000000 1.828740 
# 
# From -- ./inp_files/9331.got.cif
#   From: 2010.05.17/outbox.cif.g08.bks.cpg/sg11_5_cif.got.tgz:9331.got - 2010.06.03 12:22:45.
