data_PCOD9165591
_publ_section_title
;
Structure prediction by ZEFSAII (Michael W. Deem and Ramdas Pophale) SiO2 
 PCOD9165591
Probable space group: P 21/M
;
_chemical_formula_sum "Si O2"
_cell_formula_units_Z 28
_cell_length_a 14.844630
_cell_length_b 18.268856
_cell_length_c 5.630752
_cell_angle_alpha 90.000000
_cell_angle_beta 113.011144
_cell_angle_gamma 90.000000
_cell_volume 1405.521027
_symmetry_space_group_name_H-M "P 21/M"
_symmetry_group_IT_number 11
_symmetry_cell_setting 'monoclinic'
loop_
_space_group_symop_operation_xyz
x,y,z
-x,1/2+y,-z
-x,-y,-z
x,1/2-y,z
loop_
_atom_site_type_symbol
_atom_site_label
_atom_site_fract_x
_atom_site_fract_y
_atom_site_fract_z
Si Si1 0.460483 0.081502 0.915816
Si Si2 0.301556 0.056720 0.389396
Si Si3 0.716959 0.664575 0.010924
Si Si4 0.661399 0.163025 0.207992
Si Si5 0.740542 0.400701 0.795056
Si Si6 0.133251 0.071965 0.580919
Si Si7 0.057014 0.548690 0.870093
O O1 0.373022 0.115329 0.984573
O O2 0.551530 0.134378 0.049647
O O3 0.406962 0.074351 0.607093
O O4 0.500000 0.000000 0.000000
O O5 0.266765 0.131088 0.230984
O O6 0.216737 0.039742 0.493357
O O7 0.302967 0.983529 0.234039
O O8 0.695739 0.750000 0.998080
O O9 0.813680 0.641848 0.252944
O O10 0.664663 0.250000 0.231332
O O11 0.701057 0.130921 0.502040
O O12 0.714194 0.138916 0.016174
O O13 0.858226 0.405518 0.917975
O O14 0.029883 0.090478 0.354215
O O15 0.109171 0.008298 0.744769
O O16 0.000000 0.500000 0.000000
#
# Coordination Sequence:
#
# PCOD9165591 Si02
#       7
#     4   4   4   4   4   4   4
#     4  11  24  42  69  98 131 177 237 286 339 413
#     4  11  22  40  67 103 129 177 231 290 339 415
#     4  11  24  41  63  97 141 181 224 288 362 419
#     4  12  28  47  67  99 145 189 228 286 353 414
#     4  12  24  44  73 100 139 179 237 290 339 416
#     4  10  21  39  64 101 136 166 228 287 356 404
#     4  11  21  37  72 104 123 172 232 295 339 410
#
# _framework density 19.92144
#
# number of rings (size 3 to 8) (size 9 to 14) (size 15 to 20)
#    0.000    0.857    4.286    2.571    4.000    4.000 
#    0.000    1.429    0.000    0.000    0.000    0.000 
#    0.000    0.000    0.000    0.000    0.000    0.000 
#
# Total GULP energy -156202.326312 kJ/mol
# GULP energy per Si atom -5578.654511 kJ/mol
# Density = 1.987610 g / cm^3
# Si number density = 19.921440 Si / 1000 Ang^3
#
#
#
# Elastic Constant Matrix: (Units=GPa)
#
#
# Indices 1 2 3 4 5 6 
#
# 1 107.3804 40.4425 59.7318 0.0000 18.4526 0.0000
# 2 40.4425 130.1833 57.5940 0.0000 8.4873 0.0000
# 3 59.7318 57.5940 146.6572 0.0000 29.2104 0.0000
# 4 0.0000 0.0000 0.0000 27.4902 0.0000 1.8813
# 5 18.4526 8.4873 29.2104 0.0000 33.3993 0.0000
# 6 0.0000 0.0000 0.0000 1.8813 0.0000 16.3151
#
#
#
# Elastic Compliance Matrix: (Units=1/GPa)
#
#
# Indices 1 2 3 4 5 6 
#
# 1 0.012727 -0.002100 -0.003711 0.000000 -0.003252 0.000000
# 2 -0.002100 0.009671 -0.003251 0.000000 0.001545 0.000000
# 3 -0.003711 -0.003251 0.010939 0.000000 -0.006691 0.000000
# 4 0.000000 0.000000 0.000000 0.036666 0.000000 -0.004228
# 5 -0.003252 0.001545 -0.006691 0.000000 0.037197 0.000000
# 6 0.000000 0.000000 0.000000 -0.004228 0.000000 0.061780
#
#
# Mechanical properties :
#
#
# Convention : Reuss Voigt Hill
#
# Bulk Modulus (GPa) = 65.72786 77.75083 71.73934
# Shear Modulus (GPa) = 26.01805 30.53777 28.27791
#
# Velocity S-wave (km/s) = 3.61783 3.91949 3.77167
# Velocity P-wave (km/s) = 7.10751 7.71988 7.42002
#
# Compressibility (1/GPa) = 0.01521425
#
# Stress axis : x y z
#
# Youngs Moduli (GPa) = 78.57471 103.40078 91.41366
#
# Poissons Ratio (x) = 0.21712 0.33924
# Poissons Ratio (y) = 0.16499 0.29714
# Poissons Ratio (z) = 0.29160 0.33611
#
# Static dielectric constant tensor:
#      x y z
#    x 1.733330 0.000000 -0.039760 
#    y 0.000000 1.673420 0.000000 
#    z -0.039760 0.000000 1.830860 
# 
# From -- ./inp_files/6882.got.cif
#   From: 2010.05.17/outbox.cif.g08.bks.cpg/sg11_4_cif.got.tgz:6882.got - 2010.06.03 12:22:45.
