data_PCOD9165979
_publ_section_title
;
Structure prediction by ZEFSAII (Michael W. Deem and Ramdas Pophale) SiO2 
 PCOD9165979
Probable space group: P 21/M
;
_chemical_formula_sum "Si O2"
_cell_formula_units_Z 26
_cell_length_a 9.356275
_cell_length_b 14.426981
_cell_length_c 13.895300
_cell_angle_alpha 90.000000
_cell_angle_beta 39.715981
_cell_angle_gamma 90.000000
_cell_volume 1198.492327
_symmetry_space_group_name_H-M "P 21/M"
_symmetry_group_IT_number 11
_symmetry_cell_setting 'monoclinic'
loop_
_space_group_symop_operation_xyz
x,y,z
-x,1/2+y,-z
-x,-y,-z
x,1/2-y,z
loop_
_atom_site_type_symbol
_atom_site_label
_atom_site_fract_x
_atom_site_fract_y
_atom_site_fract_z
Si Si1 0.169340 0.750000 0.939642
Si Si2 0.238100 0.981268 0.148938
Si Si3 0.548513 0.641703 0.497456
Si Si4 0.792854 0.435111 0.635375
Si Si5 0.421305 0.935263 0.756420
Si Si6 0.090524 0.854155 0.620716
Si Si7 0.088133 0.420666 0.846266
O O1 0.355907 0.833545 0.826230
O O2 0.980798 0.832055 0.055980
O O3 0.101702 0.072318 0.254716
O O4 0.195586 0.907949 0.258499
O O5 0.124298 0.949228 0.108967
O O6 0.500000 0.000000 0.000000
O O7 0.581065 0.750000 0.502435
O O8 0.563500 0.580887 0.585129
O O9 0.297078 0.631101 0.586643
O O10 0.723531 0.610557 0.327694
O O11 0.573053 0.498996 0.742575
O O12 0.805838 0.363484 0.540605
O O13 0.000000 0.500000 0.500000
O O14 0.202027 0.994014 0.842319
O O15 0.004654 0.750000 0.678104
#
# Coordination Sequence:
#
# PCOD9165979 Si02
#       7
#     2   4   4   4   4   4   4
#     4  12  28  42  64 112 136 174 230 276 338 420
#     4  11  24  45  65  94 141 182 220 272 349 408
#     4  11  20  40  72 104 127 164 231 285 323 396
#     4  10  22  43  67  99 134 173 228 281 339 398
#     4  12  23  45  73  98 139 179 222 285 341 397
#     4  10  21  42  70 101 131 173 229 282 338 406
#     4  12  24  46  71  97 140 177 222 283 339 395
#
# _framework density 21.693923999999999
#
# number of rings (size 3 to 8) (size 9 to 14) (size 15 to 20)
#    0.000    0.923    4.615    3.692    0.000    0.000 
#   13.846    0.000    0.000    0.000    0.000    0.000 
#    0.000    0.000    0.000    0.000    0.000    0.000 
#
# Total GULP energy -144764.388471 kJ/mol
# GULP energy per Si atom -5567.861095 kJ/mol
# Density = 2.164455 g / cm^3
# Si number density = 21.693924 Si / 1000 Ang^3
#
#
#
# Elastic Constant Matrix: (Units=GPa)
#
#
# Indices 1 2 3 4 5 6 
#
# 1 82.0059 25.8507 -5.7924 0.0000 -9.5925 0.0000
# 2 25.8507 124.2880 19.2072 0.0000 -9.8711 0.0000
# 3 -5.7924 19.2072 83.8287 0.0000 -19.2556 0.0000
# 4 0.0000 0.0000 0.0000 46.3041 0.0000 5.8130
# 5 -9.5925 -9.8711 -19.2556 0.0000 30.3114 0.0000
# 6 0.0000 0.0000 0.0000 5.8130 0.0000 10.9295
#
#
#
# Elastic Compliance Matrix: (Units=1/GPa)
#
#
# Indices 1 2 3 4 5 6 
#
# 1 0.013930 -0.002918 0.002840 0.000000 0.005262 0.000000
# 2 -0.002918 0.009033 -0.002117 0.000000 0.000674 0.000000
# 3 0.002840 -0.002117 0.014821 0.000000 0.009625 0.000000
# 4 0.000000 0.000000 0.000000 0.023142 0.000000 -0.012308
# 5 0.005262 0.000674 0.009625 0.000000 0.040990 0.000000
# 6 0.000000 0.000000 0.000000 -0.012308 0.000000 0.098042
#
#
# Mechanical properties :
#
#
# Convention : Reuss Voigt Hill
#
# Bulk Modulus (GPa) = 29.94484 40.96151 35.45318
# Shear Modulus (GPa) = 23.20401 34.23280 28.71841
#
# Velocity S-wave (km/s) = 3.27404 3.97670 3.64235
# Velocity P-wave (km/s) = 5.30337 6.32520 5.83669
#
# Compressibility (1/GPa) = 0.03339473
#
# Stress axis : x y z
#
# Youngs Moduli (GPa) = 71.78581 110.70001 67.47125
#
# Poissons Ratio (x) = 0.32306 -0.19162
# Poissons Ratio (y) = 0.20949 0.14282
# Poissons Ratio (z) = -0.20387 0.23432
#
# Static dielectric constant tensor:
#      x y z
#    x 1.839590 0.000000 0.045620 
#    y 0.000000 1.760320 0.000000 
#    z 0.045620 0.000000 1.837770 
# 
# From -- ./inp_files/47742.got.cif
#   From: 2010.05.17/outbox.cif.g08.bks.cpg/sg11_24_cif.got.tgz:47742.got - 2010.06.03 12:22:45.
