data_PCOD9165045
_publ_section_title
;
Structure prediction by ZEFSAII (Michael W. Deem and Ramdas Pophale) SiO2 
 PCOD9165045
Probable space group: P 21/M
;
_chemical_formula_sum "Si O2"
_cell_formula_units_Z 28
_cell_length_a 7.409985
_cell_length_b 14.469045
_cell_length_c 12.384077
_cell_angle_alpha 90.000000
_cell_angle_beta 107.612328
_cell_angle_gamma 90.000000
_cell_volume 1265.525697
_symmetry_space_group_name_H-M "P 21/M"
_symmetry_group_IT_number 11
_symmetry_cell_setting 'monoclinic'
loop_
_space_group_symop_operation_xyz
x,y,z
-x,1/2+y,-z
-x,-y,-z
x,1/2-y,z
loop_
_atom_site_type_symbol
_atom_site_label
_atom_site_fract_x
_atom_site_fract_y
_atom_site_fract_z
Si Si1 0.118089 0.359489 0.314837
Si Si2 0.126828 0.140292 0.069457
Si Si3 0.756087 0.146038 0.912823
Si Si4 0.221493 0.533245 0.664086
Si Si5 0.448145 0.855782 0.532829
Si Si6 0.556957 0.640737 0.307502
Si Si7 0.547238 0.089370 0.080002
O O1 0.062478 0.250000 0.314782
O O2 0.987524 0.426133 0.361888
O O3 0.101651 0.391126 0.187675
O O4 0.336983 0.364771 0.386415
O O5 0.090901 0.250000 0.065737
O O6 0.341283 0.127934 0.071719
O O7 0.962966 0.101564 0.961281
O O8 0.777490 0.250000 0.873334
O O9 0.597236 0.104056 0.806673
O O10 0.670979 0.148214 0.018123
O O11 0.318083 0.575034 0.575106
O O12 0.258675 0.423553 0.668867
O O13 0.335079 0.571467 0.790049
O O14 0.386158 0.750000 0.542861
O O15 0.462463 0.869890 0.407529
O O16 0.598228 0.750000 0.297709
O O17 0.500000 0.000000 0.000000
#
# Coordination Sequence:
#
# PCOD9165045 Si02
#       7
#     4   4   4   4   4   4   4
#     4  10  21  37  63 100 128 154 204 267 322 370
#     4  10  21  38  62  92 127 163 201 254 317 375
#     4  10  21  40  62  88 125 166 206 253 309 374
#     4  12  22  39  66  97 124 165 211 263 315 370
#     4  10  22  42  67  93 126 164 208 264 318 372
#     4  10  23  44  63  86 128 176 215 254 308 375
#     4  12  23  37  58  95 124 160 202 255 312 372
#
# _framework density 22.125192999999999
#
# number of rings (size 3 to 8) (size 9 to 14) (size 15 to 20)
#    0.000    1.429    4.286    1.286    0.000    2.286 
#    2.571    1.429    0.000    7.714    0.000    0.000 
#    0.000    0.000    0.000    0.000    0.000    0.000 
#
# Total GULP energy -156498.716607 kJ/mol
# GULP energy per Si atom -5589.239879 kJ/mol
# Density = 2.207483 g / cm^3
# Si number density = 22.125193 Si / 1000 Ang^3
#
#
#
# Elastic Constant Matrix: (Units=GPa)
#
#
# Indices 1 2 3 4 5 6 
#
# 1 60.5797 2.5139 -0.2312 0.0000 0.8572 0.0000
# 2 2.5139 54.2956 14.1500 0.0000 1.7155 0.0000
# 3 -0.2312 14.1500 67.8491 0.0000 -4.4146 0.0000
# 4 0.0000 0.0000 0.0000 30.0140 0.0000 -32.9748
# 5 0.8572 1.7155 -4.4146 0.0000 6.1781 0.0000
# 6 0.0000 0.0000 0.0000 -32.9748 0.0000 165.7207
#
#
#
# Elastic Compliance Matrix: (Units=1/GPa)
#
#
# Indices 1 2 3 4 5 6 
#
# 1 0.016566 -0.000722 0.000074 0.000000 -0.002046 0.000000
# 2 -0.000722 0.019966 -0.004741 0.000000 -0.008832 0.000000
# 3 0.000074 -0.004741 0.016584 0.000000 0.013156 0.000000
# 4 0.000000 0.000000 0.000000 0.042639 0.000000 0.008484
# 5 -0.002046 -0.008832 0.013156 0.000000 0.174001 0.000000
# 6 0.000000 0.000000 0.000000 0.008484 0.000000 0.007722
#
#
# Mechanical properties :
#
#
# Convention : Reuss Voigt Hill
#
# Bulk Modulus (GPa) = 23.61936 23.95442 23.78689
# Shear Modulus (GPa) = 16.53615 51.46868 34.00242
#
# Velocity S-wave (km/s) = 2.73681 4.82835 3.92448
# Velocity P-wave (km/s) = 4.54811 6.47566 5.59551
#
# Compressibility (1/GPa) = 0.04233816
#
# Stress axis : x y z
#
# Youngs Moduli (GPa) = 60.36331 50.08590 60.30054
#
# Poissons Ratio (x) = 0.03614 -0.00445
# Poissons Ratio (y) = 0.04356 0.28588
# Poissons Ratio (z) = -0.00446 0.23746
#
# Static dielectric constant tensor:
#      x y z
#    x 1.862110 0.000000 0.014660 
#    y 0.000000 1.838320 0.000000 
#    z 0.014660 0.000000 1.828110 
# 
# From -- ./inp_files/31725.got.cif
#   From: 2010.05.17/outbox.cif.g08.bks.cpg/sg11_16_cif.got.tgz:31725.got - 2010.06.03 12:22:45.
