data_PCOD9165288
_publ_section_title
;
Structure prediction by ZEFSAII (Michael W. Deem and Ramdas Pophale) SiO2 
 PCOD9165288
Probable space group: P 21/M
;
_chemical_formula_sum "Si O2"
_cell_formula_units_Z 28
_cell_length_a 5.323057
_cell_length_b 15.184057
_cell_length_c 16.893518
_cell_angle_alpha 90.000000
_cell_angle_beta 114.452841
_cell_angle_gamma 90.000000
_cell_volume 1242.952910
_symmetry_space_group_name_H-M "P 21/M"
_symmetry_group_IT_number 11
_symmetry_cell_setting 'monoclinic'
loop_
_space_group_symop_operation_xyz
x,y,z
-x,1/2+y,-z
-x,-y,-z
x,1/2-y,z
loop_
_atom_site_type_symbol
_atom_site_label
_atom_site_fract_x
_atom_site_fract_y
_atom_site_fract_z
Si Si1 0.021385 0.156952 0.851541
Si Si2 0.537628 0.845993 0.306716
Si Si3 0.961227 0.103006 0.012859
Si Si4 0.923543 0.648243 0.489557
Si Si5 0.204879 0.509423 0.421045
Si Si6 0.167507 0.487362 0.763746
Si Si7 0.400768 0.851069 0.881163
O O1 0.177933 0.250000 0.872083
O O2 0.178151 0.069487 0.846046
O O3 0.781466 0.160607 0.755233
O O4 0.882294 0.145599 0.918598
O O5 0.660552 0.750000 0.297331
O O6 0.619374 0.853044 0.409244
O O7 0.656240 0.928378 0.274029
O O8 0.268846 0.138444 0.071422
O O9 0.747908 0.123571 0.055027
O O10 0.000000 0.000000 0.000000
O O11 0.993960 0.750000 0.516046
O O12 0.949837 0.577463 0.562986
O O13 0.093989 0.601533 0.441682
O O14 0.500000 0.500000 0.500000
O O15 0.130193 0.503898 0.318701
O O16 0.288370 0.581585 0.800914
O O17 0.332233 0.750000 0.854915
#
# Coordination Sequence:
#
# PCOD9165288 Si02
#       7
#     4   4   4   4   4   4   4
#     4  11  22  36  61  93 121 159 207 265 326 389
#     4   9  19  36  59  91 125 156 201 263 327 391
#     4  12  25  47  71  97 132 178 227 280 335 393
#     4   9  19  37  59  86 122 159 200 257 321 384
#     4  10  21  38  61  90 122 160 211 265 320 389
#     4  11  23  38  62  87 126 166 214 263 332 390
#     4  12  27  47  67  98 139 182 227 277 329 399
#
# _framework density 22.527000000000001
#
# number of rings (size 3 to 8) (size 9 to 14) (size 15 to 20)
#    0.000    1.429    1.429    3.857    2.000    1.714 
#    0.000    0.000    0.000    0.000    0.000    0.000 
#    0.000    0.000    0.000    0.000    0.000    0.000 
#
# Total GULP energy -156248.778281 kJ/mol
# GULP energy per Si atom -5580.313510 kJ/mol
# Density = 2.247573 g / cm^3
# Si number density = 22.527000 Si / 1000 Ang^3
#
#
#
# Elastic Constant Matrix: (Units=GPa)
#
#
# Indices 1 2 3 4 5 6 
#
# 1 48.9536 11.9549 7.7606 0.0000 -1.6391 0.0000
# 2 11.9549 196.8200 33.3371 0.0000 -11.8094 0.0000
# 3 7.7606 33.3371 75.3782 0.0000 -4.5002 0.0000
# 4 0.0000 0.0000 0.0000 13.9456 0.0000 8.3931
# 5 -1.6391 -11.8094 -4.5002 0.0000 32.8585 0.0000
# 6 0.0000 0.0000 0.0000 8.3931 0.0000 19.6800
#
#
#
# Elastic Compliance Matrix: (Units=1/GPa)
#
#
# Indices 1 2 3 4 5 6 
#
# 1 0.020947 -0.000955 -0.001706 0.000000 0.000468 0.000000
# 2 -0.000955 0.005626 -0.002291 0.000000 0.001661 0.000000
# 3 -0.001706 -0.002291 0.014520 0.000000 0.001080 0.000000
# 4 0.000000 0.000000 0.000000 0.096468 0.000000 -0.041141
# 5 0.000468 0.001661 0.001080 0.000000 0.031202 0.000000
# 6 0.000000 0.000000 0.000000 -0.041141 0.000000 0.068359
#
#
# Mechanical properties :
#
#
# Convention : Reuss Voigt Hill
#
# Bulk Modulus (GPa) = 32.06310 47.47302 39.76806
# Shear Modulus (GPa) = 19.42336 31.17010 25.29673
#
# Velocity S-wave (km/s) = 2.93955 3.72382 3.35468
# Velocity P-wave (km/s) = 5.07793 6.29354 5.71813
#
# Compressibility (1/GPa) = 0.03118850
#
# Stress axis : x y z
#
# Youngs Moduli (GPa) = 47.73965 177.73094 68.87165
#
# Poissons Ratio (x) = 0.16978 0.11751
# Poissons Ratio (y) = 0.04560 0.15778
# Poissons Ratio (z) = 0.08145 0.40716
#
# Static dielectric constant tensor:
#      x y z
#    x 1.932760 0.000000 0.027250 
#    y 0.000000 1.949550 0.000000 
#    z 0.027250 0.000000 1.856790 
# 
# From -- ./inp_files/7951.got.cif
#   From: 2010.05.17/outbox.cif.g08.bks.cpg/sg11_4_cif.got.tgz:7951.got - 2010.06.03 12:22:45.
