data_PCOD9165350
_publ_section_title
;
Structure prediction by ZEFSAII (Michael W. Deem and Ramdas Pophale) SiO2 
 PCOD9165350
Probable space group: P 21/M
;
_chemical_formula_sum "Si O2"
_cell_formula_units_Z 28
_cell_length_a 14.782300
_cell_length_b 8.826338
_cell_length_c 21.829478
_cell_angle_alpha 90.000000
_cell_angle_beta 29.711993
_cell_angle_gamma 90.000000
_cell_volume 1411.668369
_symmetry_space_group_name_H-M "P 21/M"
_symmetry_group_IT_number 11
_symmetry_cell_setting 'monoclinic'
loop_
_space_group_symop_operation_xyz
x,y,z
-x,1/2+y,-z
-x,-y,-z
x,1/2-y,z
loop_
_atom_site_type_symbol
_atom_site_label
_atom_site_fract_x
_atom_site_fract_y
_atom_site_fract_z
Si Si1 0.592542 0.070114 0.385865
Si Si2 0.770171 0.570147 0.878423
Si Si3 0.798591 0.067921 0.615488
Si Si4 0.989044 0.569859 0.166778
Si Si5 0.600308 0.569208 0.849309
Si Si6 0.152830 0.429883 0.954552
Si Si7 0.536644 0.429335 0.660426
O O1 0.603767 0.250000 0.384152
O O2 0.500000 0.000000 0.500000
O O3 0.795128 0.000614 0.262687
O O4 0.481083 0.022215 0.391249
O O5 0.783242 0.750000 0.880898
O O6 0.739769 0.543406 0.824080
O O7 0.941785 0.488827 0.808354
O O8 0.588957 0.506401 0.018256
O O9 0.803037 0.250000 0.617908
O O10 0.702304 0.029974 0.607619
O O11 0.678783 0.001270 0.741393
O O12 0.000000 0.000000 0.500000
O O13 0.978062 0.750000 0.171860
O O14 0.131430 0.510288 0.032328
O O15 0.574412 0.750000 0.858264
O O16 0.122149 0.250000 0.979432
O O17 0.350302 0.452400 0.808491
O O18 0.000000 0.500000 0.000000
O O19 0.547602 0.250000 0.639146
#
# Coordination Sequence:
#
# PCOD9165350 Si02
#       7
#     4   4   4   4   4   4   4
#     4  12  26  44  66  89 121 162 206 255 310 373
#     4  10  21  38  62  92 127 165 205 254 313 371
#     4  11  24  42  65  91 124 166 211 261 312 370
#     4  12  24  39  61  92 128 165 210 256 305 371
#     4  10  21  39  63  92 125 161 206 260 315 373
#     4  11  21  36  62  94 128 163 203 255 313 371
#     4  10  23  43  65  91 126 164 206 256 313 372
#
# _framework density 19.834688
#
# number of rings (size 3 to 8) (size 9 to 14) (size 15 to 20)
#    0.000    1.143    1.429    5.143    0.000    5.714 
#    0.000    1.429    0.000    0.000    0.000    0.000 
#    0.000    0.000    0.000    0.000    0.000    0.000 
#
# Total GULP energy -156674.938167 kJ/mol
# GULP energy per Si atom -5595.533506 kJ/mol
# Density = 1.978954 g / cm^3
# Si number density = 19.834688 Si / 1000 Ang^3
#
#
#
# Elastic Constant Matrix: (Units=GPa)
#
#
# Indices 1 2 3 4 5 6 
#
# 1 143.1076 83.2636 35.6725 0.0000 -1.0832 0.0000
# 2 83.2636 136.4780 42.7298 0.0000 8.8220 0.0000
# 3 35.6725 42.7298 46.0292 0.0000 10.1083 0.0000
# 4 0.0000 0.0000 0.0000 31.1300 0.0000 1.9582
# 5 -1.0832 8.8220 10.1083 0.0000 32.3887 0.0000
# 6 0.0000 0.0000 0.0000 1.9582 0.0000 39.1254
#
#
#
# Elastic Compliance Matrix: (Units=1/GPa)
#
#
# Indices 1 2 3 4 5 6 
#
# 1 0.011492 -0.005934 -0.004119 0.000000 0.003286 0.000000
# 2 -0.005934 0.013394 -0.007505 0.000000 -0.001504 0.000000
# 3 -0.004119 -0.007505 0.033782 0.000000 -0.008637 0.000000
# 4 0.000000 0.000000 0.000000 0.032225 0.000000 -0.001613
# 5 0.003286 -0.001504 -0.008637 0.000000 0.034090 0.000000
# 6 0.000000 0.000000 0.000000 -0.001613 0.000000 0.025640
#
#
# Mechanical properties :
#
#
# Convention : Reuss Voigt Hill
#
# Bulk Modulus (GPa) = 42.46069 72.10518 57.28293
# Shear Modulus (GPa) = 25.82785 31.45874 28.64329
#
# Velocity S-wave (km/s) = 3.61245 3.98684 3.80426
# Velocity P-wave (km/s) = 6.23326 7.59113 6.94546
#
# Compressibility (1/GPa) = 0.02355119
#
# Stress axis : x y z
#
# Youngs Moduli (GPa) = 87.01802 74.65848 29.60183
#
# Poissons Ratio (x) = 0.44300 0.12194
# Poissons Ratio (y) = 0.51634 0.22217
# Poissons Ratio (z) = 0.35847 0.56033
#
# Static dielectric constant tensor:
#      x y z
#    x 1.707930 0.000000 -0.006770 
#    y 0.000000 1.658910 0.000000 
#    z -0.006770 0.000000 1.663310 
# 
# From -- ./inp_files/65342.got.cif
#   From: 2010.05.17/outbox.cif.g08.bks.cpg/sg11_33_cif.got.tgz:65342.got - 2010.06.03 12:22:45.
