data_PCOD9165541
_publ_section_title
;
Structure prediction by ZEFSAII (Michael W. Deem and Ramdas Pophale) SiO2 
 PCOD9165541
Probable space group: P 21/M
;
_chemical_formula_sum "Si O2"
_cell_formula_units_Z 28
_cell_length_a 9.307807
_cell_length_b 13.849968
_cell_length_c 14.052484
_cell_angle_alpha 90.000000
_cell_angle_beta 128.462077
_cell_angle_gamma 90.000000
_cell_volume 1418.476362
_symmetry_space_group_name_H-M "P 21/M"
_symmetry_group_IT_number 11
_symmetry_cell_setting 'monoclinic'
loop_
_space_group_symop_operation_xyz
x,y,z
-x,1/2+y,-z
-x,-y,-z
x,1/2-y,z
loop_
_atom_site_type_symbol
_atom_site_label
_atom_site_fract_x
_atom_site_fract_y
_atom_site_fract_z
Si Si1 0.789427 0.470145 0.430655
Si Si2 0.379371 0.854884 0.798512
Si Si3 0.865763 0.134541 0.648010
Si Si4 0.573895 0.856050 0.237279
Si Si5 0.788076 0.911819 0.944778
Si Si6 0.257971 0.042846 0.856661
Si Si7 0.185287 0.895616 0.154140
O O1 0.739104 0.380422 0.342688
O O2 0.763351 0.429827 0.526494
O O3 0.666383 0.559801 0.340615
O O4 0.000000 0.500000 0.500000
O O5 0.340545 0.750000 0.821828
O O6 0.593063 0.859818 0.855013
O O7 0.321464 0.939036 0.846532
O O8 0.876009 0.250000 0.629861
O O9 0.790783 0.124200 0.724349
O O10 0.066073 0.084319 0.737440
O O11 0.654043 0.750000 0.289045
O O12 0.602819 0.884569 0.138917
O O13 0.359793 0.855047 0.171944
O O14 0.811000 0.990740 0.871614
O O15 0.761124 0.958141 0.038611
O O16 0.984581 0.860012 0.037357
#
# Coordination Sequence:
#
# PCOD9165541 Si02
#       7
#     4   4   4   4   4   4   4
#     4  11  22  41  61  90 124 163 202 264 311 352
#     4  11  22  37  62  94 121 161 206 250 316 375
#     4  11  22  40  66  93 122 167 214 250 310 378
#     4  11  22  38  62  97 124 159 216 259 306 369
#     4  10  21  42  62  88 129 165 197 261 320 369
#     4  10  21  39  62  92 125 165 201 260 307 359
#     4  10  22  40  64  88 125 160 206 258 311 368
#
# _framework density 19.739491000000001
#
# number of rings (size 3 to 8) (size 9 to 14) (size 15 to 20)
#    0.000    1.429    5.714    1.714    0.000    4.571 
#    0.000    0.714    0.000    5.143    0.000    0.000 
#    0.000    0.000    0.000    0.000    0.000    0.000 
#
# Total GULP energy -156043.241175 kJ/mol
# GULP energy per Si atom -5572.972899 kJ/mol
# Density = 1.969456 g / cm^3
# Si number density = 19.739491 Si / 1000 Ang^3
#
#
#
# Elastic Constant Matrix: (Units=GPa)
#
#
# Indices 1 2 3 4 5 6 
#
# 1 104.5903 20.8338 14.5055 0.0000 7.4958 0.0000
# 2 20.8338 130.3151 16.9456 0.0000 0.0403 0.0000
# 3 14.5055 16.9456 65.0293 0.0000 -0.3212 0.0000
# 4 0.0000 0.0000 0.0000 -3.8897 0.0000 -8.2784
# 5 7.4958 0.0403 -0.3212 0.0000 27.7821 0.0000
# 6 0.0000 0.0000 0.0000 -8.2784 0.0000 -2.8868
#
#
#
# Elastic Compliance Matrix: (Units=1/GPa)
#
#
# Indices 1 2 3 4 5 6 
#
# 1 0.010310 -0.001394 -0.001950 0.000000 -0.002802 0.000000
# 2 -0.001394 0.008131 -0.001806 0.000000 0.000343 0.000000
# 3 -0.001950 -0.001806 0.016287 0.000000 0.000717 0.000000
# 4 0.000000 0.000000 0.000000 0.050377 0.000000 -0.144467
# 5 -0.002802 0.000343 0.000717 0.000000 0.036758 0.000000
# 6 0.000000 0.000000 0.000000 -0.144467 0.000000 0.067880
#
#
# Mechanical properties :
#
#
# Convention : Reuss Voigt Hill
#
# Bulk Modulus (GPa) = 40.93772 44.94496 42.94134
# Shear Modulus (GPa) = 24.01689 20.71110 22.36400
#
# Velocity S-wave (km/s) = 3.49190 3.24268 3.36959
# Velocity P-wave (km/s) = 6.08620 6.06947 6.07784
#
# Compressibility (1/GPa) = 0.02442735
#
# Stress axis : x y z
#
# Youngs Moduli (GPa) = 96.99229 122.98134 61.39869
#
# Poissons Ratio (x) = 0.17141 0.11975
# Poissons Ratio (y) = 0.13519 0.11090
# Poissons Ratio (z) = 0.18918 0.22214
#
# Static dielectric constant tensor:
#      x y z
#    x 1.699240 0.000000 0.020580 
#    y 0.000000 1.731350 0.000000 
#    z 0.020580 0.000000 1.725120 
# 
# From -- ./inp_files/47504.got.cif
#   From: 2010.05.17/outbox.cif.g08.bks.cpg/sg11_24_cif.got.tgz:47504.got - 2010.06.03 12:22:45.
