data_PCOD9165227
_publ_section_title
;
Structure prediction by ZEFSAII (Michael W. Deem and Ramdas Pophale) SiO2 
 PCOD9165227
Probable space group: P 21/M
;
_chemical_formula_sum "Si O2"
_cell_formula_units_Z 28
_cell_length_a 5.900088
_cell_length_b 11.149796
_cell_length_c 19.384150
_cell_angle_alpha 90.000000
_cell_angle_beta 112.332900
_cell_angle_gamma 90.000000
_cell_volume 1179.532733
_symmetry_space_group_name_H-M "P 21/M"
_symmetry_group_IT_number 11
_symmetry_cell_setting 'monoclinic'
loop_
_space_group_symop_operation_xyz
x,y,z
-x,1/2+y,-z
-x,-y,-z
x,1/2-y,z
loop_
_atom_site_type_symbol
_atom_site_label
_atom_site_fract_x
_atom_site_fract_y
_atom_site_fract_z
Si Si1 0.476807 0.882632 0.257638
Si Si2 0.136500 0.948026 0.644407
Si Si3 0.453922 0.750000 0.743375
Si Si4 0.316984 0.110091 0.998871
Si Si5 0.298025 0.961089 0.376335
Si Si6 0.742628 0.115549 0.479632
Si Si7 0.107159 0.474618 0.118990
Si Si8 0.048986 0.750000 0.820460
O O1 0.491466 0.750000 0.229361
O O2 0.335083 0.882778 0.314375
O O3 0.323717 0.970396 0.190719
O O4 0.743379 0.929101 0.312935
O O5 0.357728 0.861892 0.688933
O O6 0.060427 0.905554 0.558023
O O7 0.893231 0.933014 0.661237
O O8 0.747172 0.750000 0.777335
O O9 0.272329 0.750000 0.790165
O O10 0.396702 0.250000 0.998063
O O11 0.235342 0.089457 0.068651
O O12 0.070138 0.081323 0.926813
O O13 0.500000 0.000000 0.000000
O O14 0.188904 0.900085 0.432636
O O15 0.549474 0.016492 0.432328
O O16 0.644217 0.250000 0.462775
O O17 0.935883 0.375634 0.136445
#
# Coordination Sequence:
#
# PCOD9165227 Si02
#       8
#     4   4   2   4   4   4   4   2
#     4  11  24  43  66  95 136 182 237 298 376 447
#     4  11  23  39  63  97 132 181 238 303 366 443
#     4  12  26  42  74 112 148 191 244 314 372 447
#     4  11  27  47  75 111 150 200 256 313 382 461
#     4  10  23  40  60  92 130 178 234 301 368 445
#     4  10  21  38  60  88 129 176 237 297 370 437
#     4  11  25  46  73 104 150 192 249 308 378 452
#     4  12  26  46  78 112 156 195 248 314 382 445
#
# _framework density 23.738213999999999
#
# number of rings (size 3 to 8) (size 9 to 14) (size 15 to 20)
#    0.000    1.143    2.857    2.143    6.000    3.429 
#    0.000    0.000    0.000    0.000    0.000    0.000 
#    0.000    0.000    0.000    0.000    0.000    0.000 
#
# Total GULP energy -156059.959472 kJ/mol
# GULP energy per Si atom -5573.569981 kJ/mol
# Density = 2.368418 g / cm^3
# Si number density = 23.738214 Si / 1000 Ang^3
#
#
#
# Elastic Constant Matrix: (Units=GPa)
#
#
# Indices 1 2 3 4 5 6 
#
# 1 77.7899 -0.7628 27.1123 0.0000 0.7560 0.0000
# 2 -0.7628 98.0322 28.5383 0.0000 5.9595 0.0000
# 3 27.1123 28.5383 116.6346 0.0000 5.3532 0.0000
# 4 0.0000 0.0000 0.0000 15.9449 0.0000 3.4274
# 5 0.7560 5.9595 5.3532 0.0000 40.3408 0.0000
# 6 0.0000 0.0000 0.0000 3.4274 0.0000 25.7183
#
#
#
# Elastic Compliance Matrix: (Units=1/GPa)
#
#
# Indices 1 2 3 4 5 6 
#
# 1 0.014107 0.001144 -0.003561 0.000000 0.000039 0.000000
# 2 0.001144 0.011141 -0.002933 0.000000 -0.001278 0.000000
# 3 -0.003561 -0.002933 0.010158 0.000000 -0.000848 0.000000
# 4 0.000000 0.000000 0.000000 0.064566 0.000000 -0.008605
# 5 0.000039 -0.001278 -0.000848 0.000000 0.025089 0.000000
# 6 0.000000 0.000000 0.000000 -0.008605 0.000000 0.040029
#
#
# Mechanical properties :
#
#
# Convention : Reuss Voigt Hill
#
# Bulk Modulus (GPa) = 40.47602 44.69246 42.58424
# Shear Modulus (GPa) = 27.16993 32.23873 29.70433
#
# Velocity S-wave (km/s) = 3.38681 3.68923 3.54125
# Velocity P-wave (km/s) = 5.69052 6.08402 5.89056
#
# Compressibility (1/GPa) = 0.02470599
#
# Stress axis : x y z
#
# Youngs Moduli (GPa) = 70.88636 89.75651 98.44260
#
# Poissons Ratio (x) = -0.10268 0.35055
# Poissons Ratio (y) = -0.08110 0.28876
# Poissons Ratio (z) = 0.25243 0.26329
#
# Static dielectric constant tensor:
#      x y z
#    x 1.962250 0.000000 0.014790 
#    y 0.000000 2.064130 0.000000 
#    z 0.014790 0.000000 1.997950 
# 
# From -- ./inp_files/62741.got.cif
#   From: 2010.05.17/outbox.cif.g08.bks.cpg/sg11_32_cif.got.tgz:62741.got - 2010.06.03 12:22:45.
