data_PCOD9165267
_publ_section_title
;
Structure prediction by ZEFSAII (Michael W. Deem and Ramdas Pophale) SiO2 
 PCOD9165267
Probable space group: P 21/M
;
_chemical_formula_sum "Si O2"
_cell_formula_units_Z 28
_cell_length_a 8.387200
_cell_length_b 8.624885
_cell_length_c 24.955614
_cell_angle_alpha 90.000000
_cell_angle_beta 43.202848
_cell_angle_gamma 90.000000
_cell_volume 1235.847541
_symmetry_space_group_name_H-M "P 21/M"
_symmetry_group_IT_number 11
_symmetry_cell_setting 'monoclinic'
loop_
_space_group_symop_operation_xyz
x,y,z
-x,1/2+y,-z
-x,-y,-z
x,1/2-y,z
loop_
_atom_site_type_symbol
_atom_site_label
_atom_site_fract_x
_atom_site_fract_y
_atom_site_fract_z
Si Si1 0.544606 0.432470 0.170561
Si Si2 0.367308 0.431931 0.957579
Si Si3 0.929291 0.932685 0.459821
Si Si4 0.678688 0.569497 0.250221
Si Si5 0.548585 0.933854 0.400270
Si Si6 0.969164 0.934516 0.676036
Si Si7 0.152491 0.068933 0.119788
O O1 0.570753 0.250000 0.154838
O O2 0.684153 0.522748 0.090625
O O3 0.616304 0.471743 0.213353
O O4 0.269686 0.474103 0.235047
O O5 0.423293 0.250000 0.947535
O O6 0.594774 0.529476 0.918743
O O7 0.174727 0.460813 0.050347
O O8 0.973677 0.750000 0.446765
O O9 0.654334 0.970076 0.521637
O O10 0.056529 0.016990 0.379688
O O11 0.000000 0.000000 0.500000
O O12 0.639892 0.750000 0.248050
O O13 0.544137 0.531027 0.337720
O O14 0.950952 0.535442 0.193553
O O15 0.508237 0.750000 0.417544
O O16 0.803889 0.978699 0.358046
O O17 0.004060 0.750000 0.671655
O O18 0.099549 0.250000 0.141853
#
# Coordination Sequence:
#
# PCOD9165267 Si02
#       7
#     4   4   4   4   4   4   4
#     4  11  24  40  61  88 120 158 199 246 299 354
#     4  10  21  38  61  88 119 156 198 245 297 354
#     4  12  25  42  65  92 124 160 198 244 297 352
#     4  11  24  40  61  88 120 158 199 246 299 354
#     4  11  24  42  64  91 122 158 200 245 295 351
#     4  11  24  42  64  91 122 158 200 245 295 351
#     4  10  21  38  61  88 119 156 198 245 297 354
#
# _framework density 22.656514999999999
#
# number of rings (size 3 to 8) (size 9 to 14) (size 15 to 20)
#    0.000    1.143    0.000    6.000    0.000   11.429 
#    0.000    0.000    0.000    0.000    0.000    0.000 
#    0.000    0.000    0.000    0.000    0.000    0.000 
#
# Total GULP energy -156810.035287 kJ/mol
# GULP energy per Si atom -5600.358403 kJ/mol
# Density = 2.260495 g / cm^3
# Si number density = 22.656515 Si / 1000 Ang^3
#
#
#
# Elastic Constant Matrix: (Units=GPa)
#
#
# Indices 1 2 3 4 5 6 
#
# 1 58.3077 -4.0164 -8.9498 0.0000 10.2527 0.0000
# 2 -4.0164 36.4110 25.3077 0.0000 6.3770 0.0000
# 3 -8.9498 25.3077 78.8881 0.0000 17.4832 0.0000
# 4 0.0000 0.0000 0.0000 25.9743 0.0000 1.3353
# 5 10.2527 6.3770 17.4832 0.0000 37.3155 0.0000
# 6 0.0000 0.0000 0.0000 1.3353 0.0000 38.1359
#
#
#
# Elastic Compliance Matrix: (Units=1/GPa)
#
#
# Indices 1 2 3 4 5 6 
#
# 1 0.018960 0.000957 0.003386 0.000000 -0.006959 0.000000
# 2 0.000957 0.035416 -0.010995 0.000000 -0.001164 0.000000
# 3 0.003386 -0.010995 0.018275 0.000000 -0.007614 0.000000
# 4 0.000000 0.000000 0.000000 0.038569 0.000000 -0.001350
# 5 -0.006959 -0.001164 -0.007614 0.000000 0.032477 0.000000
# 6 0.000000 0.000000 0.000000 -0.001350 0.000000 0.026269
#
#
# Mechanical properties :
#
#
# Convention : Reuss Voigt Hill
#
# Bulk Modulus (GPa) = 16.85026 22.03219 19.44122
# Shear Modulus (GPa) = 24.62423 31.03616 27.83020
#
# Velocity S-wave (km/s) = 3.30032 3.70517 3.50859
# Velocity P-wave (km/s) = 4.68788 5.29622 5.00131
#
# Compressibility (1/GPa) = 0.05934626
#
# Stress axis : x y z
#
# Youngs Moduli (GPa) = 52.74315 28.23606 54.71949
#
# Poissons Ratio (x) = -0.02701 -0.18531
# Poissons Ratio (y) = -0.05045 0.60165
# Poissons Ratio (z) = -0.17861 0.31046
#
# Static dielectric constant tensor:
#      x y z
#    x 1.899900 0.000000 0.007690 
#    y 0.000000 1.732430 0.000000 
#    z 0.007690 0.000000 1.829380 
# 
# From -- ./inp_files/70856.got.cif
#   From: 2010.05.17/outbox.cif.g08.bks.cpg/sg11_36_cif.got.tgz:70856.got - 2010.06.03 12:22:45.
