data_PCOD9166598
_publ_section_title
;
Structure prediction by ZEFSAII (Michael W. Deem and Ramdas Pophale) SiO2 
 PCOD9166598
Probable space group: P 21/M
;
_chemical_formula_sum "Si O2"
_cell_formula_units_Z 22
_cell_length_a 12.013514
_cell_length_b 10.645453
_cell_length_c 8.072367
_cell_angle_alpha 90.000000
_cell_angle_beta 114.746071
_cell_angle_gamma 90.000000
_cell_volume 937.568818
_symmetry_space_group_name_H-M "P 21/M"
_symmetry_group_IT_number 11
_symmetry_cell_setting 'monoclinic'
loop_
_space_group_symop_operation_xyz
x,y,z
-x,1/2+y,-z
-x,-y,-z
x,1/2-y,z
loop_
_atom_site_type_symbol
_atom_site_label
_atom_site_fract_x
_atom_site_fract_y
_atom_site_fract_z
Si Si1 0.717448 0.750000 0.800431
Si Si2 0.036877 0.511674 0.718215
Si Si3 0.298980 0.035111 0.959760
Si Si4 0.435501 0.027817 0.740152
Si Si5 0.508591 0.750000 0.463962
Si Si6 0.969749 0.250000 0.635361
Si Si7 0.321792 0.750000 0.583678
Si Si8 0.898967 0.750000 0.638793
O O1 0.571994 0.750000 0.682867
O O2 0.768879 0.750000 0.646654
O O3 0.745042 0.629947 0.927380
O O4 0.178896 0.541468 0.834962
O O5 0.000000 0.500000 0.500000
O O6 0.998733 0.374708 0.755580
O O7 0.959576 0.623643 0.742791
O O8 0.346208 0.094725 0.817053
O O9 0.425314 0.975162 0.103256
O O10 0.450287 0.120186 0.594611
O O11 0.375688 0.887132 0.681233
O O12 0.364543 0.750000 0.417052
O O13 0.826474 0.250000 0.491636
O O14 0.064449 0.250000 0.534624
#
# Coordination Sequence:
#
# PCOD9166598 Si02
#       8
#     2   4   4   4   2   2   2   2
#     4  12  26  43  70 108 150 184 241 299 358 427
#     4  10  22  43  68 102 132 188 238 285 351 417
#     4  11  24  44  71 101 150 185 245 291 356 423
#     4  11  25  45  73 107 143 195 231 298 361 425
#     4  12  27  42  75 108 146 191 235 290 375 423
#     4  10  23  39  69 103 133 191 238 281 346 425
#     4  12  24  46  72 106 148 176 248 292 353 435
#     4  10  24  40  66 101 139 186 230 288 348 416
#
# _framework density 23.464943000000002
#
# number of rings (size 3 to 8) (size 9 to 14) (size 15 to 20)
#    0.000    1.091    1.818    3.818    7.636    3.636 
#    0.000    1.818    0.000    1.091    0.000    0.000 
#    0.000    0.000    0.000    0.000    0.000    0.000 
#
# Total GULP energy -122553.795799 kJ/mol
# GULP energy per Si atom -5570.627082 kJ/mol
# Density = 2.341154 g / cm^3
# Si number density = 23.464943 Si / 1000 Ang^3
#
#
#
# Elastic Constant Matrix: (Units=GPa)
#
#
# Indices 1 2 3 4 5 6 
#
# 1 116.8216 31.7036 30.6651 0.0000 12.4959 0.0000
# 2 31.7036 133.9088 16.6877 0.0000 2.5444 0.0000
# 3 30.6651 16.6877 61.9127 0.0000 12.1984 0.0000
# 4 0.0000 0.0000 0.0000 26.0402 0.0000 -3.4921
# 5 12.4959 2.5444 12.1984 0.0000 42.2551 0.0000
# 6 0.0000 0.0000 0.0000 -3.4921 0.0000 28.0096
#
#
#
# Elastic Compliance Matrix: (Units=1/GPa)
#
#
# Indices 1 2 3 4 5 6 
#
# 1 0.010384 -0.001891 -0.004295 0.000000 -0.001717 0.000000
# 2 -0.001891 0.008072 -0.001329 0.000000 0.000457 0.000000
# 3 -0.004295 -0.001329 0.019479 0.000000 -0.004273 0.000000
# 4 0.000000 0.000000 0.000000 0.039055 0.000000 0.004869
# 5 -0.001717 0.000457 -0.004273 0.000000 0.025380 0.000000
# 6 0.000000 0.000000 0.000000 0.004869 0.000000 0.036309
#
#
# Mechanical properties :
#
#
# Convention : Reuss Voigt Hill
#
# Bulk Modulus (GPa) = 43.65791 52.30621 47.98206
# Shear Modulus (GPa) = 30.98929 34.83342 32.91135
#
# Velocity S-wave (km/s) = 3.63804 3.85708 3.74916
# Velocity P-wave (km/s) = 6.02437 6.49429 6.26374
#
# Compressibility (1/GPa) = 0.02290536
#
# Stress axis : x y z
#
# Youngs Moduli (GPa) = 96.29893 123.87931 51.33605
#
# Poissons Ratio (x) = 0.23421 0.22051
# Poissons Ratio (y) = 0.18207 0.06825
# Poissons Ratio (z) = 0.41364 0.16468
#
# Static dielectric constant tensor:
#      x y z
#    x 1.943750 0.000000 -0.014840 
#    y 0.000000 1.997970 0.000000 
#    z -0.014840 0.000000 1.928230 
# 
# From -- ./inp_files/17062.got.cif
#   From: 2010.05.17/outbox.cif.g08.bks.cpg/sg11_9_cif.got.tgz:17062.got - 2010.06.03 12:22:45.
