data_PCOD9166000
_publ_section_title
;
Structure prediction by ZEFSAII (Michael W. Deem and Ramdas Pophale) SiO2 
 PCOD9166000
Probable space group: P 21/M
;
_chemical_formula_sum "Si O2"
_cell_formula_units_Z 24
_cell_length_a 15.298149
_cell_length_b 11.787122
_cell_length_c 15.298069
_cell_angle_alpha 90.000000
_cell_angle_beta 152.369066
_cell_angle_gamma 90.000000
_cell_volume 1279.352081
_symmetry_space_group_name_H-M "P 21/M"
_symmetry_group_IT_number 11
_symmetry_cell_setting 'monoclinic'
loop_
_space_group_symop_operation_xyz
x,y,z
-x,1/2+y,-z
-x,-y,-z
x,1/2-y,z
loop_
_atom_site_type_symbol
_atom_site_label
_atom_site_fract_x
_atom_site_fract_y
_atom_site_fract_z
Si Si1 0.144485 0.250000 0.269481
Si Si2 0.624313 0.250000 0.963635
Si Si3 0.414145 0.993935 0.020595
Si Si4 0.979407 0.993935 0.585858
Si Si5 0.730504 0.250000 0.855504
Si Si6 0.963627 0.750000 0.624307
Si Si7 0.365465 0.884092 0.634524
Si Si8 0.451239 0.444368 0.548746
O O1 0.078921 0.250000 0.311535
O O2 0.272847 0.361505 0.375057
O O3 0.955910 0.250000 0.044073
O O4 0.688472 0.250000 0.921089
O O5 0.527897 0.368822 0.895214
O O6 0.810526 0.250000 0.189482
O O7 0.493743 0.082735 0.161188
O O8 0.187525 0.002325 0.812479
O O9 0.500000 0.000000 0.000000
O O10 0.895210 0.868824 0.527896
O O11 0.838820 0.082737 0.506264
O O12 0.000000 0.000000 0.500000
O O13 0.624922 0.361504 0.727138
O O14 0.376400 0.750000 0.623592
O O15 0.410092 0.964536 0.589889
O O16 0.500000 0.500000 0.500000
#
# Coordination Sequence:
#
# PCOD9166000 Si02
#       8
#     2   2   4   4   2   2   4   4
#     4  10  21  43  72 101 126 162 227 286 328 390
#     4   9  19  37  65  90 122 161 216 270 315 375
#     4  11  23  40  63  95 128 172 218 265 323 388
#     4  11  23  40  63  95 128 172 218 265 323 388
#     4  10  21  43  72 101 126 162 227 286 328 390
#     4   9  19  37  65  90 122 161 216 270 315 375
#     4  12  27  43  60  93 141 175 213 274 332 389
#     4  11  25  44  72  99 129 176 226 273 339 399
#
# _framework density 18.759495999999999
#
# number of rings (size 3 to 8) (size 9 to 14) (size 15 to 20)
#    0.000    1.333    5.000    0.000    4.667    2.000 
#    0.000    0.000    0.000    0.000    0.000    0.000 
#    0.000    0.000    0.000    0.000    0.000    0.000 
#
# Total GULP energy -133897.153085 kJ/mol
# GULP energy per Si atom -5579.048045 kJ/mol
# Density = 1.871680 g / cm^3
# Si number density = 18.759496 Si / 1000 Ang^3
#
#
#
# Elastic Constant Matrix: (Units=GPa)
#
#
# Indices 1 2 3 4 5 6 
#
# 1 121.9216 65.4232 51.8323 0.0000 -10.5140 0.0000
# 2 65.4232 161.3293 64.1189 0.0000 -0.3722 0.0000
# 3 51.8323 64.1189 148.0017 0.0000 18.0548 0.0000
# 4 0.0000 0.0000 0.0000 21.0907 0.0000 -6.1671
# 5 -10.5140 -0.3722 18.0548 0.0000 25.0684 0.0000
# 6 0.0000 0.0000 0.0000 -6.1671 0.0000 42.4696
#
#
#
# Elastic Compliance Matrix: (Units=1/GPa)
#
#
# Indices 1 2 3 4 5 6 
#
# 1 0.012357 -0.003494 -0.003771 0.000000 0.007847 0.000000
# 2 -0.003494 0.008644 -0.002585 0.000000 0.000525 0.000000
# 3 -0.003771 -0.002585 0.010300 0.000000 -0.009038 0.000000
# 4 0.000000 0.000000 0.000000 0.049517 0.000000 0.007190
# 5 0.007847 0.000525 -0.009038 0.000000 0.049699 0.000000
# 6 0.000000 0.000000 0.000000 0.007190 0.000000 0.024590
#
#
# Mechanical properties :
#
#
# Convention : Reuss Voigt Hill
#
# Bulk Modulus (GPa) = 86.20587 88.22237 87.21412
# Shear Modulus (GPa) = 27.98388 34.38430 31.18409
#
# Velocity S-wave (km/s) = 3.86647 4.28588 4.08157
# Velocity P-wave (km/s) = 8.12316 8.46297 8.29481
#
# Compressibility (1/GPa) = 0.01160014
#
# Stress axis : x y z
#
# Youngs Moduli (GPa) = 80.92747 115.68501 97.08847
#
# Poissons Ratio (x) = 0.40422 0.36611
# Poissons Ratio (y) = 0.28277 0.25100
# Poissons Ratio (z) = 0.30517 0.29907
#
# Static dielectric constant tensor:
#      x y z
#    x 1.614630 0.000000 0.003220 
#    y 0.000000 1.657680 0.000000 
#    z 0.003220 0.000000 1.625680 
# 
# From -- ./inp_files/52378.got.cif
#   From: 2010.05.17/outbox.cif.g08.bks.cpg/sg11_27_cif.got.tgz:52378.got - 2010.06.03 12:22:45.
