data_PCOD9166726
_publ_section_title
;
Structure prediction by ZEFSAII (Michael W. Deem and Ramdas Pophale) SiO2 
 PCOD9166726
Probable space group: P 21/M
;
_chemical_formula_sum "Si O2"
_cell_formula_units_Z 20
_cell_length_a 5.771209
_cell_length_b 27.724187
_cell_length_c 5.110089
_cell_angle_alpha 90.000000
_cell_angle_beta 84.545730
_cell_angle_gamma 90.000000
_cell_volume 813.922961
_symmetry_space_group_name_H-M "P 21/M"
_symmetry_group_IT_number 11
_symmetry_cell_setting 'monoclinic'
loop_
_space_group_symop_operation_xyz
x,y,z
-x,1/2+y,-z
-x,-y,-z
x,1/2-y,z
loop_
_atom_site_type_symbol
_atom_site_label
_atom_site_fract_x
_atom_site_fract_y
_atom_site_fract_z
Si Si1 0.782072 0.880205 0.901102
Si Si2 0.848659 0.306545 0.211358
Si Si3 0.320748 0.031371 0.353523
Si Si4 0.380361 0.649772 0.283776
Si Si5 0.902227 0.443047 0.791815
O O1 0.642712 0.857852 0.158391
O O2 0.982556 0.916795 0.975370
O O3 0.608102 0.916783 0.770864
O O4 0.919345 0.837380 0.746890
O O5 0.893626 0.250000 0.211265
O O6 0.657820 0.321477 0.446588
O O7 0.755444 0.322775 0.936783
O O8 0.108828 0.044992 0.568813
O O9 0.500000 0.000000 0.500000
O O10 0.233620 0.992700 0.145973
O O11 0.266094 0.596858 0.315728
#
# Coordination Sequence:
#
# PCOD9166726 Si02
#       5
#     4   4   4   4   4
#     4  11  25  44  72  99 146 189 234 294 359 434
#     4  11  26  48  72 104 139 180 240 306 362 428
#     4  11  23  39  69 103 145 191 239 289 352 428
#     4  11  25  44  76 103 142 183 237 293 364 426
#     4  10  23  41  64 102 145 189 234 289 349 426
#
# _framework density 24.572348999999999
#
# number of rings (size 3 to 8) (size 9 to 14) (size 15 to 20)
#    0.000    1.200    2.000    2.400    5.600    6.400 
#    0.000    0.000    0.000    0.000    0.000    0.000 
#    0.000    0.000    0.000    0.000    0.000    0.000 
#
# Total GULP energy -112041.890689 kJ/mol
# GULP energy per Si atom -5602.094534 kJ/mol
# Density = 2.451642 g / cm^3
# Si number density = 24.572349 Si / 1000 Ang^3
#
#
#
# Elastic Constant Matrix: (Units=GPa)
#
#
# Indices 1 2 3 4 5 6 
#
# 1 74.8537 40.6596 21.2566 0.0000 -6.7850 0.0000
# 2 40.6596 215.5923 45.8805 0.0000 -3.3668 0.0000
# 3 21.2566 45.8805 85.3539 0.0000 -11.8544 0.0000
# 4 0.0000 0.0000 0.0000 36.5382 0.0000 -1.9317
# 5 -6.7850 -3.3668 -11.8544 0.0000 41.9909 0.0000
# 6 0.0000 0.0000 0.0000 -1.9317 0.0000 17.0321
#
#
#
# Elastic Compliance Matrix: (Units=1/GPa)
#
#
# Indices 1 2 3 4 5 6 
#
# 1 0.015473 -0.002395 -0.002337 0.000000 0.001648 0.000000
# 2 -0.002395 0.005614 -0.002511 0.000000 -0.000646 0.000000
# 3 -0.002337 -0.002511 0.014121 0.000000 0.003408 0.000000
# 4 0.000000 0.000000 0.000000 0.027534 0.000000 0.003123
# 5 0.001648 -0.000646 0.003408 0.000000 0.024991 0.000000
# 6 0.000000 0.000000 0.000000 0.003123 0.000000 0.059067
#
#
# Mechanical properties :
#
#
# Convention : Reuss Voigt Hill
#
# Bulk Modulus (GPa) = 48.25747 65.71034 56.98390
# Shear Modulus (GPa) = 29.72746 36.97914 33.35330
#
# Velocity S-wave (km/s) = 3.48198 3.88352 3.68822
# Velocity P-wave (km/s) = 5.98725 6.84899 6.43257
#
# Compressibility (1/GPa) = 0.02072218
#
# Stress axis : x y z
#
# Youngs Moduli (GPa) = 64.62663 178.11331 70.81635
#
# Poissons Ratio (x) = 0.42660 0.16551
# Poissons Ratio (y) = 0.15479 0.17783
# Poissons Ratio (z) = 0.15104 0.44727
#
# Static dielectric constant tensor:
#      x y z
#    x 2.033730 0.000000 0.069730 
#    y 0.000000 1.901800 0.000000 
#    z 0.069730 0.000000 1.978950 
# 
# From -- ./inp_files/950.got.cif
#   From: 2010.05.17/outbox.cif.g08.bks.cpg/sg11_1_cif.got.tgz:950.got - 2010.06.03 12:22:45.
