data_PCOD9166341
_publ_section_title
;
Structure prediction by ZEFSAII (Michael W. Deem and Ramdas Pophale) SiO2 
 PCOD9166341
Probable space group: P 21/M
;
_chemical_formula_sum "Si O2"
_cell_formula_units_Z 32
_cell_length_a 16.115360
_cell_length_b 14.506278
_cell_length_c 21.616469
_cell_angle_alpha 90.000000
_cell_angle_beta 160.395870
_cell_angle_gamma 90.000000
_cell_volume 1695.502736
_symmetry_space_group_name_H-M "P 21/M"
_symmetry_group_IT_number 11
_symmetry_cell_setting 'monoclinic'
loop_
_space_group_symop_operation_xyz
x,y,z
-x,1/2+y,-z
-x,-y,-z
x,1/2-y,z
loop_
_atom_site_type_symbol
_atom_site_label
_atom_site_fract_x
_atom_site_fract_y
_atom_site_fract_z
Si Si1 0.977030 0.855469 0.743888
Si Si2 0.512549 0.511146 0.704969
Si Si3 0.425220 0.641662 0.148456
Si Si4 0.081326 0.354545 0.953410
Si Si5 0.944877 0.523529 0.295984
Si Si6 0.458351 0.562682 0.410511
Si Si7 0.325214 0.144425 0.992844
Si Si8 0.265527 0.490610 0.717655
O O1 0.012163 0.750000 0.747266
O O2 0.696281 0.872263 0.567904
O O3 0.043760 0.930095 0.737746
O O4 0.155114 0.870523 0.927965
O O5 0.543165 0.417721 0.767042
O O6 0.549120 0.495201 0.658052
O O7 0.228925 0.543411 0.514429
O O8 0.719842 0.580587 0.874101
O O9 0.470746 0.750000 0.190372
O O10 0.605000 0.597297 0.223088
O O11 0.112579 0.250000 0.997142
O O12 0.147944 0.358647 0.927787
O O13 0.801371 0.385960 0.766210
O O14 0.826468 0.601921 0.170347
O O15 0.780336 0.514756 0.241463
O O16 0.500000 0.500000 0.500000
O O17 0.401155 0.250000 0.035423
O O18 0.556403 0.077769 0.168875
O O19 0.000000 0.500000 0.500000
#
# Coordination Sequence:
#
# PCOD9166341 Si02
#       8
#     4   4   4   4   4   4   4   4
#     4  10  22  40  64  94 128 167 214 268 319 373
#     4  11  22  42  65  89 128 166 209 262 323 369
#     4  11  23  41  66  92 128 167 214 266 320 379
#     4  11  22  40  63  92 128 165 208 257 313 383
#     4  11  22  40  66  89 127 168 212 265 311 378
#     4  11  23  40  65  92 125 167 211 263 318 376
#     4  11  24  41  64  92 129 168 209 257 313 378
#     4  12  23  43  64  92 130 167 210 265 317 374
#
# _framework density 18.873459
#
# number of rings (size 3 to 8) (size 9 to 14) (size 15 to 20)
#    0.000    1.000    3.750    3.375    0.000    4.500 
#    0.000    2.500    0.000    0.000    0.000    0.000 
#    0.000    0.000    0.000    0.000    0.000    0.000 
#
# Total GULP energy -178817.372669 kJ/mol
# GULP energy per Si atom -5588.042896 kJ/mol
# Density = 1.883050 g / cm^3
# Si number density = 18.873459 Si / 1000 Ang^3
#
#
#
# Elastic Constant Matrix: (Units=GPa)
#
#
# Indices 1 2 3 4 5 6 
#
# 1 105.7243 31.7955 8.7572 0.0000 0.0856 0.0000
# 2 31.7955 88.3325 21.4208 0.0000 0.1930 0.0000
# 3 8.7572 21.4208 72.6454 0.0000 1.7468 0.0000
# 4 0.0000 0.0000 0.0000 8.9772 0.0000 0.6733
# 5 0.0856 0.1930 1.7468 0.0000 30.0952 0.0000
# 6 0.0000 0.0000 0.0000 0.6733 0.0000 17.7401
#
#
#
# Elastic Compliance Matrix: (Units=1/GPa)
#
#
# Indices 1 2 3 4 5 6 
#
# 1 0.010609 -0.003779 -0.000165 0.000000 0.000004 0.000000
# 2 -0.003779 0.013539 -0.003540 0.000000 0.000129 0.000000
# 3 -0.000165 -0.003540 0.014849 0.000000 -0.000839 0.000000
# 4 0.000000 0.000000 0.000000 0.111712 0.000000 -0.004240
# 5 0.000004 0.000129 -0.000839 0.000000 0.033276 0.000000
# 6 0.000000 0.000000 0.000000 -0.004240 0.000000 0.056530
#
#
# Mechanical properties :
#
#
# Convention : Reuss Voigt Hill
#
# Bulk Modulus (GPa) = 41.61366 43.40548 42.50957
# Shear Modulus (GPa) = 18.97595 25.01107 21.99351
#
# Velocity S-wave (km/s) = 3.17429 3.64428 3.41737
# Velocity P-wave (km/s) = 5.96083 6.38402 6.17605
#
# Compressibility (1/GPa) = 0.02403057
#
# Stress axis : x y z
#
# Youngs Moduli (GPa) = 94.26314 73.85994 67.34313
#
# Poissons Ratio (x) = 0.27909 0.01109
# Poissons Ratio (y) = 0.35619 0.23839
# Poissons Ratio (z) = 0.01553 0.26145
#
# Static dielectric constant tensor:
#      x y z
#    x 1.650710 0.000000 0.005200 
#    y 0.000000 1.646790 0.000000 
#    z 0.005200 0.000000 1.655470 
# 
# From -- ./inp_files/65790.got.cif
#   From: 2010.05.17/outbox.cif.g08.bks.cpg/sg11_33_cif.got.tgz:65790.got - 2010.06.03 12:22:45.
