data_PCOD9166399
_publ_section_title
;
Structure prediction by ZEFSAII (Michael W. Deem and Ramdas Pophale) SiO2 
 PCOD9166399
Probable space group: P 21/M
;
_chemical_formula_sum "Si O2"
_cell_formula_units_Z 28
_cell_length_a 27.794794
_cell_length_b 8.807384
_cell_length_c 9.548281
_cell_angle_alpha 90.000000
_cell_angle_beta 142.434404
_cell_angle_gamma 90.000000
_cell_volume 1425.049398
_symmetry_space_group_name_H-M "P 21/M"
_symmetry_group_IT_number 11
_symmetry_cell_setting 'monoclinic'
loop_
_space_group_symop_operation_xyz
x,y,z
-x,1/2+y,-z
-x,-y,-z
x,1/2-y,z
loop_
_atom_site_type_symbol
_atom_site_label
_atom_site_fract_x
_atom_site_fract_y
_atom_site_fract_z
Si Si1 0.015202 0.567667 0.689867
Si Si2 0.435313 0.430101 0.248497
Si Si3 0.702758 0.932945 0.654103
Si Si4 0.521198 0.568435 0.196688
Si Si5 0.164882 0.932715 0.220496
Si Si6 0.741704 0.931697 0.054596
Si Si7 0.876383 0.068375 0.556561
O O1 0.011824 0.750000 0.671676
O O2 0.949920 0.510351 0.649639
O O3 0.000000 0.500000 0.500000
O O4 0.098905 0.523982 0.952887
O O5 0.500000 0.500000 0.500000
O O6 0.446318 0.250000 0.266477
O O7 0.455399 0.506035 0.148824
O O8 0.347288 0.457784 0.098430
O O9 0.704332 0.750000 0.650374
O O10 0.610680 0.978925 0.443861
O O11 0.752330 0.999448 0.640084
O O12 0.743030 0.977306 0.894441
O O13 0.519956 0.750000 0.193669
O O14 0.500000 0.500000 0.000000
O O15 0.170593 0.750000 0.235014
O O16 0.138338 0.979873 0.315854
O O17 0.758026 0.750000 0.101304
O O18 0.801669 0.021704 0.289974
O O19 0.887506 0.250000 0.580904
#
# Coordination Sequence:
#
# PCOD9166399 Si02
#       7
#     4   4   4   4   4   4   4
#     4  11  23  42  67  94 124 161 202 247 300 361
#     4  11  22  40  64  91 123 164 211 262 316 373
#     4  10  22  41  62  86 120 161 204 250 305 366
#     4  11  24  42  61  89 124 164 211 262 318 377
#     4  10  24  42  61  90 126 160 201 249 300 358
#     4  10  22  41  62  88 122 161 206 253 306 367
#     4  11  24  41  62  93 126 159 201 250 302 360
#
# _framework density 19.648440999999998
#
# number of rings (size 3 to 8) (size 9 to 14) (size 15 to 20)
#    0.000    1.429    1.429    3.000    2.000    7.429 
#    0.000    0.000    0.000    0.000    0.000    0.000 
#    0.000    0.000    0.000    0.000    0.000    0.000 
#
# Total GULP energy -156488.789372 kJ/mol
# GULP energy per Si atom -5588.885335 kJ/mol
# Density = 1.960372 g / cm^3
# Si number density = 19.648441 Si / 1000 Ang^3
#
#
#
# Elastic Constant Matrix: (Units=GPa)
#
#
# Indices 1 2 3 4 5 6 
#
# 1 123.0305 32.1334 14.7820 0.0000 -18.1562 0.0000
# 2 32.1334 26.9088 16.8683 0.0000 10.2053 0.0000
# 3 14.7820 16.8683 61.6894 0.0000 -8.3314 0.0000
# 4 0.0000 0.0000 0.0000 30.6107 0.0000 -0.9973
# 5 -18.1562 10.2053 -8.3314 0.0000 32.3105 0.0000
# 6 0.0000 0.0000 0.0000 -0.9973 0.0000 39.1248
#
#
#
# Elastic Compliance Matrix: (Units=1/GPa)
#
#
# Indices 1 2 3 4 5 6 
#
# 1 0.023770 -0.047486 0.011520 0.000000 0.031326 0.000000
# 2 -0.047486 0.152674 -0.041945 0.000000 -0.085722 0.000000
# 3 0.011520 -0.041945 0.028578 0.000000 0.027091 0.000000
# 4 0.000000 0.000000 0.000000 0.032695 0.000000 0.000833
# 5 0.031326 -0.085722 0.027091 0.000000 0.082614 0.000000
# 6 0.000000 0.000000 0.000000 0.000833 0.000000 0.025580
#
#
# Mechanical properties :
#
#
# Convention : Reuss Voigt Hill
#
# Bulk Modulus (GPa) = 20.32633 37.68846 29.00739
# Shear Modulus (GPa) = 9.65001 30.26553 19.95777
#
# Velocity S-wave (km/s) = 2.21856 3.92899 3.19053
# Velocity P-wave (km/s) = 4.11462 6.30917 5.32615
#
# Compressibility (1/GPa) = 0.04919727
#
# Stress axis : x y z
#
# Youngs Moduli (GPa) = 42.07071 6.54991 34.99189
#
# Poissons Ratio (x) = 0.31103 -0.40309
# Poissons Ratio (y) = 1.99779 1.46775
# Poissons Ratio (z) = -0.48464 0.27474
#
# Static dielectric constant tensor:
#      x y z
#    x 1.602610 0.000000 0.036910 
#    y 0.000000 1.659410 0.000000 
#    z 0.036910 0.000000 1.664870 
# 
# From -- ./inp_files/28624.got.cif
#   From: 2010.05.17/outbox.cif.g08.bks.cpg/sg11_15_cif.got.tgz:28624.got - 2010.06.03 12:22:45.
