data_PCOD9166516
_publ_section_title
;
Structure prediction by ZEFSAII (Michael W. Deem and Ramdas Pophale) SiO2 
 PCOD9166516
Probable space group: P 21/M
;
_chemical_formula_sum "Si O2"
_cell_formula_units_Z 24
_cell_length_a 12.324639
_cell_length_b 8.118091
_cell_length_c 11.324663
_cell_angle_alpha 90.000000
_cell_angle_beta 80.386460
_cell_angle_gamma 90.000000
_cell_volume 1117.149274
_symmetry_space_group_name_H-M "P 21/M"
_symmetry_group_IT_number 11
_symmetry_cell_setting 'monoclinic'
loop_
_space_group_symop_operation_xyz
x,y,z
-x,1/2+y,-z
-x,-y,-z
x,1/2-y,z
loop_
_atom_site_type_symbol
_atom_site_label
_atom_site_fract_x
_atom_site_fract_y
_atom_site_fract_z
Si Si1 0.241664 0.057874 0.703378
Si Si2 0.482801 0.561405 0.638018
Si Si3 0.430579 0.055734 0.127191
Si Si4 0.973767 0.948224 0.135509
Si Si5 0.127005 0.947214 0.490985
Si Si6 0.194611 0.552112 0.220201
O O1 0.266953 0.250000 0.723484
O O2 0.146669 0.991926 0.806536
O O3 0.353012 0.956678 0.684941
O O4 0.184249 0.041716 0.586747
O O5 0.500000 0.500000 0.500000
O O6 0.519612 0.750000 0.627304
O O7 0.536771 0.484347 0.747939
O O8 0.448990 0.250000 0.131240
O O9 0.300928 0.019895 0.137018
O O10 0.500000 0.000000 0.000000
O O11 0.969674 0.750000 0.149306
O O12 0.076321 0.007893 0.194876
O O13 0.000000 0.000000 0.000000
O O14 0.130908 0.750000 0.510416
O O15 0.192968 0.984511 0.359377
O O16 0.000000 0.000000 0.500000
O O17 0.197785 0.750000 0.205387
#
# Coordination Sequence:
#
# PCOD9166516 Si02
#       6
#     4   4   4   4   4   4
#     4  11  23  41  64  94 130 165 207 260 317 380
#     4  11  25  45  68  97 130 171 219 270 325 385
#     4  11  26  45  67  96 128 168 218 268 322 385
#     4  10  23  41  60  89 126 165 207 256 313 373
#     4  11  21  37  62  93 128 166 206 253 313 375
#     4  10  22  42  64  90 127 164 204 258 314 373
#
# _framework density 21.483253999999999
#
# number of rings (size 3 to 8) (size 9 to 14) (size 15 to 20)
#    0.000    1.333    1.667    3.000    2.333    8.667 
#    0.000    0.000    0.000    0.000    0.000    0.000 
#    0.000    0.000    0.000    0.000    0.000    0.000 
#
# Total GULP energy -134055.254021 kJ/mol
# GULP energy per Si atom -5585.635584 kJ/mol
# Density = 2.143436 g / cm^3
# Si number density = 21.483254 Si / 1000 Ang^3
#
#
#
# Elastic Constant Matrix: (Units=GPa)
#
#
# Indices 1 2 3 4 5 6 
#
# 1 70.7444 -12.8654 21.5748 0.0000 -22.6020 0.0000
# 2 -12.8654 25.1764 16.2863 0.0000 -4.8820 0.0000
# 3 21.5748 16.2863 131.3240 0.0000 -26.3945 0.0000
# 4 0.0000 0.0000 0.0000 33.2536 0.0000 -3.5222
# 5 -22.6020 -4.8820 -26.3945 0.0000 40.5402 0.0000
# 6 0.0000 0.0000 0.0000 -3.5222 0.0000 28.7842
#
#
#
# Elastic Compliance Matrix: (Units=1/GPa)
#
#
# Indices 1 2 3 4 5 6 
#
# 1 0.021685 0.015383 -0.003070 0.000000 0.011944 0.000000
# 2 0.015383 0.054234 -0.007153 0.000000 0.010451 0.000000
# 3 -0.003070 -0.007153 0.009767 0.000000 0.003786 0.000000
# 4 0.000000 0.000000 0.000000 0.030467 0.000000 0.003728
# 5 0.011944 0.010451 0.003786 0.000000 0.035049 0.000000
# 6 0.000000 0.000000 0.000000 0.003728 0.000000 0.035198
#
#
# Mechanical properties :
#
#
# Convention : Reuss Voigt Hill
#
# Bulk Modulus (GPa) = 10.41585 30.80402 20.60994
# Shear Modulus (GPa) = 24.02907 33.99887 29.01397
#
# Velocity S-wave (km/s) = 3.34803 3.98248 3.67895
# Velocity P-wave (km/s) = 4.45024 5.95958 5.25933
#
# Compressibility (1/GPa) = 0.09600755
#
# Stress axis : x y z
#
# Youngs Moduli (GPa) = 46.11483 18.43855 102.38422
#
# Poissons Ratio (x) = -0.28364 0.31430
# Poissons Ratio (y) = -0.70939 0.73233
# Poissons Ratio (z) = 0.14156 0.13189
#
# Static dielectric constant tensor:
#      x y z
#    x 1.789000 0.000000 0.016860 
#    y 0.000000 1.769140 0.000000 
#    z 0.016860 0.000000 1.808110 
# 
# From -- ./inp_files/33676.got.cif
#   From: 2010.05.17/outbox.cif.g08.bks.cpg/sg11_17_cif.got.tgz:33676.got - 2010.06.03 12:22:45.
