data_PCOD9166968
_publ_section_title
;
Structure prediction by ZEFSAII (Michael W. Deem and Ramdas Pophale) SiO2 
 PCOD9166968
Probable space group: P 21/M
;
_chemical_formula_sum "Si O2"
_cell_formula_units_Z 30
_cell_length_a 14.798991
_cell_length_b 9.111384
_cell_length_c 12.127108
_cell_angle_alpha 90.000000
_cell_angle_beta 108.836224
_cell_angle_gamma 90.000000
_cell_volume 1547.637457
_symmetry_space_group_name_H-M "P 21/M"
_symmetry_group_IT_number 11
_symmetry_cell_setting 'monoclinic'
loop_
_space_group_symop_operation_xyz
x,y,z
-x,1/2+y,-z
-x,-y,-z
x,1/2-y,z
loop_
_atom_site_type_symbol
_atom_site_label
_atom_site_fract_x
_atom_site_fract_y
_atom_site_fract_z
Si Si1 0.199613 0.922826 0.917513
Si Si2 0.984748 0.576239 0.876265
Si Si3 0.197786 0.578451 0.300848
Si Si4 0.149802 0.496808 0.524258
Si Si5 0.692013 0.580274 0.238514
Si Si6 0.986866 0.250000 0.438251
Si Si7 0.503768 0.424723 0.121822
Si Si8 0.699297 0.924594 0.843070
O O1 0.222737 0.750000 0.929234
O O2 0.086078 0.936004 0.853612
O O3 0.258528 0.005418 0.847634
O O4 0.227221 0.996993 0.044184
O O5 0.964142 0.750000 0.879850
O O6 0.900500 0.494046 0.781061
O O7 0.000000 0.500000 0.000000
O O8 0.199373 0.750000 0.272508
O O9 0.196414 0.558949 0.431050
O O10 0.280975 0.494073 0.268264
O O11 0.232602 0.431673 0.633457
O O12 0.094156 0.622665 0.568835
O O13 0.070729 0.376818 0.460801
O O14 0.671305 0.750000 0.205358
O O15 0.594011 0.494026 0.219555
O O16 0.515439 0.250000 0.113172
O O17 0.405587 0.451467 0.148685
O O18 0.500000 0.500000 0.000000
O O19 0.716141 0.750000 0.848008
#
# Coordination Sequence:
#
# PCOD9166968 Si02
#       8
#     4   4   4   4   4   2   4   4
#     4  11  24  38  62  94 130 171 218 271 333 394
#     4  11  24  38  58  89 128 172 216 264 323 391
#     4  12  26  42  65  94 135 179 224 271 333 405
#     4  11  26  44  69 102 136 180 226 275 334 393
#     4  12  26  42  67 100 135 171 223 281 336 401
#     4  10  24  46  68  94 134 178 228 270 320 392
#     4  11  24  43  70 100 131 171 222 282 345 403
#     4  11  24  43  66  95 129 172 218 271 336 401
#
# _framework density 19.384385000000002
#
# number of rings (size 3 to 8) (size 9 to 14) (size 15 to 20)
#    0.000    0.800    4.000    2.400    7.467    3.200 
#    0.000    0.667    0.000    0.000    0.000    0.000 
#    0.000    0.000    0.000    0.000    0.000    0.000 
#
# Total GULP energy -167269.158173 kJ/mol
# GULP energy per Si atom -5575.638606 kJ/mol
# Density = 1.934027 g / cm^3
# Si number density = 19.384385 Si / 1000 Ang^3
#
#
#
# Elastic Constant Matrix: (Units=GPa)
#
#
# Indices 1 2 3 4 5 6 
#
# 1 123.9528 62.1320 26.5848 0.0000 -2.0357 0.0000
# 2 62.1320 145.1442 11.8063 0.0000 -2.5975 0.0000
# 3 26.5848 11.8063 54.6297 0.0000 -6.7171 0.0000
# 4 0.0000 0.0000 0.0000 14.2258 0.0000 2.3044
# 5 -2.0357 -2.5975 -6.7171 0.0000 13.4474 0.0000
# 6 0.0000 0.0000 0.0000 2.3044 0.0000 29.2492
#
#
#
# Elastic Compliance Matrix: (Units=1/GPa)
#
#
# Indices 1 2 3 4 5 6 
#
# 1 0.011300 -0.004481 -0.004717 0.000000 -0.001511 0.000000
# 2 -0.004481 0.008795 0.000432 0.000000 0.001236 0.000000
# 3 -0.004717 0.000432 0.021766 0.000000 0.010242 0.000000
# 4 0.000000 0.000000 0.000000 0.071204 0.000000 -0.005610
# 5 -0.001511 0.001236 0.010242 0.000000 0.079490 0.000000
# 6 0.000000 0.000000 0.000000 -0.005610 0.000000 0.034631
#
#
# Mechanical properties :
#
#
# Convention : Reuss Voigt Hill
#
# Bulk Modulus (GPa) = 41.10083 58.30810 49.70446
# Shear Modulus (GPa) = 19.77638 26.26472 23.02055
#
# Velocity S-wave (km/s) = 3.19756 3.68495 3.44987
# Velocity P-wave (km/s) = 5.90606 6.94625 6.44717
#
# Compressibility (1/GPa) = 0.02433041
#
# Stress axis : x y z
#
# Youngs Moduli (GPa) = 88.49281 113.70392 45.94264
#
# Poissons Ratio (x) = 0.50948 0.21669
# Poissons Ratio (y) = 0.39651 -0.01984
# Poissons Ratio (z) = 0.41738 -0.04910
#
# Static dielectric constant tensor:
#      x y z
#    x 1.675850 0.000000 -0.011670 
#    y 0.000000 1.648160 0.000000 
#    z -0.011670 0.000000 1.687220 
# 
# From -- ./inp_files/38342.got.cif
#   From: 2010.05.17/outbox.cif.g08.bks.cpg/sg11_20_cif.got.tgz:38342.got - 2010.06.03 12:22:45.
