data_PCOD9166728
_publ_section_title
;
Structure prediction by ZEFSAII (Michael W. Deem and Ramdas Pophale) SiO2 
 PCOD9166728
Probable space group: P 21/M
;
_chemical_formula_sum "Si O2"
_cell_formula_units_Z 28
_cell_length_a 21.022300
_cell_length_b 8.321914
_cell_length_c 9.658242
_cell_angle_alpha 90.000000
_cell_angle_beta 131.242752
_cell_angle_gamma 90.000000
_cell_volume 1270.501044
_symmetry_space_group_name_H-M "P 21/M"
_symmetry_group_IT_number 11
_symmetry_cell_setting 'monoclinic'
loop_
_space_group_symop_operation_xyz
x,y,z
-x,1/2+y,-z
-x,-y,-z
x,1/2-y,z
loop_
_atom_site_type_symbol
_atom_site_label
_atom_site_fract_x
_atom_site_fract_y
_atom_site_fract_z
Si Si1 0.359267 0.067594 0.846691
Si Si2 0.112591 0.060325 0.787127
Si Si3 0.448460 0.563913 0.227169
Si Si4 0.624503 0.436607 0.430771
Si Si5 0.284056 0.944069 0.166883
Si Si6 0.172418 0.939658 0.589397
Si Si7 0.026109 0.556146 0.189284
O O1 0.379278 0.250000 0.913640
O O2 0.373144 0.038362 0.704792
O O3 0.260891 0.029709 0.733092
O O4 0.417685 0.955324 0.024535
O O5 0.100601 0.250000 0.744360
O O6 0.041584 0.002002 0.792468
O O7 0.116871 0.970219 0.646903
O O8 0.202444 0.029792 0.989914
O O9 0.466305 0.750000 0.283742
O O10 0.532979 0.462560 0.368798
O O11 0.367631 0.511018 0.200229
O O12 0.635449 0.250000 0.409738
O O13 0.695740 0.480335 0.644546
O O14 0.273514 0.750000 0.137335
O O15 0.190586 0.750000 0.604055
O O16 0.118339 0.993091 0.378457
O O17 0.025312 0.750000 0.188230
O O18 0.000000 0.500000 0.000000
#
# Coordination Sequence:
#
# PCOD9166728 Si02
#       7
#     4   4   4   4   4   4   4
#     4  12  25  41  63  93 126 167 214 264 317 371
#     4  11  23  41  66  97 128 164 213 260 308 371
#     4  11  22  41  65  92 125 165 214 264 317 377
#     4  11  24  41  62  91 128 169 213 263 320 376
#     4  10  23  41  64  92 126 169 212 256 315 375
#     4  11  23  43  67  93 127 168 212 257 312 376
#     4  10  25  44  66  98 132 166 206 256 312 372
#
# _framework density 22.038550999999998
#
# number of rings (size 3 to 8) (size 9 to 14) (size 15 to 20)
#    0.000    1.143    1.429    4.286    2.000    4.000 
#    0.000    0.000    0.000    0.000    0.000    0.000 
#    0.000    0.000    0.000    0.000    0.000    0.000 
#
# Total GULP energy -156731.341437 kJ/mol
# GULP energy per Si atom -5597.547908 kJ/mol
# Density = 2.198839 g / cm^3
# Si number density = 22.038551 Si / 1000 Ang^3
#
#
#
# Elastic Constant Matrix: (Units=GPa)
#
#
# Indices 1 2 3 4 5 6 
#
# 1 48.0072 0.1846 -2.7852 0.0000 0.9766 0.0000
# 2 0.1846 26.7418 -0.4829 0.0000 0.6371 0.0000
# 3 -2.7852 -0.4829 103.7239 0.0000 2.4092 0.0000
# 4 0.0000 0.0000 0.0000 25.2059 0.0000 -1.5156
# 5 0.9766 0.6371 2.4092 0.0000 18.5782 0.0000
# 6 0.0000 0.0000 0.0000 -1.5156 0.0000 30.0358
#
#
#
# Elastic Compliance Matrix: (Units=1/GPa)
#
#
# Indices 1 2 3 4 5 6 
#
# 1 0.020889 -0.000106 0.000588 0.000000 -0.001171 0.000000
# 2 -0.000106 0.037430 0.000202 0.000000 -0.001304 0.000000
# 3 0.000588 0.000202 0.009688 0.000000 -0.001294 0.000000
# 4 0.000000 0.000000 0.000000 0.039794 0.000000 0.002008
# 5 -0.001171 -0.001304 -0.001294 0.000000 0.054101 0.000000
# 6 0.000000 0.000000 0.000000 0.002008 0.000000 0.033395
#
#
# Mechanical properties :
#
#
# Convention : Reuss Voigt Hill
#
# Bulk Modulus (GPa) = 14.41471 19.14509 16.77990
# Shear Modulus (GPa) = 23.03585 26.86775 24.95180
#
# Velocity S-wave (km/s) = 3.23654 3.49539 3.36845
# Velocity P-wave (km/s) = 4.53010 4.99962 4.77064
#
# Compressibility (1/GPa) = 0.06937357
#
# Stress axis : x y z
#
# Youngs Moduli (GPa) = 47.87314 26.71653 103.22309
#
# Poissons Ratio (x) = 0.00282 -0.06065
# Poissons Ratio (y) = 0.00506 -0.02082
# Poissons Ratio (z) = -0.02813 -0.00539
#
# Static dielectric constant tensor:
#      x y z
#    x 1.824500 0.000000 -0.012230 
#    y 0.000000 1.779180 0.000000 
#    z -0.012230 0.000000 1.786930 
# 
# From -- ./inp_files/26171.got.cif
#   From: 2010.05.17/outbox.cif.g08.bks.cpg/sg11_14_cif.got.tgz:26171.got - 2010.06.03 12:22:45.
