data_PCOD9166095
_publ_section_title
;
Structure prediction by ZEFSAII (Michael W. Deem and Ramdas Pophale) SiO2 
 PCOD9166095
Probable space group: P 21/M
;
_chemical_formula_sum "Si O2"
_cell_formula_units_Z 32
_cell_length_a 23.729089
_cell_length_b 13.876094
_cell_length_c 8.437144
_cell_angle_alpha 90.000000
_cell_angle_beta 146.244663
_cell_angle_gamma 90.000000
_cell_volume 1543.630197
_symmetry_space_group_name_H-M "P 21/M"
_symmetry_group_IT_number 11
_symmetry_cell_setting 'monoclinic'
loop_
_space_group_symop_operation_xyz
x,y,z
-x,1/2+y,-z
-x,-y,-z
x,1/2-y,z
loop_
_atom_site_type_symbol
_atom_site_label
_atom_site_fract_x
_atom_site_fract_y
_atom_site_fract_z
Si Si1 0.061400 0.972646 0.297539
Si Si2 0.256328 0.858515 0.649504
Si Si3 0.091136 0.457217 0.815319
Si Si4 0.589366 0.632522 0.694932
Si Si5 0.517121 0.132416 0.877999
Si Si6 0.532526 0.135117 0.278219
Si Si7 0.230444 0.858692 0.211989
Si Si8 0.179641 0.360989 0.743782
O O1 0.164219 0.913217 0.515270
O O2 0.973377 0.918830 0.189295
O O3 0.101502 0.072080 0.467851
O O4 0.000000 0.000000 0.000000
O O5 0.262176 0.750000 0.728533
O O6 0.230753 0.853923 0.403185
O O7 0.370403 0.899784 0.915436
O O8 0.151878 0.377153 0.862624
O O9 0.000000 0.500000 0.500000
O O10 0.161848 0.550171 0.009364
O O11 0.585486 0.750000 0.682287
O O12 0.557275 0.603629 0.440094
O O13 0.520232 0.600392 0.682493
O O14 0.704690 0.605212 0.003939
O O15 0.520382 0.250000 0.890286
O O16 0.498105 0.103434 0.018582
O O17 0.514622 0.250000 0.235196
O O18 0.653800 0.122170 0.569676
O O19 0.200576 0.750000 0.085129
O O20 0.171258 0.250000 0.678097
#
# Coordination Sequence:
#
# PCOD9166095 Si02
#       8
#     4   4   4   4   4   4   4   4
#     4  11  22  40  63  88 118 152 204 263 304 351
#     4   9  18  34  60  92 120 150 193 250 314 368
#     4  10  22  38  57  83 117 157 197 250 298 353
#     4   9  17  34  58  83 119 161 197 241 296 361
#     4   8  15  30  54  86 122 154 193 247 301 361
#     4   8  15  29  54  87 118 153 198 243 298 364
#     4   9  17  34  60  87 118 155 192 244 313 366
#     4  10  24  44  60  82 122 167 202 239 298 364
#
# _framework density 20.730353999999998
#
# number of rings (size 3 to 8) (size 9 to 14) (size 15 to 20)
#    0.000    2.750    1.250    1.500    0.000    5.000 
#    2.250    6.875    0.000    3.000    0.000    0.000 
#    0.000    0.000    0.000    0.000    0.000    0.000 
#
# Total GULP energy -178225.842507 kJ/mol
# GULP energy per Si atom -5569.557578 kJ/mol
# Density = 2.068317 g / cm^3
# Si number density = 20.730354 Si / 1000 Ang^3
#
#
#
# Elastic Constant Matrix: (Units=GPa)
#
#
# Indices 1 2 3 4 5 6 
#
# 1 166.0642 64.6944 40.9735 0.0000 20.6435 0.0000
# 2 64.6944 133.2326 34.3840 0.0000 11.0245 0.0000
# 3 40.9735 34.3840 85.1829 0.0000 -9.5722 0.0000
# 4 0.0000 0.0000 0.0000 21.1610 0.0000 12.8925
# 5 20.6435 11.0245 -9.5722 0.0000 20.5482 0.0000
# 6 0.0000 0.0000 0.0000 12.8925 0.0000 13.5392
#
#
#
# Elastic Compliance Matrix: (Units=1/GPa)
#
#
# Indices 1 2 3 4 5 6 
#
# 1 0.009442 -0.002523 -0.004682 0.000000 -0.010313 0.000000
# 2 -0.002523 0.009936 -0.003283 0.000000 -0.004326 0.000000
# 3 -0.004682 -0.003283 0.016930 0.000000 0.014352 0.000000
# 4 0.000000 0.000000 0.000000 0.112558 0.000000 -0.107182
# 5 -0.010313 -0.004326 0.014352 0.000000 0.068034 0.000000
# 6 0.000000 0.000000 0.000000 -0.107182 0.000000 0.175922
#
#
# Mechanical properties :
#
#
# Convention : Reuss Voigt Hill
#
# Bulk Modulus (GPa) = 65.22772 73.84261 69.53517
# Shear Modulus (GPa) = 11.93578 27.34486 19.64032
#
# Velocity S-wave (km/s) = 2.40211 3.63585 3.08136
# Velocity P-wave (km/s) = 6.26312 7.30231 6.80259
#
# Compressibility (1/GPa) = 0.01533090
#
# Stress axis : x y z
#
# Youngs Moduli (GPa) = 105.91024 100.64398 59.06828
#
# Poissons Ratio (x) = 0.25393 0.27657
# Poissons Ratio (y) = 0.26722 0.19393
# Poissons Ratio (z) = 0.49589 0.33043
#
# Static dielectric constant tensor:
#      x y z
#    x 1.766080 0.000000 -0.039420 
#    y 0.000000 1.813500 0.000000 
#    z -0.039420 0.000000 1.710550 
# 
# From -- ./inp_files/27816.got.cif
#   From: 2010.05.17/outbox.cif.g08.bks.cpg/sg11_14_cif.got.tgz:27816.got - 2010.06.03 12:22:45.
