data_PCOD9166409
_publ_section_title
;
Structure prediction by ZEFSAII (Michael W. Deem and Ramdas Pophale) SiO2 
 PCOD9166409
Probable space group: P 21/M
;
_chemical_formula_sum "Si O2"
_cell_formula_units_Z 24
_cell_length_a 13.653539
_cell_length_b 8.993013
_cell_length_c 13.515037
_cell_angle_alpha 90.000000
_cell_angle_beta 132.511542
_cell_angle_gamma 90.000000
_cell_volume 1223.258935
_symmetry_space_group_name_H-M "P 21/M"
_symmetry_group_IT_number 11
_symmetry_cell_setting 'monoclinic'
loop_
_space_group_symop_operation_xyz
x,y,z
-x,1/2+y,-z
-x,-y,-z
x,1/2-y,z
loop_
_atom_site_type_symbol
_atom_site_label
_atom_site_fract_x
_atom_site_fract_y
_atom_site_fract_z
Si Si1 0.865771 0.918839 0.382940
Si Si2 0.369566 0.574074 0.666253
Si Si3 0.357171 0.571503 0.426734
Si Si4 0.074776 0.928592 0.144928
Si Si5 0.837957 0.917787 0.129573
Si Si6 0.436247 0.925589 0.056078
O O1 0.857326 0.750000 0.416268
O O2 0.858113 0.910695 0.260107
O O3 0.750463 0.018978 0.348395
O O4 0.000000 0.000000 0.500000
O O5 0.391609 0.750000 0.691447
O O6 0.336806 0.542424 0.529734
O O7 0.492232 0.486401 0.796925
O O8 0.500000 0.500000 0.500000
O O9 0.367056 0.750000 0.420290
O O10 0.225813 0.521376 0.275190
O O11 0.081370 0.750000 0.135495
O O12 0.974485 0.957346 0.167968
O O13 0.000000 0.000000 0.000000
O O14 0.799211 0.750000 0.069030
O O15 0.716848 0.030209 0.034261
O O16 0.455116 0.750000 0.059201
O O17 0.500000 0.000000 0.000000
#
# Coordination Sequence:
#
# PCOD9166409 Si02
#       6
#     4   4   4   4   4   4
#     4  11  22  37  61  90 123 164 208 259 321 386
#     4  11  23  41  64  91 127 167 212 265 323 383
#     4  10  24  45  68  95 129 170 216 270 327 389
#     4  10  23  44  67  94 128 168 216 269 324 386
#     4  10  22  41  63  88 126 168 211 261 319 382
#     4  12  24  39  62  95 131 169 213 260 317 386
#
# _framework density 19.619720999999998
#
# number of rings (size 3 to 8) (size 9 to 14) (size 15 to 20)
#    0.000    1.333    1.667    3.500    2.333    6.000 
#    0.000    1.667    0.000    0.000    0.000    0.000 
#    0.000    0.000    0.000    0.000    0.000    0.000 
#
# Total GULP energy -133995.810238 kJ/mol
# GULP energy per Si atom -5583.158760 kJ/mol
# Density = 1.957507 g / cm^3
# Si number density = 19.619721 Si / 1000 Ang^3
#
#
#
# Elastic Constant Matrix: (Units=GPa)
#
#
# Indices 1 2 3 4 5 6 
#
# 1 103.3510 29.4342 48.5508 0.0000 8.7594 0.0000
# 2 29.4342 80.8184 58.0472 0.0000 2.8755 0.0000
# 3 48.5508 58.0472 154.0402 0.0000 19.0914 0.0000
# 4 0.0000 0.0000 0.0000 35.9574 0.0000 3.5298
# 5 8.7594 2.8755 19.0914 0.0000 30.1729 0.0000
# 6 0.0000 0.0000 0.0000 3.5298 0.0000 30.6771
#
#
#
# Elastic Compliance Matrix: (Units=1/GPa)
#
#
# Indices 1 2 3 4 5 6 
#
# 1 0.011698 -0.002322 -0.002625 0.000000 -0.001514 0.000000
# 2 -0.002322 0.017621 -0.006276 0.000000 0.002966 0.000000
# 3 -0.002625 -0.006276 0.010325 0.000000 -0.005173 0.000000
# 4 0.000000 0.000000 0.000000 0.028128 0.000000 -0.003237
# 5 -0.001514 0.002966 -0.005173 0.000000 0.036572 0.000000
# 6 0.000000 0.000000 0.000000 -0.003237 0.000000 0.032970
#
#
# Mechanical properties :
#
#
# Convention : Reuss Voigt Hill
#
# Bulk Modulus (GPa) = 58.13897 67.80823 62.97360
# Shear Modulus (GPa) = 30.21272 32.83995 31.52633
#
# Velocity S-wave (km/s) = 3.92843 4.09568 4.01293
# Velocity P-wave (km/s) = 7.09042 7.54999 7.32381
#
# Compressibility (1/GPa) = 0.01720017
#
# Stress axis : x y z
#
# Youngs Moduli (GPa) = 85.48314 56.75001 96.85066
#
# Poissons Ratio (x) = 0.13175 0.25419
# Poissons Ratio (y) = 0.19845 0.60784
# Poissons Ratio (z) = 0.22436 0.35617
#
# Static dielectric constant tensor:
#      x y z
#    x 1.668040 0.000000 0.011280 
#    y 0.000000 1.678670 0.000000 
#    z 0.011280 0.000000 1.731420 
# 
# From -- ./inp_files/51823.got.cif
#   From: 2010.05.17/outbox.cif.g08.bks.cpg/sg11_26_cif.got.tgz:51823.got - 2010.06.03 12:22:45.
