data_PCOD9166934
_publ_section_title
;
Structure prediction by ZEFSAII (Michael W. Deem and Ramdas Pophale) SiO2 
 PCOD9166934
Probable space group: P 21/M
;
_chemical_formula_sum "Si O2"
_cell_formula_units_Z 24
_cell_length_a 9.083995
_cell_length_b 17.532668
_cell_length_c 15.033849
_cell_angle_alpha 90.000000
_cell_angle_beta 33.101920
_cell_angle_gamma 90.000000
_cell_volume 1307.648860
_symmetry_space_group_name_H-M "P 21/M"
_symmetry_group_IT_number 11
_symmetry_cell_setting 'monoclinic'
loop_
_space_group_symop_operation_xyz
x,y,z
-x,1/2+y,-z
-x,-y,-z
x,1/2-y,z
loop_
_atom_site_type_symbol
_atom_site_label
_atom_site_fract_x
_atom_site_fract_y
_atom_site_fract_z
Si Si1 0.948489 0.840640 0.860875
Si Si2 0.982203 0.659900 0.195559
Si Si3 0.446583 0.080679 0.074156
Si Si4 0.703332 0.534680 0.650283
Si Si5 0.418270 0.339973 0.436306
Si Si6 0.203648 0.429389 0.885208
O O1 0.909007 0.750000 0.880726
O O2 0.792754 0.877710 0.857225
O O3 0.269539 0.855670 0.697406
O O4 0.829242 0.876971 0.011323
O O5 0.995539 0.750000 0.171044
O O6 0.776623 0.647323 0.381057
O O7 0.877361 0.616415 0.161563
O O8 0.278040 0.628832 0.069483
O O9 0.372523 0.065230 0.213707
O O10 0.500000 0.000000 0.000000
O O11 0.667052 0.603505 0.599087
O O12 0.496234 0.467061 0.731161
O O13 0.000000 0.500000 0.500000
O O14 0.399719 0.250000 0.420540
O O15 0.000000 0.500000 0.000000
#
# Coordination Sequence:
#
# PCOD9166934 Si02
#       6
#     4   4   4   4   4   4
#     4  11  23  41  65  94 126 169 213 263 317 377
#     4  11  24  43  66  93 128 171 211 261 320 379
#     4  12  23  42  65  96 129 164 214 262 317 379
#     4  12  26  42  65  96 128 169 212 265 324 373
#     4  10  24  44  65  93 129 168 214 262 318 380
#     4  12  22  43  65  93 124 165 216 259 315 384
#
# _framework density 18.353551
#
# number of rings (size 3 to 8) (size 9 to 14) (size 15 to 20)
#    0.000    0.667    5.000    2.000    2.333    3.333 
#    0.000    0.833    0.000    0.000    0.000    0.000 
#    0.000    0.000    0.000    0.000    0.000    0.000 
#
# Total GULP energy -134249.827175 kJ/mol
# GULP energy per Si atom -5593.742799 kJ/mol
# Density = 1.831178 g / cm^3
# Si number density = 18.353551 Si / 1000 Ang^3
#
#
#
# Elastic Constant Matrix: (Units=GPa)
#
#
# Indices 1 2 3 4 5 6 
#
# 1 161.0284 103.4599 77.4346 0.0000 -3.0202 0.0000
# 2 103.4599 141.0892 84.8357 0.0000 2.0040 0.0000
# 3 77.4346 84.8357 133.8844 0.0000 -14.2538 0.0000
# 4 0.0000 0.0000 0.0000 36.2304 0.0000 -0.4196
# 5 -3.0202 2.0040 -14.2538 0.0000 40.8247 0.0000
# 6 0.0000 0.0000 0.0000 -0.4196 0.0000 47.6922
#
#
#
# Elastic Compliance Matrix: (Units=1/GPa)
#
#
# Indices 1 2 3 4 5 6 
#
# 1 0.012152 -0.007635 -0.002134 0.000000 0.000529 0.000000
# 2 -0.007635 0.016669 -0.006537 0.000000 -0.003665 0.000000
# 3 -0.002134 -0.006537 0.013359 0.000000 0.004827 0.000000
# 4 0.000000 0.000000 0.000000 0.027604 0.000000 0.000243
# 5 0.000529 -0.003665 0.004827 0.000000 0.026399 0.000000
# 6 0.000000 0.000000 0.000000 0.000243 0.000000 0.020970
#
#
# Mechanical properties :
#
#
# Convention : Reuss Voigt Hill
#
# Bulk Modulus (GPa) = 104.50854 107.49582 106.00218
# Shear Modulus (GPa) = 32.68963 36.30093 34.49528
#
# Velocity S-wave (km/s) = 4.22489 4.45215 4.34001
# Velocity P-wave (km/s) = 8.99250 9.22635 9.11018
#
# Compressibility (1/GPa) = 0.00956860
#
# Stress axis : x y z
#
# Youngs Moduli (GPa) = 82.29305 59.99162 74.85559
#
# Poissons Ratio (x) = 0.45805 0.15973
# Poissons Ratio (y) = 0.62833 0.48930
# Poissons Ratio (z) = 0.17560 0.39214
#
# Static dielectric constant tensor:
#      x y z
#    x 1.538980 0.000000 0.119240 
#    y 0.000000 1.612060 0.000000 
#    z 0.119240 0.000000 1.373250 
# 
# From -- ./inp_files/12605.got.cif
#   From: 2010.05.17/outbox.cif.g08.bks.cpg/sg11_7_cif.got.tgz:12605.got - 2010.06.03 12:22:45.
