data_PCOD9166719
_publ_section_title
;
Structure prediction by ZEFSAII (Michael W. Deem and Ramdas Pophale) SiO2 
 PCOD9166719
Probable space group: P 21/M
;
_chemical_formula_sum "Si O2"
_cell_formula_units_Z 32
_cell_length_a 8.794465
_cell_length_b 31.943425
_cell_length_c 5.295564
_cell_angle_alpha 90.000000
_cell_angle_beta 86.361739
_cell_angle_gamma 90.000000
_cell_volume 1484.659819
_symmetry_space_group_name_H-M "P 21/M"
_symmetry_group_IT_number 11
_symmetry_cell_setting 'monoclinic'
loop_
_space_group_symop_operation_xyz
x,y,z
-x,1/2+y,-z
-x,-y,-z
x,1/2-y,z
loop_
_atom_site_type_symbol
_atom_site_label
_atom_site_fract_x
_atom_site_fract_y
_atom_site_fract_z
Si Si1 0.235110 0.481440 0.949503
Si Si2 0.299370 0.130981 0.440793
Si Si3 0.090274 0.055174 0.448103
Si Si4 0.501822 0.427933 0.775947
Si Si5 0.390196 0.863936 0.855797
Si Si6 0.259757 0.558222 0.612037
Si Si7 0.873535 0.200353 0.121226
Si Si8 0.931264 0.799949 0.393700
O O1 0.152793 0.461140 0.710285
O O2 0.393727 0.456201 0.962051
O O3 0.260824 0.528860 0.858571
O O4 0.139401 0.475039 0.212697
O O5 0.165618 0.099761 0.363886
O O6 0.387786 0.101068 0.626508
O O7 0.218037 0.171619 0.561442
O O8 0.433012 0.143642 0.233150
O O9 0.909472 0.058229 0.476143
O O10 0.605058 0.394076 0.904592
O O11 0.608141 0.456864 0.591149
O O12 0.285143 0.823812 0.887577
O O13 0.310167 0.894546 0.663383
O O14 0.847244 0.250000 0.111098
O O15 0.981821 0.188922 0.874074
O O16 0.959863 0.191786 0.376007
O O17 0.898058 0.750000 0.394462
#
# Coordination Sequence:
#
# PCOD9166719 Si02
#       8
#     4   4   4   4   4   4   4   4
#     4  11  24  44  62  88 129 167 214 273 317 374
#     4  10  23  41  61  93 128 167 207 262 311 377
#     4  11  24  41  63  92 123 165 217 269 317 374
#     4  10  24  41  59  93 127 172 214 258 316 379
#     4  11  24  40  64  92 130 168 214 254 318 380
#     4  11  25  39  64  92 122 171 217 266 322 372
#     4  10  24  44  68  97 128 162 205 259 311 376
#     4  10  23  44  71 100 127 163 209 258 318 377
#
# _framework density 21.553757000000001
#
# number of rings (size 3 to 8) (size 9 to 14) (size 15 to 20)
#    0.000    1.500    1.250    1.875   10.500    2.000 
#    0.000    0.625    0.000    0.000    0.000    0.000 
#    0.000    0.000    0.000    0.000    0.000    0.000 
#
# Total GULP energy -178893.400237 kJ/mol
# GULP energy per Si atom -5590.418757 kJ/mol
# Density = 2.150470 g / cm^3
# Si number density = 21.553757 Si / 1000 Ang^3
#
#
#
# Elastic Constant Matrix: (Units=GPa)
#
#
# Indices 1 2 3 4 5 6 
#
# 1 104.8177 42.2781 18.4280 0.0000 -9.0645 0.0000
# 2 42.2781 53.8604 -2.4262 0.0000 -11.8861 0.0000
# 3 18.4280 -2.4262 72.3270 0.0000 -1.1452 0.0000
# 4 0.0000 0.0000 0.0000 15.9831 0.0000 -8.1065
# 5 -9.0645 -11.8861 -1.1452 0.0000 24.7539 0.0000
# 6 0.0000 0.0000 0.0000 -8.1065 0.0000 47.8335
#
#
#
# Elastic Compliance Matrix: (Units=1/GPa)
#
#
# Indices 1 2 3 4 5 6 
#
# 1 0.015179 -0.012220 -0.004285 0.000000 -0.000508 0.000000
# 2 -0.012220 0.030658 0.004307 0.000000 0.010446 0.000000
# 3 -0.004285 0.004307 0.015081 0.000000 0.001197 0.000000
# 4 0.000000 0.000000 0.000000 0.068449 0.000000 0.011600
# 5 -0.000508 0.010446 0.001197 0.000000 0.045283 0.000000
# 6 0.000000 0.000000 0.000000 0.011600 0.000000 0.022872
#
#
# Mechanical properties :
#
#
# Convention : Reuss Voigt Hill
#
# Bulk Modulus (GPa) = 27.38061 38.61834 32.99948
# Shear Modulus (GPa) = 21.35919 29.22912 25.29416
#
# Velocity S-wave (km/s) = 3.15139 3.68653 3.42941
# Velocity P-wave (km/s) = 5.09634 6.00639 5.56998
#
# Compressibility (1/GPa) = 0.03652219
#
# Stress axis : x y z
#
# Youngs Moduli (GPa) = 65.88202 32.61833 66.30705
#
# Poissons Ratio (x) = 0.39858 0.28414
# Poissons Ratio (y) = 0.80505 -0.28560
# Poissons Ratio (z) = 0.28232 -0.14049
#
# Static dielectric constant tensor:
#      x y z
#    x 1.789710 0.000000 0.008730 
#    y 0.000000 1.764910 0.000000 
#    z 0.008730 0.000000 1.842460 
# 
# From -- ./inp_files/3410.got.cif
#   From: 2010.05.17/outbox.cif.g08.bks.cpg/sg11_2_cif.got.tgz:3410.got - 2010.06.03 12:22:45.
