data_PCOD9166317
_publ_section_title
;
Structure prediction by ZEFSAII (Michael W. Deem and Ramdas Pophale) SiO2 
 PCOD9166317
Probable space group: P 21/M
;
_chemical_formula_sum "Si O2"
_cell_formula_units_Z 28
_cell_length_a 16.357880
_cell_length_b 8.704682
_cell_length_c 20.629560
_cell_angle_alpha 90.000000
_cell_angle_beta 149.961496
_cell_angle_gamma 90.000000
_cell_volume 1470.432231
_symmetry_space_group_name_H-M "P 21/M"
_symmetry_group_IT_number 11
_symmetry_cell_setting 'monoclinic'
loop_
_space_group_symop_operation_xyz
x,y,z
-x,1/2+y,-z
-x,-y,-z
x,1/2-y,z
loop_
_atom_site_type_symbol
_atom_site_label
_atom_site_fract_x
_atom_site_fract_y
_atom_site_fract_z
Si Si1 0.505881 0.933313 0.190983
Si Si2 0.458370 0.065000 0.401230
Si Si3 0.066829 0.065407 0.722830
Si Si4 0.853493 0.934262 0.072867
Si Si5 0.311217 0.564391 0.558968
Si Si6 0.085249 0.065548 0.122452
Si Si7 0.371234 0.932993 0.859874
O O1 0.498749 0.750000 0.183954
O O2 0.607383 0.989519 0.322530
O O3 0.588113 0.996716 0.181978
O O4 0.322629 0.000232 0.067551
O O5 0.463146 0.250000 0.407908
O O6 0.588281 0.016660 0.435972
O O7 0.275205 0.019410 0.255391
O O8 0.500000 0.000000 0.500000
O O9 0.086733 0.250000 0.729130
O O10 0.110117 0.027542 0.827125
O O11 0.879319 0.026110 0.579507
O O12 0.193098 0.981089 0.762672
O O13 0.851823 0.750000 0.065542
O O14 0.990730 0.002434 0.120161
O O15 0.324017 0.750000 0.573367
O O16 0.076447 0.250000 0.115510
O O17 0.000000 0.000000 0.000000
O O18 0.388495 0.750000 0.869077
O O19 0.500000 0.000000 0.000000
#
# Coordination Sequence:
#
# PCOD9166317 Si02
#       7
#     4   4   4   4   4   4   4
#     4  12  25  41  64  94 127 165 208 258 314 375
#     4  10  22  40  63  90 123 165 209 256 309 368
#     4  10  22  40  65  93 123 162 209 258 310 370
#     4  11  22  39  64  91 122 162 207 258 314 371
#     4  10  22  42  64  91 127 167 210 257 312 372
#     4  11  23  38  59  90 125 161 208 260 311 371
#     4  12  24  41  66  94 126 163 206 257 311 371
#
# _framework density 19.042020000000001
#
# number of rings (size 3 to 8) (size 9 to 14) (size 15 to 20)
#    0.000    1.143    1.429    5.143    0.000    5.714 
#    0.000    0.000    0.000    0.000    0.000    0.000 
#    0.000    0.000    0.000    0.000    0.000    0.000 
#
# Total GULP energy -156664.234809 kJ/mol
# GULP energy per Si atom -5595.151243 kJ/mol
# Density = 1.899868 g / cm^3
# Si number density = 19.042020 Si / 1000 Ang^3
#
#
#
# Elastic Constant Matrix: (Units=GPa)
#
#
# Indices 1 2 3 4 5 6 
#
# 1 114.6776 31.3644 50.5292 0.0000 12.5117 0.0000
# 2 31.3644 59.2299 45.2874 0.0000 6.3691 0.0000
# 3 50.5292 45.2874 147.6605 0.0000 7.4673 0.0000
# 4 0.0000 0.0000 0.0000 26.9393 0.0000 0.3507
# 5 12.5117 6.3691 7.4673 0.0000 40.5270 0.0000
# 6 0.0000 0.0000 0.0000 0.3507 0.0000 36.2539
#
#
#
# Elastic Compliance Matrix: (Units=1/GPa)
#
#
# Indices 1 2 3 4 5 6 
#
# 1 0.011110 -0.003674 -0.002555 0.000000 -0.002382 0.000000
# 2 -0.003674 0.023474 -0.005868 0.000000 -0.001474 0.000000
# 3 -0.002555 -0.005868 0.009448 0.000000 -0.000030 0.000000
# 4 0.000000 0.000000 0.000000 0.037125 0.000000 -0.000359
# 5 -0.002382 -0.001474 -0.000030 0.000000 0.025647 0.000000
# 6 0.000000 0.000000 0.000000 -0.000359 0.000000 0.027587
#
#
# Mechanical properties :
#
#
# Convention : Reuss Voigt Hill
#
# Bulk Modulus (GPa) = 50.40514 63.99221 57.19867
# Shear Modulus (GPa) = 30.26695 33.70319 31.98507
#
# Velocity S-wave (km/s) = 3.99116 4.21163 4.10287
# Velocity P-wave (km/s) = 6.91137 7.57160 7.24901
#
# Compressibility (1/GPa) = 0.01983925
#
# Stress axis : x y z
#
# Youngs Moduli (GPa) = 90.00534 42.60082 105.84652
#
# Poissons Ratio (x) = 0.15651 0.27041
# Poissons Ratio (y) = 0.33067 0.62107
# Poissons Ratio (z) = 0.22994 0.24997
#
# Static dielectric constant tensor:
#      x y z
#    x 1.629560 0.000000 0.010840 
#    y 0.000000 1.640000 0.000000 
#    z 0.010840 0.000000 1.632160 
# 
# From -- ./inp_files/65475.got.cif
#   From: 2010.05.17/outbox.cif.g08.bks.cpg/sg11_33_cif.got.tgz:65475.got - 2010.06.03 12:22:45.
