data_PCOD9166053
_publ_section_title
;
Structure prediction by ZEFSAII (Michael W. Deem and Ramdas Pophale) SiO2 
 PCOD9166053
Probable space group: P 21/M
;
_chemical_formula_sum "Si O2"
_cell_formula_units_Z 32
_cell_length_a 12.482294
_cell_length_b 18.102094
_cell_length_c 14.396114
_cell_angle_alpha 90.000000
_cell_angle_beta 29.390501
_cell_angle_gamma 90.000000
_cell_volume 1596.382826
_symmetry_space_group_name_H-M "P 21/M"
_symmetry_group_IT_number 11
_symmetry_cell_setting 'monoclinic'
loop_
_space_group_symop_operation_xyz
x,y,z
-x,1/2+y,-z
-x,-y,-z
x,1/2-y,z
loop_
_atom_site_type_symbol
_atom_site_label
_atom_site_fract_x
_atom_site_fract_y
_atom_site_fract_z
Si Si1 0.803566 0.834566 0.125125
Si Si2 0.741980 0.025669 0.795731
Si Si3 0.231356 0.331193 0.632588
Si Si4 0.835793 0.054196 0.225410
Si Si5 0.156497 0.927988 0.477590
Si Si6 0.332200 0.664026 0.487443
Si Si7 0.138472 0.927798 0.091699
Si Si8 0.515328 0.958669 0.665238
O O1 0.876227 0.750000 0.050491
O O2 0.722700 0.836836 0.292812
O O3 0.567414 0.849454 0.258716
O O4 0.988565 0.893798 0.961196
O O5 0.749368 0.074765 0.697364
O O6 0.825746 0.060644 0.827307
O O7 0.912690 0.959108 0.650857
O O8 0.500000 0.000000 0.000000
O O9 0.286278 0.250000 0.558074
O O10 0.351967 0.391348 0.479917
O O11 0.975321 0.348867 0.829054
O O12 0.724088 0.108710 0.384980
O O13 0.655839 0.021217 0.289569
O O14 0.970742 0.989308 0.175033
O O15 0.159904 0.854966 0.536907
O O16 0.310645 0.984410 0.421798
O O17 0.323465 0.750000 0.522237
O O18 0.357813 0.934872 0.867688
#
# Coordination Sequence:
#
# PCOD9166053 Si02
#       8
#     4   4   4   4   4   4   4   4
#     4  10  22  37  56  87 134 178 203 240 305 377
#     4  11  23  43  68  90 121 158 212 271 321 360
#     4  11  24  40  57  86 129 170 207 247 304 378
#     4  12  23  37  62  98 133 163 208 256 310 381
#     4  11  24  41  67  95 120 164 216 266 314 371
#     4  11  23  40  62  92 132 169 205 254 315 377
#     4  12  24  41  64  95 123 165 207 266 316 369
#     4  12  23  38  64  95 127 165 209 256 312 372
#
# _framework density 20.045318000000002
#
# number of rings (size 3 to 8) (size 9 to 14) (size 15 to 20)
#    0.000    0.750    6.250    1.500    1.750    2.000 
#    0.000    0.625    0.000    0.750    0.000    0.000 
#    0.000    0.000    0.000    0.000    0.000    0.000 
#
# Total GULP energy -178591.578796 kJ/mol
# GULP energy per Si atom -5580.986837 kJ/mol
# Density = 1.999969 g / cm^3
# Si number density = 20.045318 Si / 1000 Ang^3
#
#
#
# Elastic Constant Matrix: (Units=GPa)
#
#
# Indices 1 2 3 4 5 6 
#
# 1 89.5555 27.8652 15.6819 0.0000 12.5811 0.0000
# 2 27.8652 77.2987 31.0412 0.0000 2.0413 0.0000
# 3 15.6819 31.0412 107.0136 0.0000 6.8665 0.0000
# 4 0.0000 0.0000 0.0000 22.2086 0.0000 -0.4967
# 5 12.5811 2.0413 6.8665 0.0000 36.2027 0.0000
# 6 0.0000 0.0000 0.0000 -0.4967 0.0000 20.8841
#
#
#
# Elastic Compliance Matrix: (Units=1/GPa)
#
#
# Indices 1 2 3 4 5 6 
#
# 1 0.013234 -0.004515 -0.000355 0.000000 -0.004277 0.000000
# 2 -0.004515 0.016183 -0.004125 0.000000 0.001439 0.000000
# 3 -0.000355 -0.004125 0.010701 0.000000 -0.001674 0.000000
# 4 0.000000 0.000000 0.000000 0.045052 0.000000 0.001071
# 5 -0.004277 0.001439 -0.001674 0.000000 0.029345 0.000000
# 6 0.000000 0.000000 0.000000 0.001071 0.000000 0.047909
#
#
# Mechanical properties :
#
#
# Convention : Reuss Voigt Hill
#
# Bulk Modulus (GPa) = 45.19309 47.00491 46.09900
# Shear Modulus (GPa) = 26.62560 29.14437 27.88498
#
# Velocity S-wave (km/s) = 3.64850 3.81717 3.73379
# Velocity P-wave (km/s) = 6.35162 6.55194 6.45256
#
# Compressibility (1/GPa) = 0.02212727
#
# Stress axis : x y z
#
# Youngs Moduli (GPa) = 75.56167 61.79359 93.45341
#
# Poissons Ratio (x) = 0.27901 0.03319
# Poissons Ratio (y) = 0.34117 0.38548
# Poissons Ratio (z) = 0.02684 0.25489
#
# Static dielectric constant tensor:
#      x y z
#    x 2.065650 0.000000 -0.118250 
#    y 0.000000 1.720170 0.000000 
#    z -0.118250 0.000000 1.775210 
# 
# From -- ./inp_files/50672.got.cif
#   From: 2010.05.17/outbox.cif.g08.bks.cpg/sg11_26_cif.got.tgz:50672.got - 2010.06.03 12:22:45.
