data_PCOD9167889
_publ_section_title
;
Structure prediction by ZEFSAII (Michael W. Deem and Ramdas Pophale) SiO2 
 PCOD9167889
Probable space group: P 21/M
;
_chemical_formula_sum "Si O2"
_cell_formula_units_Z 32
_cell_length_a 27.000000
_cell_length_b 9.000000
_cell_length_c 21.000000
_cell_angle_alpha 90.000000
_cell_angle_beta 160.000000
_cell_angle_gamma 90.000000
_cell_volume 1745.328791
_symmetry_space_group_name_H-M "P 21/M"
_symmetry_group_IT_number 11
_symmetry_cell_setting 'monoclinic'
loop_
_space_group_symop_operation_xyz
x,y,z
-x,1/2+y,-z
-x,-y,-z
x,1/2-y,z
loop_
_atom_site_type_symbol
_atom_site_label
_atom_site_fract_x
_atom_site_fract_y
_atom_site_fract_z
Si Si1 0.905198 0.575241 0.292681
Si Si2 0.687883 0.422603 0.779814
Si Si3 0.341155 0.430272 0.907267
Si Si4 0.657342 0.069914 0.339310
Si Si5 0.372930 0.928599 0.553543
Si Si6 0.201369 0.427724 0.610535
Si Si7 0.340039 0.076633 0.382985
Si Si8 0.705651 0.577702 0.927711
O O1 0.940625 0.750000 0.346766
O O2 0.797315 0.521437 0.218097
O O3 0.048955 0.481636 0.455125
O O4 0.812945 0.566770 0.116260
O O5 0.719297 0.250000 0.810558
O O6 0.726241 0.505191 0.760750
O O7 0.514255 0.439382 0.582505
O O8 0.754229 0.487200 0.924626
O O9 0.339959 0.250000 0.909353
O O10 0.318194 0.472173 0.806041
O O11 0.493972 0.477133 0.121729
O O12 0.664036 0.250000 0.344702
O O13 0.682832 0.025794 0.443855
O O14 0.762922 0.002792 0.413753
O O15 0.360776 0.750000 0.534764
O O16 0.544816 0.966209 0.757167
O O17 0.305132 0.999577 0.408134
O O18 0.202831 0.250000 0.605690
O O19 0.306452 0.250000 0.345679
O O20 0.694328 0.750000 0.894194
#
# Coordination Sequence:
#
# PCOD9167889 Si02
#       8
#     4   4   4   4   4   4   4   4
#     4  10  19  35  56  75  98 134 175 212 255 309
#     4   9  16  25  39  63  97 132 163 199 244 294
#     4   9  18  35  57  77  98 129 172 217 260 306
#     4  10  19  35  56  75  98 134 175 212 255 309
#     4   9  16  28  48  71  94 125 166 210 252 296
#     4  11  23  35  49  75 108 135 166 213 261 306
#     4   9  16  25  39  63  97 132 163 199 244 294
#     4   9  16  28  48  71  94 125 166 210 252 296
#
# _framework density 18.334654
#
# number of rings (size 3 to 8) (size 9 to 14) (size 15 to 20)
#    0.000    2.500    1.250    1.875    0.000    4.000 
#    0.000    1.875    0.000    0.000    0.000    0.875 
#    0.000    0.000    0.000    0.000    0.000    0.000 
#
# Total GULP energy -178410.321242 kJ/mol
# GULP energy per Si atom -5575.322539 kJ/mol
# Density = 1.829292 g / cm^3
# Si number density = 18.334654 Si / 1000 Ang^3
#
#
#
# Elastic Constant Matrix: (Units=GPa)
#
#
# Indices 1 2 3 4 5 6 
#
# 1 115.0084 39.3755 12.5440 0.0000 -21.2859 0.0000
# 2 39.3755 28.3002 5.3257 0.0000 -11.3334 0.0000
# 3 12.5440 5.3257 7.3378 0.0000 1.2327 0.0000
# 4 0.0000 0.0000 0.0000 17.0122 0.0000 -4.2890
# 5 -21.2859 -11.3334 1.2327 0.0000 24.3769 0.0000
# 6 0.0000 0.0000 0.0000 -4.2890 0.0000 20.0637
#
#
#
# Elastic Compliance Matrix: (Units=1/GPa)
#
#
# Indices 1 2 3 4 5 6 
#
# 1 0.019122 -0.019318 -0.020135 0.000000 0.008734 0.000000
# 2 -0.019318 0.074316 -0.024089 0.000000 0.018901 0.000000
# 3 -0.020135 -0.024089 0.194672 0.000000 -0.038625 0.000000
# 4 0.000000 0.000000 0.000000 0.062130 0.000000 0.013281
# 5 0.008734 0.018901 -0.038625 0.000000 0.059389 0.000000
# 6 0.000000 0.000000 0.000000 0.013281 0.000000 0.052680
#
#
# Mechanical properties :
#
#
# Convention : Reuss Voigt Hill
#
# Bulk Modulus (GPa) = 6.21014 29.45965 17.83489
# Shear Modulus (GPa) = 7.77523 18.51731 13.14627
#
# Velocity S-wave (km/s) = 2.06154 3.18144 2.68062
# Velocity P-wave (km/s) = 3.01016 5.44041 4.39654
#
# Compressibility (1/GPa) = 0.16102709
#
# Stress axis : x y z
#
# Youngs Moduli (GPa) = 52.29710 13.45602 5.13685
#
# Poissons Ratio (x) = 0.25994 0.10343
# Poissons Ratio (y) = 1.01028 0.12374
# Poissons Ratio (z) = 1.05298 0.32414
#
# Static dielectric constant tensor:
#      x y z
#    x 1.627200 0.000000 -0.015750 
#    y 0.000000 1.618020 0.000000 
#    z -0.015750 0.000000 1.637780 
# 
# From -- ./inp_files/67253.got.cif
#   From: 2010.05.17/outbox.ucp.g08.bks.cvg/sg11_34_cif.got.tgz:67253.got - 2010.06.11 11:38:39.
