data_PCOD9167071
_publ_section_title
;
Structure prediction by ZEFSAII (Michael W. Deem and Ramdas Pophale) SiO2 
 PCOD9167071
Probable space group: P 21/M
;
_chemical_formula_sum "Si O2"
_cell_formula_units_Z 24
_cell_length_a 12.051910
_cell_length_b 8.504865
_cell_length_c 21.319438
_cell_angle_alpha 90.000000
_cell_angle_beta 38.517225
_cell_angle_gamma 90.000000
_cell_volume 1360.857694
_symmetry_space_group_name_H-M "P 21/M"
_symmetry_group_IT_number 11
_symmetry_cell_setting 'monoclinic'
loop_
_space_group_symop_operation_xyz
x,y,z
-x,1/2+y,-z
-x,-y,-z
x,1/2-y,z
loop_
_atom_site_type_symbol
_atom_site_label
_atom_site_fract_x
_atom_site_fract_y
_atom_site_fract_z
Si Si1 0.541428 0.563591 0.710670
Si Si2 0.858394 0.065117 0.247197
Si Si3 0.108026 0.438104 0.636954
Si Si4 0.535154 0.065250 0.577898
Si Si5 0.888835 0.060782 0.609493
Si Si6 0.852890 0.563011 0.112743
O O1 0.551990 0.750000 0.694000
O O2 0.587540 0.469512 0.626672
O O3 0.691779 0.512092 0.692963
O O4 0.338902 0.516842 0.815828
O O5 0.885027 0.250000 0.228259
O O6 0.950600 0.002933 0.269539
O O7 0.648366 0.027869 0.349240
O O8 0.904944 0.980660 0.161297
O O9 0.117212 0.250000 0.635821
O O10 0.304095 0.504324 0.535072
O O11 0.985886 0.482752 0.631623
O O12 0.503692 0.250000 0.582097
O O13 0.880725 0.250000 0.609711
O O14 0.000000 0.000000 0.500000
O O15 0.833123 0.750000 0.116490
O O16 0.000000 0.500000 0.000000
#
# Coordination Sequence:
#
# PCOD9167071 Si02
#       6
#     4   4   4   4   4   4
#     4  11  21  35  55  82 114 147 188 232 276 328
#     4  11  22  36  54  79 110 143 183 228 279 333
#     4  11  22  35  51  75 110 151 189 227 273 327
#     4  11  20  32  51  75 108 147 187 228 274 327
#     4  11  22  35  54  78 112 154 195 232 271 324
#     4  11  22  40  64  88 112 140 180 230 285 336
#
# _framework density 17.635936999999998
#
# number of rings (size 3 to 8) (size 9 to 14) (size 15 to 20)
#    0.000    1.000    1.667    9.500    0.000    2.000 
#    0.000    0.000    0.000    1.000    0.000    0.000 
#    0.000    0.000    0.000    0.000    0.000    0.000 
#
# Total GULP energy -134127.955624 kJ/mol
# GULP energy per Si atom -5588.664818 kJ/mol
# Density = 1.759580 g / cm^3
# Si number density = 17.635937 Si / 1000 Ang^3
#
#
#
# Elastic Constant Matrix: (Units=GPa)
#
#
# Indices 1 2 3 4 5 6 
#
# 1 97.9154 8.6319 39.9023 0.0000 19.0316 0.0000
# 2 8.6319 60.9815 6.1603 0.0000 0.6120 0.0000
# 3 39.9023 6.1603 93.5067 0.0000 11.4995 0.0000
# 4 0.0000 0.0000 0.0000 27.3955 0.0000 1.3541
# 5 19.0316 0.6120 11.4995 0.0000 14.1452 0.0000
# 6 0.0000 0.0000 0.0000 1.3541 0.0000 27.5923
#
#
#
# Elastic Compliance Matrix: (Units=1/GPa)
#
#
# Indices 1 2 3 4 5 6 
#
# 1 0.015482 -0.001576 -0.004388 0.000000 -0.017195 0.000000
# 2 -0.001576 0.016669 -0.000664 0.000000 0.001939 0.000000
# 3 -0.004388 -0.000664 0.013201 0.000000 -0.004799 0.000000
# 4 0.000000 0.000000 0.000000 0.036591 0.000000 -0.001796
# 5 -0.017195 0.001939 -0.004799 0.000000 0.097648 0.000000
# 6 0.000000 0.000000 0.000000 -0.001796 0.000000 0.036330
#
#
# Mechanical properties :
#
#
# Convention : Reuss Voigt Hill
#
# Bulk Modulus (GPa) = 31.15660 40.19920 35.67790
# Shear Modulus (GPa) = 20.84410 27.00721 23.92566
#
# Velocity S-wave (km/s) = 3.44162 3.91752 3.68726
# Velocity P-wave (km/s) = 5.78774 6.58073 6.19693
#
# Compressibility (1/GPa) = 0.03209593
#
# Stress axis : x y z
#
# Youngs Moduli (GPa) = 64.59014 59.99134 75.75188
#
# Poissons Ratio (x) = 0.09452 0.33243
# Poissons Ratio (y) = 0.10177 0.05031
# Poissons Ratio (z) = 0.28344 0.03985
#
# Static dielectric constant tensor:
#      x y z
#    x 1.647180 0.000000 0.011360 
#    y 0.000000 1.586910 0.000000 
#    z 0.011360 0.000000 1.575780 
# 
# From -- ./inp_files/64121.got.cif
#   From: 2010.05.17/outbox.cif.g08.bks.cpg/sg11_33_cif.got.tgz:64121.got - 2010.06.03 12:22:45.
