data_PCOD9167536
_publ_section_title
;
Structure prediction by ZEFSAII (Michael W. Deem and Ramdas Pophale) SiO2 
 PCOD9167536
Probable space group: P 21/M
;
_chemical_formula_sum "Si O2"
_cell_formula_units_Z 14
_cell_length_a 5.405280
_cell_length_b 14.098084
_cell_length_c 8.539369
_cell_angle_alpha 90.000000
_cell_angle_beta 61.859223
_cell_angle_gamma 90.000000
_cell_volume 573.812418
_symmetry_space_group_name_H-M "P 21/M"
_symmetry_group_IT_number 11
_symmetry_cell_setting 'monoclinic'
loop_
_space_group_symop_operation_xyz
x,y,z
-x,1/2+y,-z
-x,-y,-z
x,1/2-y,z
loop_
_atom_site_type_symbol
_atom_site_label
_atom_site_fract_x
_atom_site_fract_y
_atom_site_fract_z
Si Si1 0.770204 0.416528 0.568844
Si Si2 0.958393 0.750000 0.344649
Si Si3 0.696516 0.546961 0.069770
Si Si4 0.353764 0.750000 0.637121
Si Si5 0.115468 0.250000 0.995314
O O1 0.468977 0.454836 0.714992
O O2 0.740207 0.345163 0.430141
O O3 0.000000 0.500000 0.500000
O O4 0.865268 0.343435 0.675560
O O5 0.688990 0.750000 0.538441
O O6 0.856834 0.750000 0.199084
O O7 0.743897 0.653473 0.995153
O O8 0.500000 0.500000 0.000000
O O9 0.000000 0.500000 0.000000
O O10 0.201717 0.750000 0.848051
#
# Coordination Sequence:
#
# PCOD9167536 Si02
#       5
#     4   2   4   2   2
#     4  11  25  48  73 108 154 198 257 323 382 471
#     4  11  24  49  74 107 153 199 260 318 393 457
#     4  12  27  47  76 115 151 205 257 317 392 466
#     4  11  25  45  74 108 140 207 248 320 390 457
#     4  12  25  50  76 109 157 200 258 324 393 460
#
# _framework density 24.398216000000001
#
# number of rings (size 3 to 8) (size 9 to 14) (size 15 to 20)
#    0.000    0.571    2.857    4.286    4.000    2.286 
#   10.286    0.000    0.000    0.000    0.000    0.000 
#    0.000    0.000    0.000    0.000    0.000    0.000 
#
# Total GULP energy -78483.811873 kJ/mol
# GULP energy per Si atom -5605.986562 kJ/mol
# Density = 2.434268 g / cm^3
# Si number density = 24.398216 Si / 1000 Ang^3
#
#
#
# Elastic Constant Matrix: (Units=GPa)
#
#
# Indices 1 2 3 4 5 6 
#
# 1 107.2610 68.6410 9.5723 0.0000 -34.2347 0.0000
# 2 68.6410 187.9644 31.3075 0.0000 -20.6618 0.0000
# 3 9.5723 31.3075 110.8895 0.0000 -58.0578 0.0000
# 4 0.0000 0.0000 0.0000 26.1667 0.0000 -11.9940
# 5 -34.2347 -20.6618 -58.0578 0.0000 49.6938 0.0000
# 6 0.0000 0.0000 0.0000 -11.9940 0.0000 36.4928
#
#
#
# Elastic Compliance Matrix: (Units=1/GPa)
#
#
# Indices 1 2 3 4 5 6 
#
# 1 0.023624 -0.007885 0.018004 0.000000 0.034031 0.000000
# 2 -0.007885 0.008244 -0.006944 0.000000 -0.010117 0.000000
# 3 0.018004 -0.006944 0.037100 0.000000 0.052861 0.000000
# 4 0.000000 0.000000 0.000000 0.044995 0.000000 0.014788
# 5 0.034031 -0.010117 0.052861 0.000000 0.101119 0.000000
# 6 0.000000 0.000000 0.000000 0.014788 0.000000 0.032263
#
#
# Mechanical properties :
#
#
# Convention : Reuss Voigt Hill
#
# Bulk Modulus (GPa) = 13.27673 69.46186 41.36929
# Shear Modulus (GPa) = 18.78984 42.24360 30.51672
#
# Velocity S-wave (km/s) = 2.77814 4.16555 3.54047
# Velocity P-wave (km/s) = 3.96790 7.18802 5.80568
#
# Compressibility (1/GPa) = 0.07531977
#
# Stress axis : x y z
#
# Youngs Moduli (GPa) = 42.32983 121.29891 26.95394
#
# Poissons Ratio (x) = 0.95645 -0.48529
# Poissons Ratio (y) = 0.33377 0.18716
# Poissons Ratio (z) = -0.76212 0.84225
#
# Static dielectric constant tensor:
#      x y z
#    x 1.987810 0.000000 -0.038510 
#    y 0.000000 1.968810 0.000000 
#    z -0.038510 0.000000 1.970650 
# 
# From -- ./inp_files/1307.got.cif
#   From: 2010.05.17/outbox.cif.g08.bks.cpg/sg11_1_cif.got.tgz:1307.got - 2010.06.03 12:22:45.
