data_PCOD9167218
_publ_section_title
;
Structure prediction by ZEFSAII (Michael W. Deem and Ramdas Pophale) SiO2 
 PCOD9167218
Probable space group: P 21/M
;
_chemical_formula_sum "Si O2"
_cell_formula_units_Z 20
_cell_length_a 13.459299
_cell_length_b 18.721985
_cell_length_c 9.489447
_cell_angle_alpha 90.000000
_cell_angle_beta 23.566709
_cell_angle_gamma 90.000000
_cell_volume 956.039811
_symmetry_space_group_name_H-M "P 21/M"
_symmetry_group_IT_number 11
_symmetry_cell_setting 'monoclinic'
loop_
_space_group_symop_operation_xyz
x,y,z
-x,1/2+y,-z
-x,-y,-z
x,1/2-y,z
loop_
_atom_site_type_symbol
_atom_site_label
_atom_site_fract_x
_atom_site_fract_y
_atom_site_fract_z
Si Si1 0.959583 0.489019 0.216220
Si Si2 0.412081 0.750000 0.490150
Si Si3 0.250055 0.989696 0.087622
Si Si4 0.394592 0.123727 0.282187
Si Si5 0.573275 0.124522 0.747508
Si Si6 0.790795 0.750000 0.279147
O O1 0.792622 0.556108 0.486675
O O2 0.849470 0.410220 0.393044
O O3 0.210510 0.497960 0.975230
O O4 0.000000 0.500000 0.000000
O O5 0.467361 0.680038 0.324243
O O6 0.604855 0.750000 0.377742
O O7 0.099733 0.750000 0.889249
O O8 0.359402 0.912461 0.974625
O O9 0.000000 0.000000 0.500000
O O10 0.427079 0.051720 0.909860
O O11 0.287938 0.180993 0.527792
O O12 0.473350 0.152884 0.026774
#
# Coordination Sequence:
#
# PCOD9167218 Si02
#       6
#     4   2   4   4   4   2
#     4  11  23  39  69 103 143 172 233 295 356 412
#     4  12  31  50  71 104 146 188 242 296 355 416
#     4  11  21  41  73 106 136 179 237 293 351 429
#     4  11  24  44  69 102 139 188 235 289 352 429
#     4  11  24  44  69 102 139 188 235 289 352 429
#     4  12  31  50  71 104 146 188 242 296 355 416
#
# _framework density 20.919633000000001
#
# number of rings (size 3 to 8) (size 9 to 14) (size 15 to 20)
#    0.000    0.800    4.000    3.000   11.200    1.600 
#    0.000    3.000    0.000    0.000    0.000    0.000 
#    0.000    0.000    0.000    0.000    0.000    0.000 
#
# Total GULP energy -111446.472922 kJ/mol
# GULP energy per Si atom -5572.323646 kJ/mol
# Density = 2.087202 g / cm^3
# Si number density = 20.919633 Si / 1000 Ang^3
#
#
#
# Elastic Constant Matrix: (Units=GPa)
#
#
# Indices 1 2 3 4 5 6 
#
# 1 145.8973 13.4874 27.4933 0.0000 17.5219 0.0000
# 2 13.4874 82.8908 8.7230 0.0000 9.1076 0.0000
# 3 27.4933 8.7230 68.0913 0.0000 9.9323 0.0000
# 4 0.0000 0.0000 0.0000 24.6403 0.0000 10.4849
# 5 17.5219 9.1076 9.9323 0.0000 33.2514 0.0000
# 6 0.0000 0.0000 0.0000 10.4849 0.0000 35.2728
#
#
#
# Elastic Compliance Matrix: (Units=1/GPa)
#
#
# Indices 1 2 3 4 5 6 
#
# 1 0.007782 -0.000647 -0.002600 0.000000 -0.003147 0.000000
# 2 -0.000647 0.012578 -0.000938 0.000000 -0.002824 0.000000
# 3 -0.002600 -0.000938 0.016330 0.000000 -0.003251 0.000000
# 4 0.000000 0.000000 0.000000 0.046461 0.000000 -0.013810
# 5 -0.003147 -0.002824 -0.003251 0.000000 0.033477 0.000000
# 6 0.000000 0.000000 0.000000 -0.013810 0.000000 0.032456
#
#
# Mechanical properties :
#
#
# Convention : Reuss Voigt Hill
#
# Bulk Modulus (GPa) = 35.31067 44.03186 39.67126
# Shear Modulus (GPa) = 29.95911 35.11127 32.53519
#
# Velocity S-wave (km/s) = 3.78842 4.10126 3.94794
# Velocity P-wave (km/s) = 6.00433 6.59704 6.30765
#
# Compressibility (1/GPa) = 0.02832005
#
# Stress axis : x y z
#
# Youngs Moduli (GPa) = 128.50419 79.50173 61.23540
#
# Poissons Ratio (x) = 0.05142 0.15922
# Poissons Ratio (y) = 0.08312 0.05745
# Poissons Ratio (z) = 0.33414 0.07459
#
# Static dielectric constant tensor:
#      x y z
#    x 1.814850 0.000000 -0.065590 
#    y 0.000000 1.703430 0.000000 
#    z -0.065590 0.000000 1.617090 
# 
# From -- ./inp_files/1904.got.cif
#   From: 2010.05.17/outbox.cif.g08.bks.cpg/sg11_1_cif.got.tgz:1904.got - 2010.06.03 12:22:45.
