data_PCOD9167646
_publ_section_title
;
Structure prediction by ZEFSAII (Michael W. Deem and Ramdas Pophale) SiO2 
 PCOD9167646
Probable space group: P 21/M
;
_chemical_formula_sum "Si O2"
_cell_formula_units_Z 32
_cell_length_a 27.130420
_cell_length_b 7.420254
_cell_length_c 13.916652
_cell_angle_alpha 90.000000
_cell_angle_beta 147.071043
_cell_angle_gamma 90.000000
_cell_volume 1522.959947
_symmetry_space_group_name_H-M "P 21/M"
_symmetry_group_IT_number 11
_symmetry_cell_setting 'monoclinic'
loop_
_space_group_symop_operation_xyz
x,y,z
-x,1/2+y,-z
-x,-y,-z
x,1/2-y,z
loop_
_atom_site_type_symbol
_atom_site_label
_atom_site_fract_x
_atom_site_fract_y
_atom_site_fract_z
Si Si1 0.231144 0.040502 0.393155
Si Si2 0.898887 0.456637 0.219557
Si Si3 0.882030 0.970273 0.610270
Si Si4 0.280739 0.530525 0.157343
Si Si5 0.554513 0.465142 0.688128
Si Si6 0.896113 0.968332 0.424858
Si Si7 0.389553 0.038255 0.530350
Si Si8 0.057788 0.537327 0.997921
O O1 0.247737 0.250000 0.441692
O O2 0.182021 0.964667 0.407821
O O3 0.325172 0.960755 0.508225
O O4 0.156616 0.035237 0.185332
O O5 0.912774 0.250000 0.211520
O O6 0.860327 0.460189 0.265398
O O7 0.999351 0.533993 0.393800
O O8 0.821799 0.534294 0.024923
O O9 0.884364 0.750000 0.619356
O O10 0.851722 0.019258 0.453633
O O11 0.986752 0.027712 0.801308
O O12 0.278848 0.750000 0.154039
O O13 0.344979 0.470006 0.173729
O O14 0.329349 0.474683 0.334786
O O15 0.500000 0.500000 0.500000
O O16 0.560438 0.250000 0.711092
O O17 0.488532 0.537076 0.663856
O O18 0.895565 0.750000 0.416707
O O19 0.402110 0.250000 0.571599
O O20 0.070242 0.750000 0.004846
O O21 0.000000 0.500000 0.000000
#
# Coordination Sequence:
#
# PCOD9167646 Si02
#       8
#     4   4   4   4   4   4   4   4
#     4   9  17  28  39  58  85 110 138 168 199 239
#     4   9  18  30  43  61  81 101 132 174 211 244
#     4   8  15  27  42  56  75 106 137 165 199 237
#     4   9  17  28  44  62  83 110 139 168 204 254
#     4   8  14  26  41  59  82 109 136 164 202 244
#     4   9  17  30  45  58  77 105 136 170 207 243
#     4   9  17  27  41  62  89 113 136 169 202 238
#     4   9  16  26  40  56  79 108 139 171 199 234
#
# _framework density 21.011714000000001
#
# number of rings (size 3 to 8) (size 9 to 14) (size 15 to 20)
#    0.000    3.250    0.000    1.125    1.750    1.000 
#    0.000    3.125    0.000    0.000    0.000    0.875 
#    0.000    0.000    0.000    0.000    0.000    0.000 
#
# Total GULP energy -178210.836586 kJ/mol
# GULP energy per Si atom -5569.088643 kJ/mol
# Density = 2.096389 g / cm^3
# Si number density = 21.011714 Si / 1000 Ang^3
#
#
#
# Elastic Constant Matrix: (Units=GPa)
#
#
# Indices 1 2 3 4 5 6 
#
# 1 108.9734 -0.1394 -1.4087 0.0000 7.8754 0.0000
# 2 -0.1394 72.0076 -4.0689 0.0000 3.5817 0.0000
# 3 -1.4087 -4.0689 16.0772 0.0000 1.2818 0.0000
# 4 0.0000 0.0000 0.0000 5.4439 0.0000 -2.9464
# 5 7.8754 3.5817 1.2818 0.0000 35.1475 0.0000
# 6 0.0000 0.0000 0.0000 -2.9464 0.0000 6.8980
#
#
#
# Elastic Compliance Matrix: (Units=1/GPa)
#
#
# Indices 1 2 3 4 5 6 
#
# 1 0.009346 0.000184 0.001037 0.000000 -0.002151 0.000000
# 2 0.000184 0.014179 0.003734 0.000000 -0.001622 0.000000
# 3 0.001037 0.003734 0.063469 0.000000 -0.002928 0.000000
# 4 0.000000 0.000000 0.000000 0.238926 0.000000 0.102054
# 5 -0.002151 -0.001622 -0.002928 0.000000 0.029205 0.000000
# 6 0.000000 0.000000 0.000000 0.102054 0.000000 0.188559
#
#
# Mechanical properties :
#
#
# Convention : Reuss Voigt Hill
#
# Bulk Modulus (GPa) = 10.31956 20.64713 15.48335
# Shear Modulus (GPa) = 8.83271 23.00957 15.92114
#
# Velocity S-wave (km/s) = 2.05252 3.31279 2.75567
# Velocity P-wave (km/s) = 3.24640 4.94779 4.18448
#
# Compressibility (1/GPa) = 0.09690331
#
# Stress axis : x y z
#
# Youngs Moduli (GPa) = 107.00212 70.52445 15.75567
#
# Poissons Ratio (x) = -0.01295 -0.01634
# Poissons Ratio (y) = -0.01965 -0.05883
# Poissons Ratio (z) = -0.11094 -0.26334
#
# Static dielectric constant tensor:
#      x y z
#    x 1.850750 0.000000 0.023990 
#    y 0.000000 1.840380 0.000000 
#    z 0.023990 0.000000 1.731020 
# 
# From -- ./inp_files/52963.got.cif
#   From: 2010.05.17/outbox.cif.g08.bks.cpg/sg11_27_cif.got.tgz:52963.got - 2010.06.03 12:22:45.
