data_PCOD9167637
_publ_section_title
;
Structure prediction by ZEFSAII (Michael W. Deem and Ramdas Pophale) SiO2 
 PCOD9167637
Probable space group: P 21/M
;
_chemical_formula_sum "Si O2"
_cell_formula_units_Z 32
_cell_length_a 17.828402
_cell_length_b 7.388303
_cell_length_c 20.814543
_cell_angle_alpha 90.000000
_cell_angle_beta 31.880644
_cell_angle_gamma 90.000000
_cell_volume 1448.046518
_symmetry_space_group_name_H-M "P 21/M"
_symmetry_group_IT_number 11
_symmetry_cell_setting 'monoclinic'
loop_
_space_group_symop_operation_xyz
x,y,z
-x,1/2+y,-z
-x,-y,-z
x,1/2-y,z
loop_
_atom_site_type_symbol
_atom_site_label
_atom_site_fract_x
_atom_site_fract_y
_atom_site_fract_z
Si Si1 0.089661 0.464890 0.999233
Si Si2 0.649588 0.966474 0.266492
Si Si3 0.449088 0.043805 0.874229
Si Si4 0.133016 0.970855 0.624511
Si Si5 0.173346 0.966211 0.735200
Si Si6 0.633288 0.963701 0.856724
Si Si7 0.402428 0.528518 0.361734
Si Si8 0.807608 0.528305 0.847786
O O1 0.105358 0.250000 0.999293
O O2 0.983118 0.537074 0.130347
O O3 0.242215 0.536785 0.867453
O O4 0.000000 0.500000 0.000000
O O5 0.652710 0.750000 0.259680
O O6 0.494410 0.023501 0.357596
O O7 0.712479 0.002861 0.291372
O O8 0.406797 0.250000 0.889307
O O9 0.512632 0.963580 0.762769
O O10 0.581352 0.045844 0.827795
O O11 0.311591 0.967635 0.012980
O O12 0.129670 0.750000 0.625208
O O13 0.200656 0.027606 0.643479
O O14 0.240329 0.029380 0.490453
O O15 0.969006 0.027916 0.742150
O O16 0.160468 0.750000 0.742023
O O17 0.649641 0.750000 0.833946
O O18 0.761079 0.027051 0.809397
O O19 0.500000 0.000000 0.000000
O O20 0.400187 0.750000 0.359651
O O21 0.801007 0.750000 0.853774
#
# Coordination Sequence:
#
# PCOD9167637 Si02
#       8
#     4   4   4   4   4   4   4   4
#     4   8  14  24  39  61  84 107 138 183 230 271
#     4   9  17  29  45  64  89 120 153 193 237 277
#     4   9  17  30  50  74  96 123 157 192 231 276
#     4   9  17  29  45  68  95 121 155 199 235 271
#     4   9  17  28  45  66  87 116 155 195 234 276
#     4   9  16  29  50  77 102 124 154 191 231 276
#     4   9  18  30  45  67  95 124 158 196 234 276
#     4   8  15  27  47  71  93 120 153 188 226 273
#
# _framework density 22.098738999999998
#
# number of rings (size 3 to 8) (size 9 to 14) (size 15 to 20)
#    0.000    3.250    0.000    1.125    1.750    0.500 
#    0.000    1.250    0.000    4.500    0.000    0.000 
#    0.000    0.000    0.000    0.000    0.000    0.000 
#
# Total GULP energy -178185.402629 kJ/mol
# GULP energy per Si atom -5568.293832 kJ/mol
# Density = 2.204844 g / cm^3
# Si number density = 22.098739 Si / 1000 Ang^3
#
#
#
# Elastic Constant Matrix: (Units=GPa)
#
#
# Indices 1 2 3 4 5 6 
#
# 1 124.6383 -3.8873 75.6930 0.0000 -9.4609 0.0000
# 2 -3.8873 76.2289 4.4561 0.0000 -0.9464 0.0000
# 3 75.6930 4.4561 143.6632 0.0000 -16.2049 0.0000
# 4 0.0000 0.0000 0.0000 -2.6378 0.0000 -0.9702
# 5 -9.4609 -0.9464 -16.2049 0.0000 14.6899 0.0000
# 6 0.0000 0.0000 0.0000 -0.9702 0.0000 12.1492
#
#
#
# Elastic Compliance Matrix: (Units=1/GPa)
#
#
# Indices 1 2 3 4 5 6 
#
# 1 0.011880 0.000979 -0.006190 0.000000 0.000886 0.000000
# 2 0.000979 0.013225 -0.000866 0.000000 0.000526 0.000000
# 3 -0.006190 -0.000866 0.011185 0.000000 0.008296 0.000000
# 4 0.000000 0.000000 0.000000 -0.368285 0.000000 -0.029410
# 5 0.000886 0.000526 0.008296 0.000000 0.077830 0.000000
# 6 0.000000 0.000000 0.000000 -0.029410 0.000000 0.079961
#
#
# Mechanical properties :
#
#
# Convention : Reuss Voigt Hill
#
# Bulk Modulus (GPa) = 41.43355 55.22821 48.33088
# Shear Modulus (GPa) = -32.46691 22.72484 -4.87104
#
# Velocity S-wave (km/s) = -3.83714 3.21024 -1.48627
# Velocity P-wave (km/s) = 0.91735 6.22790 4.35575
#
# Compressibility (1/GPa) = 0.02413503
#
# Stress axis : x y z
#
# Youngs Moduli (GPa) = 84.17482 75.61161 89.40878
#
# Poissons Ratio (x) = -0.07400 0.55342
# Poissons Ratio (y) = -0.08238 0.07747
# Poissons Ratio (z) = 0.52102 0.06552
#
# Static dielectric constant tensor:
#      x y z
#    x 1.822570 0.000000 -0.003640 
#    y 0.000000 1.854540 0.000000 
#    z -0.003640 0.000000 1.823180 
# 
# From -- ./inp_files/66154.got.cif
#   From: 2010.05.17/outbox.cif.g08.bks.cpg/sg11_34_cif.got.tgz:66154.got - 2010.06.03 12:22:45.
