data_PCOD9167466
_publ_section_title
;
Structure prediction by ZEFSAII (Michael W. Deem and Ramdas Pophale) SiO2 
 PCOD9167466
Probable space group: P 21/M
;
_chemical_formula_sum "Si O2"
_cell_formula_units_Z 20
_cell_length_a 4.700857
_cell_length_b 12.986378
_cell_length_c 13.509915
_cell_angle_alpha 90.000000
_cell_angle_beta 77.321569
_cell_angle_gamma 90.000000
_cell_volume 804.631742
_symmetry_space_group_name_H-M "P 21/M"
_symmetry_group_IT_number 11
_symmetry_cell_setting 'monoclinic'
loop_
_space_group_symop_operation_xyz
x,y,z
-x,1/2+y,-z
-x,-y,-z
x,1/2-y,z
loop_
_atom_site_type_symbol
_atom_site_label
_atom_site_fract_x
_atom_site_fract_y
_atom_site_fract_z
Si Si1 0.361598 0.750000 0.185057
Si Si2 0.954838 0.750000 0.045366
Si Si3 0.474237 0.460346 0.730392
Si Si4 0.064853 0.964502 0.605375
Si Si5 0.716051 0.750000 0.799344
Si Si6 0.358466 0.925520 0.928377
Si Si7 0.706251 0.250000 0.342500
O O1 0.056296 0.750000 0.152250
O O2 0.407748 0.851016 0.245193
O O3 0.606805 0.750000 0.079033
O O4 0.097844 0.853283 0.988310
O O5 0.756411 0.529963 0.685214
O O6 0.288976 0.507176 0.835853
O O7 0.278849 0.459218 0.647805
O O8 0.221346 0.853416 0.602960
O O9 0.000000 0.000000 0.500000
O O10 0.597491 0.846560 0.868572
O O11 0.061560 0.750000 0.765486
O O12 0.593643 0.750000 0.695479
O O13 0.500000 0.000000 0.000000
#
# Coordination Sequence:
#
# PCOD9167466 Si02
#       7
#     2   2   4   4   2   4   2
#     4  12  26  45  67  99 150 191 230 278 358 435
#     4  11  26  40  65 103 140 196 235 276 345 426
#     4  12  26  47  70 103 143 184 233 295 358 422
#     4  12  27  48  76 104 136 182 238 303 365 422
#     4  11  24  42  69 100 139 190 227 292 345 415
#     4  11  23  43  68 104 143 185 237 285 344 418
#     4  12  22  47  73 102 135 181 242 292 358 426
#
# _framework density 24.856090999999999
#
# number of rings (size 3 to 8) (size 9 to 14) (size 15 to 20)
#    0.000    0.400    6.000    1.800    0.000    7.200 
#    0.000    0.000    0.000    0.000    0.000    0.000 
#    0.000    0.000    0.000    0.000    0.000    0.000 
#
# Total GULP energy -112196.406920 kJ/mol
# GULP energy per Si atom -5609.820346 kJ/mol
# Density = 2.479952 g / cm^3
# Si number density = 24.856091 Si / 1000 Ang^3
#
#
#
# Elastic Constant Matrix: (Units=GPa)
#
#
# Indices 1 2 3 4 5 6 
#
# 1 75.4247 1.1391 15.6163 0.0000 17.8386 0.0000
# 2 1.1391 149.3885 67.8011 0.0000 17.0153 0.0000
# 3 15.6163 67.8011 140.3841 0.0000 43.9911 0.0000
# 4 0.0000 0.0000 0.0000 41.7385 0.0000 5.6053
# 5 17.8386 17.0153 43.9911 0.0000 52.0281 0.0000
# 6 0.0000 0.0000 0.0000 5.6053 0.0000 19.5322
#
#
#
# Elastic Compliance Matrix: (Units=1/GPa)
#
#
# Indices 1 2 3 4 5 6 
#
# 1 0.014473 0.000619 -0.000395 0.000000 -0.004831 0.000000
# 2 0.000619 0.008634 -0.004473 0.000000 0.000746 0.000000
# 3 -0.000395 -0.004473 0.012008 0.000000 -0.008555 0.000000
# 4 0.000000 0.000000 0.000000 0.024919 0.000000 -0.007151
# 5 -0.004831 0.000746 -0.008555 0.000000 0.027866 0.000000
# 6 0.000000 0.000000 0.000000 -0.007151 0.000000 0.053250
#
#
# Mechanical properties :
#
#
# Convention : Reuss Voigt Hill
#
# Bulk Modulus (GPa) = 37.56809 59.36782 48.46795
# Shear Modulus (GPa) = 31.54160 41.36916 36.45538
#
# Velocity S-wave (km/s) = 3.56612 4.08407 3.83385
# Velocity P-wave (km/s) = 5.66598 6.79529 6.25617
#
# Compressibility (1/GPa) = 0.02661834
#
# Stress axis : x y z
#
# Youngs Moduli (GPa) = 69.09299 115.81805 83.27626
#
# Poissons Ratio (x) = -0.07172 0.03292
# Poissons Ratio (y) = -0.04279 0.37246
# Poissons Ratio (z) = 0.02732 0.51801
#
# Static dielectric constant tensor:
#      x y z
#    x 1.931640 0.000000 -0.022420 
#    y 0.000000 1.984470 0.000000 
#    z -0.022420 0.000000 1.950390 
# 
# From -- ./inp_files/29641.got.cif
#   From: 2010.05.17/outbox.cif.g08.bks.cpg/sg11_15_cif.got.tgz:29641.got - 2010.06.03 12:22:45.
