data_PCOD9167220
_publ_section_title
;
Structure prediction by ZEFSAII (Michael W. Deem and Ramdas Pophale) SiO2 
 PCOD9167220
Probable space group: P 21/M
;
_chemical_formula_sum "Si O2"
_cell_formula_units_Z 20
_cell_length_a 15.939284
_cell_length_b 10.264814
_cell_length_c 11.624175
_cell_angle_alpha 90.000000
_cell_angle_beta 30.316610
_cell_angle_gamma 90.000000
_cell_volume 960.024608
_symmetry_space_group_name_H-M "P 21/M"
_symmetry_group_IT_number 11
_symmetry_cell_setting 'monoclinic'
loop_
_space_group_symop_operation_xyz
x,y,z
-x,1/2+y,-z
-x,-y,-z
x,1/2-y,z
loop_
_atom_site_type_symbol
_atom_site_label
_atom_site_fract_x
_atom_site_fract_y
_atom_site_fract_z
Si Si1 0.856629 0.250000 0.810674
Si Si2 0.052479 0.250000 0.351772
Si Si3 0.496298 0.750000 0.910305
Si Si4 0.390500 0.018697 0.370226
Si Si5 0.139534 0.104892 0.860327
Si Si6 0.705815 0.250000 0.624624
Si Si7 0.769740 0.974490 0.992241
O O1 0.002573 0.250000 0.544068
O O2 0.679868 0.250000 0.950807
O O3 0.855432 0.383590 0.882972
O O4 0.879905 0.250000 0.485319
O O5 0.152013 0.377794 0.194677
O O6 0.592622 0.620940 0.755013
O O7 0.444230 0.750000 0.104523
O O8 0.309432 0.882532 0.428951
O O9 0.575915 0.990608 0.194979
O O10 0.286141 0.083919 0.595367
O O11 0.070846 0.250000 0.930272
O O12 0.203758 0.084840 0.913663
O O13 0.000000 0.000000 0.000000
#
# Coordination Sequence:
#
# PCOD9167220 Si02
#       7
#     2   2   2   4   4   2   4
#     4   9  22  38  67  94 129 168 212 261 318 381
#     4  11  21  42  61  98 135 168 210 263 316 379
#     4   9  20  42  63  96 131 166 214 263 312 381
#     4  11  23  43  67  95 127 172 216 262 319 377
#     4  12  27  46  67  95 130 166 213 268 326 385
#     4  11  23  38  67  96 133 170 210 263 320 379
#     4  11  23  43  67  94 129 169 217 264 315 382
#
# _framework density 20.832799999999999
#
# number of rings (size 3 to 8) (size 9 to 14) (size 15 to 20)
#    0.000    1.200    2.000    3.600    2.800    0.000 
#    0.000    6.000    0.000    0.000    0.000    0.000 
#    0.000    0.000    0.000    0.000    0.000    0.000 
#
# Total GULP energy -111943.509649 kJ/mol
# GULP energy per Si atom -5597.175482 kJ/mol
# Density = 2.078538 g / cm^3
# Si number density = 20.832800 Si / 1000 Ang^3
#
#
#
# Elastic Constant Matrix: (Units=GPa)
#
#
# Indices 1 2 3 4 5 6 
#
# 1 32.5961 13.9199 6.8923 0.0000 -2.7880 0.0000
# 2 13.9199 166.2916 33.2304 0.0000 -1.2184 0.0000
# 3 6.8923 33.2304 92.4701 0.0000 1.8348 0.0000
# 4 0.0000 0.0000 0.0000 43.9651 0.0000 5.1691
# 5 -2.7880 -1.2184 1.8348 0.0000 31.8552 0.0000
# 6 0.0000 0.0000 0.0000 5.1691 0.0000 22.8514
#
#
#
# Elastic Compliance Matrix: (Units=1/GPa)
#
#
# Indices 1 2 3 4 5 6 
#
# 1 0.032268 -0.002358 -0.001614 0.000000 0.002827 0.000000
# 2 -0.002358 0.006656 -0.002220 0.000000 0.000176 0.000000
# 3 -0.001614 -0.002220 0.011750 0.000000 -0.000903 0.000000
# 4 0.000000 0.000000 0.000000 0.023367 0.000000 -0.005286
# 5 0.002827 0.000176 -0.000903 0.000000 0.031698 0.000000
# 6 0.000000 0.000000 0.000000 -0.005286 0.000000 0.044957
#
#
# Mechanical properties :
#
#
# Convention : Reuss Voigt Hill
#
# Bulk Modulus (GPa) = 26.11538 44.38256 35.24897
# Shear Modulus (GPa) = 28.43452 35.55535 31.99493
#
# Velocity S-wave (km/s) = 3.69845 4.13570 3.92317
# Velocity P-wave (km/s) = 5.54986 6.64499 6.12196
#
# Compressibility (1/GPa) = 0.03829162
#
# Stress axis : x y z
#
# Youngs Moduli (GPa) = 30.98999 150.24629 85.10526
#
# Poissons Ratio (x) = 0.35427 0.13735
# Poissons Ratio (y) = 0.07307 0.18890
# Poissons Ratio (z) = 0.05001 0.33348
#
# Static dielectric constant tensor:
#      x y z
#    x 1.712980 0.000000 0.001170 
#    y 0.000000 1.718800 0.000000 
#    z 0.001170 0.000000 1.726380 
# 
# From -- ./inp_files/15992.got.cif
#   From: 2010.05.17/outbox.cif.g08.bks.cpg/sg11_8_cif.got.tgz:15992.got - 2010.06.03 12:22:45.
