data_PCOD9167975
_publ_section_title
;
Structure prediction by ZEFSAII (Michael W. Deem and Ramdas Pophale) SiO2 
 PCOD9167975
Probable space group: P 21/M
;
_chemical_formula_sum "Si O2"
_cell_formula_units_Z 28
_cell_length_a 9.000000
_cell_length_b 15.000000
_cell_length_c 12.000000
_cell_angle_alpha 90.000000
_cell_angle_beta 60.000000
_cell_angle_gamma 90.000000
_cell_volume 1402.961154
_symmetry_space_group_name_H-M "P 21/M"
_symmetry_group_IT_number 11
_symmetry_cell_setting 'monoclinic'
loop_
_space_group_symop_operation_xyz
x,y,z
-x,1/2+y,-z
-x,-y,-z
x,1/2-y,z
loop_
_atom_site_type_symbol
_atom_site_label
_atom_site_fract_x
_atom_site_fract_y
_atom_site_fract_z
Si Si1 0.629100 0.852746 0.757651
Si Si2 0.575044 0.977162 0.239264
Si Si3 0.449479 0.349805 0.952349
Si Si4 0.141828 0.851685 0.228351
Si Si5 0.014434 0.354366 0.297573
Si Si6 0.958449 0.996688 0.146596
Si Si7 0.263761 0.856127 0.419336
O O1 0.593911 0.750000 0.737610
O O2 0.830981 0.873128 0.673726
O O3 0.511306 0.926635 0.746140
O O4 0.603900 0.859783 0.900405
O O5 0.609038 0.928224 0.107341
O O6 0.754074 0.986719 0.233439
O O7 0.436343 0.912783 0.348587
O O8 0.396665 0.250000 0.933340
O O9 0.655927 0.352286 0.875261
O O10 0.078257 0.750000 0.244244
O O11 0.145487 0.880685 0.356580
O O12 0.046914 0.915886 0.179228
O O13 0.029434 0.250000 0.263287
O O14 0.019861 0.414758 0.186961
O O15 0.839269 0.369934 0.429306
O O16 0.000000 0.000000 0.000000
O O17 0.299550 0.750000 0.393017
#
# Coordination Sequence:
#
# PCOD9167975 Si02
#       7
#     4   4   4   4   4   4   4
#     4  10  20  34  55  80 106 146 195 235 277 332
#     4  11  21  33  55  82 115 149 184 233 284 337
#     4   9  17  33  56  80 107 144 192 238 278 324
#     4   9  19  36  59  83 110 146 189 239 282 327
#     4  10  22  41  62  82 110 148 191 240 286 332
#     4  12  25  36  53  87 125 158 187 221 284 356
#     4   9  20  41  65  85 104 140 197 247 285 327
#
# _framework density 19.957787
#
# number of rings (size 3 to 8) (size 9 to 14) (size 15 to 20)
#    0.000    2.000    0.000    5.143    0.000    5.143 
#    0.000    0.000    0.000    3.429    0.000    0.000 
#    0.000    0.000    0.000    0.000    0.000    0.000 
#
# Total GULP energy -156353.011050 kJ/mol
# GULP energy per Si atom -5584.036109 kJ/mol
# Density = 1.991236 g / cm^3
# Si number density = 19.957787 Si / 1000 Ang^3
#
#
#
# Elastic Constant Matrix: (Units=GPa)
#
#
# Indices 1 2 3 4 5 6 
#
# 1 85.5819 51.6818 10.2766 0.0000 3.2043 0.0000
# 2 51.6818 92.6321 22.1595 0.0000 4.8597 0.0000
# 3 10.2766 22.1595 63.7186 0.0000 -7.8974 0.0000
# 4 0.0000 0.0000 0.0000 -0.2771 0.0000 -25.2033
# 5 3.2043 4.8597 -7.8974 0.0000 14.1415 0.0000
# 6 0.0000 0.0000 0.0000 -25.2033 0.0000 -7.7990
#
#
#
# Elastic Compliance Matrix: (Units=1/GPa)
#
#
# Indices 1 2 3 4 5 6 
#
# 1 0.017646 -0.009974 0.000593 0.000000 -0.000239 0.000000
# 2 -0.009974 0.018056 -0.005543 0.000000 -0.007040 0.000000
# 3 0.000593 -0.005543 0.019065 0.000000 0.012418 0.000000
# 4 0.000000 0.000000 0.000000 0.012320 0.000000 -0.039813
# 5 -0.000239 -0.007040 0.012418 0.000000 0.080122 0.000000
# 6 0.000000 0.000000 0.000000 -0.039813 0.000000 0.000438
#
#
# Mechanical properties :
#
#
# Convention : Reuss Voigt Hill
#
# Bulk Modulus (GPa) = 40.13167 45.57428 42.85297
# Shear Modulus (GPa) = 26.91043 11.73406 19.32225
#
# Velocity S-wave (km/s) = 3.67600 2.42739 3.11490
# Velocity P-wave (km/s) = 6.17812 5.54447 5.86985
#
# Compressibility (1/GPa) = 0.02491798
#
# Stress axis : x y z
#
# Youngs Moduli (GPa) = 56.67045 55.38392 52.45171
#
# Poissons Ratio (x) = 0.55242 -0.03112
# Poissons Ratio (y) = 0.56526 0.29075
# Poissons Ratio (z) = -0.03362 0.30700
#
# Static dielectric constant tensor:
#      x y z
#    x 1.674330 0.000000 -0.049070 
#    y 0.000000 1.708370 0.000000 
#    z -0.049070 0.000000 1.763300 
# 
# From -- ./inp_files/17703.got.cif
#   From: 2010.05.17/outbox.ucp.g08.bks.cvg/sg11_9_cif.got.tgz:17703.got - 2010.06.11 11:38:39.
