data_PCOD9167418
_publ_section_title
;
Structure prediction by ZEFSAII (Michael W. Deem and Ramdas Pophale) SiO2 
 PCOD9167418
Probable space group: P 21/M
;
_chemical_formula_sum "Si O2"
_cell_formula_units_Z 28
_cell_length_a 12.183087
_cell_length_b 8.586339
_cell_length_c 16.093341
_cell_angle_alpha 90.000000
_cell_angle_beta 122.010430
_cell_angle_gamma 90.000000
_cell_volume 1427.521516
_symmetry_space_group_name_H-M "P 21/M"
_symmetry_group_IT_number 11
_symmetry_cell_setting 'monoclinic'
loop_
_space_group_symop_operation_xyz
x,y,z
-x,1/2+y,-z
-x,-y,-z
x,1/2-y,z
loop_
_atom_site_type_symbol
_atom_site_label
_atom_site_fract_x
_atom_site_fract_y
_atom_site_fract_z
Si Si1 0.956554 0.562896 0.571116
Si Si2 0.901307 0.936981 0.030566
Si Si3 0.583435 0.063527 0.110561
Si Si4 0.681162 0.937038 0.521113
Si Si5 0.629541 0.437626 0.856929
Si Si6 0.402295 0.562520 0.344777
Si Si7 0.874832 0.937284 0.208337
O O1 0.963022 0.750000 0.573937
O O2 0.039907 0.500696 0.681788
O O3 0.000000 0.500000 0.500000
O O4 0.808533 0.512071 0.525101
O O5 0.904622 0.750000 0.028049
O O6 0.927195 0.983371 0.137302
O O7 0.756275 0.995953 0.952779
O O8 0.000000 0.000000 0.000000
O O9 0.586342 0.250000 0.110315
O O10 0.502696 0.003516 0.157437
O O11 0.728449 0.998719 0.161493
O O12 0.500000 0.000000 0.000000
O O13 0.677620 0.750000 0.520379
O O14 0.548318 0.991378 0.424945
O O15 0.684515 0.995895 0.616692
O O16 0.628684 0.250000 0.863904
O O17 0.637364 0.482193 0.763358
O O18 0.399549 0.750000 0.347961
O O19 0.872679 0.750000 0.210264
#
# Coordination Sequence:
#
# PCOD9167418 Si02
#       7
#     4   4   4   4   4   4   4
#     4  11  25  43  65  94 127 168 216 266 321 384
#     4  11  25  43  65  93 130 171 215 264 320 385
#     4  12  24  41  65  94 126 163 209 257 314 376
#     4   9  20  40  62  88 122 160 204 257 312 368
#     4  11  23  39  64  95 128 165 208 258 317 381
#     4   9  20  38  62  91 122 160 202 251 311 371
#     4  11  25  45  67  92 127 171 215 268 325 380
#
# _framework density 19.614415000000001
#
# number of rings (size 3 to 8) (size 9 to 14) (size 15 to 20)
#    0.000    1.429    1.429    3.000    4.000    4.000 
#    0.000    0.000    0.000    0.000    0.000    0.000 
#    0.000    0.000    0.000    0.000    0.000    0.000 
#
# Total GULP energy -156490.254091 kJ/mol
# GULP energy per Si atom -5588.937646 kJ/mol
# Density = 1.956977 g / cm^3
# Si number density = 19.614415 Si / 1000 Ang^3
#
#
#
# Elastic Constant Matrix: (Units=GPa)
#
#
# Indices 1 2 3 4 5 6 
#
# 1 143.8160 35.7716 45.1519 0.0000 -25.2732 0.0000
# 2 35.7716 58.0165 29.9854 0.0000 -8.2442 0.0000
# 3 45.1519 29.9854 109.2717 0.0000 -29.0150 0.0000
# 4 0.0000 0.0000 0.0000 31.8178 0.0000 -1.6685
# 5 -25.2732 -8.2442 -29.0150 0.0000 28.2223 0.0000
# 6 0.0000 0.0000 0.0000 -1.6685 0.0000 33.7564
#
#
#
# Elastic Compliance Matrix: (Units=1/GPa)
#
#
# Indices 1 2 3 4 5 6 
#
# 1 0.009456 -0.004407 -0.001089 0.000000 0.006062 0.000000
# 2 -0.004407 0.022140 -0.004931 0.000000 -0.002548 0.000000
# 3 -0.001089 -0.004931 0.014186 0.000000 0.012169 0.000000
# 4 0.000000 0.000000 0.000000 0.031511 0.000000 0.001557
# 5 0.006062 -0.002548 0.012169 0.000000 0.052627 0.000000
# 6 0.000000 0.000000 0.000000 0.001557 0.000000 0.029701
#
#
# Mechanical properties :
#
#
# Convention : Reuss Voigt Hill
#
# Bulk Modulus (GPa) = 40.11385 59.21353 49.66369
# Shear Modulus (GPa) = 26.48530 32.10567 29.29548
#
# Velocity S-wave (km/s) = 3.67863 4.05018 3.86886
# Velocity P-wave (km/s) = 6.20795 7.21985 6.73294
#
# Compressibility (1/GPa) = 0.02492904
#
# Stress axis : x y z
#
# Youngs Moduli (GPa) = 105.74819 45.16709 70.49338
#
# Poissons Ratio (x) = 0.19903 0.07674
# Poissons Ratio (y) = 0.46598 0.34763
# Poissons Ratio (z) = 0.11512 0.22273
#
# Static dielectric constant tensor:
#      x y z
#    x 1.684570 0.000000 -0.012100 
#    y 0.000000 1.663720 0.000000 
#    z -0.012100 0.000000 1.667850 
# 
# From -- ./inp_files/49458.got.cif
#   From: 2010.05.17/outbox.cif.g08.bks.cpg/sg11_25_cif.got.tgz:49458.got - 2010.06.03 12:22:45.
