data_PCOD9167176
_publ_section_title
;
Structure prediction by ZEFSAII (Michael W. Deem and Ramdas Pophale) SiO2 
 PCOD9167176
Probable space group: P 21/M
;
_chemical_formula_sum "Si O2"
_cell_formula_units_Z 32
_cell_length_a 25.294017
_cell_length_b 7.491572
_cell_length_c 9.738738
_cell_angle_alpha 90.000000
_cell_angle_beta 50.634346
_cell_angle_gamma 90.000000
_cell_volume 1426.714061
_symmetry_space_group_name_H-M "P 21/M"
_symmetry_group_IT_number 11
_symmetry_cell_setting 'monoclinic'
loop_
_space_group_symop_operation_xyz
x,y,z
-x,1/2+y,-z
-x,-y,-z
x,1/2-y,z
loop_
_atom_site_type_symbol
_atom_site_label
_atom_site_fract_x
_atom_site_fract_y
_atom_site_fract_z
Si Si1 0.210957 0.468483 0.641049
Si Si2 0.170387 0.032723 0.408933
Si Si3 0.600279 0.543479 0.943153
Si Si4 0.551000 0.966928 0.729769
Si Si5 0.711907 0.968740 0.974712
Si Si6 0.671054 0.967967 0.346089
Si Si7 0.015817 0.038675 0.631007
Si Si8 0.933493 0.547847 0.021820
O O1 0.214794 0.250000 0.636628
O O2 0.209440 0.520014 0.483794
O O3 0.273391 0.526959 0.632749
O O4 0.138988 0.537012 0.822501
O O5 0.167742 0.250000 0.412261
O O6 0.091926 0.970070 0.540956
O O7 0.213607 0.978329 0.204613
O O8 0.619952 0.750000 0.889041
O O9 0.526431 0.533496 0.137815
O O10 0.657065 0.468890 0.951588
O O11 0.587626 0.470224 0.810981
O O12 0.547970 0.750000 0.739877
O O13 0.596694 0.020641 0.525100
O O14 0.710478 0.750000 0.979633
O O15 0.691826 0.028205 0.160004
O O16 0.671702 0.750000 0.342688
O O17 0.016412 0.250000 0.653707
O O18 0.000000 0.000000 0.500000
O O19 0.957157 0.965656 0.826457
O O20 0.921027 0.750000 0.080725
O O21 0.000000 0.500000 0.000000
#
# Coordination Sequence:
#
# PCOD9167176 Si02
#       8
#     4   4   4   4   4   4   4   4
#     4   9  17  30  50  76 103 133 171 218 262 306
#     4   9  17  31  50  74 103 134 172 217 261 308
#     4   9  17  30  49  73  99 129 163 204 251 301
#     4   9  17  30  49  73  99 128 164 206 250 299
#     4   9  17  28  46  73 102 130 167 214 256 297
#     4   9  17  28  46  74 102 128 167 215 256 296
#     4  11  23  38  56  82 112 146 184 228 280 333
#     4  11  21  36  58  84 112 144 184 230 278 329
#
# _framework density 22.42916
#
# number of rings (size 3 to 8) (size 9 to 14) (size 15 to 20)
#    0.000    2.500    1.250    1.500    1.750    3.500 
#    0.000    0.000    0.000    3.000    0.000    0.000 
#    0.000    0.000    0.000    0.000    0.000    0.000 
#
# Total GULP energy -178687.096153 kJ/mol
# GULP energy per Si atom -5583.971755 kJ/mol
# Density = 2.237811 g / cm^3
# Si number density = 22.429160 Si / 1000 Ang^3
#
#
#
# Elastic Constant Matrix: (Units=GPa)
#
#
# Indices 1 2 3 4 5 6 
#
# 1 45.7033 -7.3870 5.6583 0.0000 0.6138 0.0000
# 2 -7.3870 56.9585 -16.9998 0.0000 -2.5664 0.0000
# 3 5.6583 -16.9998 132.3668 0.0000 -3.0848 0.0000
# 4 0.0000 0.0000 0.0000 13.1868 0.0000 -2.9087
# 5 0.6138 -2.5664 -3.0848 0.0000 25.0564 0.0000
# 6 0.0000 0.0000 0.0000 -2.9087 0.0000 7.7872
#
#
#
# Elastic Compliance Matrix: (Units=1/GPa)
#
#
# Indices 1 2 3 4 5 6 
#
# 1 0.022399 0.002705 -0.000618 0.000000 -0.000348 0.000000
# 2 0.002705 0.018701 0.002336 0.000000 0.002137 0.000000
# 3 -0.000618 0.002336 0.007910 0.000000 0.001228 0.000000
# 4 0.000000 0.000000 0.000000 0.082643 0.000000 0.030869
# 5 -0.000348 0.002137 0.001228 0.000000 0.040289 0.000000
# 6 0.000000 0.000000 0.000000 0.030869 0.000000 0.139946
#
#
# Mechanical properties :
#
#
# Convention : Reuss Voigt Hill
#
# Bulk Modulus (GPa) = 17.28482 21.95238 19.61860
# Shear Modulus (GPa) = 15.51221 26.12322 20.81772
#
# Velocity S-wave (km/s) = 2.63270 3.41647 3.04987
# Velocity P-wave (km/s) = 4.11881 5.03703 4.60089
#
# Compressibility (1/GPa) = 0.05785424
#
# Stress axis : x y z
#
# Youngs Moduli (GPa) = 44.64556 53.47341 126.42520
#
# Poissons Ratio (x) = -0.14463 0.07816
# Poissons Ratio (y) = -0.12075 -0.29532
# Poissons Ratio (z) = 0.02760 -0.12491
#
# Static dielectric constant tensor:
#      x y z
#    x 1.809890 0.000000 -0.040960 
#    y 0.000000 1.878220 0.000000 
#    z -0.040960 0.000000 1.869020 
# 
# From -- ./inp_files/27506.got.cif
#   From: 2010.05.17/outbox.cif.g08.bks.cpg/sg11_14_cif.got.tgz:27506.got - 2010.06.03 12:22:45.
