data_PCOD9167573
_publ_section_title
;
Structure prediction by ZEFSAII (Michael W. Deem and Ramdas Pophale) SiO2 
 PCOD9167573
Probable space group: P 21/M
;
_chemical_formula_sum "Si O2"
_cell_formula_units_Z 24
_cell_length_a 8.298334
_cell_length_b 20.000089
_cell_length_c 11.709406
_cell_angle_alpha 90.000000
_cell_angle_beta 140.698054
_cell_angle_gamma 90.000000
_cell_volume 1230.950725
_symmetry_space_group_name_H-M "P 21/M"
_symmetry_group_IT_number 11
_symmetry_cell_setting 'monoclinic'
loop_
_space_group_symop_operation_xyz
x,y,z
-x,1/2+y,-z
-x,-y,-z
x,1/2-y,z
loop_
_atom_site_type_symbol
_atom_site_label
_atom_site_fract_x
_atom_site_fract_y
_atom_site_fract_z
Si Si1 0.461503 0.556699 0.276315
Si Si2 0.977149 0.426530 0.430448
Si Si3 0.816158 0.172026 0.542752
Si Si4 0.820657 0.451522 0.104880
Si Si5 0.673808 0.904526 0.744964
Si Si6 0.955994 0.603073 0.126455
O O1 0.734687 0.586335 0.453093
O O2 0.448356 0.478418 0.304510
O O3 0.227743 0.590494 0.213744
O O4 0.402317 0.561402 0.108339
O O5 0.793902 0.429226 0.220284
O O6 0.000000 0.500000 0.500000
O O7 0.894987 0.372448 0.477414
O O8 0.814168 0.250000 0.517157
O O9 0.535164 0.144585 0.419952
O O10 0.003300 0.154457 0.749740
O O11 0.072249 0.416922 0.188945
O O12 0.875499 0.530882 0.132209
O O13 0.763011 0.879855 0.918900
#
# Coordination Sequence:
#
# PCOD9167573 Si02
#       6
#     4   4   4   4   4   4
#     4   9  18  34  60  87 107 132 181 238 276 313
#     4  12  21  33  54  83 116 151 181 220 275 331
#     4  12  25  37  51  79 117 152 182 220 275 337
#     4   9  18  34  60  87 107 132 181 238 276 313
#     4   9  18  36  60  84 106 135 181 235 278 318
#     4   9  18  36  60  84 106 135 181 235 278 318
#
# _framework density 19.497123999999999
#
# number of rings (size 3 to 8) (size 9 to 14) (size 15 to 20)
#    0.000    2.000    3.333    3.000    0.000    5.333 
#    0.000    3.333    0.000    2.000    0.000    0.000 
#    0.000    0.000    0.000    0.000    0.000    0.000 
#
# Total GULP energy -134070.553678 kJ/mol
# GULP energy per Si atom -5586.273070 kJ/mol
# Density = 1.945275 g / cm^3
# Si number density = 19.497124 Si / 1000 Ang^3
#
#
#
# Elastic Constant Matrix: (Units=GPa)
#
#
# Indices 1 2 3 4 5 6 
#
# 1 36.0057 13.2344 11.9024 0.0000 -12.3591 0.0000
# 2 13.2344 74.3004 25.3080 0.0000 -16.6271 0.0000
# 3 11.9024 25.3080 73.2352 0.0000 -21.6907 0.0000
# 4 0.0000 0.0000 0.0000 16.5177 0.0000 -3.0064
# 5 -12.3591 -16.6271 -21.6907 0.0000 39.0449 0.0000
# 6 0.0000 0.0000 0.0000 -3.0064 0.0000 12.1230
#
#
#
# Elastic Compliance Matrix: (Units=1/GPa)
#
#
# Indices 1 2 3 4 5 6 
#
# 1 0.032282 -0.003407 -0.001762 0.000000 0.007788 0.000000
# 2 -0.003407 0.016233 -0.003983 0.000000 0.003621 0.000000
# 3 -0.001762 -0.003983 0.017535 0.000000 0.007487 0.000000
# 4 0.000000 0.000000 0.000000 0.063403 0.000000 0.015724
# 5 0.007788 0.003621 0.007487 0.000000 0.033778 0.000000
# 6 0.000000 0.000000 0.000000 0.015724 0.000000 0.086387
#
#
# Mechanical properties :
#
#
# Convention : Reuss Voigt Hill
#
# Bulk Modulus (GPa) = 20.94485 31.60344 26.27414
# Shear Modulus (GPa) = 17.61566 22.41023 20.01294
#
# Velocity S-wave (km/s) = 3.00909 3.39398 3.20731
# Velocity P-wave (km/s) = 4.77898 5.62168 5.21737
#
# Compressibility (1/GPa) = 0.04774444
#
# Stress axis : x y z
#
# Youngs Moduli (GPa) = 30.97739 61.60318 57.02839
#
# Poissons Ratio (x) = 0.20987 0.10051
# Poissons Ratio (y) = 0.10553 0.22716
# Poissons Ratio (z) = 0.05460 0.24539
#
# Static dielectric constant tensor:
#      x y z
#    x 1.744940 0.000000 0.001370 
#    y 0.000000 1.621030 0.000000 
#    z 0.001370 0.000000 1.725250 
# 
# From -- ./inp_files/19066.got.cif
#   From: 2010.05.17/outbox.cif.g08.bks.cpg/sg11_10_cif.got.tgz:19066.got - 2010.06.03 12:22:45.
