data_PCOD9167694
_publ_section_title
;
Structure prediction by ZEFSAII (Michael W. Deem and Ramdas Pophale) SiO2 
 PCOD9167694
Probable space group: P 21/M
;
_chemical_formula_sum "Si O2"
_cell_formula_units_Z 32
_cell_length_a 30.000000
_cell_length_b 9.000000
_cell_length_c 12.000000
_cell_angle_alpha 90.000000
_cell_angle_beta 30.000000
_cell_angle_gamma 90.000000
_cell_volume 1620.000000
_symmetry_space_group_name_H-M "P 21/M"
_symmetry_group_IT_number 11
_symmetry_cell_setting 'monoclinic'
loop_
_space_group_symop_operation_xyz
x,y,z
-x,1/2+y,-z
-x,-y,-z
x,1/2-y,z
loop_
_atom_site_type_symbol
_atom_site_label
_atom_site_fract_x
_atom_site_fract_y
_atom_site_fract_z
Si Si1 0.713140 0.569496 0.970344
Si Si2 0.056079 0.071039 0.152451
Si Si3 0.440050 0.430306 0.849659
Si Si4 0.224088 0.429517 0.922557
Si Si5 0.882795 0.571080 0.457410
Si Si6 0.357741 0.428499 0.266927
Si Si7 0.622135 0.071933 0.548061
Si Si8 0.852698 0.929349 0.275692
O O1 0.710016 0.750000 0.983077
O O2 0.787667 0.532893 0.716783
O O3 0.618741 0.515537 0.126506
O O4 0.744081 0.518238 0.024899
O O5 0.048228 0.250000 0.166566
O O6 0.123474 0.031458 0.105804
O O7 0.099820 0.019672 0.939875
O O8 0.960261 0.997140 0.364111
O O9 0.438167 0.250000 0.850188
O O10 0.542489 0.474933 0.637463
O O11 0.395040 0.471040 0.065289
O O12 0.230831 0.250000 0.902979
O O13 0.288472 0.497722 0.690297
O O14 0.889527 0.750000 0.442488
O O15 0.890031 0.516710 0.313735
O O16 0.369499 0.250000 0.254608
O O17 0.399063 0.513396 0.282346
O O18 0.252315 0.461817 0.498581
O O19 0.628876 0.250000 0.535085
O O20 0.860361 0.750000 0.259855
#
# Coordination Sequence:
#
# PCOD9167694 Si02
#       8
#     4   4   4   4   4   4   4   4
#     4   9  18  35  58  80 102 137 188 227 254 310
#     4  10  20  34  51  76 108 140 174 215 264 318
#     4   9  18  33  56  83 110 139 174 220 270 313
#     4  10  21  38  58  76 101 145 190 220 256 315
#     4  10  19  33  56  82 103 133 177 222 264 312
#     4  10  17  33  59  80 105 144 179 210 259 326
#     4  11  22  34  52  83 115 139 171 223 274 312
#     4   9  16  30  54  78 103 136 174 212 257 314
#
# _framework density 19.753086
#
# number of rings (size 3 to 8) (size 9 to 14) (size 15 to 20)
#    0.000    2.250    2.500    1.125    0.000    1.500 
#    0.000    1.875    0.000    3.000    0.000    0.000 
#    0.000    0.000    0.000    0.000    0.000    0.000 
#
# Total GULP energy -178522.540732 kJ/mol
# GULP energy per Si atom -5578.829398 kJ/mol
# Density = 1.970813 g / cm^3
# Si number density = 19.753086 Si / 1000 Ang^3
#
#
#
# Elastic Constant Matrix: (Units=GPa)
#
#
# Indices 1 2 3 4 5 6 
#
# 1 141.9946 16.8650 7.9001 0.0000 -18.2822 0.0000
# 2 16.8650 3.8657 -1.2472 0.0000 -6.0942 0.0000
# 3 7.9001 -1.2472 10.1315 0.0000 -17.0054 0.0000
# 4 0.0000 0.0000 0.0000 9.6152 0.0000 -4.3509
# 5 -18.2822 -6.0942 -17.0054 0.0000 33.8065 0.0000
# 6 0.0000 0.0000 0.0000 -4.3509 0.0000 19.6019
#
#
#
# Elastic Compliance Matrix: (Units=1/GPa)
#
#
# Indices 1 2 3 4 5 6 
#
# 1 0.007033 0.007814 0.027143 0.000000 0.018866 0.000000
# 2 0.007814 -0.102137 -0.272823 0.000000 -0.151422 0.000000
# 3 0.027143 -0.272823 -0.089647 0.000000 -0.079596 0.000000
# 4 0.000000 0.000000 0.000000 0.115614 0.000000 0.025662
# 5 0.018866 -0.151422 -0.079596 0.000000 -0.027552 0.000000
# 6 0.000000 0.000000 0.000000 0.025662 0.000000 0.056712
#
#
# Mechanical properties :
#
#
# Convention : Reuss Voigt Hill
#
# Bulk Modulus (GPa) = -1.51404 22.55860 10.52228
# Shear Modulus (GPa) = 23.19189 21.43631 22.31410
#
# Velocity S-wave (km/s) = 3.43022 3.29783 3.36467
# Velocity P-wave (km/s) = 3.86269 5.09372 4.52031
#
# Compressibility (1/GPa) = -0.66048284
#
# Stress axis : x y z
#
# Youngs Moduli (GPa) = 142.18020 -9.79076 -11.15484
#
# Poissons Ratio (x) = 0.07650 0.30278
# Poissons Ratio (y) = -1.11097 -3.04329
# Poissons Ratio (z) = -3.85920 -2.67114
#
# Static dielectric constant tensor:
#      x y z
#    x 1.731960 0.000000 -0.014210 
#    y 0.000000 1.647440 0.000000 
#    z -0.014210 0.000000 1.687040 
# 
# From -- ./inp_files/41227.got.cif
#   From: 2010.05.17/outbox.ucp.g08.bks.cvg/sg11_21_cif.got.tgz:41227.got - 2010.06.11 11:38:39.
