data_PCOD9167695
_publ_section_title
;
Structure prediction by ZEFSAII (Michael W. Deem and Ramdas Pophale) SiO2 
 PCOD9167695
Probable space group: P 21/M
;
_chemical_formula_sum "Si O2"
_cell_formula_units_Z 32
_cell_length_a 15.000000
_cell_length_b 9.000000
_cell_length_c 24.000000
_cell_angle_alpha 90.000000
_cell_angle_beta 30.000000
_cell_angle_gamma 90.000000
_cell_volume 1620.000000
_symmetry_space_group_name_H-M "P 21/M"
_symmetry_group_IT_number 11
_symmetry_cell_setting 'monoclinic'
loop_
_space_group_symop_operation_xyz
x,y,z
-x,1/2+y,-z
-x,-y,-z
x,1/2-y,z
loop_
_atom_site_type_symbol
_atom_site_label
_atom_site_fract_x
_atom_site_fract_y
_atom_site_fract_z
Si Si1 0.538481 0.570931 0.268259
Si Si2 0.214731 0.573586 0.782796
Si Si3 0.175069 0.071970 0.978507
Si Si4 0.340462 0.427736 0.011220
Si Si5 0.041812 0.429829 0.261906
Si Si6 0.693070 0.426047 0.394400
Si Si7 0.195077 0.928607 0.388938
Si Si8 0.698334 0.572149 0.783487
O O1 0.543612 0.750000 0.266418
O O2 0.614470 0.506417 0.283985
O O3 0.683505 0.516685 0.143544
O O4 0.338015 0.529104 0.359464
O O5 0.225863 0.750000 0.787853
O O6 0.217406 0.555096 0.714933
O O7 0.028611 0.514919 0.909936
O O8 0.161956 0.250000 0.977563
O O9 0.257414 0.049530 0.994945
O O10 0.372358 0.250000 0.001487
O O11 0.526140 0.515591 0.910779
O O12 0.191624 0.477516 0.136041
O O13 0.033934 0.250000 0.260709
O O14 0.123885 0.462337 0.277469
O O15 0.843327 0.484409 0.355905
O O16 0.500000 0.500000 0.500000
O O17 0.667478 0.250000 0.417475
O O18 0.179526 0.750000 0.396598
O O19 0.286043 0.986195 0.282912
O O20 0.000000 0.000000 0.500000
O O21 0.687021 0.750000 0.781474
#
# Coordination Sequence:
#
# PCOD9167695 Si02
#       8
#     4   4   4   4   4   4   4   4
#     4  10  21  37  58  84 114 147 182 225 284 344
#     4  10  20  35  59  86 112 146 188 232 276 331
#     4   9  16  32  58  84 111 146 185 224 275 340
#     4  10  17  34  61  84 113 155 191 227 282 345
#     4   9  19  36  60  84 113 154 192 228 283 346
#     4  10  21  39  59  80 109 149 193 234 279 335
#     4  11  24  43  63  82 110 153 196 238 286 337
#     4  11  22  36  57  90 121 148 187 235 283 339
#
# _framework density 19.753086
#
# number of rings (size 3 to 8) (size 9 to 14) (size 15 to 20)
#    0.000    2.000    2.500    1.500    0.000    2.500 
#    0.000    6.875    0.000    0.000    0.000    0.000 
#    0.000    0.000    0.000    0.000    0.000    0.000 
#
# Total GULP energy -178604.531588 kJ/mol
# GULP energy per Si atom -5581.391612 kJ/mol
# Density = 1.970813 g / cm^3
# Si number density = 19.753086 Si / 1000 Ang^3
#
#
#
# Elastic Constant Matrix: (Units=GPa)
#
#
# Indices 1 2 3 4 5 6 
#
# 1 82.1411 23.7974 15.0781 0.0000 -43.0293 0.0000
# 2 23.7974 26.9666 15.3334 0.0000 -14.6317 0.0000
# 3 15.0781 15.3334 62.6072 0.0000 -40.8652 0.0000
# 4 0.0000 0.0000 0.0000 31.8411 0.0000 -4.0712
# 5 -43.0293 -14.6317 -40.8652 0.0000 39.4282 0.0000
# 6 0.0000 0.0000 0.0000 -4.0712 0.0000 21.3652
#
#
#
# Elastic Compliance Matrix: (Units=1/GPa)
#
#
# Indices 1 2 3 4 5 6 
#
# 1 -0.091979 0.034488 -0.134351 0.000000 -0.226829 0.000000
# 2 0.034488 0.033504 0.049990 0.000000 0.101883 0.000000
# 3 -0.134351 0.049990 -0.146864 0.000000 -0.280288 0.000000
# 4 0.000000 0.000000 0.000000 0.032190 0.000000 0.006134
# 5 -0.226829 0.101883 -0.280288 0.000000 -0.474878 0.000000
# 6 0.000000 0.000000 0.000000 0.006134 0.000000 0.047974
#
#
# Mechanical properties :
#
#
# Convention : Reuss Voigt Hill
#
# Bulk Modulus (GPa) = -3.27775 31.12582 13.92403
# Shear Modulus (GPa) = -8.30562 26.36064 9.02751
#
# Velocity S-wave (km/s) = -2.05277 3.65705 2.14012
# Velocity P-wave (km/s) = 2.69841 5.79860 3.62921
#
# Compressibility (1/GPa) = -0.30508715
#
# Stress axis : x y z
#
# Youngs Moduli (GPa) = -10.87205 29.84742 -6.80900
#
# Poissons Ratio (x) = -1.02938 -0.91480
# Poissons Ratio (y) = 0.37496 0.34038
# Poissons Ratio (z) = -1.46068 -1.49206
#
# Static dielectric constant tensor:
#      x y z
#    x 1.725280 0.000000 0.000430 
#    y 0.000000 1.651950 0.000000 
#    z 0.000430 0.000000 1.695780 
# 
# From -- ./inp_files/51736.got.cif
#   From: 2010.05.17/outbox.ucp.g08.bks.cvg/sg11_26_cif.got.tgz:51736.got - 2010.06.11 11:38:39.
