data_PCOD9167993
_publ_section_title
;
Structure prediction by ZEFSAII (Michael W. Deem and Ramdas Pophale) SiO2 
 PCOD9167993
Probable space group: P 21/M
;
_chemical_formula_sum "Si O2"
_cell_formula_units_Z 32
_cell_length_a 18.000000
_cell_length_b 9.000000
_cell_length_c 24.000000
_cell_angle_alpha 90.000000
_cell_angle_beta 150.000000
_cell_angle_gamma 90.000000
_cell_volume 1944.000000
_symmetry_space_group_name_H-M "P 21/M"
_symmetry_group_IT_number 11
_symmetry_cell_setting 'monoclinic'
loop_
_space_group_symop_operation_xyz
x,y,z
-x,1/2+y,-z
-x,-y,-z
x,1/2-y,z
loop_
_atom_site_type_symbol
_atom_site_label
_atom_site_fract_x
_atom_site_fract_y
_atom_site_fract_z
Si Si1 0.130043 0.070232 0.921760
Si Si2 0.286478 0.071927 0.435618
Si Si3 0.593587 0.069690 0.700274
Si Si4 0.942756 0.570679 0.377298
Si Si5 0.427914 0.430263 0.188727
Si Si6 0.238213 0.570970 0.639036
Si Si7 0.022359 0.070960 0.728432
Si Si8 0.184040 0.070504 0.244902
O O1 0.114629 0.250000 0.915439
O O2 0.117476 0.031344 0.846658
O O3 0.285874 0.032483 0.055409
O O4 0.983264 0.994687 0.854354
O O5 0.269754 0.250000 0.429688
O O6 0.439540 0.031942 0.566834
O O7 0.274852 0.037257 0.361651
O O8 0.142572 0.994086 0.369039
O O9 0.605667 0.250000 0.710402
O O10 0.589892 0.003977 0.761149
O O11 0.727804 0.002034 0.749864
O O12 0.928507 0.750000 0.370886
O O13 0.823967 0.499871 0.343532
O O14 0.109261 0.533485 0.509276
O O15 0.926289 0.526158 0.301110
O O16 0.427216 0.250000 0.194563
O O17 0.592521 0.470743 0.269981
O O18 0.237865 0.750000 0.644850
O O19 0.014281 0.250000 0.722614
O O20 0.176746 0.250000 0.233914
#
# Coordination Sequence:
#
# PCOD9167993 Si02
#       8
#     4   4   4   4   4   4   4   4
#     4   9  19  36  55  73  97 131 170 212 252 290
#     4   9  19  33  50  76 106 132 161 203 252 299
#     4  11  22  34  51  76 103 131 166 207 252 301
#     4   9  17  30  50  76 103 129 160 199 245 297
#     4  10  21  37  54  72  98 133 172 210 249 294
#     4   9  18  32  50  73 101 132 163 198 244 296
#     4   9  17  31  53  77 100 131 169 206 247 296
#     4  10  20  35  54  75 101 132 166 205 250 299
#
# _framework density 16.460905
#
# number of rings (size 3 to 8) (size 9 to 14) (size 15 to 20)
#    0.000    2.500    0.000    1.875    0.000    4.500 
#    0.000    3.125    0.000    0.000    0.000    0.000 
#    0.000    0.000    0.000    0.000    0.000    0.000 
#
# Total GULP energy -178299.995050 kJ/mol
# GULP energy per Si atom -5571.874845 kJ/mol
# Density = 1.642344 g / cm^3
# Si number density = 16.460905 Si / 1000 Ang^3
#
#
#
# Elastic Constant Matrix: (Units=GPa)
#
#
# Indices 1 2 3 4 5 6 
#
# 1 175.4607 41.7010 84.2831 0.0000 -7.8157 0.0000
# 2 41.7010 39.3811 34.2829 0.0000 -1.7129 0.0000
# 3 84.2831 34.2829 147.7229 0.0000 -2.3681 0.0000
# 4 0.0000 0.0000 0.0000 27.3285 0.0000 0.6703
# 5 -7.8157 -1.7129 -2.3681 0.0000 28.5655 0.0000
# 6 0.0000 0.0000 0.0000 0.6703 0.0000 36.7294
#
#
#
# Elastic Compliance Matrix: (Units=1/GPa)
#
#
# Indices 1 2 3 4 5 6 
#
# 1 0.009037 -0.006301 -0.003665 0.000000 0.001791 0.000000
# 2 -0.006301 0.036263 -0.004820 0.000000 0.000051 0.000000
# 3 -0.003665 -0.004820 0.009972 0.000000 -0.000465 0.000000
# 4 0.000000 0.000000 0.000000 0.036608 0.000000 -0.000668
# 5 0.001791 0.000051 -0.000465 0.000000 0.035462 0.000000
# 6 0.000000 0.000000 0.000000 -0.000668 0.000000 0.027238
#
#
# Mechanical properties :
#
#
# Convention : Reuss Voigt Hill
#
# Bulk Modulus (GPa) = 38.91057 75.89986 57.40521
# Shear Modulus (GPa) = 25.94447 32.01120 28.97784
#
# Velocity S-wave (km/s) = 3.97435 4.41464 4.20027
# Velocity P-wave (km/s) = 6.68955 8.49674 7.64672
#
# Compressibility (1/GPa) = 0.02569996
#
# Stress axis : x y z
#
# Youngs Moduli (GPa) = 110.65470 27.57608 100.28376
#
# Poissons Ratio (x) = 0.17376 0.36755
# Poissons Ratio (y) = 0.69723 0.48337
# Poissons Ratio (z) = 0.40556 0.13292
#
# Static dielectric constant tensor:
#      x y z
#    x 1.554250 0.000000 -0.015290 
#    y 0.000000 1.553540 0.000000 
#    z -0.015290 0.000000 1.562090 
# 
# From -- ./inp_files/69472.got.cif
#   From: 2010.05.17/outbox.ucp.g08.bks.cvg/sg11_35_cif.got.tgz:69472.got - 2010.06.11 11:38:39.
