data_PCOD9167773
_publ_section_title
;
Structure prediction by ZEFSAII (Michael W. Deem and Ramdas Pophale) SiO2 
 PCOD9167773
Probable space group: P 21/M
;
_chemical_formula_sum "Si O2"
_cell_formula_units_Z 28
_cell_length_a 27.000000
_cell_length_b 9.000000
_cell_length_c 9.000000
_cell_angle_alpha 90.000000
_cell_angle_beta 140.000000
_cell_angle_gamma 90.000000
_cell_volume 1405.776502
_symmetry_space_group_name_H-M "P 21/M"
_symmetry_group_IT_number 11
_symmetry_cell_setting 'monoclinic'
loop_
_space_group_symop_operation_xyz
x,y,z
-x,1/2+y,-z
-x,-y,-z
x,1/2-y,z
loop_
_atom_site_type_symbol
_atom_site_label
_atom_site_fract_x
_atom_site_fract_y
_atom_site_fract_z
Si Si1 0.803432 0.431005 0.874742
Si Si2 0.665658 0.070462 0.739125
Si Si3 0.471225 0.928068 0.780198
Si Si4 0.606014 0.429066 0.924195
Si Si5 0.041206 0.572404 0.872198
Si Si6 0.896547 0.927270 0.682449
Si Si7 0.734372 0.573166 0.415677
O O1 0.799403 0.250000 0.847232
O O2 0.752267 0.472924 0.897985
O O3 0.892787 0.479042 0.088700
O O4 0.765121 0.507114 0.641840
O O5 0.661915 0.250000 0.735543
O O6 0.612193 0.027059 0.475802
O O7 0.636495 0.021601 0.832737
O O8 0.474070 0.750000 0.802222
O O9 0.527830 0.986562 0.782437
O O10 0.500000 0.000000 0.000000
O O11 0.597071 0.250000 0.907376
O O12 0.664109 0.481764 0.186883
O O13 0.041200 0.750000 0.863330
O O14 0.074701 0.519588 0.108573
O O15 0.951880 0.526672 0.673711
O O16 0.908243 0.750000 0.739451
O O17 0.805691 0.947455 0.464874
O O18 0.717734 0.750000 0.390802
#
# Coordination Sequence:
#
# PCOD9167773 Si02
#       7
#     4   4   4   4   4   4   4
#     4   9  16  30  52  76 100 129 168 211 254 301
#     4   9  20  36  54  75 101 132 166 205 247 295
#     4  11  22  38  59  83 107 131 162 201 247 297
#     4  11  22  37  54  73 100 135 172 208 247 291
#     4   8  13  22  41  68  95 125 161 202 249 298
#     4   8  14  24  39  64  98 129 159 201 251 298
#     4  10  19  31  48  73 103 134 169 210 255 301
#
# _framework density 19.917818
#
# number of rings (size 3 to 8) (size 9 to 14) (size 15 to 20)
#    0.000    2.571    0.000    2.571    0.000    1.714 
#    0.000    4.286    0.000    0.857    0.000    0.000 
#    0.000    0.000    0.000    0.000    0.000    1.143 
#
# Total GULP energy -155917.879434 kJ/mol
# GULP energy per Si atom -5568.495694 kJ/mol
# Density = 1.987248 g / cm^3
# Si number density = 19.917818 Si / 1000 Ang^3
#
#
#
# Elastic Constant Matrix: (Units=GPa)
#
#
# Indices 1 2 3 4 5 6 
#
# 1 130.4191 1.3650 -1.4066 0.0000 18.2611 0.0000
# 2 1.3650 28.6504 -7.8313 0.0000 -1.0920 0.0000
# 3 -1.4066 -7.8313 -8.2672 0.0000 3.7568 0.0000
# 4 0.0000 0.0000 0.0000 11.7908 0.0000 -0.6641
# 5 18.2611 -1.0920 3.7568 0.0000 29.1243 0.0000
# 6 0.0000 0.0000 0.0000 -0.6641 0.0000 22.7033
#
#
#
# Elastic Compliance Matrix: (Units=1/GPa)
#
#
# Indices 1 2 3 4 5 6 
#
# 1 0.008349 -0.001264 -0.002478 0.000000 -0.004963 0.000000
# 2 -0.001264 0.028466 -0.024471 0.000000 0.005017 0.000000
# 3 -0.002478 -0.024471 -0.091694 0.000000 0.012464 0.000000
# 4 0.000000 0.000000 0.000000 0.084952 0.000000 0.002485
# 5 -0.004963 0.005017 0.012464 0.000000 0.036027 0.000000
# 6 0.000000 0.000000 0.000000 0.002485 0.000000 0.044119
#
#
# Mechanical properties :
#
#
# Convention : Reuss Voigt Hill
#
# Bulk Modulus (GPa) = -8.98431 15.00628 3.01099
# Shear Modulus (GPa) = 38.59710 23.30204 30.94957
#
# Velocity S-wave (km/s) = 4.40684 3.42410 3.94618
# Velocity P-wave (km/s) = 4.62311 4.81488 4.71997
#
# Compressibility (1/GPa) = -0.11130519
#
# Stress axis : x y z
#
# Youngs Moduli (GPa) = 119.77562 35.12939 -10.90578
#
# Poissons Ratio (x) = 0.04441 -0.02703
# Poissons Ratio (y) = 0.15143 -0.26687
# Poissons Ratio (z) = 0.29681 0.85964
#
# Static dielectric constant tensor:
#      x y z
#    x 1.812240 0.000000 0.072860 
#    y 0.000000 1.661320 0.000000 
#    z 0.072860 0.000000 1.689340 
# 
# From -- ./inp_files/28587.got.cif
#   From: 2010.05.17/outbox.ucp.g08.bks.cvg/sg11_15_cif.got.tgz:28587.got - 2010.06.11 11:38:39.
