data_PCOD9167733
_publ_section_title
;
Structure prediction by ZEFSAII (Michael W. Deem and Ramdas Pophale) SiO2 
 PCOD9167733
Probable space group: P 21/M
;
_chemical_formula_sum "Si O2"
_cell_formula_units_Z 28
_cell_length_a 15.000000
_cell_length_b 9.000000
_cell_length_c 18.000000
_cell_angle_alpha 90.000000
_cell_angle_beta 140.000000
_cell_angle_gamma 90.000000
_cell_volume 1561.973892
_symmetry_space_group_name_H-M "P 21/M"
_symmetry_group_IT_number 11
_symmetry_cell_setting 'monoclinic'
loop_
_space_group_symop_operation_xyz
x,y,z
-x,1/2+y,-z
-x,-y,-z
x,1/2-y,z
loop_
_atom_site_type_symbol
_atom_site_label
_atom_site_fract_x
_atom_site_fract_y
_atom_site_fract_z
Si Si1 0.389420 0.430211 0.683377
Si Si2 0.932307 0.928287 0.087293
Si Si3 0.050264 0.427149 0.733464
Si Si4 0.863964 0.570076 0.374507
Si Si5 0.749757 0.571310 0.556879
Si Si6 0.762156 0.570510 0.731013
Si Si7 0.690027 0.070686 0.837047
O O1 0.385475 0.250000 0.682022
O O2 0.275217 0.479309 0.670820
O O3 0.342612 0.479123 0.571095
O O4 0.550245 0.471313 0.792636
O O5 0.945769 0.750000 0.085392
O O6 0.888398 0.956514 0.145385
O O7 0.080356 0.007214 0.168810
O O8 0.821201 0.997623 0.960924
O O9 0.025654 0.250000 0.714127
O O10 0.132956 0.468042 0.711396
O O11 0.902902 0.509012 0.639444
O O12 0.873073 0.750000 0.386679
O O13 0.000000 0.500000 0.500000
O O14 0.755742 0.750000 0.558977
O O15 0.705692 0.530561 0.612547
O O16 0.762751 0.750000 0.739476
O O17 0.685050 0.493101 0.750210
O O18 0.702041 0.250000 0.842329
#
# Coordination Sequence:
#
# PCOD9167733 Si02
#       7
#     4   4   4   4   4   4   4
#     4   9  19  34  52  75 107 141 170 205 253 310
#     4  10  20  36  55  76 104 135 172 216 258 300
#     4   9  18  31  52  81 106 130 165 213 260 298
#     4  10  18  32  55  81 106 134 168 206 253 306
#     4   9  17  32  53  77 104 135 169 206 254 310
#     4  10  20  34  55  80 103 131 172 217 259 304
#     4  11  22  36  52  72 102 142 180 211 252 304
#
# _framework density 17.926036
#
# number of rings (size 3 to 8) (size 9 to 14) (size 15 to 20)
#    0.000    2.286    1.429    1.714    0.000    1.714 
#    0.000    3.571    0.000    0.000    0.000    0.000 
#    0.000    0.000    0.000    0.000    0.000    0.000 
#
# Total GULP energy -156119.842459 kJ/mol
# GULP energy per Si atom -5575.708659 kJ/mol
# Density = 1.788524 g / cm^3
# Si number density = 17.926036 Si / 1000 Ang^3
#
#
#
# Elastic Constant Matrix: (Units=GPa)
#
#
# Indices 1 2 3 4 5 6 
#
# 1 112.2604 13.2435 7.4074 0.0000 -7.3343 0.0000
# 2 13.2435 33.6270 1.5419 0.0000 -5.4655 0.0000
# 3 7.4074 1.5419 14.6409 0.0000 -5.9759 0.0000
# 4 0.0000 0.0000 0.0000 15.7213 0.0000 -1.8519
# 5 -7.3343 -5.4655 -5.9759 0.0000 24.0338 0.0000
# 6 0.0000 0.0000 0.0000 -1.8519 0.0000 24.6891
#
#
#
# Elastic Compliance Matrix: (Units=1/GPa)
#
#
# Indices 1 2 3 4 5 6 
#
# 1 0.009655 -0.003428 -0.004051 0.000000 0.001160 0.000000
# 2 -0.003428 0.032099 0.001009 0.000000 0.006504 0.000000
# 3 -0.004051 0.001009 0.077722 0.000000 0.018318 0.000000
# 4 0.000000 0.000000 0.000000 0.064175 0.000000 0.004814
# 5 0.001160 0.006504 0.018318 0.000000 0.047996 0.000000
# 6 0.000000 0.000000 0.000000 0.004814 0.000000 0.040865
#
#
# Mechanical properties :
#
#
# Convention : Reuss Voigt Hill
#
# Bulk Modulus (GPa) = 9.38653 22.76821 16.07737
# Shear Modulus (GPa) = 15.57807 22.11121 18.84464
#
# Velocity S-wave (km/s) = 2.95111 3.51589 3.24581
# Velocity P-wave (km/s) = 4.10606 5.40469 4.79950
#
# Compressibility (1/GPa) = 0.10653567
#
# Stress axis : x y z
#
# Youngs Moduli (GPa) = 103.56949 31.15352 12.86643
#
# Poissons Ratio (x) = 0.10681 0.05212
# Poissons Ratio (y) = 0.35508 -0.01298
# Poissons Ratio (z) = 0.41952 -0.03143
#
# Static dielectric constant tensor:
#      x y z
#    x 1.627800 0.000000 -0.025910 
#    y 0.000000 1.591460 0.000000 
#    z -0.025910 0.000000 1.615020 
# 
# From -- ./inp_files/53228.got.cif
#   From: 2010.05.17/outbox.ucp.g08.bks.cvg/sg11_27_cif.got.tgz:53228.got - 2010.06.11 11:38:39.
