data_PCOD9167679
_publ_section_title
;
Structure prediction by ZEFSAII (Michael W. Deem and Ramdas Pophale) SiO2 
 PCOD9167679
Probable space group: P 21/M
;
_chemical_formula_sum "Si O2"
_cell_formula_units_Z 24
_cell_length_a 14.871662
_cell_length_b 11.091230
_cell_length_c 19.152507
_cell_angle_alpha 90.000000
_cell_angle_beta 161.705997
_cell_angle_gamma 90.000000
_cell_volume 991.622996
_symmetry_space_group_name_H-M "P 21/M"
_symmetry_group_IT_number 11
_symmetry_cell_setting 'monoclinic'
loop_
_space_group_symop_operation_xyz
x,y,z
-x,1/2+y,-z
-x,-y,-z
x,1/2-y,z
loop_
_atom_site_type_symbol
_atom_site_label
_atom_site_fract_x
_atom_site_fract_y
_atom_site_fract_z
Si Si1 0.327949 0.384246 0.199711
Si Si2 0.126071 0.877085 0.488047
Si Si3 0.026476 0.387387 0.116806
Si Si4 0.940708 0.877071 0.547915
Si Si5 0.388769 0.119620 0.992200
Si Si6 0.079707 0.884317 0.807479
O O1 0.205508 0.250000 0.090184
O O2 0.652287 0.378719 0.412582
O O3 0.178568 0.500354 0.054355
O O4 0.281675 0.395805 0.248628
O O5 0.165304 0.750000 0.554512
O O6 0.807875 0.881140 0.222568
O O7 0.181872 0.998610 0.570886
O O8 0.903400 0.250000 0.016480
O O9 0.095297 0.395669 0.249583
O O10 0.818817 0.750000 0.433735
O O11 0.906921 0.884154 0.607216
O O12 0.281133 0.878152 0.785784
O O13 0.318865 0.250000 0.975179
O O14 0.285425 0.999951 0.955004
O O15 0.216866 0.750000 0.909804
#
# Coordination Sequence:
#
# PCOD9167679 Si02
#       6
#     4   4   4   4   4   4
#     4   9  18  32  48  65  87 117 151 185 221 260
#     4   9  16  27  45  67  89 115 147 181 217 260
#     4   9  18  32  48  65  87 117 151 185 221 260
#     4   9  17  29  46  68  93 119 145 176 217 264
#     4   9  17  29  46  68  93 119 145 176 217 264
#     4   9  16  27  45  67  89 115 147 181 217 260
#
# _framework density 24.202746000000001
#
# number of rings (size 3 to 8) (size 9 to 14) (size 15 to 20)
#    0.000    3.000    0.000    2.000    0.000    3.333 
#    0.000    3.333    0.000    6.000    0.000    4.667 
#    0.000    0.000    0.000    0.000    0.000    0.000 
#
# Total GULP energy -133819.816388 kJ/mol
# GULP energy per Si atom -5575.825683 kJ/mol
# Density = 2.414766 g / cm^3
# Si number density = 24.202746 Si / 1000 Ang^3
#
#
#
# Elastic Constant Matrix: (Units=GPa)
#
#
# Indices 1 2 3 4 5 6 
#
# 1 144.3690 28.3375 8.4232 0.0000 -0.1240 0.0000
# 2 28.3375 273.1000 12.5536 0.0000 12.4667 0.0000
# 3 8.4232 12.5536 34.9645 0.0000 -11.5921 0.0000
# 4 0.0000 0.0000 0.0000 9.1772 0.0000 21.8486
# 5 -0.1240 12.4667 -11.5921 0.0000 20.1664 0.0000
# 6 0.0000 0.0000 0.0000 21.8486 0.0000 13.3489
#
#
#
# Elastic Compliance Matrix: (Units=1/GPa)
#
#
# Indices 1 2 3 4 5 6 
#
# 1 0.007149 -0.000642 -0.001663 0.000000 -0.000515 0.000000
# 2 -0.000642 0.004031 -0.002620 0.000000 -0.004002 0.000000
# 3 -0.001663 -0.002620 0.037650 0.000000 0.023251 0.000000
# 4 0.000000 0.000000 0.000000 -0.037618 0.000000 0.061570
# 5 -0.000515 -0.004002 0.023251 0.000000 0.065423 0.000000
# 6 0.000000 0.000000 0.000000 0.061570 0.000000 -0.025862
#
#
# Mechanical properties :
#
#
# Convention : Reuss Voigt Hill
#
# Bulk Modulus (GPa) = 25.65235 61.22912 43.44073
# Shear Modulus (GPa) = 67.91944 35.41313 51.66629
#
# Velocity S-wave (km/s) = 5.30317 3.82931 4.62532
# Velocity P-wave (km/s) = 6.93687 6.70111 6.82001
#
# Compressibility (1/GPa) = 0.03898279
#
# Stress axis : x y z
#
# Youngs Moduli (GPa) = 139.87481 248.05528 26.56030
#
# Poissons Ratio (x) = 0.15923 0.04416
# Poissons Ratio (y) = 0.08978 0.06958
# Poissons Ratio (z) = 0.23255 0.64979
#
# Static dielectric constant tensor:
#      x y z
#    x 1.907760 0.000000 0.009310 
#    y 0.000000 2.066680 0.000000 
#    z 0.009310 0.000000 1.862440 
# 
# From -- ./inp_files/65608.got.cif
#   From: 2010.05.17/outbox.cif.g08.bks.cpg/sg11_33_cif.got.tgz:65608.got - 2010.06.03 12:22:45.
