data_PCOD9167321
_publ_section_title
;
Structure prediction by ZEFSAII (Michael W. Deem and Ramdas Pophale) SiO2 
 PCOD9167321
Probable space group: P 21/M
;
_chemical_formula_sum "Si O2"
_cell_formula_units_Z 32
_cell_length_a 12.469545
_cell_length_b 17.937014
_cell_length_c 9.559073
_cell_angle_alpha 90.000000
_cell_angle_beta 143.315466
_cell_angle_gamma 90.000000
_cell_volume 1277.285773
_symmetry_space_group_name_H-M "P 21/M"
_symmetry_group_IT_number 11
_symmetry_cell_setting 'monoclinic'
loop_
_space_group_symop_operation_xyz
x,y,z
-x,1/2+y,-z
-x,-y,-z
x,1/2-y,z
loop_
_atom_site_type_symbol
_atom_site_label
_atom_site_fract_x
_atom_site_fract_y
_atom_site_fract_z
Si Si1 0.969089 0.833216 0.567990
Si Si2 0.011714 0.664962 0.988387
Si Si3 0.656939 0.399581 0.238186
Si Si4 0.259439 0.452432 0.801022
Si Si5 0.899358 0.831711 0.192742
Si Si6 0.358818 0.833212 0.060809
Si Si7 0.645059 0.587553 0.546724
Si Si8 0.650866 0.089924 0.549094
O O1 0.899701 0.750000 0.527548
O O2 0.030558 0.828731 0.466473
O O3 0.836685 0.872144 0.735918
O O4 0.144038 0.848712 0.842910
O O5 0.034039 0.750000 0.966466
O O6 0.199272 0.621595 0.189203
O O7 0.963586 0.667632 0.103395
O O8 0.779999 0.464250 0.292800
O O9 0.687420 0.379483 0.431395
O O10 0.467199 0.443177 0.049821
O O11 0.612164 0.338094 0.075698
O O12 0.180282 0.413591 0.857598
O O13 0.181317 0.396373 0.600512
O O14 0.799356 0.750000 0.104005
O O15 0.393641 0.750000 0.149593
O O16 0.496911 0.888148 0.278250
O O17 0.543789 0.607013 0.587746
O O18 0.670814 0.499168 0.564785
#
# Coordination Sequence:
#
# PCOD9167321 Si02
#       8
#     4   4   4   4   4   4   4   4
#     4   8  17  36  59  91 127 172 219 267 336 410
#     4  11  23  43  72 103 137 184 240 293 350 419
#     4  11  22  39  65 103 133 170 228 289 343 399
#     4   9  18  35  59  96 135 170 217 273 341 417
#     4   8  16  34  62  98 134 174 224 279 343 410
#     4  11  24  43  67  99 140 176 223 286 351 419
#     4  11  25  49  71  99 146 193 230 287 357 424
#     4  11  26  48  72 103 141 187 244 291 343 419
#
# _framework density 25.053125000000001
#
# number of rings (size 3 to 8) (size 9 to 14) (size 15 to 20)
#    0.750    1.250    0.000    3.750    0.000    5.000 
#    9.000    0.000    0.000    0.000    0.000    0.000 
#    0.000    0.000    0.000    0.000    0.000    0.000 
#
# Total GULP energy -178511.242712 kJ/mol
# GULP energy per Si atom -5578.476335 kJ/mol
# Density = 2.499610 g / cm^3
# Si number density = 25.053125 Si / 1000 Ang^3
#
#
#
# Elastic Constant Matrix: (Units=GPa)
#
#
# Indices 1 2 3 4 5 6 
#
# 1 67.4039 8.2198 17.1488 0.0000 -14.0523 0.0000
# 2 8.2198 96.1760 33.7970 0.0000 16.8142 0.0000
# 3 17.1488 33.7970 132.8541 0.0000 -2.4371 0.0000
# 4 0.0000 0.0000 0.0000 34.0103 0.0000 3.3204
# 5 -14.0523 16.8142 -2.4371 0.0000 47.0306 0.0000
# 6 0.0000 0.0000 0.0000 3.3204 0.0000 22.3387
#
#
#
# Elastic Compliance Matrix: (Units=1/GPa)
#
#
# Indices 1 2 3 4 5 6 
#
# 1 0.016615 -0.001834 -0.001576 0.000000 0.005539 0.000000
# 2 -0.001834 0.012532 -0.003046 0.000000 -0.005186 0.000000
# 3 -0.001576 -0.003046 0.008525 0.000000 0.001060 0.000000
# 4 0.000000 0.000000 0.000000 0.029836 0.000000 -0.004435
# 5 0.005539 -0.005186 0.001060 0.000000 0.024827 0.000000
# 6 0.000000 0.000000 0.000000 -0.004435 0.000000 0.045425
#
#
# Mechanical properties :
#
#
# Convention : Reuss Voigt Hill
#
# Bulk Modulus (GPa) = 40.39154 46.08501 43.23827
# Shear Modulus (GPa) = 31.46124 36.49383 33.97753
#
# Velocity S-wave (km/s) = 3.54754 3.82076 3.68668
# Velocity P-wave (km/s) = 5.73912 6.15623 5.95133
#
# Compressibility (1/GPa) = 0.02475766
#
# Stress axis : x y z
#
# Youngs Moduli (GPa) = 60.18509 79.79863 117.30303
#
# Poissons Ratio (x) = 0.14638 0.18492
# Poissons Ratio (y) = 0.11040 0.35734
# Poissons Ratio (z) = 0.09488 0.24309
#
# Static dielectric constant tensor:
#      x y z
#    x 2.168080 0.000000 -0.012920 
#    y 0.000000 1.972010 0.000000 
#    z -0.012920 0.000000 1.974370 
# 
# From -- ./inp_files/19400.got.cif
#   From: 2010.05.17/outbox.cif.g08.bks.cpg/sg11_10_cif.got.tgz:19400.got - 2010.06.03 12:22:45.
