data_PCOD9167553
_publ_section_title
;
Structure prediction by ZEFSAII (Michael W. Deem and Ramdas Pophale) SiO2 
 PCOD9167553
Probable space group: P 21/M
;
_chemical_formula_sum "Si O2"
_cell_formula_units_Z 26
_cell_length_a 13.379207
_cell_length_b 15.539785
_cell_length_c 7.022779
_cell_angle_alpha 90.000000
_cell_angle_beta 39.797319
_cell_angle_gamma 90.000000
_cell_volume 934.575511
_symmetry_space_group_name_H-M "P 21/M"
_symmetry_group_IT_number 11
_symmetry_cell_setting 'monoclinic'
loop_
_space_group_symop_operation_xyz
x,y,z
-x,1/2+y,-z
-x,-y,-z
x,1/2-y,z
loop_
_atom_site_type_symbol
_atom_site_label
_atom_site_fract_x
_atom_site_fract_y
_atom_site_fract_z
Si Si1 0.043339 0.846948 0.676037
Si Si2 0.456662 0.653052 0.823963
Si Si3 0.872455 0.598459 0.293307
Si Si4 0.627545 0.598459 0.206693
Si Si5 0.659505 0.429766 0.637491
Si Si6 0.250000 0.250000 0.250000
Si Si7 0.159506 0.570234 0.137491
O O1 0.016403 0.750000 0.641698
O O2 0.211082 0.854007 0.535310
O O3 0.060190 0.912183 0.475194
O O4 0.914881 0.872307 0.017682
O O5 0.483597 0.750000 0.858302
O O6 0.585120 0.627693 0.482318
O O7 0.439810 0.587817 0.024806
O O8 0.288918 0.645993 0.964689
O O9 0.763141 0.515300 0.476788
O O10 0.804433 0.675004 0.517876
O O11 0.040957 0.575721 0.138671
O O12 0.459043 0.575721 0.361329
O O13 0.695567 0.675004 0.982124
O O14 0.736859 0.515300 0.023212
#
# Coordination Sequence:
#
# PCOD9167553 Si02
#       7
#     4   4   4   4   4   2   4
#     4  11  25  47  79 122 158 207 264 334 396 467
#     4  11  25  47  79 122 158 207 264 334 396 467
#     4  12  28  52  80 118 162 209 264 329 401 468
#     4  12  28  52  80 118 162 209 264 329 401 468
#     4  11  27  49  83 115 161 210 266 323 397 484
#     4  12  28  48  80 116 158 202 266 332 388 466
#     4  11  27  49  83 115 161 210 266 323 397 484
#
# _framework density 27.820115999999999
#
# number of rings (size 3 to 8) (size 9 to 14) (size 15 to 20)
#    0.000    0.615    1.538    5.538    4.308   14.769 
#    0.000    3.077    0.000    0.000    0.000    0.000 
#    0.000    0.000    0.000    0.000    0.000    0.000 
#
# Total GULP energy -145802.457229 kJ/mol
# GULP energy per Si atom -5607.786816 kJ/mol
# Density = 2.775680 g / cm^3
# Si number density = 27.820116 Si / 1000 Ang^3
#
#
#
# Elastic Constant Matrix: (Units=GPa)
#
#
# Indices 1 2 3 4 5 6 
#
# 1 107.6507 26.6273 40.3109 0.0000 -16.6373 0.0000
# 2 26.6273 218.0913 81.2654 0.0000 16.0692 0.0000
# 3 40.3109 81.2654 263.0164 0.0000 41.0358 0.0000
# 4 0.0000 0.0000 0.0000 59.8282 0.0000 3.9908
# 5 -16.6373 16.0692 41.0358 0.0000 66.3229 0.0000
# 6 0.0000 0.0000 0.0000 3.9908 0.0000 36.0426
#
#
#
# Elastic Compliance Matrix: (Units=1/GPa)
#
#
# Indices 1 2 3 4 5 6 
#
# 1 0.010934 -0.000877 -0.002065 0.000000 0.004233 0.000000
# 2 -0.000877 0.005257 -0.001391 0.000000 -0.000633 0.000000
# 3 -0.002065 -0.001391 0.005066 0.000000 -0.003315 0.000000
# 4 0.000000 0.000000 0.000000 0.016839 0.000000 -0.001864
# 5 0.004233 -0.000633 -0.003315 0.000000 0.018344 0.000000
# 6 0.000000 0.000000 0.000000 -0.001864 0.000000 0.027951
#
#
# Mechanical properties :
#
#
# Convention : Reuss Voigt Hill
#
# Bulk Modulus (GPa) = 79.43056 98.35173 88.89115
# Shear Modulus (GPa) = 51.41116 61.80907 56.61011
#
# Velocity S-wave (km/s) = 4.30348 4.71865 4.51584
# Velocity P-wave (km/s) = 7.30115 8.06951 7.69493
#
# Compressibility (1/GPa) = 0.01258961
#
# Stress axis : x y z
#
# Youngs Moduli (GPa) = 91.45911 190.20910 197.40894
#
# Poissons Ratio (x) = 0.16688 0.40768
# Poissons Ratio (y) = 0.08024 0.27463
# Poissons Ratio (z) = 0.18888 0.26461
#
# Static dielectric constant tensor:
#      x y z
#    x 2.309640 0.000000 -0.014770 
#    y 0.000000 2.060680 0.000000 
#    z -0.014770 0.000000 2.161950 
# 
# From -- ./inp_files/26784.got.cif
#   From: 2010.05.17/outbox.cif.g08.bks.cpg/sg11_14_cif.got.tgz:26784.got - 2010.06.03 12:22:45.
