data_PCOD9167387
_publ_section_title
;
Structure prediction by ZEFSAII (Michael W. Deem and Ramdas Pophale) SiO2 
 PCOD9167387
Probable space group: P 21/M
;
_chemical_formula_sum "Si O2"
_cell_formula_units_Z 24
_cell_length_a 9.456966
_cell_length_b 18.217141
_cell_length_c 9.792581
_cell_angle_alpha 90.000000
_cell_angle_beta 43.443627
_cell_angle_gamma 90.000000
_cell_volume 1160.087372
_symmetry_space_group_name_H-M "P 21/M"
_symmetry_group_IT_number 11
_symmetry_cell_setting 'monoclinic'
loop_
_space_group_symop_operation_xyz
x,y,z
-x,1/2+y,-z
-x,-y,-z
x,1/2-y,z
loop_
_atom_site_type_symbol
_atom_site_label
_atom_site_fract_x
_atom_site_fract_y
_atom_site_fract_z
Si Si1 0.622058 0.414313 0.490990
Si Si2 0.043053 0.167411 0.570571
Si Si3 0.010200 0.978411 0.243832
Si Si4 0.626275 0.043152 0.206538
Si Si5 0.689041 0.580856 0.814368
Si Si6 0.578519 0.332015 0.790280
O O1 0.442451 0.468725 0.669414
O O2 0.604991 0.397281 0.342653
O O3 0.616950 0.350395 0.605093
O O4 0.831676 0.461715 0.356360
O O5 0.095290 0.250000 0.579178
O O6 0.169814 0.144828 0.347324
O O7 0.079491 0.099704 0.647155
O O8 0.800455 0.165142 0.707439
O O9 0.166926 0.012395 0.246695
O O10 0.148348 0.965179 0.013938
O O11 0.473590 0.059240 0.188309
O O12 0.569774 0.610460 0.030368
O O13 0.494654 0.250000 0.864833
#
# Coordination Sequence:
#
# PCOD9167387 Si02
#       6
#     4   4   4   4   4   4
#     4  11  23  41  61  92 125 162 201 251 309 371
#     4  11  23  37  60  94 124 156 205 264 310 353
#     4  12  21  39  67  92 121 162 211 257 298 370
#     4  11  23  37  65  92 123 154 209 253 305 358
#     4  12  21  39  67  95 117 162 215 258 297 368
#     4  11  23  41  63  91 127 164 205 257 309 367
#
# _framework density 20.688096000000002
#
# number of rings (size 3 to 8) (size 9 to 14) (size 15 to 20)
#    0.000    0.667    6.667    3.000    0.000    0.000 
#    0.000    2.500    0.000    0.000    0.000    0.000 
#    0.000    0.000    0.000    0.000    0.000    0.000 
#
# Total GULP energy -134127.207986 kJ/mol
# GULP energy per Si atom -5588.633666 kJ/mol
# Density = 2.064101 g / cm^3
# Si number density = 20.688096 Si / 1000 Ang^3
#
#
#
# Elastic Constant Matrix: (Units=GPa)
#
#
# Indices 1 2 3 4 5 6 
#
# 1 62.8123 19.1457 22.5477 0.0000 15.6655 0.0000
# 2 19.1457 94.0975 26.8684 0.0000 2.3602 0.0000
# 3 22.5477 26.8684 138.1773 0.0000 3.6905 0.0000
# 4 0.0000 0.0000 0.0000 21.0132 0.0000 -5.7711
# 5 15.6655 2.3602 3.6905 0.0000 34.0363 0.0000
# 6 0.0000 0.0000 0.0000 -5.7711 0.0000 12.9487
#
#
#
# Elastic Compliance Matrix: (Units=1/GPa)
#
#
# Indices 1 2 3 4 5 6 
#
# 1 0.019909 -0.003146 -0.002405 0.000000 -0.008684 0.000000
# 2 -0.003146 0.011759 -0.001795 0.000000 0.000827 0.000000
# 3 -0.002405 -0.001795 0.007969 0.000000 0.000367 0.000000
# 4 0.000000 0.000000 0.000000 0.054227 0.000000 0.024168
# 5 -0.008684 0.000827 0.000367 0.000000 0.033280 0.000000
# 6 0.000000 0.000000 0.000000 0.024168 0.000000 0.087999
#
#
# Mechanical properties :
#
#
# Convention : Reuss Voigt Hill
#
# Bulk Modulus (GPa) = 40.09013 48.02341 44.05677
# Shear Modulus (GPa) = 20.99516 28.70133 24.84825
#
# Velocity S-wave (km/s) = 3.18912 3.72874 3.46943
# Velocity P-wave (km/s) = 5.74291 6.46540 6.11484
#
# Compressibility (1/GPa) = 0.02494379
#
# Stress axis : x y z
#
# Youngs Moduli (GPa) = 50.22960 85.03910 125.48944
#
# Poissons Ratio (x) = 0.26755 0.30180
# Poissons Ratio (y) = 0.15803 0.22529
# Poissons Ratio (z) = 0.12080 0.15267
#
# Static dielectric constant tensor:
#      x y z
#    x 1.795970 0.000000 0.020900 
#    y 0.000000 1.749740 0.000000 
#    z 0.020900 0.000000 1.746660 
# 
# From -- ./inp_files/14217.got.cif
#   From: 2010.05.17/outbox.cif.g08.bks.cpg/sg11_8_cif.got.tgz:14217.got - 2010.06.03 12:22:45.
