data_PCOD9167025
_publ_section_title
;
Structure prediction by ZEFSAII (Michael W. Deem and Ramdas Pophale) SiO2 
 PCOD9167025
Probable space group: P 21/M
;
_chemical_formula_sum "Si O2"
_cell_formula_units_Z 28
_cell_length_a 19.300228
_cell_length_b 14.772610
_cell_length_c 9.188294
_cell_angle_alpha 90.000000
_cell_angle_beta 144.115584
_cell_angle_gamma 90.000000
_cell_volume 1535.553010
_symmetry_space_group_name_H-M "P 21/M"
_symmetry_group_IT_number 11
_symmetry_cell_setting 'monoclinic'
loop_
_space_group_symop_operation_xyz
x,y,z
-x,1/2+y,-z
-x,-y,-z
x,1/2-y,z
loop_
_atom_site_type_symbol
_atom_site_label
_atom_site_fract_x
_atom_site_fract_y
_atom_site_fract_z
Si Si1 0.160095 0.853834 0.971541
Si Si2 0.960096 0.537914 0.233234
Si Si3 0.220988 0.356172 0.872406
Si Si4 0.220349 0.993119 0.294845
Si Si5 0.355016 0.650786 0.049511
Si Si6 0.226471 0.508187 0.648186
Si Si7 0.419150 0.079126 0.429514
O O1 0.119078 0.750000 0.905386
O O2 0.266281 0.860963 0.035887
O O3 0.066823 0.932431 0.770666
O O4 0.205688 0.891246 0.205216
O O5 0.885432 0.601388 0.212563
O O6 0.098520 0.552826 0.464019
O O7 0.897611 0.542958 0.967936
O O8 0.205036 0.250000 0.822469
O O9 0.229701 0.413425 0.739235
O O10 0.338983 0.375693 0.168488
O O11 0.235340 0.000157 0.490819
O O12 0.328740 0.036909 0.391920
O O13 0.332112 0.750000 0.947553
O O14 0.325375 0.572251 0.886109
O O15 0.487600 0.643816 0.333749
O O16 0.500000 0.000000 0.500000
#
# Coordination Sequence:
#
# PCOD9167025 Si02
#       7
#     4   4   4   4   4   4   4
#     4   9  18  36  59  86 112 151 201 233 281 349
#     4   9  20  40  58  82 116 166 189 232 283 351
#     4  11  23  38  60  88 113 156 204 242 283 344
#     4   9  21  36  63  83 117 156 189 233 298 346
#     4  11  22  36  61  87 113 150 196 245 292 342
#     4  12  21  38  59  88 128 147 188 246 299 341
#     4  11  18  43  63  80 108 157 200 239 288 349
#
# _framework density 18.234473000000001
#
# number of rings (size 3 to 8) (size 9 to 14) (size 15 to 20)
#    0.857    0.857    4.286    1.286    0.000    2.286 
#    0.000    3.571    0.000    0.000    0.000    0.000 
#    0.000    0.000    0.000    0.000    0.000    0.000 
#
# Total GULP energy -156100.258232 kJ/mol
# GULP energy per Si atom -5575.009223 kJ/mol
# Density = 1.819297 g / cm^3
# Si number density = 18.234473 Si / 1000 Ang^3
#
#
#
# Elastic Constant Matrix: (Units=GPa)
#
#
# Indices 1 2 3 4 5 6 
#
# 1 50.7030 19.5883 36.6068 0.0000 -22.6731 0.0000
# 2 19.5883 105.4961 23.4846 0.0000 -20.5076 0.0000
# 3 36.6068 23.4846 100.2545 0.0000 -13.0014 0.0000
# 4 0.0000 0.0000 0.0000 0.5971 0.0000 -0.5279
# 5 -22.6731 -20.5076 -13.0014 0.0000 41.1759 0.0000
# 6 0.0000 0.0000 0.0000 -0.5279 0.0000 7.4675
#
#
#
# Elastic Compliance Matrix: (Units=1/GPa)
#
#
# Indices 1 2 3 4 5 6 
#
# 1 0.034369 -0.001150 -0.010323 0.000000 0.015093 0.000000
# 2 -0.001150 0.010876 -0.001572 0.000000 0.004287 0.000000
# 3 -0.010323 -0.001572 0.013840 0.000000 -0.002097 0.000000
# 4 0.000000 0.000000 0.000000 1.786520 0.000000 0.126293
# 5 0.015093 0.004287 -0.002097 0.000000 0.034070 0.000000
# 6 0.000000 0.000000 0.000000 0.126293 0.000000 0.142842
#
#
# Mechanical properties :
#
#
# Convention : Reuss Voigt Hill
#
# Bulk Modulus (GPa) = 30.30654 46.20146 38.25400
# Shear Modulus (GPa) = 2.42765 21.63300 12.03033
#
# Velocity S-wave (km/s) = 1.15509 3.44812 2.57136
# Velocity P-wave (km/s) = 4.29366 6.42224 5.46263
#
# Compressibility (1/GPa) = 0.03299618
#
# Stress axis : x y z
#
# Youngs Moduli (GPa) = 29.09600 91.94708 72.25352
#
# Poissons Ratio (x) = 0.10571 0.74586
# Poissons Ratio (y) = 0.03345 0.11357
# Poissons Ratio (z) = 0.30035 0.14453
#
# Static dielectric constant tensor:
#      x y z
#    x 1.601820 0.000000 0.001950 
#    y 0.000000 1.631520 0.000000 
#    z 0.001950 0.000000 1.655960 
# 
# From -- ./inp_files/26949.got.cif
#   From: 2010.05.17/outbox.cif.g08.bks.cpg/sg11_14_cif.got.tgz:26949.got - 2010.06.03 12:22:45.
