data_PCOD9167103
_publ_section_title
;
Structure prediction by ZEFSAII (Michael W. Deem and Ramdas Pophale) SiO2 
 PCOD9167103
Probable space group: P 21/M
;
_chemical_formula_sum "Si O2"
_cell_formula_units_Z 24
_cell_length_a 10.301208
_cell_length_b 17.627096
_cell_length_c 9.637247
_cell_angle_alpha 90.000000
_cell_angle_beta 137.923731
_cell_angle_gamma 90.000000
_cell_volume 1172.665121
_symmetry_space_group_name_H-M "P 21/M"
_symmetry_group_IT_number 11
_symmetry_cell_setting 'monoclinic'
loop_
_space_group_symop_operation_xyz
x,y,z
-x,1/2+y,-z
-x,-y,-z
x,1/2-y,z
loop_
_atom_site_type_symbol
_atom_site_label
_atom_site_fract_x
_atom_site_fract_y
_atom_site_fract_z
Si Si1 0.922740 0.164633 0.699920
Si Si2 0.241966 0.452229 0.328310
Si Si3 0.470496 0.163884 0.313987
Si Si4 0.502552 0.562943 0.202928
Si Si5 0.846808 0.397859 0.924985
Si Si6 0.294345 0.412890 0.919880
O O1 0.978085 0.250000 0.700811
O O2 0.699937 0.151571 0.484472
O O3 0.923474 0.158685 0.868137
O O4 0.065320 0.101514 0.750811
O O5 0.371784 0.394651 0.340808
O O6 0.350684 0.462875 0.559572
O O7 0.213551 0.528066 0.214637
O O8 0.026144 0.418081 0.166044
O O9 0.438503 0.250000 0.335568
O O10 0.379972 0.149620 0.091916
O O11 0.346988 0.621201 0.145110
O O12 0.623684 0.593055 0.169255
O O13 0.371920 0.492544 0.043808
#
# Coordination Sequence:
#
# PCOD9167103 Si02
#       6
#     4   4   4   4   4   4
#     4  11  23  40  64  92 122 169 217 253 312 384
#     4  11  21  38  65  96 127 160 213 266 307 366
#     4  11  22  40  66  90 123 171 213 255 313 380
#     4  11  23  39  62  95 129 161 206 264 321 367
#     4  11  20  37  66  94 125 163 209 268 307 362
#     4  11  23  40  61  92 130 166 203 258 322 377
#
# _framework density 20.466201000000002
#
# number of rings (size 3 to 8) (size 9 to 14) (size 15 to 20)
#    0.000    1.000    5.000    3.000    0.000    1.333 
#    0.000    7.500    0.000    0.000    0.000    0.000 
#    0.000    0.000    0.000    0.000    0.000    0.000 
#
# Total GULP energy -134117.821574 kJ/mol
# GULP energy per Si atom -5588.242566 kJ/mol
# Density = 2.041962 g / cm^3
# Si number density = 20.466201 Si / 1000 Ang^3
#
#
#
# Elastic Constant Matrix: (Units=GPa)
#
#
# Indices 1 2 3 4 5 6 
#
# 1 128.3971 27.0014 38.5777 0.0000 -4.2080 0.0000
# 2 27.0014 69.1931 12.3421 0.0000 5.8342 0.0000
# 3 38.5777 12.3421 87.6786 0.0000 10.2590 0.0000
# 4 0.0000 0.0000 0.0000 20.5511 0.0000 3.5990
# 5 -4.2080 5.8342 10.2590 0.0000 32.1954 0.0000
# 6 0.0000 0.0000 0.0000 3.5990 0.0000 13.2832
#
#
#
# Elastic Compliance Matrix: (Units=1/GPa)
#
#
# Indices 1 2 3 4 5 6 
#
# 1 0.009883 -0.003372 -0.004255 0.000000 0.003259 0.000000
# 2 -0.003372 0.016113 -0.000406 0.000000 -0.003231 0.000000
# 3 -0.004255 -0.000406 0.013910 0.000000 -0.004915 0.000000
# 4 0.000000 0.000000 0.000000 0.051083 0.000000 -0.013841
# 5 0.003259 -0.003231 -0.004915 0.000000 0.033638 0.000000
# 6 0.000000 0.000000 0.000000 -0.013841 0.000000 0.079033
#
#
# Mechanical properties :
#
#
# Convention : Reuss Voigt Hill
#
# Bulk Modulus (GPa) = 41.94888 49.01233 45.48061
# Shear Modulus (GPa) = 21.96135 27.02912 24.49524
#
# Velocity S-wave (km/s) = 3.27931 3.63805 3.46332
# Velocity P-wave (km/s) = 5.90590 6.45346 6.18574
#
# Compressibility (1/GPa) = 0.02383854
#
# Stress axis : x y z
#
# Youngs Moduli (GPa) = 101.18670 62.06082 71.89259
#
# Poissons Ratio (x) = 0.20929 0.30589
# Poissons Ratio (y) = 0.34124 0.02921
# Poissons Ratio (z) = 0.43054 0.02522
#
# Static dielectric constant tensor:
#      x y z
#    x 1.735690 0.000000 0.032460 
#    y 0.000000 1.757310 0.000000 
#    z 0.032460 0.000000 1.752940 
# 
# From -- ./inp_files/14393.got.cif
#   From: 2010.05.17/outbox.cif.g08.bks.cpg/sg11_8_cif.got.tgz:14393.got - 2010.06.03 12:22:45.
