data_PCOD9168013
_publ_section_title
;
Structure prediction by ZEFSAII (Michael W. Deem and Ramdas Pophale) SiO2 
 PCOD9168013
Probable space group: P 21/M
;
_chemical_formula_sum "Si O2"
_cell_formula_units_Z 28
_cell_length_a 12.000000
_cell_length_b 9.000000
_cell_length_c 15.000000
_cell_angle_alpha 90.000000
_cell_angle_beta 70.000000
_cell_angle_gamma 90.000000
_cell_volume 1522.302046
_symmetry_space_group_name_H-M "P 21/M"
_symmetry_group_IT_number 11
_symmetry_cell_setting 'monoclinic'
loop_
_space_group_symop_operation_xyz
x,y,z
-x,1/2+y,-z
-x,-y,-z
x,1/2-y,z
loop_
_atom_site_type_symbol
_atom_site_label
_atom_site_fract_x
_atom_site_fract_y
_atom_site_fract_z
Si Si1 0.238584 0.074337 0.461845
Si Si2 0.641197 0.427206 0.865483
Si Si3 0.117997 0.928126 0.665373
Si Si4 0.484393 0.572678 0.406885
Si Si5 0.854213 0.926093 0.702300
Si Si6 0.695410 0.072955 0.239934
Si Si7 0.611072 0.427431 0.075958
O O1 0.262326 0.250000 0.465053
O O2 0.151207 0.052085 0.402604
O O3 0.186096 0.008946 0.566801
O O4 0.359702 0.989337 0.406180
O O5 0.637000 0.250000 0.859451
O O6 0.746908 0.490589 0.778257
O O7 0.514515 0.494228 0.872950
O O8 0.656616 0.469719 0.965647
O O9 0.122705 0.750000 0.647569
O O10 0.185282 0.958631 0.738865
O O11 0.981613 0.974295 0.703214
O O12 0.500000 0.500000 0.500000
O O13 0.483024 0.750000 0.414079
O O14 0.590301 0.516460 0.315929
O O15 0.839562 0.750000 0.722482
O O16 0.670578 0.250000 0.256824
O O17 0.696405 0.038666 0.135093
O O18 0.590744 0.250000 0.080008
#
# Coordination Sequence:
#
# PCOD9168013 Si02
#       7
#     4   4   4   4   4   4   4
#     4  11  22  36  55  79 109 144 182 227 276 320
#     4  10  20  35  57  84 109 138 179 226 272 321
#     4  10  21  37  56  77 106 146 188 224 265 323
#     4  12  23  35  53  79 111 142 178 221 267 320
#     4  10  22  38  55  78 109 146 184 224 273 323
#     4  10  20  36  57  80 109 144 179 221 274 324
#     4   9  19  36  58  83 111 140 173 220 279 331
#
# _framework density 18.393196
#
# number of rings (size 3 to 8) (size 9 to 14) (size 15 to 20)
#    0.000    1.714    1.429    3.429    0.000    6.286 
#    0.000    0.714    0.000    0.000    0.000    0.000 
#    0.000    0.000    0.000    0.000    0.000    0.000 
#
# Total GULP energy -156374.621083 kJ/mol
# GULP energy per Si atom -5584.807896 kJ/mol
# Density = 1.835133 g / cm^3
# Si number density = 18.393196 Si / 1000 Ang^3
#
#
#
# Elastic Constant Matrix: (Units=GPa)
#
#
# Indices 1 2 3 4 5 6 
#
# 1 95.9901 33.9673 43.3509 0.0000 22.9669 0.0000
# 2 33.9673 29.3177 20.1340 0.0000 16.0936 0.0000
# 3 43.3509 20.1340 45.5790 0.0000 26.8355 0.0000
# 4 0.0000 0.0000 0.0000 21.6677 0.0000 -0.3042
# 5 22.9669 16.0936 26.8355 0.0000 21.9408 0.0000
# 6 0.0000 0.0000 0.0000 -0.3042 0.0000 17.3051
#
#
#
# Elastic Compliance Matrix: (Units=1/GPa)
#
#
# Indices 1 2 3 4 5 6 
#
# 1 0.026331 -0.024954 -0.030618 0.000000 0.028190 0.000000
# 2 -0.024954 0.080802 0.027001 0.000000 -0.066171 0.000000
# 3 -0.030618 0.027001 0.114063 0.000000 -0.127264 0.000000
# 4 0.000000 0.000000 0.000000 0.046163 0.000000 0.000811
# 5 0.028190 -0.066171 -0.127264 0.000000 0.220259 0.000000
# 6 0.000000 0.000000 0.000000 0.000811 0.000000 0.057801
#
#
# Mechanical properties :
#
#
# Convention : Reuss Voigt Hill
#
# Bulk Modulus (GPa) = 6.09562 40.64346 23.36954
# Shear Modulus (GPa) = 7.60750 17.07836 12.34293
#
# Velocity S-wave (km/s) = 2.03593 3.05046 2.59329
# Velocity P-wave (km/s) = 2.97455 5.87810 4.65833
#
# Compressibility (1/GPa) = 0.16405231
#
# Stress axis : x y z
#
# Youngs Moduli (GPa) = 37.97816 12.37594 8.76710
#
# Poissons Ratio (x) = 0.30884 0.26843
# Poissons Ratio (y) = 0.94773 -0.23672
# Poissons Ratio (z) = 1.16281 -0.33416
#
# Static dielectric constant tensor:
#      x y z
#    x 1.641770 0.000000 0.041910 
#    y 0.000000 1.614150 0.000000 
#    z 0.041910 0.000000 1.618250 
# 
# From -- ./inp_files/37457.got.cif
#   From: 2010.05.17/outbox.ucp.g08.bks.cvg/sg11_19_cif.got.tgz:37457.got - 2010.06.11 11:38:39.
