data_PCOD9168447
_publ_section_title
;
Structure prediction by ZEFSAII (Michael W. Deem and Ramdas Pophale) SiO2 
 PCOD9168447
Probable space group: C 2/M
;
_chemical_formula_sum "Si O2"
_cell_formula_units_Z 56
_cell_length_a 28.598786
_cell_length_b 18.605935
_cell_length_c 14.584314
_cell_angle_alpha 90.000000
_cell_angle_beta 24.171799
_cell_angle_gamma 90.000000
_cell_volume 3177.689619
_symmetry_space_group_name_H-M "C 2/M"
_symmetry_group_IT_number 12
_symmetry_cell_setting 'monoclinic'
loop_
_space_group_symop_operation_xyz
x,y,z
-x,y,-z
-x,-y,-z
x,-y,z
1/2+x,1/2+y,z
1/2-x,1/2+y,-z
1/2-x,1/2-y,-z
1/2+x,1/2-y,z
loop_
_atom_site_type_symbol
_atom_site_label
_atom_site_fract_x
_atom_site_fract_y
_atom_site_fract_z
Si Si1 0.773043 0.331778 0.421768
Si Si2 0.305061 0.668956 0.135907
Si Si3 0.028107 0.819770 0.844758
Si Si4 0.141429 0.913874 0.342768
Si Si5 0.379900 0.586514 0.829864
Si Si6 0.589773 0.834767 0.652530
Si Si7 0.339891 0.834814 0.092254
O O1 0.750000 0.250000 0.500000
O O2 0.645875 0.364352 0.639080
O O3 0.855421 0.364667 0.351156
O O4 0.828598 0.329570 0.222756
O O5 0.188317 0.659931 0.401008
O O6 0.321965 0.753822 0.088060
O O7 0.414904 0.647309 0.002175
O O8 0.309218 0.624812 0.035212
O O9 0.059759 0.748988 0.728962
O O10 0.000000 0.798923 0.000000
O O11 0.155331 0.893790 0.210750
O O12 0.238886 0.881259 0.231041
O O13 0.013460 0.892066 0.601397
O O14 0.144666 0.000000 0.341160
O O15 0.373098 0.500000 0.849875
O O16 0.466364 0.864597 0.845703
#
# Coordination Sequence:
#
# PCOD9168447 Si02
#       7
#     8   8   8   8   8   8   8
#     4  10  15  29  45  75 111 147 178 210 255 308
#     4  11  19  30  52  81 113 136 173 221 271 312
#     4  10  16  26  45  74 110 147 179 213 256 306
#     4   9  20  41  61  78  99 135 185 227 266 317
#     4   9  20  39  62  78  98 136 181 227 272 320
#     4  10  18  28  42  78 116 142 168 209 260 319
#     4  11  20  30  54  82 109 142 181 219 265 312
#
# _framework density 17.622866999999999
#
# number of rings (size 3 to 8) (size 9 to 14) (size 15 to 20)
#    0.000    2.000    4.286    4.714    2.000    0.571 
#    0.000    1.429    0.000    4.714    0.000    0.000 
#    0.000    0.000    0.000    0.000    0.000    0.000 
#
# Total GULP energy -156023.958766 kJ/mol
# GULP energy per Si atom -5572.284242 kJ/mol
# Density = 1.758276 g / cm^3
# Si number density = 17.622867 Si / 1000 Ang^3
#
#
#
# Elastic Constant Matrix: (Units=GPa)
#
#
# Indices 1 2 3 4 5 6 
#
# 1 75.0229 18.7145 47.4782 -0.0001 1.1700 -0.0001
# 2 18.7145 11.5262 19.2832 0.0000 7.2573 0.0000
# 3 47.4782 19.2832 123.1897 -0.0002 8.1653 -0.0001
# 4 -0.0001 0.0000 -0.0002 93.8610 0.0002 74.5494
# 5 1.1700 7.2573 8.1653 0.0002 36.7838 0.0002
# 6 -0.0001 0.0000 -0.0001 74.5494 0.0002 98.3244
#
#
#
# Elastic Compliance Matrix: (Units=1/GPa)
#
#
# Indices 1 2 3 4 5 6 
#
# 1 0.025840 -0.039883 -0.004246 0.000000 0.007989 0.000000
# 2 -0.039883 0.194514 -0.012805 0.000000 -0.034266 0.000000
# 3 -0.004246 -0.012805 0.011755 0.000000 0.000052 0.000000
# 4 0.000000 0.000000 0.000000 0.026783 0.000000 -0.020307
# 5 0.007989 -0.034266 0.000052 0.000000 0.033681 0.000000
# 6 0.000000 0.000000 0.000000 -0.020307 0.000000 0.025567
#
#
# Mechanical properties :
#
#
# Convention : Reuss Voigt Hill
#
# Bulk Modulus (GPa) = 8.45731 42.29894 25.37812
# Shear Modulus (GPa) = 10.60622 54.07802 32.34212
#
# Velocity S-wave (km/s) = 2.45591 5.54553 4.28861
# Velocity P-wave (km/s) = 3.58490 8.06587 6.24138
#
# Compressibility (1/GPa) = 0.11824096
#
# Stress axis : x y z
#
# Youngs Moduli (GPa) = 38.69912 5.14102 85.07152
#
# Poissons Ratio (x) = 0.20504 0.36118
# Poissons Ratio (y) = 1.54345 1.08936
# Poissons Ratio (z) = 0.16430 0.06583
#
# Static dielectric constant tensor:
#      x y z
#    x 1.633930 0.000000 -0.039540 
#    y 0.000000 1.597510 0.000000 
#    z -0.039540 0.000000 1.648630 
# 
# From -- ./inp_files/177878.got.cif
#   From: 2010.05.17/outbox.cif.g08.bks.cpg/sg12_89_cif.got.tgz:177878.got - 2010.06.03 13:09:07.
