data_PCOD9168619
_publ_section_title
;
Structure prediction by ZEFSAII (Michael W. Deem and Ramdas Pophale) SiO2 
 PCOD9168619
Probable space group: C 2/M
;
_chemical_formula_sum "Si O2"
_cell_formula_units_Z 64
_cell_length_a 21.260930
_cell_length_b 18.546852
_cell_length_c 12.663407
_cell_angle_alpha 90.000000
_cell_angle_beta 137.011441
_cell_angle_gamma 90.000000
_cell_volume 3404.813622
_symmetry_space_group_name_H-M "C 2/M"
_symmetry_group_IT_number 12
_symmetry_cell_setting 'monoclinic'
loop_
_space_group_symop_operation_xyz
x,y,z
-x,y,-z
-x,-y,-z
x,-y,z
1/2+x,1/2+y,z
1/2-x,1/2+y,-z
1/2-x,1/2-y,-z
1/2+x,1/2-y,z
loop_
_atom_site_type_symbol
_atom_site_label
_atom_site_fract_x
_atom_site_fract_y
_atom_site_fract_z
Si Si1 0.497531 0.417053 0.169872
Si Si2 0.919862 0.922365 0.312607
Si Si3 0.700045 0.800537 0.857439
Si Si4 0.695152 0.414687 0.128907
Si Si5 0.349835 0.305727 0.370324
Si Si6 0.510933 0.188292 0.395128
Si Si7 0.188241 0.913826 0.489649
Si Si8 0.663880 0.082847 0.503811
O O1 0.509148 0.500000 0.148895
O O2 0.461878 0.415578 0.247914
O O3 0.601896 0.389638 0.309267
O O4 0.411104 0.386637 0.997395
O O5 0.864359 0.854281 0.284268
O O6 0.000000 0.925146 0.500000
O O7 0.870760 0.000000 0.257211
O O8 0.751760 0.875313 0.900895
O O9 0.702659 0.762353 0.744313
O O10 0.594839 0.807364 0.768145
O O11 0.750000 0.750000 0.000000
O O12 0.687817 0.500000 0.098523
O O13 0.758295 0.407075 0.309917
O O14 0.441557 0.266883 0.530366
O O15 0.311583 0.360255 0.410661
O O16 0.500000 0.156535 0.500000
O O17 0.580773 0.138544 0.416868
O O18 0.281840 0.908492 0.538956
O O19 0.173324 0.000000 0.498262
O O20 0.631039 0.000000 0.472419
#
# Coordination Sequence:
#
# PCOD9168619 Si02
#       8
#     8   8   8   8   8   8   8   8
#     4   9  18  30  50  81 113 145 182 230 285 339
#     4  10  16  25  46  75 106 143 181 219 276 343
#     4  11  23  37  58  86 118 145 186 237 295 347
#     4  10  20  36  55  79 114 151 194 238 284 336
#     4  11  20  33  54  81 118 146 182 230 284 336
#     4  10  21  37  55  85 108 144 189 234 292 336
#     4  10  21  35  57  86 114 152 195 233 285 344
#     4  10  21  39  60  82 110 150 202 246 275 332
#
# _framework density 18.796917000000001
#
# number of rings (size 3 to 8) (size 9 to 14) (size 15 to 20)
#    0.000    1.875    3.750    2.250    1.750    1.750 
#    0.000    3.125    0.000    0.750    0.000    1.750 
#    0.000    0.000    0.000    0.000    0.000    0.000 
#
# Total GULP energy -178247.136480 kJ/mol
# GULP energy per Si atom -5570.223015 kJ/mol
# Density = 1.875413 g / cm^3
# Si number density = 18.796917 Si / 1000 Ang^3
#
#
#
# Elastic Constant Matrix: (Units=GPa)
#
#
# Indices 1 2 3 4 5 6 
#
# 1 85.2728 46.5247 21.7019 0.0000 10.4504 0.0000
# 2 46.5247 85.1109 9.7571 0.0000 5.5684 0.0000
# 3 21.7019 9.7571 62.6312 0.0000 16.9439 0.0000
# 4 0.0000 0.0000 0.0000 16.8984 0.0000 -0.1441
# 5 10.4504 5.5684 16.9439 0.0000 22.0847 0.0000
# 6 0.0000 0.0000 0.0000 -0.1441 0.0000 27.5040
#
#
#
# Elastic Compliance Matrix: (Units=1/GPa)
#
#
# Indices 1 2 3 4 5 6 
#
# 1 0.018200 -0.009281 -0.003992 0.000000 -0.003209 0.000000
# 2 -0.009281 0.016767 0.000706 0.000000 -0.000377 0.000000
# 3 -0.003992 0.000706 0.021171 0.000000 -0.014532 0.000000
# 4 0.000000 0.000000 0.000000 0.059180 0.000000 0.000310
# 5 -0.003209 -0.000377 -0.014532 0.000000 0.058043 0.000000
# 6 0.000000 0.000000 0.000000 0.000310 0.000000 0.036360
#
#
# Mechanical properties :
#
#
# Convention : Reuss Voigt Hill
#
# Bulk Modulus (GPa) = 32.25504 43.22026 37.73765
# Shear Modulus (GPa) = 20.39230 23.63282 22.01256
#
# Velocity S-wave (km/s) = 3.29732 3.54965 3.42581
# Velocity P-wave (km/s) = 5.62969 6.31215 5.98066
#
# Compressibility (1/GPa) = 0.03100291
#
# Stress axis : x y z
#
# Youngs Moduli (GPa) = 54.94423 59.64237 47.23396
#
# Poissons Ratio (x) = 0.55356 0.18857
# Poissons Ratio (y) = 0.50995 -0.03335
# Poissons Ratio (z) = 0.21936 -0.04211
#
# Static dielectric constant tensor:
#      x y z
#    x 1.664010 0.000000 0.006790 
#    y 0.000000 1.693830 0.000000 
#    z 0.006790 0.000000 1.696690 
# 
# From -- ./inp_files/168824.got.cif
#   From: 2010.05.17/outbox.cif.g08.bks.cpg/sg12_85_cif.got.tgz:168824.got - 2010.06.03 13:09:07.
