data_PCOD9168745
_publ_section_title
;
Structure prediction by ZEFSAII (Michael W. Deem and Ramdas Pophale) SiO2 
 PCOD9168745
Probable space group: C 2/M
;
_chemical_formula_sum "Si O2"
_cell_formula_units_Z 48
_cell_length_a 15.223187
_cell_length_b 25.746387
_cell_length_c 12.963508
_cell_angle_alpha 90.000000
_cell_angle_beta 145.836073
_cell_angle_gamma 90.000000
_cell_volume 2853.267877
_symmetry_space_group_name_H-M "C 2/M"
_symmetry_group_IT_number 12
_symmetry_cell_setting 'monoclinic'
loop_
_space_group_symop_operation_xyz
x,y,z
-x,y,-z
-x,-y,-z
x,-y,z
1/2+x,1/2+y,z
1/2-x,1/2+y,-z
1/2-x,1/2-y,-z
1/2+x,1/2-y,z
loop_
_atom_site_type_symbol
_atom_site_label
_atom_site_fract_x
_atom_site_fract_y
_atom_site_fract_z
Si Si1 0.393578 0.864043 0.198591
Si Si2 0.167371 0.741341 0.263809
Si Si3 0.322165 0.640209 0.810584
Si Si4 0.825008 0.294627 0.952378
Si Si5 0.505654 0.757698 0.380554
Si Si6 0.395806 0.941321 0.503462
O O1 0.263108 0.862918 0.161297
O O2 0.332331 0.846363 0.027923
O O3 0.505937 0.817219 0.345681
O O4 0.491180 0.916704 0.300476
O O5 0.180887 0.800383 0.233651
O O6 0.327288 0.731528 0.482740
O O7 0.991749 0.734600 0.136796
O O8 0.174896 0.703163 0.171733
O O9 0.239949 0.599492 0.654578
O O10 0.500000 0.625516 0.000000
O O11 0.660154 0.266274 0.816476
O O12 0.500000 0.756522 0.500000
O O13 0.500000 0.942253 0.500000
O O14 0.344831 0.000000 0.475885
#
# Coordination Sequence:
#
# PCOD9168745 Si02
#       6
#     8   8   8   8   8   8
#     4  11  18  31  48  69  95 125 167 202 229 286
#     4  10  18  32  44  66 102 136 156 190 236 292
#     4  11  18  31  48  67 100 131 161 194 239 284
#     4  10  20  29  45  71  98 132 163 193 232 288
#     4  10  16  28  44  62  97 131 154 186 233 279
#     4   9  19  34  51  67  90 128 165 200 245 286
#
# _framework density 16.822814999999999
#
# number of rings (size 3 to 8) (size 9 to 14) (size 15 to 20)
#    0.000    1.833    6.667    1.000    0.000    1.000 
#    3.000    0.000    0.000    0.000    0.000    2.333 
#    0.000    6.000    0.000    0.333    0.000    0.000 
#
# Total GULP energy -133618.116358 kJ/mol
# GULP energy per Si atom -5567.421515 kJ/mol
# Density = 1.678453 g / cm^3
# Si number density = 16.822815 Si / 1000 Ang^3
#
#
#
# Elastic Constant Matrix: (Units=GPa)
#
#
# Indices 1 2 3 4 5 6 
#
# 1 67.5605 19.5782 31.9923 0.0000 8.8614 0.0000
# 2 19.5782 78.9659 36.1204 0.0000 -7.6677 0.0000
# 3 31.9923 36.1204 119.5470 0.0000 23.0460 0.0000
# 4 0.0000 0.0000 0.0000 18.4366 0.0000 -1.8056
# 5 8.8614 -7.6677 23.0460 0.0000 27.1131 0.0000
# 6 0.0000 0.0000 0.0000 -1.8056 0.0000 11.3121
#
#
#
# Elastic Compliance Matrix: (Units=1/GPa)
#
#
# Indices 1 2 3 4 5 6 
#
# 1 0.017742 -0.003527 -0.002837 0.000000 -0.004384 0.000000
# 2 -0.003527 0.017763 -0.006714 0.000000 0.011883 0.000000
# 3 -0.002837 -0.006714 0.013562 0.000000 -0.012499 0.000000
# 4 0.000000 0.000000 0.000000 0.055101 0.000000 0.008795
# 5 -0.004384 0.011883 -0.012499 0.000000 0.052300 0.000000
# 6 0.000000 0.000000 0.000000 0.008795 0.000000 0.089805
#
#
# Mechanical properties :
#
#
# Convention : Reuss Voigt Hill
#
# Bulk Modulus (GPa) = 43.64589 49.05056 46.34823
# Shear Modulus (GPa) = 17.85285 23.26452 20.55869
#
# Velocity S-wave (km/s) = 3.26118 3.72279 3.49961
# Velocity P-wave (km/s) = 6.33887 6.90647 6.62875
#
# Compressibility (1/GPa) = 0.02291166
#
# Stress axis : x y z
#
# Youngs Moduli (GPa) = 56.36292 56.29664 73.73355
#
# Poissons Ratio (x) = 0.19855 0.20920
# Poissons Ratio (y) = 0.19878 0.49504
# Poissons Ratio (z) = 0.15991 0.37797
#
# Static dielectric constant tensor:
#      x y z
#    x 1.638940 0.000000 -0.001750 
#    y 0.000000 1.546650 0.000000 
#    z -0.001750 0.000000 1.649360 
# 
# From -- ./inp_files/78895.got.cif
#   From: 2010.05.17/outbox.cif.g08.bks.cpg/sg12_40_cif.got.tgz:78895.got - 2010.06.03 13:09:07.
