data_PCOD9168310
_publ_section_title
;
Structure prediction by ZEFSAII (Michael W. Deem and Ramdas Pophale) SiO2 
 PCOD9168310
Probable space group: C 2/M
;
_chemical_formula_sum "Si O2"
_cell_formula_units_Z 64
_cell_length_a 24.525729
_cell_length_b 24.407656
_cell_length_c 9.437686
_cell_angle_alpha 90.000000
_cell_angle_beta 130.874370
_cell_angle_gamma 90.000000
_cell_volume 4271.882918
_symmetry_space_group_name_H-M "C 2/M"
_symmetry_group_IT_number 12
_symmetry_cell_setting 'monoclinic'
loop_
_space_group_symop_operation_xyz
x,y,z
-x,y,-z
-x,-y,-z
x,-y,z
1/2+x,1/2+y,z
1/2-x,1/2+y,-z
1/2-x,1/2-y,-z
1/2+x,1/2-y,z
loop_
_atom_site_type_symbol
_atom_site_label
_atom_site_fract_x
_atom_site_fract_y
_atom_site_fract_z
Si Si1 0.288143 0.754811 0.915421
Si Si2 0.116463 0.062071 0.434507
Si Si3 0.528302 0.382985 0.885689
Si Si4 0.939989 0.755491 0.076276
Si Si5 0.733961 0.837601 0.606499
Si Si6 0.191929 0.828961 0.574302
Si Si7 0.095764 0.269042 0.314286
Si Si8 0.826304 0.937950 0.795086
O O1 0.267202 0.703410 0.779413
O O2 0.253964 0.806930 0.780185
O O3 0.250000 0.750000 0.000000
O O4 0.374102 0.758238 0.066153
O O5 0.162893 0.112329 0.573856
O O6 0.144334 0.060605 0.317920
O O7 0.033893 0.083029 0.299022
O O8 0.123746 0.000000 0.501959
O O9 0.538250 0.319128 0.867999
O O10 0.500000 0.383484 0.000000
O O11 0.606060 0.411342 0.008263
O O12 0.013480 0.721738 0.220498
O O13 0.911123 0.745928 0.865343
O O14 0.775462 0.829590 0.528486
O O15 0.652074 0.818001 0.439442
O O16 0.756508 0.899081 0.686498
O O17 0.128670 0.783712 0.452009
O O18 0.812507 0.000000 0.815748
#
# Coordination Sequence:
#
# PCOD9168310 Si02
#       8
#     8   8   8   8   8   8   8   8
#     4  11  21  31  45  67  94 121 152 193 234 276
#     4   9  16  24  40  67  95 124 154 186 223 265
#     4  10  14  22  38  67  98 121 150 189 222 267
#     4  11  16  27  44  70  91 121 151 185 233 272
#     4  10  17  30  46  66  93 119 153 189 229 271
#     4  10  16  30  46  66  91 123 158 186 224 268
#     4  10  16  25  47  68  87 115 157 186 226 279
#     4   9  16  24  40  66  96 123 151 189 229 264
#
# _framework density 14.981684
#
# number of rings (size 3 to 8) (size 9 to 14) (size 15 to 20)
#    0.000    2.000    6.250    1.875    0.000    1.500 
#    0.000    2.500    0.000    0.750    0.000    3.500 
#    0.000    1.000    0.000    0.000    0.000    0.000 
#
# Total GULP energy -178138.344688 kJ/mol
# GULP energy per Si atom -5566.823272 kJ/mol
# Density = 1.494758 g / cm^3
# Si number density = 14.981684 Si / 1000 Ang^3
#
#
#
# Elastic Constant Matrix: (Units=GPa)
#
#
# Indices 1 2 3 4 5 6 
#
# 1 82.2788 34.6046 33.8539 0.0000 24.3898 0.0000
# 2 34.6046 110.6209 39.5820 0.0000 26.9963 0.0000
# 3 33.8539 39.5820 33.4963 0.0000 22.7264 0.0000
# 4 0.0000 0.0000 0.0000 11.3930 0.0000 12.0481
# 5 24.3898 26.9963 22.7264 0.0000 29.4421 0.0000
# 6 0.0000 0.0000 0.0000 12.0481 0.0000 10.4921
#
#
#
# Elastic Compliance Matrix: (Units=1/GPa)
#
#
# Indices 1 2 3 4 5 6 
#
# 1 0.021070 0.001787 -0.021946 0.000000 -0.002153 0.000000
# 2 0.001787 0.015814 -0.020262 0.000000 -0.000340 0.000000
# 3 -0.021946 -0.020262 0.107158 0.000000 -0.045957 0.000000
# 4 0.000000 0.000000 0.000000 -0.409536 0.000000 0.470269
# 5 -0.002153 -0.000340 -0.045957 0.000000 0.071534 0.000000
# 6 0.000000 0.000000 0.000000 0.470269 0.000000 -0.444699
#
#
# Mechanical properties :
#
#
# Convention : Reuss Voigt Hill
#
# Bulk Modulus (GPa) = 15.82289 49.16411 32.49350
# Shear Modulus (GPa) = -9.31535 18.15583 4.42024
#
# Velocity S-wave (km/s) = -2.49626 3.48497 1.71954
# Velocity P-wave (km/s) = 1.50864 7.00576 5.06738
#
# Compressibility (1/GPa) = 0.06319959
#
# Stress axis : x y z
#
# Youngs Moduli (GPa) = 47.46049 63.23453 9.33198
#
# Poissons Ratio (x) = -0.11298 0.20480
# Poissons Ratio (y) = -0.08480 0.18909
# Poissons Ratio (z) = 1.04156 1.28129
#
# Static dielectric constant tensor:
#      x y z
#    x 1.498130 0.000000 0.013260 
#    y 0.000000 1.504840 0.000000 
#    z 0.013260 0.000000 1.500870 
# 
# From -- ./inp_files/99691.got.cif
#   From: 2010.05.17/outbox.cif.g08.bks.cpg/sg12_50_cif.got.tgz:99691.got - 2010.06.03 13:09:07.
