data_PCOD9168374
_publ_section_title
;
Structure prediction by ZEFSAII (Michael W. Deem and Ramdas Pophale) SiO2 
 PCOD9168374
Probable space group: C 2/M
;
_chemical_formula_sum "Si O2"
_cell_formula_units_Z 48
_cell_length_a 13.068406
_cell_length_b 22.888300
_cell_length_c 11.311254
_cell_angle_alpha 90.000000
_cell_angle_beta 31.180514
_cell_angle_gamma 90.000000
_cell_volume 1751.682281
_symmetry_space_group_name_H-M "C 2/M"
_symmetry_group_IT_number 12
_symmetry_cell_setting 'monoclinic'
loop_
_space_group_symop_operation_xyz
x,y,z
-x,y,-z
-x,-y,-z
x,-y,z
1/2+x,1/2+y,z
1/2-x,1/2+y,-z
1/2-x,1/2-y,-z
1/2+x,1/2-y,z
loop_
_atom_site_type_symbol
_atom_site_label
_atom_site_fract_x
_atom_site_fract_y
_atom_site_fract_z
Si Si1 0.753993 0.435703 0.505101
Si Si2 0.268499 0.562865 0.199285
Si Si3 0.229575 0.688498 0.233900
Si Si4 0.836774 0.186821 0.389285
Si Si5 0.858146 0.937898 0.756129
Si Si6 0.824269 0.814492 0.772012
O O1 0.817374 0.500000 0.394840
O O2 0.815269 0.436187 0.582899
O O3 0.789537 0.367794 0.433054
O O4 0.516340 0.436140 0.708539
O O5 0.216641 0.500000 0.195355
O O6 0.226696 0.624291 0.177165
O O7 0.500000 0.560939 0.000000
O O8 0.345825 0.678283 0.240946
O O9 0.285719 0.753365 0.133739
O O10 0.000000 0.696139 0.500000
O O11 0.750000 0.250000 0.500000
O O12 0.052357 0.188583 0.230304
O O13 0.731379 0.879052 0.867433
O O14 0.000000 0.939019 0.500000
O O15 0.751972 0.000000 0.865592
O O16 0.000000 0.817026 0.500000
#
# Coordination Sequence:
#
# PCOD9168374 Si02
#       6
#     8   8   8   8   8   8
#     4   8  15  25  39  58  80 108 144 179 211 256
#     4   9  18  32  47  62  85 120 155 186 223 265
#     4  10  18  27  44  67  88 116 150 186 227 267
#     4  10  15  24  39  58  86 116 142 171 223 265
#     4   8  13  21  35  57  84 110 136 174 219 261
#     4   9  15  23  37  59  86 114 144 173 218 268
#
# _framework density 27.402229999999999
#
# number of rings (size 3 to 8) (size 9 to 14) (size 15 to 20)
#    0.000    3.000    3.333    0.000    0.000    0.333 
#    0.000    0.000    0.000    9.000    0.000    0.000 
#    0.000    0.667    0.000    1.333    0.000  187.000 
#
# Total GULP energy -133793.751517 kJ/mol
# GULP energy per Si atom -5574.739647 kJ/mol
# Density = 2.733986 g / cm^3
# Si number density = 27.402230 Si / 1000 Ang^3
#
#
#
# Elastic Constant Matrix: (Units=GPa)
#
#
# Indices 1 2 3 4 5 6 
#
# 1 101.7805 14.4271 4.0777 -0.0239 7.1017 0.0089
# 2 14.4271 421.7636 31.6982 -0.0005 -6.8016 0.0003
# 3 4.0777 31.6982 55.2033 -0.1832 3.4545 0.0637
# 4 -0.0239 -0.0005 -0.1832 2451.1624 0.0469 -846.3464
# 5 7.1017 -6.8016 3.4545 0.0469 20.6435 -0.0173
# 6 0.0089 0.0003 0.0637 -846.3464 -0.0173 322.8306
#
#
#
# Elastic Compliance Matrix: (Units=1/GPa)
#
#
# Indices 1 2 3 4 5 6 
#
# 1 0.010140 -0.000381 -0.000307 0.000000 -0.003563 0.000000
# 2 -0.000381 0.002516 -0.001492 0.000000 0.001210 0.000000
# 3 -0.000307 -0.001492 0.019220 0.000001 -0.003602 0.000000
# 4 0.000000 0.000000 0.000001 0.004304 -0.000001 0.011283
# 5 -0.003563 0.001210 -0.003602 -0.000001 0.050668 0.000002
# 6 0.000000 0.000000 0.000000 0.011283 0.000002 0.032679
#
#
# Mechanical properties :
#
#
# Convention : Reuss Voigt Hill
#
# Bulk Modulus (GPa) = 36.34452 75.46150 55.90301
# Shear Modulus (GPa) = 37.57742 594.16362 315.87052
#
# Velocity S-wave (km/s) = 3.70716 14.74114 10.74812
# Velocity P-wave (km/s) = 5.62283 17.81384 13.20888
#
# Compressibility (1/GPa) = 0.02751446
#
# Stress axis : x y z
#
# Youngs Moduli (GPa) = 98.61954 397.50626 52.02990
#
# Poissons Ratio (x) = 0.15154 0.01598
# Poissons Ratio (y) = 0.03760 0.07763
# Poissons Ratio (z) = 0.03029 0.59311
#
# Static dielectric constant tensor:
#      x y z
#    x 2.388630 0.000000 0.138900 
#    y 0.000000 2.186640 0.000000 
#    z 0.138900 0.000000 2.418220 
# 
# From -- ./inp_files/64434.got.cif
#   From: 2010.05.17/outbox.cif.g08.bks.cpg/sg12_33_cif.got.tgz:64434.got - 2010.06.03 13:09:07.
