data_PCOD9168676
_publ_section_title
;
Structure prediction by ZEFSAII (Michael W. Deem and Ramdas Pophale) SiO2 
 PCOD9168676
Probable space group: C 2/M
;
_chemical_formula_sum "Si O2"
_cell_formula_units_Z 64
_cell_length_a 14.231342
_cell_length_b 16.799344
_cell_length_c 15.839439
_cell_angle_alpha 90.000000
_cell_angle_beta 127.078530
_cell_angle_gamma 90.000000
_cell_volume 3021.185559
_symmetry_space_group_name_H-M "C 2/M"
_symmetry_group_IT_number 12
_symmetry_cell_setting 'monoclinic'
loop_
_space_group_symop_operation_xyz
x,y,z
-x,y,-z
-x,-y,-z
x,-y,z
1/2+x,1/2+y,z
1/2-x,1/2+y,-z
1/2-x,1/2-y,-z
1/2+x,1/2-y,z
loop_
_atom_site_type_symbol
_atom_site_label
_atom_site_fract_x
_atom_site_fract_y
_atom_site_fract_z
Si Si1 0.822282 0.117875 0.948922
Si Si2 0.588714 0.218886 0.615968
Si Si3 0.197071 0.223572 0.841265
Si Si4 0.114410 0.667063 0.382203
Si Si5 0.515859 0.797698 0.164240
Si Si6 0.795383 0.844568 0.607792
Si Si7 0.575720 0.375258 0.166236
Si Si8 0.844541 0.411588 0.993857
O O1 0.793360 0.211651 0.923993
O O2 0.840710 0.091336 0.862340
O O3 0.714828 0.084851 0.944562
O O4 0.943741 0.103351 0.065233
O O5 0.500000 0.258682 0.500000
O O6 0.653604 0.270283 0.721834
O O7 0.502899 0.160795 0.623912
O O8 0.689787 0.177759 0.615468
O O9 0.085424 0.251814 0.836466
O O10 0.248905 0.137968 0.889470
O O11 0.143552 0.762622 0.391158
O O12 0.223819 0.624891 0.487472
O O13 0.087863 0.649824 0.270761
O O14 0.583503 0.721660 0.164677
O O15 0.458237 0.856741 0.067188
O O16 0.885119 0.892735 0.716536
O O17 0.866012 0.500000 0.974775
#
# Coordination Sequence:
#
# PCOD9168676 Si02
#       8
#     8   8   8   8   8   8   8   8
#     4  10  18  29  48  74  95 128 161 201 252 293
#     4   9  16  26  43  70 101 123 152 205 255 295
#     4  10  16  31  48  68  94 124 165 200 243 297
#     4   8  16  25  42  69 105 121 152 200 257 296
#     4   9  16  30  50  70  94 128 161 206 250 296
#     4   9  15  25  40  74 103 122 149 202 259 295
#     4  10  16  26  48  73  99 121 160 200 252 296
#     4  11  21  33  48  70 100 134 170 205 246 304
#
# _framework density 21.183737000000001
#
# number of rings (size 3 to 8) (size 9 to 14) (size 15 to 20)
#    0.000    2.500    3.750    0.750    0.000    0.000 
#    0.000    1.250    0.000    1.875    0.000    2.625 
#    0.000    0.000    0.000    0.000    0.000    0.000 
#
# Total GULP energy -178257.099330 kJ/mol
# GULP energy per Si atom -5570.534354 kJ/mol
# Density = 2.113552 g / cm^3
# Si number density = 21.183737 Si / 1000 Ang^3
#
#
#
# Elastic Constant Matrix: (Units=GPa)
#
#
# Indices 1 2 3 4 5 6 
#
# 1 59.7895 -6.5186 6.0445 0.0000 -1.8515 0.0000
# 2 -6.5186 71.7731 29.7841 0.0000 0.6429 0.0000
# 3 6.0445 29.7841 164.9719 0.0000 -0.2818 0.0000
# 4 0.0000 0.0000 0.0000 -4.2136 0.0000 -0.9987
# 5 -1.8515 0.6429 -0.2818 0.0000 26.9114 0.0000
# 6 0.0000 0.0000 0.0000 -0.9987 0.0000 -2.9010
#
#
#
# Elastic Compliance Matrix: (Units=1/GPa)
#
#
# Indices 1 2 3 4 5 6 
#
# 1 0.017071 0.001945 -0.000975 0.000000 0.001118 0.000000
# 2 0.001945 0.015287 -0.002832 0.000000 -0.000261 0.000000
# 3 -0.000975 -0.002832 0.006609 0.000000 0.000070 0.000000
# 4 0.000000 0.000000 0.000000 -0.258414 0.000000 0.088966
# 5 0.001118 -0.000261 0.000070 0.000000 0.037243 0.000000
# 6 0.000000 0.000000 0.000000 0.088966 0.000000 -0.375339
#
#
# Mechanical properties :
#
#
# Convention : Reuss Voigt Hill
#
# Bulk Modulus (GPa) = 28.37429 39.46161 33.91795
# Shear Modulus (GPa) = -9.22383 21.77433 6.27525
#
# Velocity S-wave (km/s) = -2.08894 3.20953 1.72300
# Velocity P-wave (km/s) = 2.75776 5.69241 4.47263
#
# Compressibility (1/GPa) = 0.03524317
#
# Stress axis : x y z
#
# Youngs Moduli (GPa) = 58.58053 65.41583 151.31595
#
# Poissons Ratio (x) = -0.12722 0.14748
# Poissons Ratio (y) = -0.11393 0.42847
# Poissons Ratio (z) = 0.05710 0.18523
#
# Static dielectric constant tensor:
#      x y z
#    x 1.835030 0.000000 0.004860 
#    y 0.000000 1.746670 0.000000 
#    z 0.004860 0.000000 1.849700 
# 
# From -- ./inp_files/278421.got.cif
#   From: 2010.05.17/outbox.cif.g08.bks.cpg/sg12_140_cif.got.tgz:278421.got - 2010.06.03 13:09:07.
