data_PCOD9168337
_publ_section_title
;
Structure prediction by ZEFSAII (Michael W. Deem and Ramdas Pophale) SiO2 
 PCOD9168337
Probable space group: C 2/M
;
_chemical_formula_sum "Si O2"
_cell_formula_units_Z 40
_cell_length_a 14.311527
_cell_length_b 26.459388
_cell_length_c 7.315980
_cell_angle_alpha 90.000000
_cell_angle_beta 36.348839
_cell_angle_gamma 90.000000
_cell_volume 1642.000029
_symmetry_space_group_name_H-M "C 2/M"
_symmetry_group_IT_number 12
_symmetry_cell_setting 'monoclinic'
loop_
_space_group_symop_operation_xyz
x,y,z
-x,y,-z
-x,-y,-z
x,-y,z
1/2+x,1/2+y,z
1/2-x,1/2+y,-z
1/2-x,1/2-y,-z
1/2+x,1/2-y,z
loop_
_atom_site_type_symbol
_atom_site_label
_atom_site_fract_x
_atom_site_fract_y
_atom_site_fract_z
Si Si1 0.606373 0.395555 0.175758
Si Si2 0.337185 0.700168 0.151562
Si Si3 0.570561 0.905990 0.186209
Si Si4 0.488887 0.795722 0.737491
Si Si5 0.944559 0.000000 0.804103
Si Si6 0.600777 0.000000 0.530710
O O1 0.500000 0.371296 0.500000
O O2 0.512661 0.440795 0.222371
O O3 0.678277 0.351128 0.942262
O O4 0.751118 0.422865 0.054587
O O5 0.171020 0.707979 0.514590
O O6 0.500000 0.691073 0.000000
O O7 0.377618 0.750693 0.976106
O O8 0.500000 0.898119 0.500000
O O9 0.572098 0.850311 0.100869
O O10 0.459250 0.949038 0.277382
O O11 0.500000 0.792620 0.500000
O O12 0.000000 0.000000 0.500000
O O13 0.779297 0.000000 0.182648
O O14 0.500000 0.000000 0.500000
#
# Coordination Sequence:
#
# PCOD9168337 Si02
#       6
#     8   8   8   8   4   4
#     4  11  21  35  58  87 116 149 190 238 285 335
#     4  12  25  40  56  84 119 153 188 238 295 344
#     4  10  17  32  56  84 109 143 191 232 276 335
#     4  11  22  39  61  83 110 148 202 238 278 341
#     4  10  18  30  53  88 119 143 187 243 282 330
#     4  10  14  28  52  82 119 139 176 240 291 318
#
# _framework density 24.360536
#
# number of rings (size 3 to 8) (size 9 to 14) (size 15 to 20)
#    0.000    1.200    8.000    1.800    2.800    0.000 
#    0.000    0.500    0.000    0.000    0.000    0.700 
#    0.000    3.200    0.000    0.000    0.000    0.000 
#
# Total GULP energy -111408.684949 kJ/mol
# GULP energy per Si atom -5570.434247 kJ/mol
# Density = 2.430509 g / cm^3
# Si number density = 24.360536 Si / 1000 Ang^3
#
#
#
# Elastic Constant Matrix: (Units=GPa)
#
#
# Indices 1 2 3 4 5 6 
#
# 1 42.6488 -3.0076 12.0710 0.0000 -11.3864 0.0000
# 2 -3.0076 200.9797 10.3672 0.0000 8.8758 0.0000
# 3 12.0710 10.3672 56.9544 0.0000 -11.7792 0.0000
# 4 0.0000 0.0000 0.0000 21.4963 0.0000 -58.1719
# 5 -11.3864 8.8758 -11.7792 0.0000 27.7556 0.0000
# 6 0.0000 0.0000 0.0000 -58.1719 0.0000 -99.1816
#
#
#
# Elastic Compliance Matrix: (Units=1/GPa)
#
#
# Indices 1 2 3 4 5 6 
#
# 1 0.027056 0.000186 -0.003820 0.000000 0.009419 0.000000
# 2 0.000186 0.005148 -0.001426 0.000000 -0.002175 0.000000
# 3 -0.003820 -0.001426 0.020168 0.000000 0.007448 0.000000
# 4 0.000000 0.000000 0.000000 0.017981 0.000000 -0.010546
# 5 0.009419 -0.002175 0.007448 0.000000 0.043749 0.000000
# 6 0.000000 0.000000 0.000000 -0.010546 0.000000 -0.003897
#
#
# Mechanical properties :
#
#
# Convention : Reuss Voigt Hill
#
# Bulk Modulus (GPa) = 23.66827 37.71602 30.69214
# Shear Modulus (GPa) = 37.19975 8.75754 22.97865
#
# Velocity S-wave (km/s) = 3.91199 1.89810 3.07461
# Velocity P-wave (km/s) = 5.49015 4.50774 5.02302
#
# Compressibility (1/GPa) = 0.04225066
#
# Stress axis : x y z
#
# Youngs Moduli (GPa) = 36.95998 194.24813 49.58457
#
# Poissons Ratio (x) = -0.03613 0.18942
# Poissons Ratio (y) = -0.00687 0.07073
# Poissons Ratio (z) = 0.14120 0.27708
#
# Static dielectric constant tensor:
#      x y z
#    x 2.145010 0.000000 -0.033200 
#    y 0.000000 2.034990 0.000000 
#    z -0.033200 0.000000 1.909530 
# 
# From -- ./inp_files/39267.got.cif
#   From: 2010.05.17/outbox.cif.g08.bks.cpg/sg12_20_cif.got.tgz:39267.got - 2010.06.03 13:09:07.
