data_PCOD9168674
_publ_section_title
;
Structure prediction by ZEFSAII (Michael W. Deem and Ramdas Pophale) SiO2 
 PCOD9168674
Probable space group: C 2/M
;
_chemical_formula_sum "Si O2"
_cell_formula_units_Z 40
_cell_length_a 8.438054
_cell_length_b 27.376903
_cell_length_c 7.900257
_cell_angle_alpha 90.000000
_cell_angle_beta 56.701045
_cell_angle_gamma 90.000000
_cell_volume 1525.384158
_symmetry_space_group_name_H-M "C 2/M"
_symmetry_group_IT_number 12
_symmetry_cell_setting 'monoclinic'
loop_
_space_group_symop_operation_xyz
x,y,z
-x,y,-z
-x,-y,-z
x,-y,z
1/2+x,1/2+y,z
1/2-x,1/2+y,-z
1/2-x,1/2-y,-z
1/2+x,1/2-y,z
loop_
_atom_site_type_symbol
_atom_site_label
_atom_site_fract_x
_atom_site_fract_y
_atom_site_fract_z
Si Si1 0.439394 0.783353 0.357113
Si Si2 0.376955 0.058555 0.238048
Si Si3 0.213611 0.442914 0.257799
Si Si4 0.662890 0.690451 0.261359
Si Si5 0.925054 0.905991 0.808391
O O1 0.500000 0.807890 0.500000
O O2 0.250000 0.750000 0.500000
O O3 0.606314 0.744237 0.228796
O O4 0.364330 0.813037 0.240400
O O5 0.502980 0.073137 0.325376
O O6 0.174131 0.079251 0.308098
O O7 0.363131 0.000000 0.253520
O O8 0.500000 0.071646 0.000000
O O9 0.211651 0.500000 0.307605
O O10 0.351927 0.413800 0.301121
O O11 0.326720 0.438238 0.011845
O O12 0.500000 0.679794 0.500000
O O13 0.632926 0.650397 0.135379
#
# Coordination Sequence:
#
# PCOD9168674 Si02
#       5
#     8   8   8   8   8
#     4   7  13  29  47  61  82 117 148 183 223 273
#     4   8  14  26  43  65  89 116 152 186 219 262
#     4   9  17  30  49  69  93 126 157 185 222 268
#     4   9  17  30  47  70  91 115 153 190 232 276
#     4  10  16  26  47  74  92 114 154 197 226 256
#
# _framework density 26.222904
#
# number of rings (size 3 to 8) (size 9 to 14) (size 15 to 20)
#    0.000    3.800    0.000    3.600    0.000    0.000 
#   10.800    0.000    0.000   10.200    0.000    2.800 
#    0.000    0.000    0.000    0.000    0.000    0.000 
#
# Total GULP energy -111677.062331 kJ/mol
# GULP energy per Si atom -5583.853117 kJ/mol
# Density = 2.616322 g / cm^3
# Si number density = 26.222904 Si / 1000 Ang^3
#
#
#
# Elastic Constant Matrix: (Units=GPa)
#
#
# Indices 1 2 3 4 5 6 
#
# 1 293.9438 60.4798 46.9976 0.0000 54.9693 0.0000
# 2 60.4798 79.4945 13.4033 0.0000 20.1549 0.0000
# 3 46.9976 13.4033 86.9984 0.0000 8.0256 0.0000
# 4 0.0000 0.0000 0.0000 3.2844 0.0000 10.2719
# 5 54.9693 20.1549 8.0256 0.0000 52.8589 0.0000
# 6 0.0000 0.0000 0.0000 10.2719 0.0000 36.8091
#
#
#
# Elastic Compliance Matrix: (Units=1/GPa)
#
#
# Indices 1 2 3 4 5 6 
#
# 1 0.004947 -0.002444 -0.001934 0.000000 -0.003919 0.000000
# 2 -0.002444 0.015379 -0.000753 0.000000 -0.003208 0.000000
# 3 -0.001934 -0.000753 0.012620 0.000000 0.000383 0.000000
# 4 0.000000 0.000000 0.000000 2.392605 0.000000 -0.667680
# 5 -0.003919 -0.003208 0.000383 0.000000 0.024159 0.000000
# 6 0.000000 0.000000 0.000000 -0.667680 0.000000 0.213490
#
#
# Mechanical properties :
#
#
# Convention : Reuss Voigt Hill
#
# Bulk Modulus (GPa) = 44.08514 78.02201 61.05357
# Shear Modulus (GPa) = 1.86496 41.22756 21.54626
#
# Velocity S-wave (km/s) = 0.84424 3.96939 2.86957
# Velocity P-wave (km/s) = 4.21883 7.12924 5.85767
#
# Compressibility (1/GPa) = 0.02268338
#
# Stress axis : x y z
#
# Youngs Moduli (GPa) = 202.14224 65.02269 79.23814
#
# Poissons Ratio (x) = 0.15891 0.15328
# Poissons Ratio (y) = 0.49403 0.05968
# Poissons Ratio (z) = 0.39102 0.04897
#
# Static dielectric constant tensor:
#      x y z
#    x 2.075370 0.000000 0.005990 
#    y 0.000000 2.057640 0.000000 
#    z 0.005990 0.000000 2.182690 
# 
# From -- ./inp_files/40327.got.cif
#   From: 2010.05.17/outbox.cif.g08.bks.cpg/sg12_21_cif.got.tgz:40327.got - 2010.06.03 13:09:07.
