data_PCOD9168248
_publ_section_title
;
Structure prediction by ZEFSAII (Michael W. Deem and Ramdas Pophale) SiO2 
 PCOD9168248
Probable space group: P 21/M
;
_chemical_formula_sum "Si O2"
_cell_formula_units_Z 26
_cell_length_a 12.000000
_cell_length_b 9.000000
_cell_length_c 24.000000
_cell_angle_alpha 90.000000
_cell_angle_beta 30.000000
_cell_angle_gamma 90.000000
_cell_volume 1296.000000
_symmetry_space_group_name_H-M "P 21/M"
_symmetry_group_IT_number 11
_symmetry_cell_setting 'monoclinic'
loop_
_space_group_symop_operation_xyz
x,y,z
-x,1/2+y,-z
-x,-y,-z
x,1/2-y,z
loop_
_atom_site_type_symbol
_atom_site_label
_atom_site_fract_x
_atom_site_fract_y
_atom_site_fract_z
Si Si1 0.037130 0.427486 0.165017
Si Si2 0.619979 0.082292 0.265852
Si Si3 0.141399 0.025216 0.518736
Si Si4 0.756128 0.573744 0.100532
Si Si5 0.892467 0.250000 0.549649
Si Si6 0.955507 0.927990 0.714131
Si Si7 0.568431 0.427300 0.070935
O O1 0.082299 0.250000 0.145040
O O2 0.966359 0.469815 0.257911
O O3 0.834443 0.454728 0.210386
O O4 0.259481 0.510505 0.049181
O O5 0.650898 0.250000 0.229568
O O6 0.392173 0.082850 0.399084
O O7 0.617079 0.969112 0.215745
O O8 0.955872 0.124233 0.569219
O O9 0.135355 0.875370 0.486666
O O10 0.081384 0.005315 0.609088
O O11 0.776642 0.750000 0.086391
O O12 0.638695 0.504740 0.097905
O O13 0.000000 0.500000 0.000000
O O14 0.981467 0.750000 0.695964
O O15 0.690386 0.959273 0.827923
O O16 0.595147 0.250000 0.063831
#
# Coordination Sequence:
#
# PCOD9168248 Si02
#       7
#     4   4   4   4   2   4   4
#     4  10  22  44  65  88 126 173 219 263 320 378
#     4  11  24  41  64  93 133 171 209 266 320 380
#     4  11  23  42  65  96 127 169 212 261 325 387
#     4  12  25  40  64  95 128 166 212 260 321 383
#     4  10  24  40  64  90 132 160 210 262 318 384
#     4  10  23  42  66  92 126 171 217 269 319 376
#     4  11  23  40  65  96 129 165 214 272 324 376
#
# _framework density 20.061727999999999
#
# number of rings (size 3 to 8) (size 9 to 14) (size 15 to 20)
#    0.000    1.231    3.077    2.308    5.385    0.615 
#    2.769    0.000    0.000    0.000    0.000    0.000 
#    0.000    0.000    0.000    0.000    0.000    0.000 
#
# Total GULP energy -144746.724407 kJ/mol
# GULP energy per Si atom -5567.181708 kJ/mol
# Density = 2.001607 g / cm^3
# Si number density = 20.061728 Si / 1000 Ang^3
#
#
#
# Elastic Constant Matrix: (Units=GPa)
#
#
# Indices 1 2 3 4 5 6 
#
# 1 53.1102 23.6490 19.7708 0.0000 23.5080 0.0000
# 2 23.6490 62.7887 16.4501 0.0000 3.5925 0.0000
# 3 19.7708 16.4501 91.6416 0.0000 31.2724 0.0000
# 4 0.0000 0.0000 0.0000 -52.6832 0.0000 3.5481
# 5 23.5080 3.5925 31.2724 0.0000 28.7511 0.0000
# 6 0.0000 0.0000 0.0000 3.5481 0.0000 27.3236
#
#
#
# Elastic Compliance Matrix: (Units=1/GPa)
#
#
# Indices 1 2 3 4 5 6 
#
# 1 0.039674 -0.014625 0.007175 0.000000 -0.038416 0.000000
# 2 -0.014625 0.022167 -0.006296 0.000000 0.016037 0.000000
# 3 0.007175 -0.006296 0.019445 0.000000 -0.026231 0.000000
# 4 0.000000 0.000000 0.000000 -0.018817 0.000000 0.002443
# 5 -0.038416 0.016037 -0.026231 0.000000 0.092719 0.000000
# 6 0.000000 0.000000 0.000000 0.002443 0.000000 0.036281
#
#
# Mechanical properties :
#
#
# Convention : Reuss Voigt Hill
#
# Bulk Modulus (GPa) = 18.58922 36.36450 27.47686
# Shear Modulus (GPa) = 21.10657 10.52300 15.81478
#
# Velocity S-wave (km/s) = 3.24710 2.29275 2.81072
# Velocity P-wave (km/s) = 4.83160 5.01743 4.92539
#
# Compressibility (1/GPa) = 0.05379461
#
# Stress axis : x y z
#
# Youngs Moduli (GPa) = 25.20547 45.11240 51.42588
#
# Poissons Ratio (x) = 0.65976 -0.36900
# Poissons Ratio (y) = 0.36863 0.32379
# Poissons Ratio (z) = -0.18086 0.28404
#
# Static dielectric constant tensor:
#      x y z
#    x 1.687460 0.000000 -0.011190 
#    y 0.000000 1.683680 0.000000 
#    z -0.011190 0.000000 1.720910 
# 
# From -- ./inp_files/68382.got.cif
#   From: 2010.05.17/outbox.ucp.g08.bks.cvg/sg11_35_cif.got.tgz:68382.got - 2010.06.11 11:38:39.
