data_PCOD9168023
_publ_section_title
;
Structure prediction by ZEFSAII (Michael W. Deem and Ramdas Pophale) SiO2 
 PCOD9168023
Probable space group: P 21/M
;
_chemical_formula_sum "Si O2"
_cell_formula_units_Z 28
_cell_length_a 24.000000
_cell_length_b 9.000000
_cell_length_c 21.000000
_cell_angle_alpha 90.000000
_cell_angle_beta 20.000000
_cell_angle_gamma 90.000000
_cell_volume 1551.403370
_symmetry_space_group_name_H-M "P 21/M"
_symmetry_group_IT_number 11
_symmetry_cell_setting 'monoclinic'
loop_
_space_group_symop_operation_xyz
x,y,z
-x,1/2+y,-z
-x,-y,-z
x,1/2-y,z
loop_
_atom_site_type_symbol
_atom_site_label
_atom_site_fract_x
_atom_site_fract_y
_atom_site_fract_z
Si Si1 0.529977 0.571063 0.036918
Si Si2 0.823339 0.428704 0.522325
Si Si3 0.603808 0.570562 0.530864
Si Si4 0.746438 0.571728 0.112852
Si Si5 0.093176 0.427739 0.700454
Si Si6 0.905568 0.928678 0.660907
Si Si7 0.823177 0.927496 0.176797
O O1 0.534490 0.750000 0.026576
O O2 0.711399 0.526321 0.869275
O O3 0.500000 0.500000 0.000000
O O4 0.361446 0.535553 0.255540
O O5 0.827878 0.250000 0.506446
O O6 0.857765 0.519859 0.422107
O O7 0.972993 0.462841 0.410334
O O8 0.582173 0.750000 0.556582
O O9 0.424536 0.496228 0.729886
O O10 0.750609 0.531369 0.422602
O O11 0.686504 0.527477 0.374711
O O12 0.746182 0.750000 0.102543
O O13 0.758227 0.541369 0.175926
O O14 0.918041 0.503604 0.903636
O O15 0.072951 0.250000 0.727646
O O16 0.905543 0.750000 0.654580
O O17 0.000000 0.000000 0.500000
O O18 0.845759 0.750000 0.158943
O O19 0.000000 0.000000 0.000000
#
# Coordination Sequence:
#
# PCOD9168023 Si02
#       7
#     4   4   4   4   4   4   4
#     4  10  20  35  58  86 115 147 185 232 286 341
#     4  10  22  39  57  84 121 155 194 243 292 348
#     4  10  22  40  61  87 122 160 200 250 304 355
#     4  11  23  38  62  92 120 157 203 249 302 361
#     4  11  24  42  62  85 119 162 203 249 300 355
#     4  10  20  35  58  87 117 149 186 233 287 342
#     4  10  20  36  60  90 121 156 198 249 305 356
#
# _framework density 18.048175000000001
#
# number of rings (size 3 to 8) (size 9 to 14) (size 15 to 20)
#    0.000    1.714    2.857    1.286    0.000    4.571 
#    0.000    1.429    0.000    0.000    0.000    0.000 
#    0.000    0.000    0.000    0.000    0.000    0.000 
#
# Total GULP energy -156106.397345 kJ/mol
# GULP energy per Si atom -5575.228477 kJ/mol
# Density = 1.800710 g / cm^3
# Si number density = 18.048175 Si / 1000 Ang^3
#
#
#
# Elastic Constant Matrix: (Units=GPa)
#
#
# Indices 1 2 3 4 5 6 
#
# 1 112.2165 43.2676 90.3313 0.0000 -12.6888 0.0000
# 2 43.2676 38.8430 54.3689 0.0000 -6.1290 0.0000
# 3 90.3313 54.3689 195.5632 0.0000 -31.0717 0.0000
# 4 0.0000 0.0000 0.0000 37.7024 0.0000 -4.4646
# 5 -12.6888 -6.1290 -31.0717 0.0000 40.3700 0.0000
# 6 0.0000 0.0000 0.0000 -4.4646 0.0000 28.6871
#
#
#
# Elastic Compliance Matrix: (Units=1/GPa)
#
#
# Indices 1 2 3 4 5 6 
#
# 1 0.017668 -0.013531 -0.004378 0.000000 0.000129 0.000000
# 2 -0.013531 0.052826 -0.008930 0.000000 -0.003106 0.000000
# 3 -0.004378 -0.008930 0.010464 0.000000 0.005322 0.000000
# 4 0.000000 0.000000 0.000000 0.027022 0.000000 0.004205
# 5 0.000129 -0.003106 0.005322 0.000000 0.028436 0.000000
# 6 0.000000 0.000000 0.000000 0.004205 0.000000 0.035513
#
#
# Mechanical properties :
#
#
# Convention : Reuss Voigt Hill
#
# Bulk Modulus (GPa) = 36.65813 80.28423 58.47118
# Shear Modulus (GPa) = 21.30372 31.92890 26.61631
#
# Velocity S-wave (km/s) = 3.43939 4.21062 3.84440
# Velocity P-wave (km/s) = 6.01065 8.25948 7.22312
#
# Compressibility (1/GPa) = 0.02727907
#
# Stress axis : x y z
#
# Youngs Moduli (GPa) = 56.60016 18.92997 95.56643
#
# Poissons Ratio (x) = 0.25615 0.41843
# Poissons Ratio (y) = 0.76588 0.85337
# Poissons Ratio (z) = 0.24782 0.16904
#
# Static dielectric constant tensor:
#      x y z
#    x 1.635270 0.000000 0.003060 
#    y 0.000000 1.610390 0.000000 
#    z 0.003060 0.000000 1.618290 
# 
# From -- ./inp_files/66687.got.cif
#   From: 2010.05.17/outbox.ucp.g08.bks.cvg/sg11_34_cif.got.tgz:66687.got - 2010.06.11 11:38:39.
