data_PCOD9168115
_publ_section_title
;
Structure prediction by ZEFSAII (Michael W. Deem and Ramdas Pophale) SiO2 
 PCOD9168115
Probable space group: P 21/M
;
_chemical_formula_sum "Si O2"
_cell_formula_units_Z 28
_cell_length_a 18.000000
_cell_length_b 9.000000
_cell_length_c 15.000000
_cell_angle_alpha 90.000000
_cell_angle_beta 140.000000
_cell_angle_gamma 90.000000
_cell_volume 1561.973892
_symmetry_space_group_name_H-M "P 21/M"
_symmetry_group_IT_number 11
_symmetry_cell_setting 'monoclinic'
loop_
_space_group_symop_operation_xyz
x,y,z
-x,1/2+y,-z
-x,-y,-z
x,1/2-y,z
loop_
_atom_site_type_symbol
_atom_site_label
_atom_site_fract_x
_atom_site_fract_y
_atom_site_fract_z
Si Si1 0.674074 0.428010 0.704114
Si Si2 0.965174 0.073734 0.705618
Si Si3 0.149248 0.571854 0.985402
Si Si4 0.373464 0.928934 0.869283
Si Si5 0.289932 0.928848 0.593069
Si Si6 0.208250 0.426154 0.863557
Si Si7 0.573944 0.926925 0.439123
O O1 0.675373 0.250000 0.689431
O O2 0.559181 0.461217 0.657382
O O3 0.653386 0.510927 0.592428
O O4 0.789298 0.467556 0.865163
O O5 0.959349 0.250000 0.719705
O O6 0.840019 0.024025 0.556335
O O7 0.068168 0.054181 0.726856
O O8 0.022095 0.991524 0.843569
O O9 0.148665 0.750000 0.976949
O O10 0.226998 0.499882 0.977944
O O11 0.381095 0.750000 0.883799
O O12 0.323297 0.966198 0.725126
O O13 0.284757 0.993554 0.860582
O O14 0.500000 0.000000 0.000000
O O15 0.293366 0.750000 0.588454
O O16 0.382231 0.999098 0.610884
O O17 0.232066 0.250000 0.886842
O O18 0.584588 0.750000 0.443357
#
# Coordination Sequence:
#
# PCOD9168115 Si02
#       7
#     4   4   4   4   4   4   4
#     4   9  19  36  56  81 112 145 178 221 275 329
#     4   8  18  36  56  79 109 144 184 224 272 324
#     4   9  17  32  57  84 109 140 181 226 270 321
#     4  11  24  39  57  83 112 146 185 224 273 328
#     4  10  22  40  57  77 111 149 181 224 277 325
#     4   9  19  36  57  81 110 143 183 226 269 321
#     4  10  21  35  55  84 111 142 184 226 270 325
#
# _framework density 17.926036
#
# number of rings (size 3 to 8) (size 9 to 14) (size 15 to 20)
#    0.857    1.714    0.000    1.286    2.000    4.000 
#    0.000    0.714    0.000    0.000    0.000    0.000 
#    0.000    0.000    0.000    0.000    0.000    0.000 
#
# Total GULP energy -155966.291810 kJ/mol
# GULP energy per Si atom -5570.224708 kJ/mol
# Density = 1.788524 g / cm^3
# Si number density = 17.926036 Si / 1000 Ang^3
#
#
#
# Elastic Constant Matrix: (Units=GPa)
#
#
# Indices 1 2 3 4 5 6 
#
# 1 -2.0170 -1.9844 -22.5590 0.0000 -5.4579 0.0000
# 2 -1.9844 34.6024 19.7709 0.0000 -1.3387 0.0000
# 3 -22.5590 19.7709 90.9905 0.0000 -1.1802 0.0000
# 4 0.0000 0.0000 0.0000 25.9835 0.0000 -1.4463
# 5 -5.4579 -1.3387 -1.1802 0.0000 21.8175 0.0000
# 6 0.0000 0.0000 0.0000 -1.4463 0.0000 31.3673
#
#
#
# Elastic Compliance Matrix: (Units=1/GPa)
#
#
# Indices 1 2 3 4 5 6 
#
# 1 -0.106887 0.009299 -0.028880 0.000000 -0.027731 0.000000
# 2 0.009299 0.032246 -0.004649 0.000000 0.004053 0.000000
# 3 -0.028880 -0.004649 0.004746 0.000000 -0.007253 0.000000
# 4 0.000000 0.000000 0.000000 0.038585 0.000000 0.001779
# 5 -0.027731 0.004053 -0.007253 0.000000 0.038754 0.000000
# 6 0.000000 0.000000 0.000000 0.001779 0.000000 0.031962
#
#
# Mechanical properties :
#
#
# Convention : Reuss Voigt Hill
#
# Bulk Modulus (GPa) = -8.44911 12.67012 2.11050
# Shear Modulus (GPa) = 103.27576 24.39022 63.83299
#
# Velocity S-wave (km/s) = 7.59850 3.69264 5.97381
# Velocity P-wave (km/s) = 8.50055 5.02634 6.98296
#
# Compressibility (1/GPa) = -0.11835560
#
# Stress axis : x y z
#
# Youngs Moduli (GPa) = -9.35566 31.01173 210.70700
#
# Poissons Ratio (x) = -0.28837 6.08530
# Poissons Ratio (y) = 0.08700 0.97948
# Poissons Ratio (z) = -0.27019 0.14416
#
# Static dielectric constant tensor:
#      x y z
#    x 1.605250 0.000000 0.009120 
#    y 0.000000 1.597900 0.000000 
#    z 0.009120 0.000000 1.615270 
# 
# From -- ./inp_files/53289.got.cif
#   From: 2010.05.17/outbox.ucp.g08.bks.cvg/sg11_27_cif.got.tgz:53289.got - 2010.06.11 11:38:39.
