data_PCOD9168884
_publ_section_title
;
Structure prediction by ZEFSAII (Michael W. Deem and Ramdas Pophale) SiO2 
 PCOD9168884
Probable space group: C 2/M
;
_chemical_formula_sum "Si O2"
_cell_formula_units_Z 24
_cell_length_a 14.464804
_cell_length_b 5.430873
_cell_length_c 13.271134
_cell_angle_alpha 90.000000
_cell_angle_beta 72.905487
_cell_angle_gamma 90.000000
_cell_volume 996.476084
_symmetry_space_group_name_H-M "C 2/M"
_symmetry_group_IT_number 12
_symmetry_cell_setting 'monoclinic'
loop_
_space_group_symop_operation_xyz
x,y,z
-x,y,-z
-x,-y,-z
x,-y,z
1/2+x,1/2+y,z
1/2-x,1/2+y,-z
1/2-x,1/2-y,-z
1/2+x,1/2-y,z
loop_
_atom_site_type_symbol
_atom_site_label
_atom_site_fract_x
_atom_site_fract_y
_atom_site_fract_z
Si Si1 0.623649 0.000000 0.510125
Si Si2 0.021888 0.500000 0.268636
Si Si3 0.142587 0.000000 0.196338
Si Si4 0.881197 0.000000 0.029029
Si Si5 0.903834 0.500000 0.104625
Si Si6 0.803283 0.000000 0.605647
O O1 0.640212 0.251310 0.443316
O O2 0.526822 0.000000 0.606509
O O3 0.707595 0.000000 0.568841
O O4 0.942761 0.500000 0.204796
O O5 0.081481 0.749411 0.232891
O O6 0.158181 0.000000 0.071389
O O7 0.214154 0.000000 0.269253
O O8 0.850111 0.751044 0.093515
O O9 0.000000 0.000000 0.000000
O O10 0.000000 0.500000 0.000000
#
# Coordination Sequence:
#
# PCOD9168884 Si02
#       6
#     4   4   4   4   4   4
#     4  10  23  42  57  74 110 152 179 216 278 330
#     4  12  21  32  58  88 106 138 185 229 262 312
#     4  12  21  32  58  88 106 138 185 229 262 312
#     4  10  16  30  48  76 109 143 165 208 268 328
#     4  10  16  30  48  76 109 143 165 208 268 328
#     4  10  23  42  57  74 110 152 179 216 278 330
#
# _framework density 24.084873999999999
#
# number of rings (size 3 to 8) (size 9 to 14) (size 15 to 20)
#    0.000    1.333    6.667    2.000    0.000    4.000 
#    0.000    0.000    0.000    2.000    0.000    0.000 
#    0.000    0.000    0.000    0.000    0.000    0.000 
#
# Total GULP energy -67164.334750 kJ/mol
# GULP energy per Si atom -5597.027896 kJ/mol
# Density = 2.403006 g / cm^3
# Si number density = 24.084874 Si / 1000 Ang^3
#
#
#
# Elastic Constant Matrix: (Units=GPa)
#
#
# Indices 1 2 3 4 5 6 
#
# 1 67.6412 33.1700 34.4841 0.0000 29.0058 0.0000
# 2 33.1700 256.1597 69.7286 0.0000 5.7648 0.0000
# 3 34.4841 69.7286 181.7056 0.0000 34.2693 0.0000
# 4 0.0000 0.0000 0.0000 50.9312 0.0000 4.1717
# 5 29.0058 5.7648 34.2693 0.0000 51.2322 0.0000
# 6 0.0000 0.0000 0.0000 4.1717 0.0000 12.8010
#
#
#
# Elastic Compliance Matrix: (Units=1/GPa)
#
#
# Indices 1 2 3 4 5 6 
#
# 1 0.021126 -0.002190 -0.001098 0.000000 -0.010980 0.000000
# 2 -0.002190 0.004609 -0.001704 0.000000 0.001861 0.000000
# 3 -0.001098 -0.001704 0.007109 0.000000 -0.003942 0.000000
# 4 0.000000 0.000000 0.000000 0.020173 0.000000 -0.006574
# 5 -0.010980 0.001861 -0.003942 0.000000 0.028163 0.000000
# 6 0.000000 0.000000 0.000000 -0.006574 0.000000 0.080261
#
#
# Mechanical properties :
#
#
# Convention : Reuss Voigt Hill
#
# Bulk Modulus (GPa) = 43.74411 86.69688 65.22050
# Shear Modulus (GPa) = 27.92596 47.53448 37.73022
#
# Velocity S-wave (km/s) = 3.40881 4.44737 3.96226
# Velocity P-wave (km/s) = 5.80476 7.90232 6.93332
#
# Compressibility (1/GPa) = 0.02286022
#
# Stress axis : x y z
#
# Youngs Moduli (GPa) = 47.33561 216.94955 140.66157
#
# Poissons Ratio (x) = 0.47501 0.15449
# Poissons Ratio (y) = 0.10364 0.23972
# Poissons Ratio (z) = 0.05199 0.36974
#
# Static dielectric constant tensor:
#      x y z
#    x 2.039590 0.000000 0.017490 
#    y 0.000000 1.887490 0.000000 
#    z 0.017490 0.000000 1.875250 
# 
# From -- ./inp_files/24985.got.cif
#   From: 2010.05.17/outbox.cif.g08.bks.cpg/sg12_13_cif.got.tgz:24985.got - 2010.06.03 13:09:07.
