data_PCOD9168584
_publ_section_title
;
Structure prediction by ZEFSAII (Michael W. Deem and Ramdas Pophale) SiO2 
 PCOD9168584
Probable space group: C 2/M
;
_chemical_formula_sum "Si O2"
_cell_formula_units_Z 48
_cell_length_a 5.242249
_cell_length_b 28.945061
_cell_length_c 22.849191
_cell_angle_alpha 90.000000
_cell_angle_beta 113.928991
_cell_angle_gamma 90.000000
_cell_volume 3169.073743
_symmetry_space_group_name_H-M "C 2/M"
_symmetry_group_IT_number 12
_symmetry_cell_setting 'monoclinic'
loop_
_space_group_symop_operation_xyz
x,y,z
-x,y,-z
-x,-y,-z
x,-y,z
1/2+x,1/2+y,z
1/2-x,1/2+y,-z
1/2-x,1/2-y,-z
1/2+x,1/2-y,z
loop_
_atom_site_type_symbol
_atom_site_label
_atom_site_fract_x
_atom_site_fract_y
_atom_site_fract_z
Si Si1 0.449484 0.804044 0.926525
Si Si2 0.743038 0.646971 0.616555
Si Si3 0.000000 0.781868 0.500000
Si Si4 0.645946 0.300217 0.127482
Si Si5 0.174319 0.596794 0.576907
Si Si6 0.019133 0.719708 0.723589
Si Si7 0.176450 0.000000 0.454526
O O1 0.447840 0.750137 0.906176
O O2 0.692720 0.825093 0.909802
O O3 0.145271 0.823141 0.882511
O O4 0.500000 0.807050 0.000000
O O5 0.654090 0.684892 0.560279
O O6 0.440787 0.629604 0.609752
O O7 0.940589 0.607969 0.604411
O O8 0.915199 0.673888 0.681824
O O9 0.750000 0.750000 0.500000
O O10 0.846171 0.291969 0.200864
O O11 0.330480 0.547156 0.583435
O O12 0.000000 0.604704 0.500000
O O13 0.256864 0.746468 0.709462
O O14 0.500000 0.000000 0.500000
O O15 0.000000 0.000000 0.500000
#
# Coordination Sequence:
#
# PCOD9168584 Si02
#       7
#     8   8   4   8   8   8   4
#     4  10  16  25  41  60  78 103 140 201 251 261
#     4  12  23  34  52  66  92 120 153 200 228 277
#     4  12  22  36  46  63  86 121 164 198 234 256
#     4  10  16  27  39  56  80 107 144 195 230 258
#     4  11  20  38  53  75  94 108 137 186 246 293
#     4  12  21  35  45  60  86 126 168 194 230 256
#     4  10  20  34  60  82  94 112 128 168 249 330
#
# _framework density 15.146381999999999
#
# number of rings (size 3 to 8) (size 9 to 14) (size 15 to 20)
#    0.000    1.000    5.000    7.500    0.000    0.000 
#    0.000    0.000    0.000    0.000    0.000    0.000 
#    0.000    0.000    0.000    0.000    0.000    0.000 
#
# Total GULP energy -133606.040462 kJ/mol
# GULP energy per Si atom -5566.918353 kJ/mol
# Density = 1.511191 g / cm^3
# Si number density = 15.146382 Si / 1000 Ang^3
#
#
#
# Elastic Constant Matrix: (Units=GPa)
#
#
# Indices 1 2 3 4 5 6 
#
# 1 107.9448 7.4160 -4.0219 0.0000 7.0289 0.0000
# 2 7.4160 34.4757 10.4082 0.0000 4.4422 0.0000
# 3 -4.0219 10.4082 33.5091 0.0000 6.8268 0.0000
# 4 0.0000 0.0000 0.0000 -3.6610 0.0000 -1.9082
# 5 7.0289 4.4422 6.8268 0.0000 16.6400 0.0000
# 6 0.0000 0.0000 0.0000 -1.9082 0.0000 20.7549
#
#
#
# Elastic Compliance Matrix: (Units=1/GPa)
#
#
# Indices 1 2 3 4 5 6 
#
# 1 0.009841 -0.002380 0.002878 0.000000 -0.004702 0.000000
# 2 -0.002380 0.032949 -0.009747 0.000000 -0.003792 0.000000
# 3 0.002878 -0.009747 0.035937 0.000000 -0.013357 0.000000
# 4 0.000000 0.000000 0.000000 -0.260658 0.000000 -0.023964
# 5 -0.004702 -0.003792 -0.013357 0.000000 0.068575 0.000000
# 6 0.000000 0.000000 0.000000 -0.023964 0.000000 0.045978
#
#
# Mechanical properties :
#
#
# Convention : Reuss Voigt Hill
#
# Bulk Modulus (GPa) = 16.60321 22.61491 19.60906
# Shear Modulus (GPa) = -173.58982 17.55526 -78.01728
#
# Velocity S-wave (km/s) = -10.71713 3.40816 -7.18475
# Velocity P-wave (km/s) = 11.92296 5.51822 7.47349
#
# Compressibility (1/GPa) = 0.06022932
#
# Stress axis : x y z
#
# Youngs Moduli (GPa) = 101.61619 30.34976 27.82643
#
# Poissons Ratio (x) = 0.07223 -0.08010
# Poissons Ratio (y) = 0.24184 0.27124
# Poissons Ratio (z) = -0.29249 0.29583
#
# Static dielectric constant tensor:
#      x y z
#    x 1.586770 0.000000 -0.013810 
#    y 0.000000 1.589910 0.000000 
#    z -0.013810 0.000000 1.495560 
# 
# From -- ./inp_files/298042.got.cif
#   From: 2010.05.17/outbox.cif.g08.bks.cpg/sg12_150_cif.got.tgz:298042.got - 2010.06.03 13:09:07.
