data_PCOD9168743
_publ_section_title
;
Structure prediction by ZEFSAII (Michael W. Deem and Ramdas Pophale) SiO2 
 PCOD9168743
Probable space group: C 2/M
;
_chemical_formula_sum "Si O2"
_cell_formula_units_Z 28
_cell_length_a 29.759774
_cell_length_b 5.452847
_cell_length_c 15.526517
_cell_angle_alpha 90.000000
_cell_angle_beta 144.082250
_cell_angle_gamma 90.000000
_cell_volume 1478.040298
_symmetry_space_group_name_H-M "C 2/M"
_symmetry_group_IT_number 12
_symmetry_cell_setting 'monoclinic'
loop_
_space_group_symop_operation_xyz
x,y,z
-x,y,-z
-x,-y,-z
x,-y,z
1/2+x,1/2+y,z
1/2-x,1/2+y,-z
1/2-x,1/2-y,-z
1/2+x,1/2-y,z
loop_
_atom_site_type_symbol
_atom_site_label
_atom_site_fract_x
_atom_site_fract_y
_atom_site_fract_z
Si Si1 0.433806 0.500000 0.471298
Si Si2 0.207861 0.500000 0.961491
Si Si3 0.593662 0.000000 0.140824
Si Si4 0.574492 0.500000 0.179746
Si Si5 0.108829 0.500000 0.962142
Si Si6 0.514649 0.500000 0.781463
Si Si7 0.408287 0.000000 0.366674
O O1 0.500000 0.500000 0.500000
O O2 0.473308 0.500000 0.625292
O O3 0.387611 0.749928 0.383524
O O4 0.186527 0.500000 0.028313
O O5 0.129121 0.500000 0.784911
O O6 0.250000 0.750000 0.000000
O O7 0.617903 0.750052 0.224743
O O8 0.500000 0.000000 0.000000
O O9 0.616707 0.000000 0.077105
O O10 0.543612 0.500000 0.228642
O O11 0.500000 0.500000 0.000000
O O12 0.063914 0.750249 0.867361
O O13 0.500000 0.000000 0.500000
#
# Coordination Sequence:
#
# PCOD9168743 Si02
#       7
#     4   4   4   4   4   4   4
#     4  10  19  31  48  77 105 140 190 226 273 335
#     4  12  26  42  58  85 119 158 203 241 280 346
#     4  10  16  29  44  72 109 147 174 227 290 359
#     4  10  16  28  41  73 114 146 168 231 290 358
#     4  12  20  32  53  74 112 162 186 222 299 350
#     4  12  19  29  53  80 113 154 185 227 299 351
#     4  10  20  39  58  77 111 147 190 246 284 325
#
# _framework density 18.944004
#
# number of rings (size 3 to 8) (size 9 to 14) (size 15 to 20)
#    0.000    1.143    5.714    6.000    0.000    0.000 
#    0.000    0.000    0.000    0.000    0.000    0.000 
#    0.000   22.857    0.000    0.000    0.000    0.000 
#
# Total GULP energy -78107.459484 kJ/mol
# GULP energy per Si atom -5579.104249 kJ/mol
# Density = 1.890089 g / cm^3
# Si number density = 18.944004 Si / 1000 Ang^3
#
#
#
# Elastic Constant Matrix: (Units=GPa)
#
#
# Indices 1 2 3 4 5 6 
#
# 1 156.6309 52.9428 25.7590 0.0000 -32.6548 0.0000
# 2 52.9428 218.2689 7.5810 -0.0001 -7.8395 0.0000
# 3 25.7590 7.5810 38.1623 0.0000 -11.1751 0.0000
# 4 0.0000 -0.0001 0.0000 19.0768 0.0000 -10.2039
# 5 -32.6548 -7.8395 -11.1751 0.0000 26.4707 0.0000
# 6 0.0000 0.0000 0.0000 -10.2039 0.0000 21.4727
#
#
#
# Elastic Compliance Matrix: (Units=1/GPa)
#
#
# Indices 1 2 3 4 5 6 
#
# 1 0.009618 -0.001864 -0.003205 0.000000 0.009960 0.000000
# 2 -0.001864 0.005004 0.000028 0.000000 -0.000806 0.000000
# 3 -0.003205 0.000028 0.031044 0.000000 0.009160 0.000000
# 4 0.000000 0.000000 0.000000 0.070285 0.000000 0.033400
# 5 0.009960 -0.000806 0.009160 0.000000 0.053693 0.000000
# 6 0.000000 0.000000 0.000000 0.033400 0.000000 0.062443
#
#
# Mechanical properties :
#
#
# Convention : Reuss Voigt Hill
#
# Bulk Modulus (GPa) = 28.10245 65.06974 46.58609
# Shear Modulus (GPa) = 19.68278 35.18932 27.43605
#
# Velocity S-wave (km/s) = 3.22685 4.31460 3.80974
# Velocity P-wave (km/s) = 5.36191 7.69702 6.63303
#
# Compressibility (1/GPa) = 0.03558409
#
# Stress axis : x y z
#
# Youngs Moduli (GPa) = 103.97154 199.85254 32.21220
#
# Poissons Ratio (x) = 0.37250 0.10325
# Poissons Ratio (y) = 0.19379 -0.00091
# Poissons Ratio (z) = 0.33325 -0.00564
#
# Static dielectric constant tensor:
#      x y z
#    x 1.637240 0.000000 -0.004810 
#    y 0.000000 1.779060 0.000000 
#    z -0.004810 0.000000 1.634170 
# 
# From -- ./inp_files/242495.got.cif
#   From: 2010.05.17/outbox.cif.g08.bks.cpg/sg12_122_cif.got.tgz:242495.got - 2010.06.03 13:09:07.
