data_PCOD9168232
_publ_section_title
;
Structure prediction by ZEFSAII (Michael W. Deem and Ramdas Pophale) SiO2 
 PCOD9168232
Probable space group: P 21/M
;
_chemical_formula_sum "Si O2"
_cell_formula_units_Z 24
_cell_length_a 15.000000
_cell_length_b 15.000000
_cell_length_c 9.000000
_cell_angle_alpha 90.000000
_cell_angle_beta 40.000000
_cell_angle_gamma 90.000000
_cell_volume 1301.644910
_symmetry_space_group_name_H-M "P 21/M"
_symmetry_group_IT_number 11
_symmetry_cell_setting 'monoclinic'
loop_
_space_group_symop_operation_xyz
x,y,z
-x,1/2+y,-z
-x,-y,-z
x,1/2-y,z
loop_
_atom_site_type_symbol
_atom_site_label
_atom_site_fract_x
_atom_site_fract_y
_atom_site_fract_z
Si Si1 0.820695 0.589220 0.787472
Si Si2 0.390237 0.650461 0.948530
Si Si3 0.697259 0.852631 0.643938
Si Si4 0.148175 0.995275 0.732430
Si Si5 0.870582 0.097553 0.549811
Si Si6 0.656148 0.490664 0.242785
O O1 0.737166 0.639405 0.765915
O O2 0.853020 0.493691 0.668071
O O3 0.972631 0.630836 0.622769
O O4 0.729785 0.569605 0.051311
O O5 0.414867 0.750000 0.864189
O O6 0.537174 0.617376 0.826741
O O7 0.346169 0.590483 0.868112
O O8 0.263775 0.650841 0.225865
O O9 0.710977 0.750000 0.581043
O O10 0.797344 0.914468 0.417233
O O11 0.141796 0.925445 0.606935
O O12 0.253498 0.972803 0.728173
O O13 0.000000 0.000000 0.000000
O O14 0.500000 0.500000 0.500000
#
# Coordination Sequence:
#
# PCOD9168232 Si02
#       6
#     4   4   4   4   4   4
#     4   9  19  35  56  82 108 146 190 227 275 341
#     4  10  22  39  57  83 117 153 195 241 286 338
#     4  10  22  39  58  83 116 154 193 239 289 339
#     4  11  21  38  61  87 116 151 193 237 287 349
#     4   9  19  35  57  80 109 146 189 230 272 339
#     4  11  21  36  61  88 114 153 192 234 289 343
#
# _framework density 18.438207999999999
#
# number of rings (size 3 to 8) (size 9 to 14) (size 15 to 20)
#    0.000    2.000    3.333    0.000    4.667    2.667 
#    0.000    3.333    0.000    0.000    0.000    0.000 
#    0.000    0.000    0.000    0.000    0.000    0.000 
#
# Total GULP energy -133647.322745 kJ/mol
# GULP energy per Si atom -5568.638448 kJ/mol
# Density = 1.839624 g / cm^3
# Si number density = 18.438208 Si / 1000 Ang^3
#
#
#
# Elastic Constant Matrix: (Units=GPa)
#
#
# Indices 1 2 3 4 5 6 
#
# 1 156.0344 23.2696 62.7420 0.0000 -0.4865 0.0000
# 2 23.2696 42.1224 19.4758 0.0000 -1.7479 0.0000
# 3 62.7420 19.4758 146.5401 0.0000 -2.1831 0.0000
# 4 0.0000 0.0000 0.0000 12.7816 0.0000 -0.7029
# 5 -0.4865 -1.7479 -2.1831 0.0000 35.2681 0.0000
# 6 0.0000 0.0000 0.0000 -0.7029 0.0000 -2.9817
#
#
#
# Elastic Compliance Matrix: (Units=1/GPa)
#
#
# Indices 1 2 3 4 5 6 
#
# 1 0.008097 -0.003066 -0.003063 0.000000 -0.000230 0.000000
# 2 -0.003066 0.026495 -0.002191 0.000000 0.001135 0.000000
# 3 -0.003063 -0.002191 0.008432 0.000000 0.000371 0.000000
# 4 0.000000 0.000000 0.000000 0.077236 0.000000 -0.018206
# 5 -0.000230 0.001135 0.000371 0.000000 0.028430 0.000000
# 6 0.000000 0.000000 0.000000 -0.018206 0.000000 -0.331086
#
#
# Mechanical properties :
#
#
# Convention : Reuss Voigt Hill
#
# Bulk Modulus (GPa) = 37.90361 61.74129 49.82245
# Shear Modulus (GPa) = -31.85503 24.96091 -3.44706
#
# Velocity S-wave (km/s) = -4.16103 3.68334 -1.36879
# Velocity P-wave (km/s) = 1.57601 7.18662 4.95801
#
# Compressibility (1/GPa) = 0.02638271
#
# Stress axis : x y z
#
# Youngs Moduli (GPa) = 123.50369 37.74347 118.59402
#
# Poissons Ratio (x) = 0.11574 0.36321
# Poissons Ratio (y) = 0.37872 0.25989
# Poissons Ratio (z) = 0.37825 0.08271
#
# Static dielectric constant tensor:
#      x y z
#    x 1.612730 0.000000 -0.025720 
#    y 0.000000 1.678730 0.000000 
#    z -0.025720 0.000000 1.668740 
# 
# From -- ./inp_files/13283.got.cif
#   From: 2010.05.17/outbox.ucp.g08.bks.cvg/sg11_7_cif.got.tgz:13283.got - 2010.06.11 11:38:39.
