data_PCOD9168784
_publ_section_title
;
Structure prediction by ZEFSAII (Michael W. Deem and Ramdas Pophale) SiO2 
 PCOD9168784
Probable space group: C 2/M
;
_chemical_formula_sum "Si O2"
_cell_formula_units_Z 56
_cell_length_a 21.992001
_cell_length_b 21.913211
_cell_length_c 17.534503
_cell_angle_alpha 90.000000
_cell_angle_beta 20.090793
_cell_angle_gamma 90.000000
_cell_volume 2902.699485
_symmetry_space_group_name_H-M "C 2/M"
_symmetry_group_IT_number 12
_symmetry_cell_setting 'monoclinic'
loop_
_space_group_symop_operation_xyz
x,y,z
-x,y,-z
-x,-y,-z
x,-y,z
1/2+x,1/2+y,z
1/2-x,1/2+y,-z
1/2-x,1/2-y,-z
1/2+x,1/2-y,z
loop_
_atom_site_type_symbol
_atom_site_label
_atom_site_fract_x
_atom_site_fract_y
_atom_site_fract_z
Si Si1 0.386865 0.567194 0.554342
Si Si2 0.733753 0.828853 0.300292
Si Si3 0.384456 0.169796 0.788475
Si Si4 0.418654 0.232697 0.898680
Si Si5 0.464997 0.349987 0.170624
Si Si6 0.092132 0.929507 0.153362
Si Si7 0.705884 0.307868 0.286102
O O1 0.500000 0.566988 0.500000
O O2 0.299248 0.500000 0.653113
O O3 0.508910 0.573386 0.335778
O O4 0.276656 0.629536 0.688306
O O5 0.527852 0.841314 0.554587
O O6 0.828965 0.856641 0.262233
O O7 0.749710 0.754863 0.278297
O O8 0.842468 0.851764 0.098868
O O9 0.248360 0.223516 0.926227
O O10 0.476049 0.195500 0.757298
O O11 0.269053 0.110858 0.943445
O O12 0.337995 0.190114 0.058908
O O13 0.554173 0.282055 0.771979
O O14 0.467425 0.397919 0.236384
O O15 0.122605 0.000000 0.098596
O O16 0.500000 0.302459 0.500000
#
# Coordination Sequence:
#
# PCOD9168784 Si02
#       7
#     8   8   8   8   8   8   8
#     4   9  18  31  51  80 109 140 177 214 255 317
#     4  10  20  34  53  80 108 142 179 224 274 317
#     4  10  18  31  52  79 103 135 178 223 265 315
#     4   9  18  29  49  78 109 136 169 220 274 310
#     4   9  21  37  51  76 114 143 177 221 266 329
#     4  10  21  37  55  77 108 142 178 223 270 318
#     4  10  16  28  50  77 107 138 173 219 270 310
#
# _framework density 19.292387000000002
#
# number of rings (size 3 to 8) (size 9 to 14) (size 15 to 20)
#    0.000    2.429    1.429    1.714    4.000    0.571 
#    0.000    3.571    0.000    0.000    0.000    8.000 
#    0.000    0.429    0.000    0.000    0.000    0.000 
#
# Total GULP energy -156050.392622 kJ/mol
# GULP energy per Si atom -5573.228308 kJ/mol
# Density = 1.924848 g / cm^3
# Si number density = 19.292387 Si / 1000 Ang^3
#
#
#
# Elastic Constant Matrix: (Units=GPa)
#
#
# Indices 1 2 3 4 5 6 
#
# 1 83.7980 17.3188 16.1597 -0.0022 23.3411 0.0042
# 2 17.3188 99.0326 30.3141 -0.0163 21.3533 0.0146
# 3 16.1597 30.3141 53.6652 0.0483 18.9278 0.0274
# 4 -0.0022 -0.0163 0.0483 20.7218 -0.0062 10.3798
# 5 23.3411 21.3533 18.9278 -0.0062 24.8669 -0.0284
# 6 0.0042 0.0146 0.0274 10.3798 -0.0284 11.2057
#
#
#
# Elastic Compliance Matrix: (Units=1/GPa)
#
#
# Indices 1 2 3 4 5 6 
#
# 1 0.016191 0.000460 0.000498 0.000038 -0.015972 -0.000083
# 2 0.000460 0.013230 -0.004720 0.000060 -0.008200 -0.000083
# 3 0.000498 -0.004720 0.027183 -0.000038 -0.017106 -0.000069
# 4 0.000038 0.000060 -0.000038 0.090034 -0.000131 -0.083399
# 5 -0.015972 -0.008200 -0.017106 -0.000131 0.075268 0.000371
# 6 -0.000083 -0.000083 -0.000069 -0.083399 0.000371 0.166494
#
#
# Mechanical properties :
#
#
# Convention : Reuss Voigt Hill
#
# Bulk Modulus (GPa) = 20.37448 40.45344 30.41396
# Shear Modulus (GPa) = 12.12753 22.87241 17.49997
#
# Velocity S-wave (km/s) = 2.50994 3.44694 3.01506
# Velocity P-wave (km/s) = 4.35702 6.07091 5.28392
#
# Compressibility (1/GPa) = 0.04908100
#
# Stress axis : x y z
#
# Youngs Moduli (GPa) = 61.76213 75.58547 36.78722
#
# Poissons Ratio (x) = -0.03476 -0.01832
# Poissons Ratio (y) = -0.02840 0.17362
# Poissons Ratio (z) = -0.03076 0.35674
#
# Static dielectric constant tensor:
#      x y z
#    x 1.723750 -0.000030 -0.011210 
#    y -0.000030 1.663450 0.000000 
#    z -0.011210 0.000000 1.684810 
# 
# From -- ./inp_files/290817.got.cif
#   From: 2010.05.17/outbox.cif.g08.bks.cpg/sg12_146_cif.got.tgz:290817.got - 2010.06.03 13:09:07.
