data_PCOD9168734
_publ_section_title
;
Structure prediction by ZEFSAII (Michael W. Deem and Ramdas Pophale) SiO2 
 PCOD9168734
Probable space group: C 2/M
;
_chemical_formula_sum "Si O2"
_cell_formula_units_Z 60
_cell_length_a 18.427041
_cell_length_b 15.066616
_cell_length_c 30.073429
_cell_angle_alpha 90.000000
_cell_angle_beta 20.050796
_cell_angle_gamma 90.000000
_cell_volume 2862.611109
_symmetry_space_group_name_H-M "C 2/M"
_symmetry_group_IT_number 12
_symmetry_cell_setting 'monoclinic'
loop_
_space_group_symop_operation_xyz
x,y,z
-x,y,-z
-x,-y,-z
x,-y,z
1/2+x,1/2+y,z
1/2-x,1/2+y,-z
1/2-x,1/2-y,-z
1/2+x,1/2-y,z
loop_
_atom_site_type_symbol
_atom_site_label
_atom_site_fract_x
_atom_site_fract_y
_atom_site_fract_z
Si Si1 0.621025 0.893930 0.080521
Si Si2 0.921639 0.844316 0.983077
Si Si3 0.725666 0.892716 0.347340
Si Si4 0.651220 0.901064 0.293004
Si Si5 0.738368 0.608214 0.360246
Si Si6 0.161508 0.104377 0.138879
Si Si7 0.536870 0.893407 0.267438
Si Si8 0.500000 0.193932 0.000000
O O1 0.385889 0.869823 0.232828
O O2 0.650581 0.000000 0.074391
O O3 0.782952 0.840017 0.018374
O O4 0.687279 0.884565 0.991448
O O5 0.114095 0.908499 0.862493
O O6 0.026921 0.755385 0.941152
O O7 0.757603 0.872945 0.115649
O O8 0.500000 0.880455 0.500000
O O9 0.693942 0.856333 0.315714
O O10 0.930815 0.859027 0.256537
O O11 0.763962 0.000000 0.320723
O O12 0.523167 0.858858 0.325763
O O13 0.562059 0.000000 0.353109
O O14 0.500000 0.642077 0.500000
O O15 0.729995 0.500000 0.365809
O O16 0.861168 0.637708 0.333884
O O17 0.135551 0.000000 0.161871
O O18 0.286633 0.142593 0.109212
O O19 0.521852 0.000000 0.279313
#
# Coordination Sequence:
#
# PCOD9168734 Si02
#       8
#     8   8   8   8   8   8   8   4
#     4   9  17  32  56  81 104 141 184 227 273 319
#     4  11  18  30  48  82 111 137 171 220 270 329
#     4   9  18  34  59  84 103 132 185 247 286 314
#     4  10  16  27  50  83 113 137 170 222 288 327
#     4   8  14  25  43  73 111 143 175 216 265 323
#     4  10  21  40  59  78 106 142 190 235 278 327
#     4   9  16  25  44  75 112 143 170 214 274 330
#     4  12  25  34  51  82 116 150 180 224 275 330
#
# _framework density 20.959883999999999
#
# number of rings (size 3 to 8) (size 9 to 14) (size 15 to 20)
#    0.000    2.400    2.667    2.200    0.000    1.600 
#    0.000    1.333    0.000   10.400    0.000    0.000 
#    0.000    0.000    0.000    0.000    0.000    0.133 
#
# Total GULP energy -167098.910153 kJ/mol
# GULP energy per Si atom -5569.963672 kJ/mol
# Density = 2.091218 g / cm^3
# Si number density = 20.959884 Si / 1000 Ang^3
#
#
#
# Elastic Constant Matrix: (Units=GPa)
#
#
# Indices 1 2 3 4 5 6 
#
# 1 119.6084 25.2156 50.2504 0.0116 -16.2717 -0.0002
# 2 25.2156 38.6325 2.7105 -0.0108 -1.6464 0.0007
# 3 50.2504 2.7105 89.5149 0.0134 -23.7586 -0.0072
# 4 0.0116 -0.0108 0.0134 -8.5635 -0.0024 -5.8130
# 5 -16.2717 -1.6464 -23.7586 -0.0024 16.9089 0.0073
# 6 -0.0002 0.0007 -0.0072 -5.8130 0.0073 22.8558
#
#
#
# Elastic Compliance Matrix: (Units=1/GPa)
#
#
# Indices 1 2 3 4 5 6 
#
# 1 0.013105 -0.007984 -0.006337 0.000016 0.002929 0.000002
# 2 -0.007984 0.030859 0.003677 -0.000038 0.000488 -0.000010
# 3 -0.006337 0.003677 0.020881 0.000012 0.023599 0.000002
# 4 0.000016 -0.000038 0.000012 -0.099583 0.000025 -0.025327
# 5 0.002929 0.000488 0.023599 0.000025 0.095166 -0.000017
# 6 0.000002 -0.000010 0.000002 -0.025327 -0.000017 0.037311
#
#
# Mechanical properties :
#
#
# Convention : Reuss Voigt Hill
#
# Bulk Modulus (GPa) = 22.95875 44.90098 33.92987
# Shear Modulus (GPa) = 37.44019 17.54554 27.49286
#
# Velocity S-wave (km/s) = 4.23102 2.89641 3.62565
# Velocity P-wave (km/s) = 5.90307 5.71440 5.80950
#
# Compressibility (1/GPa) = 0.04355637
#
# Stress axis : x y z
#
# Youngs Moduli (GPa) = 76.30827 32.40549 47.88986
#
# Poissons Ratio (x) = 0.25873 0.30350
# Poissons Ratio (y) = 0.60925 -0.17610
# Poissons Ratio (z) = 0.48360 -0.11916
#
# Static dielectric constant tensor:
#      x y z
#    x 1.805690 0.000000 -0.023710 
#    y 0.000000 1.841230 0.000070 
#    z -0.023710 0.000070 1.734670 
# 
# From -- ./inp_files/379727.got.cif
#   From: 2010.05.17/outbox.cif.g08.bks.cpg/sg12_190_cif.got.tgz:379727.got - 2010.06.03 13:09:07.
