data_PCOD9168892
_publ_section_title
;
Structure prediction by ZEFSAII (Michael W. Deem and Ramdas Pophale) SiO2 
 PCOD9168892
Probable space group: C 2/M
;
_chemical_formula_sum "Si O2"
_cell_formula_units_Z 56
_cell_length_a 26.233924
_cell_length_b 13.624080
_cell_length_c 28.163020
_cell_angle_alpha 90.000000
_cell_angle_beta 17.082549
_cell_angle_gamma 90.000000
_cell_volume 2956.829996
_symmetry_space_group_name_H-M "C 2/M"
_symmetry_group_IT_number 12
_symmetry_cell_setting 'monoclinic'
loop_
_space_group_symop_operation_xyz
x,y,z
-x,y,-z
-x,-y,-z
x,-y,z
1/2+x,1/2+y,z
1/2-x,1/2+y,-z
1/2-x,1/2-y,-z
1/2+x,1/2-y,z
loop_
_atom_site_type_symbol
_atom_site_label
_atom_site_fract_x
_atom_site_fract_y
_atom_site_fract_z
Si Si1 0.374280 0.613636 0.841980
Si Si2 0.481433 0.614283 0.591084
Si Si3 0.044988 0.696147 0.082943
Si Si4 0.934009 0.677557 0.349373
Si Si5 0.805102 0.893221 0.016513
Si Si6 0.290980 0.115395 0.236932
Si Si7 0.239185 0.801664 0.431906
O O1 0.436986 0.500000 0.779260
O O2 0.490313 0.711222 0.728563
O O3 0.327717 0.623785 0.939603
O O4 0.201979 0.629272 0.963027
O O5 0.450034 0.500000 0.627600
O O6 0.636269 0.620841 0.414148
O O7 0.305128 0.655125 0.724674
O O8 0.562899 0.658630 0.565698
O O9 0.959371 0.665534 0.109421
O O10 0.888478 0.691866 0.260190
O O11 0.111561 0.806931 0.027349
O O12 0.100074 0.611982 0.208530
O O13 0.810498 0.693838 0.504386
O O14 0.822244 0.645488 0.403655
O O15 0.876867 0.000000 0.963769
O O16 0.329565 0.000000 0.196051
#
# Coordination Sequence:
#
# PCOD9168892 Si02
#       7
#     8   8   8   8   8   8   8
#     4  10  18  30  46  65  91 123 156 190 228 273
#     4   8  15  26  41  68 100 123 148 181 226 277
#     4  10  16  30  49  70  91 120 155 194 230 274
#     4  10  19  32  43  67  98 125 153 186 227 284
#     4  10  19  32  47  64  88 122 157 195 230 269
#     4   8  14  25  44  71  97 120 148 185 225 272
#     4  10  18  28  46  66  96 125 150 186 229 274
#
# _framework density 18.939202000000002
#
# number of rings (size 3 to 8) (size 9 to 14) (size 15 to 20)
#    0.000    2.571    2.857    2.143    0.000    1.714 
#    0.000    2.857    0.000    3.429    0.000   20.000 
#    0.000    0.000    0.000    0.000    0.000    0.000 
#
# Total GULP energy -155927.266008 kJ/mol
# GULP energy per Si atom -5568.830929 kJ/mol
# Density = 1.889610 g / cm^3
# Si number density = 18.939202 Si / 1000 Ang^3
#
#
#
# Elastic Constant Matrix: (Units=GPa)
#
#
# Indices 1 2 3 4 5 6 
#
# 1 105.4234 27.9257 29.2297 0.0484 -51.1475 -0.1776
# 2 27.9257 76.6475 5.4356 0.3175 -24.1905 -1.2460
# 3 29.2297 5.4356 49.0204 0.2549 -20.1644 -0.9607
# 4 0.0484 0.3175 0.2549 82.0466 -0.0774 -261.7071
# 5 -51.1475 -24.1905 -20.1644 -0.0774 38.3748 0.2653
# 6 -0.1776 -1.2460 -0.9607 -261.7071 0.2653 947.0829
#
#
#
# Elastic Compliance Matrix: (Units=1/GPa)
#
#
# Indices 1 2 3 4 5 6 
#
# 1 0.027131 0.001750 -0.001331 0.000021 0.036565 0.000001
# 2 0.001750 0.016774 0.003069 0.000056 0.014519 0.000037
# 3 -0.001331 0.003069 0.026688 0.000043 0.014185 0.000039
# 4 0.000021 0.000056 0.000043 0.102783 0.000096 0.028402
# 5 0.036565 0.014519 0.014185 0.000096 0.091400 0.000041
# 6 0.000001 0.000037 0.000039 0.028402 0.000041 0.008904
#
#
# Mechanical properties :
#
#
# Convention : Reuss Voigt Hill
#
# Bulk Modulus (GPa) = 12.89155 39.58593 26.23874
# Shear Modulus (GPa) = 17.09043 224.73421 120.91232
#
# Velocity S-wave (km/s) = 3.00723 10.90497 7.99881
# Velocity P-wave (km/s) = 4.34505 13.39794 9.95953
#
# Compressibility (1/GPa) = 0.07757019
#
# Stress axis : x y z
#
# Youngs Moduli (GPa) = 36.85803 59.61532 37.46983
#
# Poissons Ratio (x) = -0.10431 0.04986
# Poissons Ratio (y) = -0.06449 -0.11501
# Poissons Ratio (z) = 0.04905 -0.18298
#
# Static dielectric constant tensor:
#      x y z
#    x 1.689520 -0.000010 0.015170 
#    y -0.000010 1.655010 0.000010 
#    z 0.015170 0.000010 1.737610 
# 
# From -- ./inp_files/368072.got.cif
#   From: 2010.05.17/outbox.cif.g08.bks.cpg/sg12_185_cif.got.tgz:368072.got - 2010.06.03 13:09:07.
