data_PCOD9169816
_publ_section_title
;
Structure prediction by ZEFSAII (Michael W. Deem and Ramdas Pophale) SiO2 
 PCOD9169816
Probable space group: C 2/M
;
_chemical_formula_sum "Si O2"
_cell_formula_units_Z 56
_cell_length_a 22.482112
_cell_length_b 18.843273
_cell_length_c 9.375980
_cell_angle_alpha 90.000000
_cell_angle_beta 127.464113
_cell_angle_gamma 90.000000
_cell_volume 3152.719741
_symmetry_space_group_name_H-M "C 2/M"
_symmetry_group_IT_number 12
_symmetry_cell_setting 'monoclinic'
loop_
_space_group_symop_operation_xyz
x,y,z
-x,y,-z
-x,-y,-z
x,-y,z
1/2+x,1/2+y,z
1/2-x,1/2+y,-z
1/2-x,1/2-y,-z
1/2+x,1/2-y,z
loop_
_atom_site_type_symbol
_atom_site_label
_atom_site_fract_x
_atom_site_fract_y
_atom_site_fract_z
Si Si1 0.346726 0.080168 0.622360
Si Si2 0.219149 0.918712 0.218971
Si Si3 0.199370 0.288443 0.807381
Si Si4 0.432000 0.922100 0.014705
Si Si5 0.913319 0.180119 0.902588
Si Si6 0.388770 0.233672 0.579920
Si Si7 0.057104 0.717057 0.792576
O O1 0.264728 0.081354 0.434779
O O2 0.358610 0.088153 0.808769
O O3 0.384531 0.149418 0.608980
O O4 0.377065 0.000000 0.632763
O O5 0.263420 0.864090 0.179414
O O6 0.138378 0.885881 0.133219
O O7 0.217480 0.000000 0.164491
O O8 0.180268 0.250981 0.627659
O O9 0.116620 0.289925 0.754202
O O10 0.250000 0.250000 0.000000
O O11 0.429492 0.000000 0.076311
O O12 0.500000 0.919507 0.000000
O O13 0.445275 0.860892 0.144019
O O14 0.884582 0.222183 0.720533
O O15 0.911818 0.232926 0.035431
O O16 0.000000 0.161766 0.000000
O O17 0.472843 0.244272 0.640873
#
# Coordination Sequence:
#
# PCOD9169816 Si02
#       7
#     8   8   8   8   8   8   8
#     4   9  17  30  50  78 112 149 180 220 276 319
#     4  10  22  39  56  79 113 147 186 234 280 327
#     4  11  23  37  55  80 114 152 183 219 279 339
#     4  10  17  28  49  78 115 149 182 224 264 312
#     4  10  20  36  61  86 105 137 189 240 283 326
#     4  10  20  34  55  84 112 145 184 235 272 324
#     4  11  19  34  53  85 115 143 187 222 270 338
#
# _framework density 17.762440999999999
#
# number of rings (size 3 to 8) (size 9 to 14) (size 15 to 20)
#    0.000    1.857    4.286    0.857    0.000    4.286 
#    0.000    0.000    0.000    5.143    0.000    2.000 
#    0.000    0.000    0.000    0.000    0.000    0.000 
#
# Total GULP energy -155884.082421 kJ/mol
# GULP energy per Si atom -5567.288658 kJ/mol
# Density = 1.772201 g / cm^3
# Si number density = 17.762441 Si / 1000 Ang^3
#
#
#
# Elastic Constant Matrix: (Units=GPa)
#
#
# Indices 1 2 3 4 5 6 
#
# 1 59.4437 25.5375 11.3161 0.0000 -2.0332 0.0000
# 2 25.5375 71.2394 43.0594 0.0000 7.0337 0.0000
# 3 11.3161 43.0594 110.7117 0.0000 7.5617 0.0000
# 4 0.0000 0.0000 0.0000 22.5180 0.0000 2.2828
# 5 -2.0332 7.0337 7.5617 0.0000 12.8660 0.0000
# 6 0.0000 0.0000 0.0000 2.2828 0.0000 20.1339
#
#
#
# Elastic Compliance Matrix: (Units=1/GPa)
#
#
# Indices 1 2 3 4 5 6 
#
# 1 0.020625 -0.008565 0.000709 0.000000 0.007525 0.000000
# 2 -0.008565 0.022377 -0.007188 0.000000 -0.009362 0.000000
# 3 0.000709 -0.007188 0.011960 0.000000 -0.002987 0.000000
# 4 0.000000 0.000000 0.000000 0.044925 0.000000 -0.005094
# 5 0.007525 -0.009362 -0.002987 0.000000 0.085787 0.000000
# 6 0.000000 0.000000 0.000000 -0.005094 0.000000 0.050245
#
#
# Mechanical properties :
#
#
# Convention : Reuss Voigt Hill
#
# Bulk Modulus (GPa) = 40.20421 44.58008 42.39215
# Shear Modulus (GPa) = 18.22841 21.86905 20.04873
#
# Velocity S-wave (km/s) = 3.20696 3.51265 3.36328
# Velocity P-wave (km/s) = 6.03294 6.45012 6.24501
#
# Compressibility (1/GPa) = 0.02487302
#
# Stress axis : x y z
#
# Youngs Moduli (GPa) = 48.48582 44.68966 83.61412
#
# Poissons Ratio (x) = 0.38277 -0.05929
# Poissons Ratio (y) = 0.41528 0.60103
# Poissons Ratio (z) = -0.03438 0.32123
#
# Static dielectric constant tensor:
#      x y z
#    x 1.624420 0.000000 0.022760 
#    y 0.000000 1.598670 0.000000 
#    z 0.022760 0.000000 1.657760 
# 
# From -- ./inp_files/88097.got.cif
#   From: 2010.05.17/outbox.cif.g08.bks.cpg/sg12_45_cif.got.tgz:88097.got - 2010.06.03 13:09:07.
