data_PCOD9169643
_publ_section_title
;
Structure prediction by ZEFSAII (Michael W. Deem and Ramdas Pophale) SiO2 
 PCOD9169643
Probable space group: C 2/M
;
_chemical_formula_sum "Si O2"
_cell_formula_units_Z 48
_cell_length_a 18.565518
_cell_length_b 13.645189
_cell_length_c 20.709415
_cell_angle_alpha 90.000000
_cell_angle_beta 158.358451
_cell_angle_gamma 90.000000
_cell_volume 1934.834568
_symmetry_space_group_name_H-M "C 2/M"
_symmetry_group_IT_number 12
_symmetry_cell_setting 'monoclinic'
loop_
_space_group_symop_operation_xyz
x,y,z
-x,y,-z
-x,-y,-z
x,-y,z
1/2+x,1/2+y,z
1/2-x,1/2+y,-z
1/2-x,1/2-y,-z
1/2+x,1/2-y,z
loop_
_atom_site_type_symbol
_atom_site_label
_atom_site_fract_x
_atom_site_fract_y
_atom_site_fract_z
Si Si1 0.854764 0.770143 0.327218
Si Si2 0.113594 0.114475 0.763968
Si Si3 0.564195 0.610386 0.127300
Si Si4 0.480386 0.312809 0.177860
Si Si5 0.588285 0.892935 0.443919
Si Si6 0.350601 0.891422 0.654359
O O1 0.773562 0.840946 0.203710
O O2 0.710154 0.702417 0.247836
O O3 0.000000 0.820364 0.500000
O O4 0.972209 0.689582 0.383794
O O5 0.131914 0.168677 0.848471
O O6 0.883570 0.122741 0.550385
O O7 0.155159 0.000000 0.808229
O O8 0.636526 0.500000 0.201144
O O9 0.403798 0.640142 0.047532
O O10 0.500000 0.607900 0.000000
O O11 0.681413 0.374725 0.354434
O O12 0.548973 0.200768 0.228906
O O13 0.565992 0.889371 0.348685
O O14 0.526702 0.000000 0.415788
O O15 0.383023 0.000000 0.709541
#
# Coordination Sequence:
#
# PCOD9169643 Si02
#       6
#     8   8   8   8   8   8
#     4  12  21  34  56  87 117 143 182 238 279 325
#     4  10  19  32  54  84 115 150 188 228 277 332
#     4  11  25  41  57  81 114 150 184 228 289 339
#     4  11  17  35  57  80 113 150 187 226 277 334
#     4  10  17  27  50  84 114 140 177 229 276 322
#     4   9  16  28  51  85 119 143 177 229 283 328
#
# _framework density 24.808322
#
# number of rings (size 3 to 8) (size 9 to 14) (size 15 to 20)
#    0.000    1.500    5.000    4.000    0.000    1.000 
#    0.000    1.667    0.000    2.000    0.000    0.000 
#    0.000    0.000    0.000    0.000    0.000    0.000 
#
# Total GULP energy -134144.627200 kJ/mol
# GULP energy per Si atom -5589.359467 kJ/mol
# Density = 2.475186 g / cm^3
# Si number density = 24.808322 Si / 1000 Ang^3
#
#
#
# Elastic Constant Matrix: (Units=GPa)
#
#
# Indices 1 2 3 4 5 6 
#
# 1 111.7669 52.0596 22.4603 -0.0103 -31.7913 -0.0040
# 2 52.0596 147.2452 16.2859 -0.0167 -20.8179 -0.0068
# 3 22.4603 16.2859 41.5238 -0.0241 -7.3005 -0.0125
# 4 -0.0103 -0.0167 -0.0241 7.6727 -0.0113 -12.4851
# 5 -31.7913 -20.8179 -7.3005 -0.0113 36.9871 -0.0061
# 6 -0.0040 -0.0068 -0.0125 -12.4851 -0.0061 29.8158
#
#
#
# Elastic Compliance Matrix: (Units=1/GPa)
#
#
# Indices 1 2 3 4 5 6 
#
# 1 0.014002 -0.003107 -0.004710 0.000041 0.009357 0.000018
# 2 -0.003107 0.008275 -0.001259 0.000046 0.001739 0.000020
# 3 -0.004710 -0.001259 0.027233 0.000297 0.000618 0.000135
# 4 0.000041 0.000046 0.000297 0.409059 0.000273 0.171290
# 5 0.009357 0.001739 0.000618 0.000273 0.036180 0.000124
# 6 0.000018 0.000020 0.000135 0.171290 0.000124 0.105266
#
#
# Mechanical properties :
#
#
# Convention : Reuss Voigt Hill
#
# Bulk Modulus (GPa) = 31.89000 53.57193 42.73097
# Shear Modulus (GPa) = 7.95393 28.87714 18.41553
#
# Velocity S-wave (km/s) = 1.79252 3.41546 2.72750
# Velocity P-wave (km/s) = 4.14326 6.09877 5.21352
#
# Compressibility (1/GPa) = 0.03135779
#
# Stress axis : x y z
#
# Youngs Moduli (GPa) = 71.41634 120.84742 36.71994
#
# Poissons Ratio (x) = 0.37544 0.17296
# Poissons Ratio (y) = 0.22187 0.04624
# Poissons Ratio (z) = 0.33639 0.15219
#
# Static dielectric constant tensor:
#      x y z
#    x 2.012140 0.000000 -0.020780 
#    y 0.000000 1.944780 0.000000 
#    z -0.020780 0.000000 2.075500 
# 
# From -- ./inp_files/104957.got.cif
#   From: 2010.05.17/outbox.cif.g08.bks.cpg/sg12_53_cif.got.tgz:104957.got - 2010.06.03 13:09:07.
