data_PCOD9169053
_publ_section_title
;
Structure prediction by ZEFSAII (Michael W. Deem and Ramdas Pophale) SiO2 
 PCOD9169053
Probable space group: C 2/M
;
_chemical_formula_sum "Si O2"
_cell_formula_units_Z 38
_cell_length_a 12.943438
_cell_length_b 13.884396
_cell_length_c 17.906440
_cell_angle_alpha 90.000000
_cell_angle_beta 36.300359
_cell_angle_gamma 90.000000
_cell_volume 1905.114008
_symmetry_space_group_name_H-M "C 2/M"
_symmetry_group_IT_number 12
_symmetry_cell_setting 'monoclinic'
loop_
_space_group_symop_operation_xyz
x,y,z
-x,y,-z
-x,-y,-z
x,-y,z
1/2+x,1/2+y,z
1/2-x,1/2+y,-z
1/2-x,1/2-y,-z
1/2+x,1/2-y,z
loop_
_atom_site_type_symbol
_atom_site_label
_atom_site_fract_x
_atom_site_fract_y
_atom_site_fract_z
Si Si1 0.000000 0.830963 0.000000
Si Si2 0.272052 0.334742 0.830967
Si Si3 0.366225 0.614526 0.459814
Si Si4 0.990791 0.889985 0.841260
Si Si5 0.500000 0.000000 0.000000
Si Si6 0.687302 0.201377 0.422151
O O1 0.830153 0.764919 0.114281
O O2 0.039507 0.886870 0.053089
O O3 0.445714 0.348601 0.680545
O O4 0.333149 0.352896 0.881289
O O5 0.134055 0.416451 0.892031
O O6 0.368890 0.500000 0.472171
O O7 0.316078 0.684812 0.556876
O O8 0.232234 0.642912 0.471629
O O9 0.157616 0.825937 0.723639
O O10 0.024126 0.000000 0.797503
O O11 0.500000 0.173422 0.500000
#
# Coordination Sequence:
#
# PCOD9169053 Si02
#       6
#     4   8   8   8   2   8
#     4  11  23  35  61  86 118 158 198 254 296 354
#     4  10  19  36  60  88 119 154 195 243 297 356
#     4  10  20  37  61  87 121 152 197 248 289 348
#     4  11  22  40  59  84 122 159 202 247 299 350
#     4  10  16  32  62  90 110 160 194 222 296 368
#     4  10  21  37  59  86 117 160 197 239 297 356
#
# _framework density 19.946313
#
# number of rings (size 3 to 8) (size 9 to 14) (size 15 to 20)
#    0.000    1.684    2.105    4.105    0.000    2.105 
#    0.000    0.000    2.316    7.579    0.000    0.000 
#    0.000    0.000    0.000    0.000    0.000    0.000 
#
# Total GULP energy -105805.750304 kJ/mol
# GULP energy per Si atom -5568.723700 kJ/mol
# Density = 1.990091 g / cm^3
# Si number density = 19.946313 Si / 1000 Ang^3
#
#
#
# Elastic Constant Matrix: (Units=GPa)
#
#
# Indices 1 2 3 4 5 6 
#
# 1 45.4108 24.4039 21.1462 0.0004 2.2698 0.0000
# 2 24.4039 101.6902 32.8703 -0.0004 -10.4065 0.0002
# 3 21.1462 32.8703 35.8476 -0.0008 -10.1719 0.0005
# 4 0.0004 -0.0004 -0.0008 -182.5350 0.0001 -30.5169
# 5 2.2698 -10.4065 -10.1719 0.0001 31.9737 -0.0001
# 6 0.0000 0.0002 0.0005 -30.5169 -0.0001 34.4116
#
#
#
# Elastic Compliance Matrix: (Units=1/GPa)
#
#
# Indices 1 2 3 4 5 6 
#
# 1 0.033124 -0.002465 -0.019978 0.000000 -0.009509 0.000000
# 2 -0.002465 0.014167 -0.011189 0.000000 0.001227 0.000000
# 3 -0.019978 -0.011189 0.054202 0.000000 0.015020 -0.000001
# 4 0.000000 0.000000 0.000000 -0.004771 0.000000 -0.004231
# 5 -0.009509 0.001227 0.015020 0.000000 0.037128 0.000000
# 6 0.000000 0.000000 -0.000001 -0.004231 0.000000 0.025308
#
#
# Mechanical properties :
#
#
# Convention : Reuss Voigt Hill
#
# Bulk Modulus (GPa) = 29.21343 37.75438 33.48390
# Shear Modulus (GPa) = 21.02322 -16.26141 2.38091
#
# Velocity S-wave (km/s) = 3.25004 -2.85837 1.09373
# Velocity P-wave (km/s) = 5.36298 2.84172 4.29167
#
# Compressibility (1/GPa) = 0.03423084
#
# Stress axis : x y z
#
# Youngs Moduli (GPa) = 30.18954 70.58413 18.44939
#
# Poissons Ratio (x) = 0.17397 0.36858
# Poissons Ratio (y) = 0.07441 0.20643
# Poissons Ratio (z) = 0.60312 0.78976
#
# Static dielectric constant tensor:
#      x y z
#    x 1.766610 0.000000 0.030310 
#    y 0.000000 1.666720 0.000000 
#    z 0.030310 0.000000 1.714670 
# 
# From -- ./inp_files/262703.got.cif
#   From: 2010.05.17/outbox.cif.g08.bks.cpg/sg12_132_cif.got.tgz:262703.got - 2010.06.03 13:09:07.
