data_PCOD9169724
_publ_section_title
;
Structure prediction by ZEFSAII (Michael W. Deem and Ramdas Pophale) SiO2 
 PCOD9169724
Probable space group: C 2/M
;
_chemical_formula_sum "Si O2"
_cell_formula_units_Z 56
_cell_length_a 25.681915
_cell_length_b 7.590739
_cell_length_c 17.356624
_cell_angle_alpha 90.000000
_cell_angle_beta 119.585632
_cell_angle_gamma 90.000000
_cell_volume 2942.426494
_symmetry_space_group_name_H-M "C 2/M"
_symmetry_group_IT_number 12
_symmetry_cell_setting 'monoclinic'
loop_
_space_group_symop_operation_xyz
x,y,z
-x,y,-z
-x,-y,-z
x,-y,z
1/2+x,1/2+y,z
1/2-x,1/2+y,-z
1/2-x,1/2-y,-z
1/2+x,1/2-y,z
loop_
_atom_site_type_symbol
_atom_site_label
_atom_site_fract_x
_atom_site_fract_y
_atom_site_fract_z
Si Si1 0.693216 0.709297 0.775030
Si Si2 0.516373 0.796566 0.393673
Si Si3 0.176044 0.715947 0.087277
Si Si4 0.557928 0.784815 0.092101
Si Si5 0.596102 0.298109 0.588861
Si Si6 0.009191 0.714816 0.217168
Si Si7 0.629305 0.212438 0.889051
O O1 0.697603 0.500000 0.764556
O O2 0.760387 0.778239 0.834010
O O3 0.652074 0.781350 0.675876
O O4 0.659044 0.732261 0.830998
O O5 0.459998 0.704276 0.392803
O O6 0.571417 0.787639 0.493009
O O7 0.529103 0.730152 0.317164
O O8 0.497495 0.000000 0.373096
O O9 0.176923 0.500000 0.087613
O O10 0.119294 0.771586 0.096770
O O11 0.164984 0.772017 0.990897
O O12 0.547785 0.725989 0.172431
O O13 0.558479 0.000000 0.091684
O O14 0.500000 0.731525 0.000000
O O15 0.609165 0.500000 0.578713
O O16 0.010459 0.500000 0.215908
O O17 0.939909 0.769127 0.156578
O O18 0.628847 0.000000 0.889653
#
# Coordination Sequence:
#
# PCOD9169724 Si02
#       7
#     8   8   8   8   8   8   8
#     4  10  20  31  43  66  97 126 153 183 221 273
#     4  10  18  29  46  68  92 113 145 191 233 268
#     4   9  17  28  44  66  94 125 155 185 222 266
#     4   9  14  24  43  67  93 119 147 187 229 261
#     4  10  19  30  44  63  91 122 153 182 220 274
#     4   9  16  25  42  70  96 114 142 187 233 267
#     4  10  17  28  46  69  95 122 151 184 223 270
#
# _framework density 19.031911000000001
#
# number of rings (size 3 to 8) (size 9 to 14) (size 15 to 20)
#    0.000    2.429    2.857    2.143    0.000    0.571 
#    0.000    0.000    0.000    0.857    0.000    7.000 
#    0.000    0.000    0.000    0.000    0.000    1.143 
#
# Total GULP energy -156228.765700 kJ/mol
# GULP energy per Si atom -5579.598775 kJ/mol
# Density = 1.898859 g / cm^3
# Si number density = 19.031911 Si / 1000 Ang^3
#
#
#
# Elastic Constant Matrix: (Units=GPa)
#
#
# Indices 1 2 3 4 5 6 
#
# 1 68.8963 -7.7867 50.2527 0.0000 12.4442 0.0000
# 2 -7.7867 40.8404 -1.6027 0.0000 1.3392 0.0000
# 3 50.2527 -1.6027 163.0292 0.0000 8.6201 0.0000
# 4 0.0000 0.0000 0.0000 58.8165 0.0000 -5.9985
# 5 12.4442 1.3392 8.6201 0.0000 30.2370 0.0000
# 6 0.0000 0.0000 0.0000 -5.9985 0.0000 6.8045
#
#
#
# Elastic Compliance Matrix: (Units=1/GPa)
#
#
# Indices 1 2 3 4 5 6 
#
# 1 0.020529 0.003909 -0.005923 0.000000 -0.006933 0.000000
# 2 0.003909 0.025280 -0.000825 0.000000 -0.002493 0.000000
# 3 -0.005923 -0.000825 0.007940 0.000000 0.000210 0.000000
# 4 0.000000 0.000000 0.000000 0.018682 0.000000 0.016469
# 5 -0.006933 -0.002493 0.000210 0.000000 0.035976 0.000000
# 6 0.000000 0.000000 0.000000 0.016469 0.000000 0.161480
#
#
# Mechanical properties :
#
#
# Convention : Reuss Voigt Hill
#
# Bulk Modulus (GPa) = 20.80194 39.38808 30.09501
# Shear Modulus (GPa) = 17.14750 34.63176 25.88963
#
# Velocity S-wave (km/s) = 3.00490 4.27038 3.69226
# Velocity P-wave (km/s) = 4.79510 6.71235 5.83304
#
# Compressibility (1/GPa) = 0.04807244
#
# Stress axis : x y z
#
# Youngs Moduli (GPa) = 48.71209 39.55661 125.93949
#
# Poissons Ratio (x) = -0.15463 0.74592
# Poissons Ratio (y) = -0.19041 0.10384
# Poissons Ratio (z) = 0.28851 0.03262
#
# Static dielectric constant tensor:
#      x y z
#    x 1.623840 0.000000 0.008000 
#    y 0.000000 1.712070 0.000000 
#    z 0.008000 0.000000 1.680780 
# 
# From -- ./inp_files/291678.got.cif
#   From: 2010.05.17/outbox.cif.g08.bks.cpg/sg12_146_cif.got.tgz:291678.got - 2010.06.03 13:09:07.
