data_PCOD9169420
_publ_section_title
;
Structure prediction by ZEFSAII (Michael W. Deem and Ramdas Pophale) SiO2 
 PCOD9169420
Probable space group: C 2/M
;
_chemical_formula_sum "Si O2"
_cell_formula_units_Z 64
_cell_length_a 28.733811
_cell_length_b 15.705104
_cell_length_c 7.306825
_cell_angle_alpha 90.000000
_cell_angle_beta 69.181982
_cell_angle_gamma 90.000000
_cell_volume 3082.062787
_symmetry_space_group_name_H-M "C 2/M"
_symmetry_group_IT_number 12
_symmetry_cell_setting 'monoclinic'
loop_
_space_group_symop_operation_xyz
x,y,z
-x,y,-z
-x,-y,-z
x,-y,z
1/2+x,1/2+y,z
1/2-x,1/2+y,-z
1/2-x,1/2-y,-z
1/2+x,1/2-y,z
loop_
_atom_site_type_symbol
_atom_site_label
_atom_site_fract_x
_atom_site_fract_y
_atom_site_fract_z
Si Si1 0.558192 0.909700 0.453984
Si Si2 0.324153 0.595029 0.180683
Si Si3 0.058694 0.597242 0.885832
Si Si4 0.289954 0.904641 0.737888
Si Si5 0.769826 0.404816 0.206621
Si Si6 0.367290 0.228406 0.707115
Si Si7 0.344287 0.406782 0.713323
Si Si8 0.648845 0.776895 0.850182
O O1 0.500000 0.908344 0.500000
O O2 0.565735 0.907468 0.659142
O O3 0.584037 0.827857 0.337966
O O4 0.578541 0.000000 0.353341
O O5 0.335567 0.500000 0.239795
O O6 0.264445 0.607859 0.271744
O O7 0.349509 0.680112 0.226076
O O8 0.337032 0.589600 0.944785
O O9 0.066903 0.500000 0.947104
O O10 0.098971 0.667268 0.891983
O O11 0.000000 0.617885 0.000000
O O12 0.329096 0.829908 0.645794
O O13 0.307801 0.000000 0.664653
O O14 0.281933 0.904381 0.970780
O O15 0.781725 0.500000 0.256945
O O16 0.710584 0.392422 0.295739
O O17 0.803411 0.335528 0.260559
O O18 0.375541 0.323077 0.624384
O O19 0.345141 0.237198 0.940186
O O20 0.362984 0.500000 0.632142
#
# Coordination Sequence:
#
# PCOD9169420 Si02
#       8
#     8   8   8   8   8   8   8   8
#     4  10  21  36  52  70  93 118 144 180 229 283
#     4   8  14  24  39  64  98 131 161 192 223 257
#     4  10  21  36  52  70  93 118 144 180 229 283
#     4   8  13  21  36  63  97 127 156 190 224 261
#     4   8  13  21  36  63  97 127 156 190 224 261
#     4  10  17  26  46  72  95 122 157 194 229 266
#     4   8  14  24  39  64  98 131 161 192 223 257
#     4  10  17  26  46  72  95 122 157 194 229 266
#
# _framework density 20.765315000000001
#
# number of rings (size 3 to 8) (size 9 to 14) (size 15 to 20)
#    0.000    3.000    0.000    3.750    0.000    5.500 
#    0.000    0.000    0.000    4.500    0.000    3.500 
#    0.000    0.000    0.000    0.000    0.000    0.000 
#
# Total GULP energy -178466.358288 kJ/mol
# GULP energy per Si atom -5577.073696 kJ/mol
# Density = 2.071805 g / cm^3
# Si number density = 20.765315 Si / 1000 Ang^3
#
#
#
# Elastic Constant Matrix: (Units=GPa)
#
#
# Indices 1 2 3 4 5 6 
#
# 1 55.7984 77.1795 -5.3237 0.0000 1.4338 0.0000
# 2 77.1795 227.6056 0.2868 0.0000 -7.1515 0.0000
# 3 -5.3237 0.2868 41.6612 0.0000 16.4068 0.0000
# 4 0.0000 0.0000 0.0000 3.1826 0.0000 -6.2811
# 5 1.4338 -7.1515 16.4068 0.0000 24.1075 0.0000
# 6 0.0000 0.0000 0.0000 -6.2811 0.0000 17.2874
#
#
#
# Elastic Compliance Matrix: (Units=1/GPa)
#
#
# Indices 1 2 3 4 5 6 
#
# 1 0.037232 -0.013040 0.009895 0.000000 -0.012817 0.000000
# 2 -0.013040 0.009019 -0.004218 0.000000 0.006322 0.000000
# 3 0.009895 -0.004218 0.035549 0.000000 -0.026033 0.000000
# 4 0.000000 0.000000 0.000000 1.110612 0.000000 0.403526
# 5 -0.012817 0.006322 -0.026033 0.000000 0.061836 0.000000
# 6 0.000000 0.000000 0.000000 0.403526 0.000000 0.204461
#
#
# Mechanical properties :
#
#
# Convention : Reuss Voigt Hill
#
# Bulk Modulus (GPa) = 14.90899 52.15006 33.52952
# Shear Modulus (GPa) = 3.34270 25.77700 14.55985
#
# Velocity S-wave (km/s) = 1.27014 3.52710 2.65082
# Velocity P-wave (km/s) = 3.05718 6.46187 5.05481
#
# Compressibility (1/GPa) = 0.06707364
#
# Stress axis : x y z
#
# Youngs Moduli (GPa) = 26.85835 110.87167 28.13031
#
# Poissons Ratio (x) = 1.44581 -0.27835
# Poissons Ratio (y) = 0.35024 0.11866
# Poissons Ratio (z) = -0.26576 0.46767
#
# Static dielectric constant tensor:
#      x y z
#    x 1.706830 0.000000 0.023270 
#    y 0.000000 1.809930 0.000000 
#    z 0.023270 0.000000 1.826680 
# 
# From -- ./inp_files/111155.got.cif
#   From: 2010.05.17/outbox.cif.g08.bks.cpg/sg12_56_cif.got.tgz:111155.got - 2010.06.03 13:09:07.
