data_PCOD9169895
_publ_section_title
;
Structure prediction by ZEFSAII (Michael W. Deem and Ramdas Pophale) SiO2 
 PCOD9169895
Probable space group: C 2/M
;
_chemical_formula_sum "Si O2"
_cell_formula_units_Z 48
_cell_length_a 25.104500
_cell_length_b 8.621388
_cell_length_c 22.171798
_cell_angle_alpha 90.000000
_cell_angle_beta 38.298648
_cell_angle_gamma 90.000000
_cell_volume 2974.086411
_symmetry_space_group_name_H-M "C 2/M"
_symmetry_group_IT_number 12
_symmetry_cell_setting 'monoclinic'
loop_
_space_group_symop_operation_xyz
x,y,z
-x,y,-z
-x,-y,-z
x,-y,z
1/2+x,1/2+y,z
1/2-x,1/2+y,-z
1/2-x,1/2-y,-z
1/2+x,1/2-y,z
loop_
_atom_site_type_symbol
_atom_site_label
_atom_site_fract_x
_atom_site_fract_y
_atom_site_fract_z
Si Si1 0.714882 0.185066 0.967281
Si Si2 0.618833 0.184774 0.225943
Si Si3 0.451785 0.313500 0.838555
Si Si4 0.676662 0.313483 0.485664
Si Si5 0.856422 0.813381 0.346570
Si Si6 0.009438 0.812385 0.561539
O O1 0.783407 0.252300 0.859264
O O2 0.718111 0.000000 0.964633
O O3 0.750000 0.250000 0.000000
O O4 0.617000 0.243354 0.053776
O O5 0.574897 0.257076 0.204885
O O6 0.563617 0.237665 0.332028
O O7 0.619788 0.000000 0.218788
O O8 0.445557 0.500000 0.844951
O O9 0.550575 0.266290 0.760941
O O10 0.680160 0.500000 0.482525
O O11 0.771852 0.250295 0.389327
O O12 0.650394 0.263345 0.576988
O O13 0.602108 0.265209 0.506110
O O14 0.853318 0.000000 0.348663
O O15 0.000000 0.771383 0.500000
O O16 0.002878 0.000000 0.572933
#
# Coordination Sequence:
#
# PCOD9169895 Si02
#       6
#     8   8   8   8   8   8
#     4  10  18  28  43  65  93 123 156 189 232 282
#     4  11  20  30  45  66  94 125 157 194 236 276
#     4  10  17  29  46  67  96 125 157 189 231 283
#     4   9  17  30  45  66  92 121 157 192 230 276
#     4   9  17  28  45  67  94 125 153 187 232 278
#     4  10  20  35  52  68  91 126 163 198 235 274
#
# _framework density 16.139410000000002
#
# number of rings (size 3 to 8) (size 9 to 14) (size 15 to 20)
#    0.000    2.167    1.667    5.500    0.000    2.333 
#    0.000    0.000    0.000    0.000    0.000    1.167 
#    0.000    9.333    0.000    0.000    0.000    0.000 
#
# Total GULP energy -133794.168547 kJ/mol
# GULP energy per Si atom -5574.757023 kJ/mol
# Density = 1.610268 g / cm^3
# Si number density = 16.139410 Si / 1000 Ang^3
#
#
#
# Elastic Constant Matrix: (Units=GPa)
#
#
# Indices 1 2 3 4 5 6 
#
# 1 79.4757 26.4340 66.8281 -0.0004 -19.8074 0.0001
# 2 26.4340 62.1462 42.9663 -0.0006 -9.4104 0.0003
# 3 66.8281 42.9663 141.6231 -0.0007 -38.8602 0.0004
# 4 -0.0004 -0.0006 -0.0007 28.5648 0.0004 -6.6906
# 5 -19.8074 -9.4104 -38.8602 0.0004 29.0613 -0.0002
# 6 0.0001 0.0003 0.0004 -6.6906 -0.0002 15.8336
#
#
#
# Elastic Compliance Matrix: (Units=1/GPa)
#
#
# Indices 1 2 3 4 5 6 
#
# 1 0.021278 -0.002768 -0.008636 0.000000 0.002058 0.000000
# 2 -0.002768 0.020851 -0.005820 0.000000 -0.002918 0.000000
# 3 -0.008636 -0.005820 0.017011 0.000000 0.014976 0.000000
# 4 0.000000 0.000000 0.000000 0.038854 0.000000 0.016418
# 5 0.002058 -0.002918 0.014976 0.000000 0.054894 0.000000
# 6 0.000000 0.000000 0.000000 0.016418 0.000000 0.070094
#
#
# Mechanical properties :
#
#
# Convention : Reuss Voigt Hill
#
# Bulk Modulus (GPa) = 40.50007 61.74463 51.12235
# Shear Modulus (GPa) = 18.82105 24.49304 21.65704
#
# Velocity S-wave (km/s) = 3.41861 3.89985 3.66713
# Velocity P-wave (km/s) = 6.38207 7.65628 7.04803
#
# Compressibility (1/GPa) = 0.02469131
#
# Stress axis : x y z
#
# Youngs Moduli (GPa) = 46.99777 47.96019 58.78541
#
# Poissons Ratio (x) = 0.13277 0.50765
# Poissons Ratio (y) = 0.13010 0.34213
# Poissons Ratio (z) = 0.40586 0.27913
#
# Static dielectric constant tensor:
#      x y z
#    x 1.526280 0.000000 -0.032410 
#    y 0.000000 1.560350 0.000000 
#    z -0.032410 0.000000 1.569150 
# 
# From -- ./inp_files/323514.got.cif
#   From: 2010.05.17/outbox.cif.g08.bks.cpg/sg12_162_cif.got.tgz:323514.got - 2010.06.03 13:09:07.
