data_PCOD9169708
_publ_section_title
;
Structure prediction by ZEFSAII (Michael W. Deem and Ramdas Pophale) SiO2 
 PCOD9169708
Probable space group: C 2/M
;
_chemical_formula_sum "Si O2"
_cell_formula_units_Z 44
_cell_length_a 19.753791
_cell_length_b 12.608868
_cell_length_c 10.251079
_cell_angle_alpha 90.000000
_cell_angle_beta 89.575033
_cell_angle_gamma 90.000000
_cell_volume 2553.196187
_symmetry_space_group_name_H-M "C 2/M"
_symmetry_group_IT_number 12
_symmetry_cell_setting 'monoclinic'
loop_
_space_group_symop_operation_xyz
x,y,z
-x,y,-z
-x,-y,-z
x,-y,z
1/2+x,1/2+y,z
1/2-x,1/2+y,-z
1/2-x,1/2-y,-z
1/2+x,1/2-y,z
loop_
_atom_site_type_symbol
_atom_site_label
_atom_site_fract_x
_atom_site_fract_y
_atom_site_fract_z
Si Si1 0.978080 0.623738 0.239102
Si Si2 0.867901 0.624267 0.811551
Si Si3 0.656025 0.872162 0.907090
Si Si4 0.780140 0.377504 0.358775
Si Si5 0.000000 0.241601 0.500000
Si Si6 0.146986 0.226584 0.438957
O O1 0.965281 0.500000 0.269256
O O2 0.915965 0.663283 0.152423
O O3 0.984992 0.686124 0.374007
O O4 0.050807 0.629044 0.168038
O O5 0.850889 0.500000 0.786529
O O6 0.853491 0.695274 0.686152
O O7 0.833676 0.664760 0.945303
O O8 0.710619 0.850300 0.794114
O O9 0.651549 0.000000 0.920343
O O10 0.800865 0.500000 0.376283
O O11 0.827081 0.298782 0.441414
O O12 0.704008 0.359987 0.409059
O O13 0.071209 0.185045 0.467155
#
# Coordination Sequence:
#
# PCOD9169708 Si02
#       6
#     8   8   8   8   4   8
#     4   9  15  23  40  66  97 125 146 179 229 277
#     4   9  17  27  43  69  98 122 149 184 224 274
#     4   9  16  27  43  65  95 125 149 180 229 280
#     4  10  20  34  49  67  94 125 155 189 232 276
#     4  10  17  28  45  70  94 114 158 196 224 266
#     4  10  20  32  49  70  93 122 156 192 229 273
#
# _framework density 17.233301000000001
#
# number of rings (size 3 to 8) (size 9 to 14) (size 15 to 20)
#    0.000    2.545    1.818    1.364    0.000    4.364 
#    0.000    0.455    0.000    0.000    0.000    0.000 
#    0.000    3.273    0.000    0.000    0.000    0.000 
#
# Total GULP energy -122512.585996 kJ/mol
# GULP energy per Si atom -5568.753909 kJ/mol
# Density = 1.719408 g / cm^3
# Si number density = 17.233301 Si / 1000 Ang^3
#
#
#
# Elastic Constant Matrix: (Units=GPa)
#
#
# Indices 1 2 3 4 5 6 
#
# 1 68.3278 0.7665 8.8137 0.0000 -15.7571 0.0000
# 2 0.7665 11.5350 4.3945 0.0000 -4.4423 0.0000
# 3 8.8137 4.3945 97.7671 0.0000 -12.1642 0.0000
# 4 0.0000 0.0000 0.0000 2.7806 0.0000 6.4242
# 5 -15.7571 -4.4423 -12.1642 0.0000 22.5882 0.0000
# 6 0.0000 0.0000 0.0000 6.4242 0.0000 7.8729
#
#
#
# Elastic Compliance Matrix: (Units=1/GPa)
#
#
# Indices 1 2 3 4 5 6 
#
# 1 0.017600 0.003878 -0.000148 0.000000 0.012960 0.000000
# 2 0.003878 0.095040 -0.002100 0.000000 0.020265 0.000000
# 3 -0.000148 -0.002100 0.011010 0.000000 0.005412 0.000000
# 4 0.000000 0.000000 0.000000 -0.406257 0.000000 0.331501
# 5 0.012960 0.020265 0.005412 0.000000 0.060212 0.000000
# 6 0.000000 0.000000 0.000000 0.331501 0.000000 -0.143483
#
#
# Mechanical properties :
#
#
# Convention : Reuss Voigt Hill
#
# Bulk Modulus (GPa) = 7.87971 22.84213 15.36092
# Shear Modulus (GPa) = -15.29818 17.55870 1.13026
#
# Velocity S-wave (km/s) = -2.98268 3.19546 0.81073
# Velocity P-wave (km/s) = 2.69806 5.18633 3.13197
#
# Compressibility (1/GPa) = 0.12690822
#
# Stress axis : x y z
#
# Youngs Moduli (GPa) = 56.81921 10.52193 90.83010
#
# Poissons Ratio (x) = -0.04081 0.01348
# Poissons Ratio (y) = -0.22036 0.19075
# Poissons Ratio (z) = 0.00843 0.02210
#
# Static dielectric constant tensor:
#      x y z
#    x 1.619710 0.000000 -0.027400 
#    y 0.000000 1.544770 0.000000 
#    z -0.027400 0.000000 1.607320 
# 
# From -- ./inp_files/85062.got.cif
#   From: 2010.05.17/outbox.cif.g08.bks.cpg/sg12_43_cif.got.tgz:85062.got - 2010.06.03 13:09:07.
