data_PCOD9169572
_publ_section_title
;
Structure prediction by ZEFSAII (Michael W. Deem and Ramdas Pophale) SiO2 
 PCOD9169572
Probable space group: C 2/M
;
_chemical_formula_sum "Si O2"
_cell_formula_units_Z 48
_cell_length_a 25.913770
_cell_length_b 21.606571
_cell_length_c 8.111458
_cell_angle_alpha 90.000000
_cell_angle_beta 29.732194
_cell_angle_gamma 90.000000
_cell_volume 2252.425049
_symmetry_space_group_name_H-M "C 2/M"
_symmetry_group_IT_number 12
_symmetry_cell_setting 'monoclinic'
loop_
_space_group_symop_operation_xyz
x,y,z
-x,y,-z
-x,-y,-z
x,-y,z
1/2+x,1/2+y,z
1/2-x,1/2+y,-z
1/2-x,1/2-y,-z
1/2+x,1/2-y,z
loop_
_atom_site_type_symbol
_atom_site_label
_atom_site_fract_x
_atom_site_fract_y
_atom_site_fract_z
Si Si1 0.755789 0.336092 0.646103
Si Si2 0.636944 0.427874 0.770773
Si Si3 0.426754 0.777890 0.363917
Si Si4 0.873704 0.285014 0.989751
Si Si5 0.706354 0.346748 0.266104
Si Si6 0.067877 0.072352 0.463855
O O1 0.705153 0.400718 0.733244
O O2 0.844070 0.330634 0.541274
O O3 0.814667 0.310135 0.318300
O O4 0.665532 0.285249 0.928146
O O5 0.659258 0.500000 0.677989
O O6 0.666655 0.385273 0.534928
O O7 0.515816 0.422738 0.155400
O O8 0.358787 0.716210 0.572147
O O9 0.500000 0.768021 0.000000
O O10 0.506002 0.787144 0.294634
O O11 0.823182 0.326142 0.984740
O O12 0.671000 0.389686 0.214367
O O13 0.000000 0.095744 0.500000
O O14 0.090842 0.000000 0.374127
#
# Coordination Sequence:
#
# PCOD9169572 Si02
#       6
#     8   8   8   8   8   8
#     4   8  14  23  38  62  87 110 137 170 209 249
#     4  10  18  28  44  64  85 109 141 179 209 241
#     4   9  14  23  42  65  89 113 138 171 210 251
#     4   8  14  23  39  63  86 109 136 170 210 247
#     4  10  17  27  46  67  85 108 142 178 206 242
#     4  10  20  31  43  62  88 115 138 165 210 259
#
# _framework density 21.310364
#
# number of rings (size 3 to 8) (size 9 to 14) (size 15 to 20)
#    0.000    2.833    0.000    6.000    0.000    1.333 
#    0.000    0.000    0.000   22.500    0.000    0.000 
#    0.000    4.000    0.000    0.000    0.000    0.000 
#
# Total GULP energy -134074.757215 kJ/mol
# GULP energy per Si atom -5586.448217 kJ/mol
# Density = 2.126186 g / cm^3
# Si number density = 21.310364 Si / 1000 Ang^3
#
#
#
# Elastic Constant Matrix: (Units=GPa)
#
#
# Indices 1 2 3 4 5 6 
#
# 1 183.8319 46.5639 44.3411 0.0000 -46.6292 0.0000
# 2 46.5639 77.0893 31.5215 0.0000 -24.0981 0.0000
# 3 44.3411 31.5215 80.7483 0.0000 -25.3551 0.0000
# 4 0.0000 0.0000 0.0000 -43.6233 0.0000 45.0766
# 5 -46.6292 -24.0981 -25.3551 0.0000 47.8902 0.0000
# 6 0.0000 0.0000 0.0000 45.0766 0.0000 -12.2534
#
#
#
# Elastic Compliance Matrix: (Units=1/GPa)
#
#
# Indices 1 2 3 4 5 6 
#
# 1 0.007844 -0.002314 -0.001645 0.000000 0.005602 0.000000
# 2 -0.002314 0.017424 -0.004180 0.000000 0.004301 0.000000
# 3 -0.001645 -0.004180 0.016499 0.000000 0.005030 0.000000
# 4 0.000000 0.000000 0.000000 0.008183 0.000000 0.030104
# 5 0.005602 0.004301 0.005030 0.000000 0.031163 0.000000
# 6 0.000000 0.000000 0.000000 0.030104 0.000000 0.029133
#
#
# Mechanical properties :
#
#
# Convention : Reuss Voigt Hill
#
# Bulk Modulus (GPa) = 39.23498 65.16915 52.20206
# Shear Modulus (GPa) = 37.03168 13.01888 25.02528
#
# Velocity S-wave (km/s) = 4.17313 2.47436 3.43056
# Velocity P-wave (km/s) = 6.45533 6.22982 6.34357
#
# Compressibility (1/GPa) = 0.02548746
#
# Stress axis : x y z
#
# Youngs Moduli (GPa) = 127.49388 57.39360 60.61082
#
# Poissons Ratio (x) = 0.13281 0.09969
# Poissons Ratio (y) = 0.29502 0.25337
# Poissons Ratio (z) = 0.20970 0.23992
#
# Static dielectric constant tensor:
#      x y z
#    x 1.892790 0.000000 0.074030 
#    y 0.000000 1.709110 0.000000 
#    z 0.074030 0.000000 1.814450 
# 
# From -- ./inp_files/90302.got.cif
#   From: 2010.05.17/outbox.cif.g08.bks.cpg/sg12_46_cif.got.tgz:90302.got - 2010.06.03 13:09:07.
