data_PCOD9169583
_publ_section_title
;
Structure prediction by ZEFSAII (Michael W. Deem and Ramdas Pophale) SiO2 
 PCOD9169583
Probable space group: C 2/M
;
_chemical_formula_sum "Si O2"
_cell_formula_units_Z 56
_cell_length_a 19.034449
_cell_length_b 16.663084
_cell_length_c 17.286121
_cell_angle_alpha 90.000000
_cell_angle_beta 34.635622
_cell_angle_gamma 90.000000
_cell_volume 3116.113228
_symmetry_space_group_name_H-M "C 2/M"
_symmetry_group_IT_number 12
_symmetry_cell_setting 'monoclinic'
loop_
_space_group_symop_operation_xyz
x,y,z
-x,y,-z
-x,-y,-z
x,-y,z
1/2+x,1/2+y,z
1/2-x,1/2+y,-z
1/2-x,1/2-y,-z
1/2+x,1/2-y,z
loop_
_atom_site_type_symbol
_atom_site_label
_atom_site_fract_x
_atom_site_fract_y
_atom_site_fract_z
Si Si1 0.815602 0.596686 0.957061
Si Si2 0.286037 0.676508 0.409240
Si Si3 0.920651 0.405004 0.315019
Si Si4 0.723178 0.188197 0.685600
Si Si5 0.953469 0.087771 0.455050
Si Si6 0.452763 0.405842 0.791376
Si Si7 0.141969 0.591838 0.900308
O O1 0.805610 0.500000 0.958563
O O2 0.678699 0.627590 0.060235
O O3 0.845457 0.611108 0.020631
O O4 0.937627 0.621927 0.799355
O O5 0.250000 0.750000 0.500000
O O6 0.177490 0.614367 0.528592
O O7 0.286091 0.718292 0.325297
O O8 0.421831 0.640301 0.300614
O O9 0.921255 0.500000 0.299003
O O10 0.874210 0.359227 0.280280
O O11 0.854821 0.157026 0.536677
O O12 0.708599 0.156044 0.785239
O O13 0.000000 0.088352 0.500000
O O14 0.053540 0.095729 0.296981
O O15 0.892852 0.000000 0.496102
O O16 0.466588 0.500000 0.800709
O O17 0.189421 0.500000 0.844916
O O18 0.000000 0.591765 0.000000
#
# Coordination Sequence:
#
# PCOD9169583 Si02
#       7
#     8   8   8   8   8   8   8
#     4   9  18  29  47  74  96 120 158 195 237 281
#     4  10  20  31  45  63  93 136 167 194 227 276
#     4  10  17  30  49  68  91 125 162 199 233 274
#     4  11  19  29  44  65  98 131 162 197 226 274
#     4  10  18  27  44  66  91 126 160 189 231 275
#     4  10  18  31  47  66  93 121 157 203 237 276
#     4  10  17  27  46  71  99 130 160 190 229 283
#
# _framework density 17.971105000000001
#
# number of rings (size 3 to 8) (size 9 to 14) (size 15 to 20)
#    0.000    2.000    4.286    2.571    0.000    2.286 
#    0.000    2.857    0.000    0.000    0.000    0.000 
#    0.000    4.571    0.000    0.000    0.000    0.000 
#
# Total GULP energy -155928.496094 kJ/mol
# GULP energy per Si atom -5568.874860 kJ/mol
# Density = 1.793020 g / cm^3
# Si number density = 17.971105 Si / 1000 Ang^3
#
#
#
# Elastic Constant Matrix: (Units=GPa)
#
#
# Indices 1 2 3 4 5 6 
#
# 1 34.4508 20.2539 28.4506 0.0000 -10.1142 0.0000
# 2 20.2539 30.7060 23.8143 0.0000 -9.6001 0.0000
# 3 28.4506 23.8143 111.4531 0.0000 -30.4431 0.0000
# 4 0.0000 0.0000 0.0000 -44.3323 0.0000 1.7989
# 5 -10.1142 -9.6001 -30.4431 0.0000 28.3550 0.0000
# 6 0.0000 0.0000 0.0000 1.7989 0.0000 22.1689
#
#
#
# Elastic Compliance Matrix: (Units=1/GPa)
#
#
# Indices 1 2 3 4 5 6 
#
# 1 0.051747 -0.028433 -0.006681 0.000000 0.001659 0.000000
# 2 -0.028433 0.055400 -0.003150 0.000000 0.005233 0.000000
# 3 -0.006681 -0.003150 0.014728 0.000000 0.012363 0.000000
# 4 0.000000 0.000000 0.000000 -0.022483 0.000000 0.001824
# 5 0.001659 0.005233 0.012363 0.000000 0.050903 0.000000
# 6 0.000000 0.000000 0.000000 0.001824 0.000000 0.044960
#
#
# Mechanical properties :
#
#
# Convention : Reuss Voigt Hill
#
# Bulk Modulus (GPa) = 22.05198 35.73863 28.89531
# Shear Modulus (GPa) = 17.42767 8.17772 12.80269
#
# Velocity S-wave (km/s) = 3.11748 2.13550 2.67199
# Velocity P-wave (km/s) = 5.02550 5.10004 5.06291
#
# Compressibility (1/GPa) = 0.04534740
#
# Stress axis : x y z
#
# Youngs Moduli (GPa) = 19.32468 18.05043 67.89858
#
# Poissons Ratio (x) = 0.51322 0.45365
# Poissons Ratio (y) = 0.54945 0.21389
# Poissons Ratio (z) = 0.12911 0.05686
#
# Static dielectric constant tensor:
#      x y z
#    x 1.628280 0.000000 -0.012050 
#    y 0.000000 1.638180 0.000000 
#    z -0.012050 0.000000 1.705730 
# 
# From -- ./inp_files/322302.got.cif
#   From: 2010.05.17/outbox.cif.g08.bks.cpg/sg12_162_cif.got.tgz:322302.got - 2010.06.03 13:09:07.
