data_PCOD9169677
_publ_section_title
;
Structure prediction by ZEFSAII (Michael W. Deem and Ramdas Pophale) SiO2 
 PCOD9169677
Probable space group: C 2/M
;
_chemical_formula_sum "Si O2"
_cell_formula_units_Z 64
_cell_length_a 27.630883
_cell_length_b 9.027904
_cell_length_c 17.566415
_cell_angle_alpha 90.000000
_cell_angle_beta 78.268607
_cell_angle_gamma 90.000000
_cell_volume 4290.392357
_symmetry_space_group_name_H-M "C 2/M"
_symmetry_group_IT_number 12
_symmetry_cell_setting 'monoclinic'
loop_
_space_group_symop_operation_xyz
x,y,z
-x,y,-z
-x,-y,-z
x,-y,z
1/2+x,1/2+y,z
1/2-x,1/2+y,-z
1/2-x,1/2-y,-z
1/2+x,1/2-y,z
loop_
_atom_site_type_symbol
_atom_site_label
_atom_site_fract_x
_atom_site_fract_y
_atom_site_fract_z
Si Si1 0.454780 0.176246 0.909187
Si Si2 0.440931 0.329634 0.502696
Si Si3 0.066408 0.675790 0.818354
Si Si4 0.961857 0.678071 0.342064
Si Si5 0.891853 0.177145 0.056026
Si Si6 0.802829 0.177281 0.971924
Si Si7 0.121936 0.822174 0.181233
Si Si8 0.922732 0.322994 0.663556
O O1 0.511933 0.198071 0.871654
O O2 0.422552 0.254650 0.854452
O O3 0.445290 0.000000 0.912757
O O4 0.435665 0.247214 0.993330
O O5 0.500000 0.328251 0.500000
O O6 0.424517 0.500000 0.508122
O O7 0.435876 0.254926 0.421992
O O8 0.417752 0.238834 0.579798
O O9 0.077068 0.500000 0.817770
O O10 0.061105 0.720866 0.731833
O O11 0.104151 0.763563 0.859643
O O12 0.958520 0.500000 0.350527
O O13 0.020770 0.713324 0.327274
O O14 0.897133 0.000000 0.051731
O O15 0.841751 0.217416 0.026446
O O16 0.829234 0.216463 0.883255
O O17 0.797745 0.000000 0.975099
O O18 0.750000 0.250000 0.000000
O O19 0.115232 0.752788 0.266314
O O20 0.117950 0.000000 0.185373
O O21 0.917904 0.500000 0.666905
#
# Coordination Sequence:
#
# PCOD9169677 Si02
#       8
#     8   8   8   8   8   8   8   8
#     4  10  18  30  44  61  86 119 154 184 216 259
#     4   9  17  27  39  59  84 116 155 191 226 261
#     4  10  19  30  43  62  88 120 156 187 214 257
#     4   9  17  29  41  58  86 120 157 190 218 254
#     4  10  21  33  44  65  89 112 145 186 228 266
#     4   9  20  36  51  67  88 113 144 184 230 275
#     4  10  19  30  45  68  93 115 146 189 229 267
#     4  10  17  28  44  62  86 120 155 188 222 260
#
# _framework density 14.917051000000001
#
# number of rings (size 3 to 8) (size 9 to 14) (size 15 to 20)
#    0.000    2.375    1.250    3.000    0.000    8.000 
#    0.000    0.000    0.000    0.000    0.000    0.000 
#    0.000    1.000    0.000    3.250    0.000    4.750 
#
# Total GULP energy -178372.902458 kJ/mol
# GULP energy per Si atom -5574.153202 kJ/mol
# Density = 1.488310 g / cm^3
# Si number density = 14.917051 Si / 1000 Ang^3
#
#
#
# Elastic Constant Matrix: (Units=GPa)
#
#
# Indices 1 2 3 4 5 6 
#
# 1 44.3965 34.9051 55.1843 0.0000 -2.0408 0.0000
# 2 34.9051 54.7233 57.7825 0.0000 -0.4738 0.0000
# 3 55.1843 57.7825 143.9410 0.0000 12.6159 0.0000
# 4 0.0000 0.0000 0.0000 30.6330 0.0000 1.7636
# 5 -2.0408 -0.4738 12.6159 0.0000 16.3401 0.0000
# 6 0.0000 0.0000 0.0000 1.7636 0.0000 17.8720
#
#
#
# Elastic Compliance Matrix: (Units=1/GPa)
#
#
# Indices 1 2 3 4 5 6 
#
# 1 0.060336 -0.020958 -0.016438 0.000000 0.019619 0.000000
# 2 -0.020958 0.041162 -0.008971 0.000000 0.005502 0.000000
# 3 -0.016438 -0.008971 0.018291 0.000000 -0.016435 0.000000
# 4 0.000000 0.000000 0.000000 0.032831 0.000000 -0.003240
# 5 0.019619 0.005502 -0.016435 0.000000 0.076498 0.000000
# 6 0.000000 0.000000 0.000000 -0.003240 0.000000 0.056273
#
#
# Mechanical properties :
#
#
# Convention : Reuss Voigt Hill
#
# Bulk Modulus (GPa) = 36.96238 59.86719 48.41478
# Shear Modulus (GPa) = 12.91508 19.31495 16.11502
#
# Velocity S-wave (km/s) = 2.94563 3.60227 3.29037
# Velocity P-wave (km/s) = 6.03335 7.58435 6.85287
#
# Compressibility (1/GPa) = 0.02705454
#
# Stress axis : x y z
#
# Youngs Moduli (GPa) = 16.57387 24.29411 54.67174
#
# Poissons Ratio (x) = 0.50917 0.89868
# Poissons Ratio (y) = 0.34736 0.49046
# Poissons Ratio (z) = 0.27244 0.21794
#
# Static dielectric constant tensor:
#      x y z
#    x 1.467590 0.000000 0.014530 
#    y 0.000000 1.496360 0.000000 
#    z 0.014530 0.000000 1.520040 
# 
# From -- ./inp_files/294544.got.cif
#   From: 2010.05.17/outbox.cif.g08.bks.cpg/sg12_148_cif.got.tgz:294544.got - 2010.06.03 13:09:07.
