data_PCOD9169754
_publ_section_title
;
Structure prediction by ZEFSAII (Michael W. Deem and Ramdas Pophale) SiO2 
 PCOD9169754
Probable space group: C 2/M
;
_chemical_formula_sum "Si O2"
_cell_formula_units_Z 64
_cell_length_a 16.975373
_cell_length_b 13.569700
_cell_length_c 20.679795
_cell_angle_alpha 90.000000
_cell_angle_beta 52.208903
_cell_angle_gamma 90.000000
_cell_volume 3764.440508
_symmetry_space_group_name_H-M "C 2/M"
_symmetry_group_IT_number 12
_symmetry_cell_setting 'monoclinic'
loop_
_space_group_symop_operation_xyz
x,y,z
-x,y,-z
-x,-y,-z
x,-y,z
1/2+x,1/2+y,z
1/2-x,1/2+y,-z
1/2-x,1/2-y,-z
1/2+x,1/2-y,z
loop_
_atom_site_type_symbol
_atom_site_label
_atom_site_fract_x
_atom_site_fract_y
_atom_site_fract_z
Si Si1 0.382575 0.882796 0.402443
Si Si2 0.354887 0.805569 0.200008
Si Si3 0.386594 0.190266 0.542731
Si Si4 0.286558 0.387164 0.621152
Si Si5 0.579221 0.880448 0.107758
Si Si6 0.902425 0.380742 0.758814
Si Si7 0.752108 0.885813 0.276404
Si Si8 0.620507 0.113920 0.948085
O O1 0.364726 0.828572 0.478760
O O2 0.294338 0.871147 0.395378
O O3 0.487270 0.848521 0.318701
O O4 0.391936 0.000000 0.411403
O O5 0.274085 0.865305 0.282579
O O6 0.464932 0.844620 0.161183
O O7 0.341171 0.692049 0.227022
O O8 0.338603 0.823476 0.131985
O O9 0.500000 0.159510 0.500000
O O10 0.369786 0.304294 0.569931
O O11 0.310136 0.130859 0.626641
O O12 0.320740 0.500000 0.602103
O O13 0.620605 0.848243 0.156500
O O14 0.576878 0.000000 0.106645
O O15 0.635961 0.849662 0.013685
O O16 0.905817 0.500000 0.758988
O O17 0.822466 0.355985 0.744471
O O18 0.779922 0.000000 0.255819
O O19 0.653723 0.000000 0.924984
O O20 0.500000 0.113130 0.000000
#
# Coordination Sequence:
#
# PCOD9169754 Si02
#       8
#     8   8   8   8   8   8   8   8
#     4  10  18  30  49  68  90 117 149 193 230 262
#     4  10  17  28  47  70  94 119 149 183 227 272
#     4  11  21  32  48  68  91 121 154 188 229 269
#     4  10  20  32  47  69  95 121 149 183 227 276
#     4   9  15  27  50  77  96 114 145 187 231 268
#     4   9  16  28  47  68  91 117 148 188 231 266
#     4  10  21  33  45  65  92 122 154 190 227 266
#     4   8  14  24  44  73  99 116 140 184 229 268
#
# _framework density 17.001197999999999
#
# number of rings (size 3 to 8) (size 9 to 14) (size 15 to 20)
#    0.000    2.375    2.500    2.625    0.000    0.750 
#    0.000    0.625    0.000    3.375    0.000    5.250 
#    0.000    0.000    0.000    0.000    0.000    0.000 
#
# Total GULP energy -178313.416120 kJ/mol
# GULP energy per Si atom -5572.294254 kJ/mol
# Density = 1.696250 g / cm^3
# Si number density = 17.001198 Si / 1000 Ang^3
#
#
#
# Elastic Constant Matrix: (Units=GPa)
#
#
# Indices 1 2 3 4 5 6 
#
# 1 20.0458 -5.6492 20.1773 0.0000 18.2006 0.0000
# 2 -5.6492 48.8143 20.4920 0.0000 2.8893 0.0000
# 3 20.1773 20.4920 104.6154 0.0000 33.0861 0.0000
# 4 0.0000 0.0000 0.0000 10.9856 0.0000 2.6748
# 5 18.2006 2.8893 33.0861 0.0000 27.9291 0.0000
# 6 0.0000 0.0000 0.0000 2.6748 0.0000 12.6243
#
#
#
# Elastic Compliance Matrix: (Units=1/GPa)
#
#
# Indices 1 2 3 4 5 6 
#
# 1 0.143088 0.023287 -0.003049 0.000000 -0.092043 0.000000
# 2 0.023287 0.026485 -0.006418 0.000000 -0.010313 0.000000
# 3 -0.003049 -0.006418 0.016896 0.000000 -0.017365 0.000000
# 4 0.000000 0.000000 0.000000 0.095979 0.000000 -0.020336
# 5 -0.092043 -0.010313 -0.017365 0.000000 0.117425 0.000000
# 6 0.000000 0.000000 0.000000 -0.020336 0.000000 0.083521
#
#
# Mechanical properties :
#
#
# Convention : Reuss Voigt Hill
#
# Bulk Modulus (GPa) = 4.67049 27.05731 15.86390
# Shear Modulus (GPa) = 9.48543 19.53816 14.51180
#
# Velocity S-wave (km/s) = 2.36461 3.39370 2.92477
# Velocity P-wave (km/s) = 3.19504 5.59515 4.55599
#
# Compressibility (1/GPa) = 0.21411019
#
# Stress axis : x y z
#
# Youngs Moduli (GPa) = 6.98869 37.75671 59.18604
#
# Poissons Ratio (x) = -0.87925 0.18046
# Poissons Ratio (y) = -0.16275 0.37985
# Poissons Ratio (z) = 0.02131 0.24232
#
# Static dielectric constant tensor:
#      x y z
#    x 1.587770 0.000000 0.028130 
#    y 0.000000 1.562490 0.000000 
#    z 0.028130 0.000000 1.585480 
# 
# From -- ./inp_files/315700.got.cif
#   From: 2010.05.17/outbox.cif.g08.bks.cpg/sg12_158_cif.got.tgz:315700.got - 2010.06.03 13:09:07.
