data_PCOD9169912
_publ_section_title
;
Structure prediction by ZEFSAII (Michael W. Deem and Ramdas Pophale) SiO2 
 PCOD9169912
Probable space group: C 2/M
;
_chemical_formula_sum "Si O2"
_cell_formula_units_Z 56
_cell_length_a 20.123850
_cell_length_b 7.506552
_cell_length_c 23.008027
_cell_angle_alpha 90.000000
_cell_angle_beta 54.404370
_cell_angle_gamma 90.000000
_cell_volume 2826.174851
_symmetry_space_group_name_H-M "C 2/M"
_symmetry_group_IT_number 12
_symmetry_cell_setting 'monoclinic'
loop_
_space_group_symop_operation_xyz
x,y,z
-x,y,-z
-x,-y,-z
x,-y,z
1/2+x,1/2+y,z
1/2-x,1/2+y,-z
1/2-x,1/2-y,-z
1/2+x,1/2-y,z
loop_
_atom_site_type_symbol
_atom_site_label
_atom_site_fract_x
_atom_site_fract_y
_atom_site_fract_z
Si Si1 0.985640 0.281877 0.100843
Si Si2 0.530177 0.217709 0.300938
Si Si3 0.373612 0.787901 0.050363
Si Si4 0.239839 0.714295 0.305809
Si Si5 0.416412 0.788772 0.257985
Si Si6 0.057019 0.717583 0.418539
Si Si7 0.287503 0.212637 0.810300
O O1 0.983660 0.500000 0.103377
O O2 0.921086 0.223487 0.084165
O O3 0.958658 0.217257 0.177673
O O4 0.074551 0.225540 0.031635
O O5 0.458859 0.280647 0.294682
O O6 0.526450 0.273366 0.370123
O O7 0.619123 0.273605 0.231003
O O8 0.529114 0.000000 0.302707
O O9 0.278319 0.751204 0.106696
O O10 0.382556 0.000000 0.046090
O O11 0.238286 0.500000 0.304637
O O12 0.319701 0.764624 0.300777
O O13 0.151955 0.772686 0.374946
O O14 0.244646 0.779500 0.236290
O O15 0.431632 0.000000 0.250178
O O16 0.056359 0.500000 0.419523
O O17 0.000000 0.778635 0.500000
O O18 0.291684 0.000000 0.803743
#
# Coordination Sequence:
#
# PCOD9169912 Si02
#       7
#     8   8   8   8   8   8   8
#     4   8  15  25  40  61  85 113 145 183 216 252
#     4   8  16  28  44  65  88 115 147 179 211 256
#     4   9  15  26  42  61  83 110 152 188 212 251
#     4   9  17  28  45  68  90 112 143 182 216 252
#     4  10  17  29  47  65  87 117 149 178 215 260
#     4   8  14  28  49  69  89 116 147 174 206 255
#     4   9  16  28  43  62  87 113 144 184 223 255
#
# _framework density 19.814768999999998
#
# number of rings (size 3 to 8) (size 9 to 14) (size 15 to 20)
#    0.000    3.286    1.429    2.571    0.000    0.000 
#    0.000    4.286    0.000    1.286    0.000    0.000 
#    0.000    0.000    0.000    0.000    0.000    0.000 
#
# Total GULP energy -156033.010090 kJ/mol
# GULP energy per Si atom -5572.607503 kJ/mol
# Density = 1.976967 g / cm^3
# Si number density = 19.814769 Si / 1000 Ang^3
#
#
#
# Elastic Constant Matrix: (Units=GPa)
#
#
# Indices 1 2 3 4 5 6 
#
# 1 149.3110 1.2246 81.6327 -0.0004 -1.5646 -0.0006
# 2 1.2246 47.4383 2.8598 -0.0018 3.9461 -0.0025
# 3 81.6327 2.8598 158.4318 0.0001 -13.6447 0.0000
# 4 -0.0004 -0.0018 0.0001 14.2079 0.0001 -6.7663
# 5 -1.5646 3.9461 -13.6447 0.0001 18.5534 -0.0002
# 6 -0.0006 -0.0025 0.0000 -6.7663 -0.0002 12.7739
#
#
#
# Elastic Compliance Matrix: (Units=1/GPa)
#
#
# Indices 1 2 3 4 5 6 
#
# 1 0.009481 0.000320 -0.005154 0.000001 -0.003059 0.000001
# 2 0.000320 0.021574 -0.001011 0.000006 -0.005305 0.000008
# 3 -0.005154 -0.001011 0.009573 -0.000001 0.006821 -0.000001
# 4 0.000001 0.000006 -0.000001 0.094128 -0.000002 0.049859
# 5 -0.003059 -0.005305 0.006821 -0.000002 0.059785 -0.000002
# 6 0.000001 0.000008 -0.000001 0.049859 -0.000002 0.104694
#
#
# Mechanical properties :
#
#
# Convention : Reuss Voigt Hill
#
# Bulk Modulus (GPa) = 34.55713 58.51281 46.53497
# Shear Modulus (GPa) = 15.59713 27.07130 21.33422
#
# Velocity S-wave (km/s) = 2.80866 3.70025 3.28484
# Velocity P-wave (km/s) = 5.29113 6.91735 6.15816
#
# Compressibility (1/GPa) = 0.02893759
#
# Stress axis : x y z
#
# Youngs Moduli (GPa) = 105.47715 46.35199 104.45696
#
# Poissons Ratio (x) = -0.01485 0.53840
# Poissons Ratio (y) = -0.03380 0.10566
# Poissons Ratio (z) = 0.54366 0.04688
#
# Static dielectric constant tensor:
#      x y z
#    x 1.692550 0.000000 -0.011860 
#    y 0.000000 1.761000 0.000000 
#    z -0.011860 0.000000 1.699120 
# 
# From -- ./inp_files/276067.got.cif
#   From: 2010.05.17/outbox.cif.g08.bks.cpg/sg12_139_cif.got.tgz:276067.got - 2010.06.03 13:09:07.
