data_PCOD9169806
_publ_section_title
;
Structure prediction by ZEFSAII (Michael W. Deem and Ramdas Pophale) SiO2 
 PCOD9169806
Probable space group: C 2/M
;
_chemical_formula_sum "Si O2"
_cell_formula_units_Z 56
_cell_length_a 10.276745
_cell_length_b 25.760343
_cell_length_c 15.701068
_cell_angle_alpha 90.000000
_cell_angle_beta 62.226986
_cell_angle_gamma 90.000000
_cell_volume 3677.746548
_symmetry_space_group_name_H-M "C 2/M"
_symmetry_group_IT_number 12
_symmetry_cell_setting 'monoclinic'
loop_
_space_group_symop_operation_xyz
x,y,z
-x,y,-z
-x,-y,-z
x,-y,z
1/2+x,1/2+y,z
1/2-x,1/2+y,-z
1/2-x,1/2-y,-z
1/2+x,1/2-y,z
loop_
_atom_site_type_symbol
_atom_site_label
_atom_site_fract_x
_atom_site_fract_y
_atom_site_fract_z
Si Si1 0.068825 0.297539 0.614729
Si Si2 0.978619 0.599775 0.738864
Si Si3 0.171329 0.099696 0.731384
Si Si4 0.931562 0.938647 0.927427
Si Si5 0.073882 0.500000 0.613735
Si Si6 0.736557 0.000000 0.394062
Si Si7 0.091776 0.438346 0.057675
Si Si8 0.266712 0.796773 0.611711
O O1 0.045413 0.346814 0.682928
O O2 0.154561 0.250465 0.632932
O O3 0.165007 0.311485 0.501454
O O4 0.907721 0.282456 0.627261
O O5 0.068622 0.551511 0.672189
O O6 0.812836 0.595296 0.751155
O O7 0.967191 0.593251 0.843506
O O8 0.183301 0.051681 0.662497
O O9 0.189389 0.153557 0.676742
O O10 0.025114 0.093533 0.831272
O O11 0.945634 0.000000 0.901237
O O12 0.760666 0.925383 0.986019
O O13 0.000000 0.931900 0.000000
O O14 0.201456 0.500000 0.504622
O O15 0.921081 0.500000 0.606658
O O16 0.087331 0.500000 0.082030
O O17 0.000000 0.430815 0.000000
#
# Coordination Sequence:
#
# PCOD9169806 Si02
#       8
#     8   8   8   8   4   4   8   8
#     4   9  18  33  53  74  97 131 168 205 241 290
#     4  10  17  29  50  73 100 131 161 199 249 292
#     4  10  17  28  49  76 102 127 158 204 248 290
#     4  10  18  29  50  73  98 131 166 200 244 292
#     4   9  16  24  42  73 106 129 151 191 248 303
#     4   9  16  24  40  76 108 124 149 197 250 294
#     4  10  20  33  48  71 102 134 168 202 237 294
#     4   9  18  33  52  74 100 129 168 204 241 289
#
# _framework density 15.226716
#
# number of rings (size 3 to 8) (size 9 to 14) (size 15 to 20)
#    0.000    2.429    2.857    0.857    0.000    3.429 
#    2.571    0.000    0.000    1.714    0.000    1.000 
#    0.000    0.000    0.000    0.000    0.000    0.000 
#
# Total GULP energy -156051.587858 kJ/mol
# GULP energy per Si atom -5573.270995 kJ/mol
# Density = 1.519206 g / cm^3
# Si number density = 15.226716 Si / 1000 Ang^3
#
#
#
# Elastic Constant Matrix: (Units=GPa)
#
#
# Indices 1 2 3 4 5 6 
#
# 1 63.5523 50.4668 52.5136 0.0000 -6.6913 0.0000
# 2 50.4668 100.5616 76.5702 0.0000 -1.3382 0.0000
# 3 52.5136 76.5702 128.3775 0.0000 -4.1847 0.0000
# 4 0.0000 0.0000 0.0000 21.0611 0.0000 -3.2366
# 5 -6.6913 -1.3382 -4.1847 0.0000 14.7712 0.0000
# 6 0.0000 0.0000 0.0000 -3.2366 0.0000 7.5312
#
#
#
# Elastic Compliance Matrix: (Units=1/GPa)
#
#
# Indices 1 2 3 4 5 6 
#
# 1 0.029931 -0.010672 -0.005519 0.000000 0.011028 0.000000
# 2 -0.010672 0.022053 -0.008963 0.000000 -0.005376 0.000000
# 3 -0.005519 -0.008963 0.015428 0.000000 0.001059 0.000000
# 4 0.000000 0.000000 0.000000 0.050838 0.000000 0.021848
# 5 0.011028 -0.005376 0.001059 0.000000 0.072508 0.000000
# 6 0.000000 0.000000 0.000000 0.021848 0.000000 0.142170
#
#
# Mechanical properties :
#
#
# Convention : Reuss Voigt Hill
#
# Bulk Modulus (GPa) = 58.46660 72.39919 65.43289
# Shear Modulus (GPa) = 12.85551 16.20209 14.52880
#
# Velocity S-wave (km/s) = 2.90879 3.26553 3.09231
# Velocity P-wave (km/s) = 7.05423 7.86568 7.47098
#
# Compressibility (1/GPa) = 0.01710378
#
# Stress axis : x y z
#
# Youngs Moduli (GPa) = 33.41012 45.34460 64.81868
#
# Poissons Ratio (x) = 0.48392 0.35771
# Poissons Ratio (y) = 0.35656 0.58099
# Poissons Ratio (z) = 0.18438 0.40644
#
# Static dielectric constant tensor:
#      x y z
#    x 1.499870 0.000000 -0.000050 
#    y 0.000000 1.484510 0.000000 
#    z -0.000050 0.000000 1.495420 
# 
# From -- ./inp_files/199734.got.cif
#   From: 2010.05.17/outbox.cif.g08.bks.cpg/sg12_100_cif.got.tgz:199734.got - 2010.06.03 13:09:07.
