data_PCOD9169006
_publ_section_title
;
Structure prediction by ZEFSAII (Michael W. Deem and Ramdas Pophale) SiO2 
 PCOD9169006
Probable space group: C 2/M
;
_chemical_formula_sum "Si O2"
_cell_formula_units_Z 38
_cell_length_a 16.402851
_cell_length_b 16.940925
_cell_length_c 6.968539
_cell_angle_alpha 90.000000
_cell_angle_beta 105.297202
_cell_angle_gamma 90.000000
_cell_volume 1867.807357
_symmetry_space_group_name_H-M "C 2/M"
_symmetry_group_IT_number 12
_symmetry_cell_setting 'monoclinic'
loop_
_space_group_symop_operation_xyz
x,y,z
-x,y,-z
-x,-y,-z
x,-y,z
1/2+x,1/2+y,z
1/2-x,1/2+y,-z
1/2-x,1/2-y,-z
1/2+x,1/2-y,z
loop_
_atom_site_type_symbol
_atom_site_label
_atom_site_fract_x
_atom_site_fract_y
_atom_site_fract_z
Si Si1 0.716819 0.831972 0.176798
Si Si2 0.000000 0.500000 0.000000
Si Si3 0.674034 0.909479 0.552346
Si Si4 0.556908 0.146532 0.798072
Si Si5 0.500000 0.710281 0.000000
Si Si6 0.317631 0.650715 0.893592
O O1 0.699884 0.870321 0.369000
O O2 0.717945 0.737485 0.187797
O O3 0.638976 0.853679 0.989776
O O4 0.798419 0.859172 0.107970
O O5 0.993819 0.570271 0.162304
O O6 0.598084 0.863942 0.614521
O O7 0.758326 0.906740 0.737056
O O8 0.649716 0.000000 0.510974
O O9 0.512142 0.228656 0.828050
O O10 0.583137 0.657874 0.078136
#
# Coordination Sequence:
#
# PCOD9169006 Si02
#       6
#     8   2   8   8   4   8
#     4   9  19  35  56  78 106 148 194 223 265 323
#     4  10  16  32  50  76 122 152 162 212 272 336
#     4  11  21  34  56  86 113 146 183 222 277 335
#     4   9  19  34  54  79 115 148 177 221 271 331
#     4   9  18  37  59  78 105 146 190 230 279 314
#     4   9  19  37  57  78 105 146 189 235 269 319
#
# _framework density 20.344709000000002
#
# number of rings (size 3 to 8) (size 9 to 14) (size 15 to 20)
#    0.000    2.526    1.053    1.895    1.474    0.842 
#    0.000   16.316    0.000    1.263    0.000    0.000 
#    0.000    0.000    0.000    0.000    0.000    0.000 
#
# Total GULP energy -105793.240986 kJ/mol
# GULP energy per Si atom -5568.065315 kJ/mol
# Density = 2.029840 g / cm^3
# Si number density = 20.344709 Si / 1000 Ang^3
#
#
#
# Elastic Constant Matrix: (Units=GPa)
#
#
# Indices 1 2 3 4 5 6 
#
# 1 118.9767 15.6908 33.4173 0.0000 -24.1795 0.0000
# 2 15.6908 48.4135 27.8054 0.0000 -6.2922 0.0000
# 3 33.4173 27.8054 113.7903 0.0000 -44.2840 0.0000
# 4 0.0000 0.0000 0.0000 20.9720 0.0000 -1.7197
# 5 -24.1795 -6.2922 -44.2840 0.0000 35.0277 0.0000
# 6 0.0000 0.0000 0.0000 -1.7197 0.0000 16.8233
#
#
#
# Elastic Compliance Matrix: (Units=1/GPa)
#
#
# Indices 1 2 3 4 5 6 
#
# 1 0.010051 -0.002576 0.000389 0.000000 0.006968 0.000000
# 2 -0.002576 0.025372 -0.008586 0.000000 -0.008075 0.000000
# 3 0.000389 -0.008586 0.020229 0.000000 0.024301 0.000000
# 4 0.000000 0.000000 0.000000 0.048086 0.000000 0.004915
# 5 0.006968 -0.008075 0.024301 0.000000 0.062631 0.000000
# 6 0.000000 0.000000 0.000000 0.004915 0.000000 0.059944
#
#
# Mechanical properties :
#
#
# Convention : Reuss Voigt Hill
#
# Bulk Modulus (GPa) = 29.31894 48.33417 38.82656
# Shear Modulus (GPa) = 19.28813 28.18241 23.73527
#
# Velocity S-wave (km/s) = 3.08241 3.72593 3.41934
# Velocity P-wave (km/s) = 5.20679 6.50532 5.89194
#
# Compressibility (1/GPa) = 0.03410764
#
# Stress axis : x y z
#
# Youngs Moduli (GPa) = 99.48838 39.41372 49.43354
#
# Poissons Ratio (x) = 0.10151 -0.01924
# Poissons Ratio (y) = 0.25624 0.42444
# Poissons Ratio (z) = -0.03872 0.33841
#
# Static dielectric constant tensor:
#      x y z
#    x 1.822800 0.000000 0.027000 
#    y 0.000000 1.705110 0.000000 
#    z 0.027000 0.000000 1.789300 
# 
# From -- ./inp_files/15239.got.cif
#   From: 2010.05.17/outbox.cif.g08.bks.cpg/sg12_8_cif.got.tgz:15239.got - 2010.06.03 13:09:07.
