data_PCOD9169446
_publ_section_title
;
Structure prediction by ZEFSAII (Michael W. Deem and Ramdas Pophale) SiO2 
 PCOD9169446
Probable space group: C 2/M
;
_chemical_formula_sum "Si O2"
_cell_formula_units_Z 64
_cell_length_a 24.886614
_cell_length_b 9.209024
_cell_length_c 19.185648
_cell_angle_alpha 90.000000
_cell_angle_beta 79.078546
_cell_angle_gamma 90.000000
_cell_volume 4317.355091
_symmetry_space_group_name_H-M "C 2/M"
_symmetry_group_IT_number 12
_symmetry_cell_setting 'monoclinic'
loop_
_space_group_symop_operation_xyz
x,y,z
-x,y,-z
-x,-y,-z
x,-y,z
1/2+x,1/2+y,z
1/2-x,1/2+y,-z
1/2-x,1/2-y,-z
1/2+x,1/2-y,z
loop_
_atom_site_type_symbol
_atom_site_label
_atom_site_fract_x
_atom_site_fract_y
_atom_site_fract_z
Si Si1 0.985046 0.833777 0.344159
Si Si2 0.544961 0.674844 0.193873
Si Si3 0.169190 0.326570 0.987330
Si Si4 0.454855 0.173300 0.952053
Si Si5 0.262966 0.173166 0.889926
Si Si6 0.893216 0.832552 0.616694
Si Si7 0.148489 0.674636 0.242388
Si Si8 0.060692 0.666700 0.520475
O O1 0.947454 0.733164 0.400965
O O2 0.996933 0.791715 0.261515
O O3 0.045754 0.831506 0.364089
O O4 0.965595 0.000000 0.352226
O O5 0.552507 0.500000 0.192269
O O6 0.533523 0.736930 0.120573
O O7 0.599538 0.752910 0.209640
O O8 0.172922 0.500000 0.978441
O O9 0.105628 0.286271 0.005600
O O10 0.196676 0.288794 0.055280
O O11 0.206052 0.251296 0.919718
O O12 0.453584 0.000000 0.935892
O O13 0.500000 0.197466 0.000000
O O14 0.295157 0.209213 0.811392
O O15 0.254955 0.000000 0.893935
O O16 0.856705 0.740460 0.679194
O O17 0.900821 0.760402 0.539468
O O18 0.875864 0.000000 0.616975
O O19 0.141359 0.500000 0.244918
O O20 0.078216 0.500000 0.518295
O O21 0.000000 0.670217 0.500000
#
# Coordination Sequence:
#
# PCOD9169446 Si02
#       8
#     8   8   8   8   8   8   8   8
#     4   8  15  25  35  49  71 100 131 168 206 240
#     4  10  19  29  42  60  81 105 138 175 213 253
#     4   9  17  30  44  62  82 105 137 172 212 255
#     4  10  20  34  49  63  83 111 141 176 217 257
#     4   9  17  28  43  62  83 108 136 173 214 250
#     4   9  16  24  34  51  76 105 136 167 204 244
#     4  10  17  27  41  58  82 108 139 174 209 248
#     4   9  15  22  33  50  70  99 136 169 201 238
#
# _framework density 14.823892000000001
#
# number of rings (size 3 to 8) (size 9 to 14) (size 15 to 20)
#    0.000    2.750    1.250    2.250    0.000    6.750 
#    0.000    0.000    0.000    0.000    0.000    0.000 
#    0.000    0.000    0.000    1.125    0.000   14.625 
#
# Total GULP energy -178195.327028 kJ/mol
# GULP energy per Si atom -5568.603970 kJ/mol
# Density = 1.479015 g / cm^3
# Si number density = 14.823892 Si / 1000 Ang^3
#
#
#
# Elastic Constant Matrix: (Units=GPa)
#
#
# Indices 1 2 3 4 5 6 
#
# 1 44.7285 27.2365 42.4619 0.0000 -9.9550 0.0000
# 2 27.2365 74.5340 70.5282 0.0000 -16.7377 0.0000
# 3 42.4619 70.5282 129.3074 0.0000 -31.7915 0.0000
# 4 0.0000 0.0000 0.0000 29.9587 0.0000 -6.9353
# 5 -9.9550 -16.7377 -31.7915 0.0000 16.4748 0.0000
# 6 0.0000 0.0000 0.0000 -6.9353 0.0000 12.4944
#
#
#
# Elastic Compliance Matrix: (Units=1/GPa)
#
#
# Indices 1 2 3 4 5 6 
#
# 1 0.032999 -0.003703 -0.009207 0.000000 -0.001590 0.000000
# 2 -0.003703 0.028175 -0.014582 0.000000 -0.001753 0.000000
# 3 -0.009207 -0.014582 0.026068 0.000000 0.029925 0.000000
# 4 0.000000 0.000000 0.000000 0.038301 0.000000 0.021260
# 5 -0.001590 -0.001753 0.029925 0.000000 0.115704 0.000000
# 6 0.000000 0.000000 0.000000 0.021260 0.000000 0.091837
#
#
# Mechanical properties :
#
#
# Convention : Reuss Voigt Hill
#
# Bulk Modulus (GPa) = 31.00166 58.78034 44.89100
# Shear Modulus (GPa) = 12.53695 19.00846 15.77270
#
# Velocity S-wave (km/s) = 2.91129 3.58479 3.26545
# Velocity P-wave (km/s) = 5.67975 7.54140 6.67579
#
# Compressibility (1/GPa) = 0.03225634
#
# Stress axis : x y z
#
# Youngs Moduli (GPa) = 30.30408 35.49241 38.36121
#
# Poissons Ratio (x) = 0.13144 0.35319
# Poissons Ratio (y) = 0.11222 0.55940
# Poissons Ratio (z) = 0.27901 0.51757
#
# Static dielectric constant tensor:
#      x y z
#    x 1.456120 0.000000 -0.016690 
#    y 0.000000 1.497730 0.000000 
#    z -0.016690 0.000000 1.504260 
# 
# From -- ./inp_files/287572.got.cif
#   From: 2010.05.17/outbox.cif.g08.bks.cpg/sg12_144_cif.got.tgz:287572.got - 2010.06.03 13:09:07.
