data_PCOD9169442
_publ_section_title
;
Structure prediction by ZEFSAII (Michael W. Deem and Ramdas Pophale) SiO2 
 PCOD9169442
Probable space group: C 2/M
;
_chemical_formula_sum "Si O2"
_cell_formula_units_Z 56
_cell_length_a 29.057058
_cell_length_b 7.712242
_cell_length_c 14.838560
_cell_angle_alpha 90.000000
_cell_angle_beta 73.824222
_cell_angle_gamma 90.000000
_cell_volume 3193.606605
_symmetry_space_group_name_H-M "C 2/M"
_symmetry_group_IT_number 12
_symmetry_cell_setting 'monoclinic'
loop_
_space_group_symop_operation_xyz
x,y,z
-x,y,-z
-x,-y,-z
x,-y,z
1/2+x,1/2+y,z
1/2-x,1/2+y,-z
1/2-x,1/2-y,-z
1/2+x,1/2-y,z
loop_
_atom_site_type_symbol
_atom_site_label
_atom_site_fract_x
_atom_site_fract_y
_atom_site_fract_z
Si Si1 0.875069 0.301086 0.409563
Si Si2 0.945417 0.287589 0.521740
Si Si3 0.316783 0.293242 0.901113
Si Si4 0.206643 0.800364 0.412739
Si Si5 0.809652 0.286446 0.294578
Si Si6 0.862987 0.704662 0.700140
Si Si7 0.286930 0.793829 0.107816
O O1 0.888559 0.500000 0.383998
O O2 0.917699 0.224819 0.446929
O O3 0.828744 0.298172 0.500945
O O4 0.855142 0.224931 0.327423
O O5 0.945646 0.500000 0.518876
O O6 0.911895 0.238002 0.624701
O O7 0.000000 0.229641 0.500000
O O8 0.314543 0.500000 0.901846
O O9 0.357284 0.237850 0.808773
O O10 0.265702 0.222912 0.890556
O O11 0.320016 0.236879 0.002862
O O12 0.260282 0.733327 0.370940
O O13 0.180763 0.793411 0.329405
O O14 0.208477 0.000000 0.441425
O O15 0.809966 0.500000 0.296131
O O16 0.806077 0.228505 0.193032
O O17 0.858111 0.500000 0.686466
O O18 0.281325 0.000000 0.121726
#
# Coordination Sequence:
#
# PCOD9169442 Si02
#       7
#     8   8   8   8   8   8   8
#     4   9  17  28  43  62  83 112 146 175 210 258
#     4   8  15  28  45  66  88 108 137 179 220 255
#     4  10  18  29  43  62  87 115 145 180 214 248
#     4  10  17  27  40  58  87 117 143 175 210 246
#     4   9  16  27  41  59  85 116 146 174 208 247
#     4  10  18  28  45  65  85 114 148 178 213 258
#     4   9  17  29  42  58  85 119 148 176 208 247
#
# _framework density 17.535032999999999
#
# number of rings (size 3 to 8) (size 9 to 14) (size 15 to 20)
#    0.000    2.714    1.429    2.571    0.000    0.571 
#    0.000    1.429    0.000   10.714    0.000    1.000 
#    0.000    8.000    0.000    0.000    0.000    0.000 
#
# Total GULP energy -156054.919935 kJ/mol
# GULP energy per Si atom -5573.389998 kJ/mol
# Density = 1.749512 g / cm^3
# Si number density = 17.535033 Si / 1000 Ang^3
#
#
#
# Elastic Constant Matrix: (Units=GPa)
#
#
# Indices 1 2 3 4 5 6 
#
# 1 123.3263 2.9772 61.4621 0.0000 8.5422 0.0000
# 2 2.9772 32.0489 -3.9332 0.0000 2.5035 0.0000
# 3 61.4621 -3.9332 77.2506 0.0000 18.6250 0.0000
# 4 0.0000 0.0000 0.0000 15.6270 0.0000 0.6570
# 5 8.5422 2.5035 18.6250 0.0000 22.6146 0.0000
# 6 0.0000 0.0000 0.0000 0.6570 0.0000 6.6780
#
#
#
# Elastic Compliance Matrix: (Units=1/GPa)
#
#
# Indices 1 2 3 4 5 6 
#
# 1 0.014176 -0.003319 -0.012783 0.000000 0.005541 0.000000
# 2 -0.003319 0.032837 0.006097 0.000000 -0.007403 0.000000
# 3 -0.012783 0.006097 0.027981 0.000000 -0.018891 0.000000
# 4 0.000000 0.000000 0.000000 0.064258 0.000000 -0.006322
# 5 0.005541 -0.007403 -0.018891 0.000000 0.058504 0.000000
# 6 0.000000 0.000000 0.000000 -0.006322 0.000000 0.150369
#
#
# Mechanical properties :
#
#
# Convention : Reuss Voigt Hill
#
# Bulk Modulus (GPa) = 18.18724 39.29312 28.74018
# Shear Modulus (GPa) = 12.93792 20.45855 16.69823
#
# Velocity S-wave (km/s) = 2.71925 3.41944 3.08925
# Velocity P-wave (km/s) = 4.50040 6.16823 5.39911
#
# Compressibility (1/GPa) = 0.05498361
#
# Stress axis : x y z
#
# Youngs Moduli (GPa) = 70.54305 30.45337 35.73914
#
# Poissons Ratio (x) = 0.10106 0.45687
# Poissons Ratio (y) = 0.23410 -0.21790
# Poissons Ratio (z) = 0.90178 -0.18568
#
# Static dielectric constant tensor:
#      x y z
#    x 1.599690 0.000000 0.033730 
#    y 0.000000 1.651020 0.000000 
#    z 0.033730 0.000000 1.621550 
# 
# From -- ./inp_files/243039.got.cif
#   From: 2010.05.17/outbox.cif.g08.bks.cpg/sg12_122_cif.got.tgz:243039.got - 2010.06.03 13:09:07.
