data_PCOD9169357
_publ_section_title
;
Structure prediction by ZEFSAII (Michael W. Deem and Ramdas Pophale) SiO2 
 PCOD9169357
Probable space group: C 2/M
;
_chemical_formula_sum "Si O2"
_cell_formula_units_Z 60
_cell_length_a 23.927154
_cell_length_b 14.400035
_cell_length_c 22.645537
_cell_angle_alpha 90.000000
_cell_angle_beta 31.584636
_cell_angle_gamma 90.000000
_cell_volume 4086.650210
_symmetry_space_group_name_H-M "C 2/M"
_symmetry_group_IT_number 12
_symmetry_cell_setting 'monoclinic'
loop_
_space_group_symop_operation_xyz
x,y,z
-x,y,-z
-x,-y,-z
x,-y,z
1/2+x,1/2+y,z
1/2-x,1/2+y,-z
1/2-x,1/2-y,-z
1/2+x,1/2-y,z
loop_
_atom_site_type_symbol
_atom_site_label
_atom_site_fract_x
_atom_site_fract_y
_atom_site_fract_z
Si Si1 0.616188 0.219541 0.005986
Si Si2 0.856076 0.725438 0.786846
Si Si3 0.500000 0.752836 0.000000
Si Si4 0.012765 0.894914 0.833353
Si Si5 0.924475 0.894099 0.791285
Si Si6 0.402598 0.109973 0.629787
Si Si7 0.683062 0.891186 0.058482
Si Si8 0.665297 0.606682 0.798697
O O1 0.738315 0.235820 0.877691
O O2 0.543786 0.189092 0.015985
O O3 0.565995 0.318665 0.069124
O O4 0.620310 0.154409 0.059871
O O5 0.927242 0.814031 0.740516
O O6 0.898640 0.666291 0.694168
O O7 0.841172 0.663640 0.859569
O O8 0.404685 0.682880 0.104337
O O9 0.123773 0.887315 0.768515
O O10 0.011962 0.882121 0.763861
O O11 0.971666 0.000000 0.880835
O O12 0.928347 0.000000 0.765500
O O13 0.808814 0.882432 0.928122
O O14 0.500000 0.137650 0.500000
O O15 0.289548 0.122546 0.698156
O O16 0.413241 0.000000 0.633054
O O17 0.659749 0.000000 0.085760
O O18 0.641395 0.500000 0.840045
#
# Coordination Sequence:
#
# PCOD9169357 Si02
#       8
#     8   8   4   8   8   8   8   8
#     4  10  17  27  40  66  92 120 146 179 221 273
#     4  11  17  29  45  65  89 122 153 180 221 271
#     4  10  17  26  43  66  92 118 144 184 226 274
#     4   9  15  24  41  66  93 113 135 174 227 272
#     4   9  16  26  43  69  96 116 140 183 231 272
#     4  10  21  34  46  64  91 123 157 187 216 261
#     4  10  18  27  40  63  94 125 153 180 213 268
#     4   9  17  27  42  65  91 119 146 181 224 268
#
# _framework density 14.681952000000001
#
# number of rings (size 3 to 8) (size 9 to 14) (size 15 to 20)
#    0.000    2.267    4.000    1.400    0.000    1.067 
#    0.000    0.333    0.000    1.200    0.000    0.000 
#    0.000    0.000    0.000    0.000    0.000    0.000 
#
# Total GULP energy -167044.703695 kJ/mol
# GULP energy per Si atom -5568.156790 kJ/mol
# Density = 1.464854 g / cm^3
# Si number density = 14.681952 Si / 1000 Ang^3
#
#
#
# Elastic Constant Matrix: (Units=GPa)
#
#
# Indices 1 2 3 4 5 6 
#
# 1 113.7924 39.3854 23.7021 0.0000 8.5175 0.0000
# 2 39.3854 57.6517 18.5895 0.0000 8.0010 0.0000
# 3 23.7021 18.5895 46.9455 0.0000 4.7539 0.0000
# 4 0.0000 0.0000 0.0000 13.3182 0.0000 6.7149
# 5 8.5175 8.0010 4.7539 0.0000 11.5829 0.0000
# 6 0.0000 0.0000 0.0000 6.7149 0.0000 22.1376
#
#
#
# Elastic Compliance Matrix: (Units=1/GPa)
#
#
# Indices 1 2 3 4 5 6 
#
# 1 0.011999 -0.006810 -0.003072 0.000000 -0.002859 0.000000
# 2 -0.006810 0.025178 -0.005507 0.000000 -0.010125 0.000000
# 3 -0.003072 -0.005507 0.025478 0.000000 -0.004394 0.000000
# 4 0.000000 0.000000 0.000000 0.088641 0.000000 -0.026887
# 5 -0.002859 -0.010125 -0.004394 0.000000 0.097233 0.000000
# 6 0.000000 0.000000 0.000000 -0.026887 0.000000 0.053327
#
#
# Mechanical properties :
#
#
# Convention : Reuss Voigt Hill
#
# Bulk Modulus (GPa) = 31.36963 42.41596 36.89280
# Shear Modulus (GPa) = 14.56621 18.52192 16.54407
#
# Velocity S-wave (km/s) = 3.15321 3.55567 3.36047
# Velocity P-wave (km/s) = 5.88808 6.76828 6.34347
#
# Compressibility (1/GPa) = 0.03187796
#
# Stress axis : x y z
#
# Youngs Moduli (GPa) = 83.34201 39.71649 39.24991
#
# Poissons Ratio (x) = 0.27046 0.12057
# Poissons Ratio (y) = 0.56754 0.21614
# Poissons Ratio (z) = 0.25602 0.21871
#
# Static dielectric constant tensor:
#      x y z
#    x 1.532190 0.000000 0.004740 
#    y 0.000000 1.492710 0.000000 
#    z 0.004740 0.000000 1.450290 
# 
# From -- ./inp_files/251072.got.cif
#   From: 2010.05.17/outbox.cif.g08.bks.cpg/sg12_126_cif.got.tgz:251072.got - 2010.06.03 13:09:07.
