data_PCOD9170851
_publ_section_title
;
Structure prediction by ZEFSAII (Michael W. Deem and Ramdas Pophale) SiO2 
 PCOD9170851
Probable space group: C 2/M
;
_chemical_formula_sum "Si O2"
_cell_formula_units_Z 32
_cell_length_a 27.546743
_cell_length_b 9.802760
_cell_length_c 23.564799
_cell_angle_alpha 90.000000
_cell_angle_beta 17.943279
_cell_angle_gamma 90.000000
_cell_volume 1960.375588
_symmetry_space_group_name_H-M "C 2/M"
_symmetry_group_IT_number 12
_symmetry_cell_setting 'monoclinic'
loop_
_space_group_symop_operation_xyz
x,y,z
-x,y,-z
-x,-y,-z
x,-y,z
1/2+x,1/2+y,z
1/2-x,1/2+y,-z
1/2-x,1/2-y,-z
1/2+x,1/2-y,z
loop_
_atom_site_type_symbol
_atom_site_label
_atom_site_fract_x
_atom_site_fract_y
_atom_site_fract_z
Si Si1 0.137842 0.500000 0.433521
Si Si2 0.582750 0.275097 0.071110
Si Si3 0.684092 0.500000 0.643759
Si Si4 0.817033 0.500000 0.853410
Si Si5 0.491614 0.000000 0.779842
Si Si6 0.859073 0.157773 0.115630
O O1 0.235632 0.500000 0.383394
O O2 0.199710 0.630119 0.328348
O O3 0.955988 0.500000 0.651719
O O4 0.424586 0.366703 0.242791
O O5 0.549945 0.134341 0.138484
O O6 0.709257 0.367758 0.963490
O O7 0.645903 0.258992 0.936434
O O8 0.825217 0.500000 0.441642
O O9 0.895030 0.500000 0.828301
O O10 0.901067 0.000000 0.051547
O O11 0.000000 0.204273 0.000000
#
# Coordination Sequence:
#
# PCOD9170851 Si02
#       6
#     4   8   4   4   4   8
#     4   9  15  30  57  86  89 122 183 217 241 269
#     4  11  19  35  52  76 103 136 165 205 262 289
#     4  10  17  35  57  74  98 128 177 215 241 290
#     4  10  21  34  54  73 101 137 173 212 233 301
#     4  11  24  32  49  78 107 136 165 204 251 312
#     4   9  14  29  56  79 100 118 167 223 239 291
#
# _framework density 16.323402000000002
#
# number of rings (size 3 to 8) (size 9 to 14) (size 15 to 20)
#    0.750    1.250    5.000    1.500    0.000    2.000 
#    0.000    0.625    0.000    3.000    0.000    0.000 
#    0.000    0.000    0.000    0.000    0.000    0.000 
#
# Total GULP energy -89125.381654 kJ/mol
# GULP energy per Si atom -5570.336353 kJ/mol
# Density = 1.628625 g / cm^3
# Si number density = 16.323402 Si / 1000 Ang^3
#
#
#
# Elastic Constant Matrix: (Units=GPa)
#
#
# Indices 1 2 3 4 5 6 
#
# 1 89.6207 46.8896 42.6925 -0.0001 18.3756 0.0001
# 2 46.8896 91.9937 60.6845 0.0003 14.2742 0.0002
# 3 42.6925 60.6845 113.1262 0.0003 14.1438 0.0001
# 4 -0.0001 0.0003 0.0003 3.7763 0.0000 -1.8719
# 5 18.3756 14.2742 14.1438 0.0000 28.9338 -0.0001
# 6 0.0001 0.0002 0.0001 -1.8719 -0.0001 1.7074
#
#
#
# Elastic Compliance Matrix: (Units=1/GPa)
#
#
# Indices 1 2 3 4 5 6 
#
# 1 0.016728 -0.006014 -0.002268 0.000002 -0.006548 0.000002
# 2 -0.006014 0.019465 -0.007934 -0.000004 -0.001905 -0.000006
# 3 -0.002268 -0.007934 0.014147 -0.000001 -0.001561 -0.000001
# 4 0.000002 -0.000004 -0.000001 0.580076 0.000003 0.635996
# 5 -0.006548 -0.001905 -0.001561 0.000003 0.040423 0.000007
# 6 0.000002 -0.000006 -0.000001 0.635996 0.000007 1.283008
#
#
# Mechanical properties :
#
#
# Convention : Reuss Voigt Hill
#
# Bulk Modulus (GPa) = 55.84235 66.14154 60.99194
# Shear Modulus (GPa) = 2.50973 16.51510 9.51241
#
# Velocity S-wave (km/s) = 1.24131 3.18424 2.41663
# Velocity P-wave (km/s) = 6.02816 7.35708 6.72552
#
# Compressibility (1/GPa) = 0.01790756
#
# Stress axis : x y z
#
# Youngs Moduli (GPa) = 59.78121 51.37462 70.68784
#
# Poissons Ratio (x) = 0.30897 0.16032
# Poissons Ratio (y) = 0.35952 0.56082
# Poissons Ratio (z) = 0.13559 0.40759
#
# Static dielectric constant tensor:
#      x y z
#    x 1.568560 0.000000 0.011720 
#    y 0.000000 1.500320 0.000000 
#    z 0.011720 0.000000 1.567330 
# 
# From -- ./inp_files/351021.got.cif
#   From: 2010.05.17/outbox.cif.g08.bks.cpg/sg12_176_cif.got.tgz:351021.got - 2010.06.03 13:09:07.
