data_PCOD9170115
_publ_section_title
;
Structure prediction by ZEFSAII (Michael W. Deem and Ramdas Pophale) SiO2 
 PCOD9170115
Probable space group: C 2/M
;
_chemical_formula_sum "Si O2"
_cell_formula_units_Z 36
_cell_length_a 13.426211
_cell_length_b 14.883671
_cell_length_c 11.919600
_cell_angle_alpha 90.000000
_cell_angle_beta 140.403563
_cell_angle_gamma 90.000000
_cell_volume 1518.171965
_symmetry_space_group_name_H-M "C 2/M"
_symmetry_group_IT_number 12
_symmetry_cell_setting 'monoclinic'
loop_
_space_group_symop_operation_xyz
x,y,z
-x,y,-z
-x,-y,-z
x,-y,z
1/2+x,1/2+y,z
1/2-x,1/2+y,-z
1/2-x,1/2-y,-z
1/2+x,1/2-y,z
loop_
_atom_site_type_symbol
_atom_site_label
_atom_site_fract_x
_atom_site_fract_y
_atom_site_fract_z
Si Si1 0.728533 0.303981 0.165936
Si Si2 0.851555 0.500000 0.285574
Si Si3 0.714112 0.500000 0.939272
Si Si4 0.658644 0.335999 0.564302
Si Si5 0.166375 0.500000 0.202786
Si Si6 0.549687 0.305601 0.810650
O O1 0.755059 0.408052 0.219450
O O2 0.769209 0.248440 0.310583
O O3 0.857662 0.266608 0.186670
O O4 0.572913 0.280172 0.960039
O O5 0.000000 0.500000 0.500000
O O6 0.860971 0.500000 0.154879
O O7 0.733633 0.500000 0.823768
O O8 0.626217 0.405617 0.881160
O O9 0.500000 0.358847 0.500000
O O10 0.784807 0.413954 0.684694
O O11 0.608580 0.318918 0.394056
O O12 0.000000 0.500000 0.000000
#
# Coordination Sequence:
#
# PCOD9170115 Si02
#       6
#     8   4   4   8   4   8
#     4   9  17  26  43  76 102 121 162 202 248 292
#     4  10  18  27  43  76 105 129 156 211 258 293
#     4  10  17  30  46  71 106 128 157 208 254 291
#     4  10  17  31  52  72 101 133 162 205 256 296
#     4  12  22  32  48  76 105 135 166 204 252 302
#     4   9  16  27  48  73  97 129 160 200 254 297
#
# _framework density 23.712729
#
# number of rings (size 3 to 8) (size 9 to 14) (size 15 to 20)
#    0.000    2.222    4.444    3.000    0.000    0.000 
#    0.000    0.000    0.000    1.333    0.000    0.778 
#    0.000    0.222    0.000    0.000    0.000    0.000 
#
# Total GULP energy -100360.308996 kJ/mol
# GULP energy per Si atom -5575.572722 kJ/mol
# Density = 2.365876 g / cm^3
# Si number density = 23.712729 Si / 1000 Ang^3
#
#
#
# Elastic Constant Matrix: (Units=GPa)
#
#
# Indices 1 2 3 4 5 6 
#
# 1 47.2674 15.0908 36.4331 0.0000 -20.0707 0.0000
# 2 15.0908 169.9502 76.7871 0.0000 -7.0061 0.0000
# 3 36.4331 76.7871 284.2892 0.0000 -48.8168 0.0000
# 4 0.0000 0.0000 0.0000 48.8277 0.0000 -8.7429
# 5 -20.0707 -7.0061 -48.8168 0.0000 45.5870 0.0000
# 6 0.0000 0.0000 0.0000 -8.7429 0.0000 -5.5620
#
#
#
# Elastic Compliance Matrix: (Units=1/GPa)
#
#
# Indices 1 2 3 4 5 6 
#
# 1 0.026965 -0.001373 -0.001326 0.000000 0.010241 0.000000
# 2 -0.001373 0.006818 -0.001948 0.000000 -0.001642 0.000000
# 3 -0.001326 -0.001948 0.004977 0.000000 0.004446 0.000000
# 4 0.000000 0.000000 0.000000 0.015982 0.000000 -0.025122
# 5 0.010241 -0.001642 0.004446 0.000000 0.030954 0.000000
# 6 0.000000 0.000000 0.000000 -0.025122 0.000000 -0.140303
#
#
# Mechanical properties :
#
#
# Convention : Reuss Voigt Hill
#
# Bulk Modulus (GPa) = 33.93657 84.23653 59.08655
# Shear Modulus (GPa) = -140.88492 42.65027 -49.11733
#
# Velocity S-wave (km/s) = -7.71636 4.24562 -4.55614
# Velocity P-wave (km/s) = 8.06517 7.72234 1.64505
#
# Compressibility (1/GPa) = 0.02946674
#
# Stress axis : x y z
#
# Youngs Moduli (GPa) = 37.08456 146.66431 200.91902
#
# Poissons Ratio (x) = 0.20136 0.26651
# Poissons Ratio (y) = 0.05091 0.39133
# Poissons Ratio (z) = 0.04919 0.28566
#
# Static dielectric constant tensor:
#      x y z
#    x 1.795700 0.000000 0.058290 
#    y 0.000000 2.012860 0.000000 
#    z 0.058290 0.000000 1.935500 
# 
# From -- ./inp_files/95479.got.cif
#   From: 2010.05.17/outbox.cif.g08.bks.cpg/sg12_48_cif.got.tgz:95479.got - 2010.06.03 13:09:07.
