data_PCOD9170950
_publ_section_title
;
Structure prediction by ZEFSAII (Michael W. Deem and Ramdas Pophale) SiO2 
 PCOD9170950
Probable space group: C 2/M
;
_chemical_formula_sum "Si O2"
_cell_formula_units_Z 40
_cell_length_a 13.883187
_cell_length_b 22.731239
_cell_length_c 6.959726
_cell_angle_alpha 90.000000
_cell_angle_beta 64.008749
_cell_angle_gamma 90.000000
_cell_volume 1974.226372
_symmetry_space_group_name_H-M "C 2/M"
_symmetry_group_IT_number 12
_symmetry_cell_setting 'monoclinic'
loop_
_space_group_symop_operation_xyz
x,y,z
-x,y,-z
-x,-y,-z
x,-y,z
1/2+x,1/2+y,z
1/2-x,1/2+y,-z
1/2-x,1/2-y,-z
1/2+x,1/2-y,z
loop_
_atom_site_type_symbol
_atom_site_label
_atom_site_fract_x
_atom_site_fract_y
_atom_site_fract_z
Si Si1 0.354645 0.240596 0.281120
Si Si2 0.615681 0.631198 0.867416
Si Si3 0.281584 0.146163 0.050245
Si Si4 0.782479 0.430688 0.436531
Si Si5 0.992462 0.630735 0.236150
O O1 0.250000 0.250000 0.500000
O O2 0.402915 0.304430 0.207701
O O3 0.314488 0.207991 0.121479
O O4 0.438281 0.195005 0.302230
O O5 0.695440 0.595380 0.659400
O O6 0.500000 0.602431 0.000000
O O7 0.676965 0.643525 0.013002
O O8 0.269245 0.102186 0.242363
O O9 0.382768 0.130216 0.824138
O O10 0.770816 0.500000 0.427369
O O11 0.904753 0.414321 0.390663
O O12 0.000000 0.619432 0.000000
#
# Coordination Sequence:
#
# PCOD9170950 Si02
#       5
#     8   8   8   8   8
#     4  10  17  38  62  89 123 151 187 240 297 352
#     4  12  24  39  60  86 122 160 199 235 289 353
#     4  10  22  39  62  90 118 155 191 243 302 348
#     4  10  22  42  62  85 118 151 198 251 289 345
#     4   8  17  36  62  87 118 147 187 240 302 345
#
# _framework density 20.261099999999999
#
# number of rings (size 3 to 8) (size 9 to 14) (size 15 to 20)
#    0.000    2.400    4.000    2.400    0.000    6.400 
#    0.000    4.000    0.000    0.000    0.000    0.000 
#    0.000    0.000    0.000    0.000    0.000    0.000 
#
# Total GULP energy -111534.639094 kJ/mol
# GULP energy per Si atom -5576.731955 kJ/mol
# Density = 2.021498 g / cm^3
# Si number density = 20.261100 Si / 1000 Ang^3
#
#
#
# Elastic Constant Matrix: (Units=GPa)
#
#
# Indices 1 2 3 4 5 6 
#
# 1 69.3473 -8.1693 26.1153 0.0000 -24.8983 0.0000
# 2 -8.1693 89.6280 34.1602 0.0000 -3.4832 0.0000
# 3 26.1153 34.1602 132.9298 0.0000 -35.3800 0.0000
# 4 0.0000 0.0000 0.0000 4.0075 0.0000 2.5269
# 5 -24.8983 -3.4832 -35.3800 0.0000 38.1185 0.0000
# 6 0.0000 0.0000 0.0000 2.5269 0.0000 1.6744
#
#
#
# Elastic Compliance Matrix: (Units=1/GPa)
#
#
# Indices 1 2 3 4 5 6 
#
# 1 0.019466 0.002776 -0.001442 0.000000 0.011630 0.000000
# 2 0.002776 0.012934 -0.004080 0.000000 -0.000792 0.000000
# 3 -0.001442 -0.004080 0.011295 0.000000 0.009168 0.000000
# 4 0.000000 0.000000 0.000000 5.147904 0.000000 -7.768649
# 5 0.011630 -0.000792 0.009168 0.000000 0.042268 0.000000
# 6 0.000000 0.000000 0.000000 -7.768649 0.000000 12.320810
#
#
# Mechanical properties :
#
#
# Convention : Reuss Voigt Hill
#
# Bulk Modulus (GPa) = 26.17631 44.01304 35.09468
# Shear Modulus (GPa) = 0.28453 24.74668 12.51560
#
# Velocity S-wave (km/s) = 0.37515 3.49863 2.48809
# Velocity P-wave (km/s) = 3.62425 6.17176 5.06092
#
# Compressibility (1/GPa) = 0.03820248
#
# Stress axis : x y z
#
# Youngs Moduli (GPa) = 51.37204 77.31271 88.53610
#
# Poissons Ratio (x) = -0.21461 0.12769
# Poissons Ratio (y) = -0.14260 0.36122
# Poissons Ratio (z) = 0.07409 0.31543
#
# Static dielectric constant tensor:
#      x y z
#    x 1.792170 0.000000 -0.016980 
#    y 0.000000 1.706510 0.000000 
#    z -0.016980 0.000000 1.760870 
# 
# From -- ./inp_files/64626.got.cif
#   From: 2010.05.17/outbox.cif.g08.bks.cpg/sg12_33_cif.got.tgz:64626.got - 2010.06.03 13:09:07.
