data_PCOD9170829
_publ_section_title
;
Structure prediction by ZEFSAII (Michael W. Deem and Ramdas Pophale) SiO2 
 PCOD9170829
Probable space group: C 2/M
;
_chemical_formula_sum "Si O2"
_cell_formula_units_Z 56
_cell_length_a 21.552024
_cell_length_b 15.019853
_cell_length_c 14.721497
_cell_angle_alpha 90.000000
_cell_angle_beta 139.892230
_cell_angle_gamma 90.000000
_cell_volume 3070.045993
_symmetry_space_group_name_H-M "C 2/M"
_symmetry_group_IT_number 12
_symmetry_cell_setting 'monoclinic'
loop_
_space_group_symop_operation_xyz
x,y,z
-x,y,-z
-x,-y,-z
x,-y,z
1/2+x,1/2+y,z
1/2-x,1/2+y,-z
1/2-x,1/2-y,-z
1/2+x,1/2-y,z
loop_
_atom_site_type_symbol
_atom_site_label
_atom_site_fract_x
_atom_site_fract_y
_atom_site_fract_z
Si Si1 0.241885 0.844148 0.542684
Si Si2 0.896672 0.396071 0.433356
Si Si3 0.400460 0.238106 0.118850
Si Si4 0.346045 0.606073 0.374994
Si Si5 0.468199 0.600491 0.678290
Si Si6 0.798526 0.258958 0.195622
Si Si7 0.561235 0.101274 0.315351
O O1 0.250000 0.750000 0.500000
O O2 0.229680 0.849233 0.638256
O O3 0.139262 0.887323 0.399293
O O4 0.338812 0.895040 0.626122
O O5 0.866829 0.500000 0.401433
O O6 0.824212 0.333419 0.298313
O O7 0.913024 0.364490 0.554599
O O8 0.000000 0.390720 0.500000
O O9 0.459625 0.328350 0.201189
O O10 0.350838 0.215341 0.160073
O O11 0.478262 0.162927 0.182350
O O12 0.314135 0.249282 0.951603
O O13 0.329068 0.500000 0.344430
O O14 0.444379 0.614801 0.544151
O O15 0.339196 0.664964 0.278053
O O16 0.501528 0.500000 0.728158
O O17 0.526991 0.000000 0.285972
#
# Coordination Sequence:
#
# PCOD9170829 Si02
#       7
#     8   8   8   8   8   8   8
#     4  10  17  34  63  89 112 140 187 238 280 336
#     4  10  20  35  57  82 106 139 189 242 283 328
#     4  11  23  36  53  83 112 154 193 226 284 347
#     4   9  20  37  58  86 115 144 187 236 281 338
#     4   9  19  36  57  83 111 141 185 235 279 336
#     4  11  23  37  55  78 117 153 189 234 283 336
#     4  11  20  35  61  86 111 143 186 239 286 331
#
# _framework density 18.240769
#
# number of rings (size 3 to 8) (size 9 to 14) (size 15 to 20)
#    0.857    1.000    2.857    2.571    0.000    1.714 
#    0.000    5.000    0.000    1.714    0.000    4.000 
#    0.000    0.000    0.000    0.000    0.000    0.000 
#
# Total GULP energy -156049.984472 kJ/mol
# GULP energy per Si atom -5573.213731 kJ/mol
# Density = 1.819925 g / cm^3
# Si number density = 18.240769 Si / 1000 Ang^3
#
#
#
# Elastic Constant Matrix: (Units=GPa)
#
#
# Indices 1 2 3 4 5 6 
#
# 1 36.6363 -13.6856 14.6705 0.0000 11.7672 0.0000
# 2 -13.6856 88.1718 62.0398 0.0000 10.6718 0.0000
# 3 14.6705 62.0398 106.5865 0.0000 21.4847 0.0000
# 4 0.0000 0.0000 0.0000 4.8582 0.0000 0.0201
# 5 11.7672 10.6718 21.4847 0.0000 22.1741 0.0000
# 6 0.0000 0.0000 0.0000 0.0201 0.0000 15.9119
#
#
#
# Elastic Compliance Matrix: (Units=1/GPa)
#
#
# Indices 1 2 3 4 5 6 
#
# 1 0.046501 0.019112 -0.013292 0.000000 -0.020996 0.000000
# 2 0.019112 0.027133 -0.017083 0.000000 -0.006648 0.000000
# 3 -0.013292 -0.017083 0.022463 0.000000 -0.006489 0.000000
# 4 0.000000 0.000000 0.000000 0.205840 0.000000 -0.000259
# 5 -0.020996 -0.006648 -0.006489 0.000000 0.065726 0.000000
# 6 0.000000 0.000000 0.000000 -0.000259 0.000000 0.062846
#
#
# Mechanical properties :
#
#
# Convention : Reuss Voigt Hill
#
# Bulk Modulus (GPa) = 13.59271 39.71601 26.65436
# Shear Modulus (GPa) = 10.46987 19.81351 15.14169
#
# Velocity S-wave (km/s) = 2.39839 3.29936 2.88427
# Velocity P-wave (km/s) = 3.89072 6.02784 5.07309
#
# Compressibility (1/GPa) = 0.07356883
#
# Stress axis : x y z
#
# Youngs Moduli (GPa) = 21.50491 36.85558 44.51725
#
# Poissons Ratio (x) = -0.70438 0.59174
# Poissons Ratio (y) = -0.41100 0.76051
# Poissons Ratio (z) = 0.28585 0.62962
#
# Static dielectric constant tensor:
#      x y z
#    x 1.668350 0.000000 -0.003690 
#    y 0.000000 1.644520 0.000000 
#    z -0.003690 0.000000 1.595600 
# 
# From -- ./inp_files/233715.got.cif
#   From: 2010.05.17/outbox.cif.g08.bks.cpg/sg12_117_cif.got.tgz:233715.got - 2010.06.03 13:09:07.
