data_PCOD9170024
_publ_section_title
;
Structure prediction by ZEFSAII (Michael W. Deem and Ramdas Pophale) SiO2 
 PCOD9170024
Probable space group: C 2/M
;
_chemical_formula_sum "Si O2"
_cell_formula_units_Z 58
_cell_length_a 18.908614
_cell_length_b 25.734737
_cell_length_c 5.318794
_cell_angle_alpha 90.000000
_cell_angle_beta 82.329604
_cell_angle_gamma 90.000000
_cell_volume 2565.010651
_symmetry_space_group_name_H-M "C 2/M"
_symmetry_group_IT_number 12
_symmetry_cell_setting 'monoclinic'
loop_
_space_group_symop_operation_xyz
x,y,z
-x,y,-z
-x,-y,-z
x,-y,z
1/2+x,1/2+y,z
1/2-x,1/2+y,-z
1/2-x,1/2-y,-z
1/2+x,1/2-y,z
loop_
_atom_site_type_symbol
_atom_site_label
_atom_site_fract_x
_atom_site_fract_y
_atom_site_fract_z
Si Si1 0.972909 0.104999 0.758240
Si Si2 0.297121 0.302633 0.487852
Si Si3 0.580967 0.900731 0.435209
Si Si4 0.500000 0.500000 0.500000
Si Si5 0.763598 0.414927 0.526416
Si Si6 0.579445 0.166085 0.937123
Si Si7 0.321497 0.558730 0.923541
Si Si8 0.667423 0.266827 0.023721
O O1 0.010443 0.047751 0.701837
O O2 0.889072 0.093393 0.815873
O O3 0.000000 0.134719 0.500000
O O4 0.000000 0.129355 0.000000
O O5 0.250000 0.250000 0.500000
O O6 0.246645 0.352875 0.515133
O O7 0.340698 0.304155 0.209672
O O8 0.346102 0.295046 0.707681
O O9 0.500000 0.923448 0.500000
O O10 0.654692 0.930738 0.455400
O O11 0.584522 0.857027 0.654393
O O12 0.588146 0.877701 0.150095
O O13 0.733916 0.438301 0.281923
O O14 0.716036 0.428219 0.794065
O O15 0.629325 0.213230 0.984208
O O16 0.500000 0.186682 0.000000
O O17 0.349230 0.500000 0.921095
O O18 0.750000 0.250000 0.000000
#
# Coordination Sequence:
#
# PCOD9170024 Si02
#       8
#     8   8   8   2   8   8   8   8
#     4  10  19  34  60  89 116 152 199 240 282 339
#     4  10  20  34  56  83 114 151 192 240 285 350
#     4  10  20  36  57  84 119 152 205 266 303 354
#     4   8  18  28  62  88 118 140 204 238 286 324
#     4  12  24  39  62  92 123 159 206 251 313 367
#     4  10  19  32  55  86 113 152 205 258 302 344
#     4  12  25  41  63  93 128 157 196 256 309 360
#     4  10  17  29  51  76 109 143 181 230 292 346
#
# _framework density 22.611989999999999
#
# number of rings (size 3 to 8) (size 9 to 14) (size 15 to 20)
#    0.414    1.103    0.690    7.241    0.000    0.000 
#    0.000    0.000    0.000   10.759    0.000    0.000 
#    0.000    0.000    0.000    0.000    0.000    0.000 
#
# Total GULP energy -161582.619015 kJ/mol
# GULP energy per Si atom -5571.814449 kJ/mol
# Density = 2.256052 g / cm^3
# Si number density = 22.611990 Si / 1000 Ang^3
#
#
#
# Elastic Constant Matrix: (Units=GPa)
#
#
# Indices 1 2 3 4 5 6 
#
# 1 104.5930 -4.1123 9.9719 0.0000 9.0560 0.0000
# 2 -4.1123 50.6206 1.2202 0.0000 -1.6144 0.0000
# 3 9.9719 1.2202 157.6318 0.0000 15.6530 0.0000
# 4 0.0000 0.0000 0.0000 29.1352 0.0000 14.7085
# 5 9.0560 -1.6144 15.6530 0.0000 27.2180 0.0000
# 6 0.0000 0.0000 0.0000 14.7085 0.0000 34.1377
#
#
#
# Elastic Compliance Matrix: (Units=1/GPa)
#
#
# Indices 1 2 3 4 5 6 
#
# 1 0.009885 0.000713 -0.000327 0.000000 -0.003058 0.000000
# 2 0.000713 0.019856 -0.000310 0.000000 0.001119 0.000000
# 3 -0.000327 -0.000310 0.006743 0.000000 -0.003787 0.000000
# 4 0.000000 0.000000 0.000000 0.043864 0.000000 -0.018899
# 5 -0.003058 0.001119 -0.003787 0.000000 0.040003 0.000000
# 6 0.000000 0.000000 0.000000 -0.018899 0.000000 0.037436
#
#
# Mechanical properties :
#
#
# Convention : Reuss Voigt Hill
#
# Bulk Modulus (GPa) = 27.29515 36.33388 31.81452
# Shear Modulus (GPa) = 29.43850 38.48254 33.96052
#
# Velocity S-wave (km/s) = 3.61210 4.12984 3.87962
# Velocity P-wave (km/s) = 5.43080 6.23250 5.84541
#
# Compressibility (1/GPa) = 0.03663655
#
# Stress axis : x y z
#
# Youngs Moduli (GPa) = 101.16418 50.36286 148.29993
#
# Poissons Ratio (x) = -0.03593 0.04851
# Poissons Ratio (y) = -0.07217 0.04596
# Poissons Ratio (z) = 0.03309 0.01561
#
# Static dielectric constant tensor:
#      x y z
#    x 1.986270 0.000000 0.083680 
#    y 0.000000 1.830850 0.000000 
#    z 0.083680 0.000000 2.185960 
# 
# From -- ./inp_files/17682.got.cif
#   From: 2010.05.17/outbox.cif.g08.bks.cpg/sg12_9_cif.got.tgz:17682.got - 2010.06.03 13:09:07.
