data_PCOD9170444
_publ_section_title
;
Structure prediction by ZEFSAII (Michael W. Deem and Ramdas Pophale) SiO2 
 PCOD9170444
Probable space group: C 2/M
;
_chemical_formula_sum "Si O2"
_cell_formula_units_Z 64
_cell_length_a 15.784805
_cell_length_b 7.388941
_cell_length_c 24.803269
_cell_angle_alpha 90.000000
_cell_angle_beta 89.990640
_cell_angle_gamma 90.000000
_cell_volume 2892.879457
_symmetry_space_group_name_H-M "C 2/M"
_symmetry_group_IT_number 12
_symmetry_cell_setting 'monoclinic'
loop_
_space_group_symop_operation_xyz
x,y,z
-x,y,-z
-x,-y,-z
x,-y,z
1/2+x,1/2+y,z
1/2-x,1/2+y,-z
1/2-x,1/2-y,-z
1/2+x,1/2-y,z
loop_
_atom_site_type_symbol
_atom_site_label
_atom_site_fract_x
_atom_site_fract_y
_atom_site_fract_z
Si Si1 0.022102 0.789812 0.058181
Si Si2 0.624894 0.709527 0.249972
Si Si3 0.863563 0.281395 0.366489
Si Si4 0.863626 0.718606 0.133517
Si Si5 0.073973 0.718895 0.750000
Si Si6 0.825238 0.778074 0.868143
Si Si7 0.522026 0.710195 0.441801
Si Si8 0.825309 0.778074 0.631912
O O1 0.939400 0.781798 0.095662
O O2 0.101458 0.713796 0.091628
O O3 0.044199 0.000000 0.048510
O O4 0.000000 0.708847 0.000000
O O5 0.652751 0.500000 0.249971
O O6 0.523207 0.719134 0.249978
O O7 0.656614 0.784933 0.193046
O O8 0.656595 0.784934 0.306897
O O9 0.865850 0.500000 0.366885
O O10 0.881248 0.222336 0.305038
O O11 0.939288 0.218229 0.404372
O O12 0.769646 0.225809 0.384060
O O13 0.865921 0.500000 0.133115
O O14 0.881225 0.777645 0.194976
O O15 0.769736 0.774189 0.115907
O O16 0.073490 0.500000 0.749998
O O17 0.829263 0.000000 0.866963
O O18 0.500000 0.791150 0.500000
O O19 0.544125 0.500000 0.451452
O O20 0.601355 0.786201 0.408311
O O21 0.829332 0.000000 0.633095
#
# Coordination Sequence:
#
# PCOD9170444 Si02
#       8
#     8   8   8   8   8   8   8   8
#     4  10  21  37  55  77 106 139 180 226 263 302
#     4  10  17  31  57  78 100 140 179 205 253 330
#     4  10  20  35  55  78 106 138 174 214 261 318
#     4  10  20  35  55  78 106 138 174 214 261 318
#     4  10  19  31  51  80 108 130 163 219 267 300
#     4   9  18  33  54  78 103 137 176 211 257 319
#     4  10  21  37  55  77 106 139 180 226 263 302
#     4   9  18  33  54  78 103 137 176 211 257 319
#
# _framework density 22.123286
#
# number of rings (size 3 to 8) (size 9 to 14) (size 15 to 20)
#    0.000    2.250    2.500    0.750    0.000    4.500 
#    0.000    2.500    0.000    1.500    0.000    0.000 
#    0.000    0.000    0.000    0.000    0.000    0.000 
#
# Total GULP energy -178801.796727 kJ/mol
# GULP energy per Si atom -5587.556148 kJ/mol
# Density = 2.207293 g / cm^3
# Si number density = 22.123286 Si / 1000 Ang^3
#
#
#
# Elastic Constant Matrix: (Units=GPa)
#
#
# Indices 1 2 3 4 5 6 
#
# 1 127.9255 -22.3038 37.8857 0.0000 0.1554 0.0000
# 2 -22.3038 72.3216 -7.2893 0.0000 -0.0135 0.0000
# 3 37.8857 -7.2893 129.9455 0.0000 0.1771 0.0000
# 4 0.0000 0.0000 0.0000 -4.8159 0.0000 0.0094
# 5 0.1554 -0.0135 0.1771 0.0000 -7.2106 0.0000
# 6 0.0000 0.0000 0.0000 0.0094 0.0000 12.6910
#
#
#
# Elastic Compliance Matrix: (Units=1/GPa)
#
#
# Indices 1 2 3 4 5 6 
#
# 1 0.008991 0.002523 -0.002480 0.000000 0.000128 0.000000
# 2 0.002523 0.014614 0.000084 0.000000 0.000029 0.000000
# 3 -0.002480 0.000084 0.008423 0.000000 0.000153 0.000000
# 4 0.000000 0.000000 0.000000 -0.207647 0.000000 0.000153
# 5 0.000128 0.000029 0.000153 0.000000 -0.138678 0.000000
# 6 0.000000 0.000000 0.000000 0.000153 0.000000 0.078796
#
#
# Mechanical properties :
#
#
# Convention : Reuss Voigt Hill
#
# Bulk Modulus (GPa) = 30.97694 38.53088 34.75391
# Shear Modulus (GPa) = -22.22273 21.59290 -0.31491
#
# Velocity S-wave (km/s) = -3.17282 3.12753 -0.37769
# Velocity P-wave (km/s) = 0.78104 5.52233 3.94374
#
# Compressibility (1/GPa) = 0.03228208
#
# Stress axis : x y z
#
# Youngs Moduli (GPa) = 111.21927 68.42906 118.72102
#
# Poissons Ratio (x) = -0.17264 0.29443
# Poissons Ratio (y) = -0.28060 -0.00999
# Poissons Ratio (z) = 0.27583 -0.00576
#
# Static dielectric constant tensor:
#      x y z
#    x 1.763360 0.000000 0.000020 
#    y 0.000000 1.929610 0.000000 
#    z 0.000020 0.000000 1.785750 
# 
# From -- ./inp_files/338720.got.cif
#   From: 2010.05.17/outbox.cif.g08.bks.cpg/sg12_170_cif.got.tgz:338720.got - 2010.06.03 13:09:07.
