data_PCOD9170696
_publ_section_title
;
Structure prediction by ZEFSAII (Michael W. Deem and Ramdas Pophale) SiO2 
 PCOD9170696
Probable space group: C 2/M
;
_chemical_formula_sum "Si O2"
_cell_formula_units_Z 64
_cell_length_a 14.349978
_cell_length_b 21.446427
_cell_length_c 30.053173
_cell_angle_alpha 90.000000
_cell_angle_beta 159.054683
_cell_angle_gamma 90.000000
_cell_volume 3306.315942
_symmetry_space_group_name_H-M "C 2/M"
_symmetry_group_IT_number 12
_symmetry_cell_setting 'monoclinic'
loop_
_space_group_symop_operation_xyz
x,y,z
-x,y,-z
-x,-y,-z
x,-y,z
1/2+x,1/2+y,z
1/2-x,1/2+y,-z
1/2-x,1/2-y,-z
1/2+x,1/2-y,z
loop_
_atom_site_type_symbol
_atom_site_label
_atom_site_fract_x
_atom_site_fract_y
_atom_site_fract_z
Si Si1 0.282668 0.569289 0.509942
Si Si2 0.139766 0.753951 0.754545
Si Si3 0.769425 0.743671 0.707929
Si Si4 0.333758 0.099411 0.714855
Si Si5 0.871086 0.099691 0.989076
Si Si6 0.350641 0.832920 0.474409
Si Si7 0.816770 0.247493 0.977356
Si Si8 0.094614 0.604355 0.737679
O O1 0.248511 0.500000 0.512774
O O2 0.559002 0.572961 0.607707
O O3 0.262038 0.619927 0.539595
O O4 0.059528 0.583541 0.374271
O O5 0.195481 0.764259 0.726929
O O6 0.101388 0.679859 0.742990
O O7 0.880961 0.791455 0.649229
O O8 0.393102 0.774666 0.895735
O O9 0.791381 0.674535 0.697372
O O10 0.551078 0.785898 0.588159
O O11 0.062051 0.772220 0.838709
O O12 0.439272 0.082935 0.712724
O O13 0.569682 0.079935 0.853588
O O14 0.100867 0.083566 0.125958
O O15 0.846119 0.174881 0.977914
O O16 0.000000 0.080346 0.000000
O O17 0.500000 0.864370 0.500000
O O18 0.750000 0.250000 0.000000
#
# Coordination Sequence:
#
# PCOD9170696 Si02
#       8
#     8   8   8   8   8   8   8   8
#     4  12  26  42  56  73 101 143 193 239 276 313
#     4  10  17  33  56  87 118 143 171 211 266 331
#     4  10  17  33  56  87 118 143 171 211 266 331
#     4  10  19  34  58  87 117 143 169 211 268 332
#     4   8  16  30  51  81 115 145 167 196 255 331
#     4  12  24  38  56  79 107 144 188 232 275 319
#     4   8  16  26  50  82 115 146 168 197 254 328
#     4  10  19  34  58  87 117 143 169 211 268 332
#
# _framework density 19.356891000000001
#
# number of rings (size 3 to 8) (size 9 to 14) (size 15 to 20)
#    0.000    2.000    2.500    2.250    0.000    2.250 
#    0.000    0.625    0.000    2.250    0.000    0.000 
#    0.000    4.000    0.000    0.000    0.000    0.000 
#
# Total GULP energy -178508.213485 kJ/mol
# GULP energy per Si atom -5578.381671 kJ/mol
# Density = 1.931283 g / cm^3
# Si number density = 19.356891 Si / 1000 Ang^3
#
#
#
# Elastic Constant Matrix: (Units=GPa)
#
#
# Indices 1 2 3 4 5 6 
#
# 1 35.5711 -0.6663 -11.7671 -0.0212 5.0635 0.0183
# 2 -0.6663 60.7994 26.0786 -0.0119 1.5078 0.0119
# 3 -11.7671 26.0786 138.4253 -0.0733 13.7663 0.0800
# 4 -0.0212 -0.0119 -0.0733 -8.0368 0.0044 7.5796
# 5 5.0635 1.5078 13.7663 0.0044 16.4762 -0.0006
# 6 0.0183 0.0119 0.0800 7.5796 -0.0006 -23.0972
#
#
#
# Elastic Compliance Matrix: (Units=1/GPa)
#
#
# Indices 1 2 3 4 5 6 
#
# 1 0.031321 -0.001122 0.004167 -0.000129 -0.013005 -0.000003
# 2 -0.001122 0.017959 -0.003653 0.000010 0.001753 -0.000001
# 3 0.004167 -0.003653 0.009118 -0.000090 -0.008565 0.000004
# 4 -0.000129 0.000010 -0.000090 -0.180196 0.000160 -0.059133
# 5 -0.013005 0.001753 -0.008565 0.000160 0.071686 0.000012
# 6 -0.000003 -0.000001 0.000004 -0.059133 0.000012 -0.062701
#
#
# Mechanical properties :
#
#
# Convention : Reuss Voigt Hill
#
# Bulk Modulus (GPa) = 17.48772 29.12071 23.30422
# Shear Modulus (GPa) = -54.03307 11.81182 -21.11063
#
# Velocity S-wave (km/s) = -5.28911 2.47293 -3.30601
# Velocity P-wave (km/s) = 5.31466 4.81981 1.58352
#
# Compressibility (1/GPa) = 0.05718297
#
# Stress axis : x y z
#
# Youngs Moduli (GPa) = 31.92717 55.68345 109.66982
#
# Poissons Ratio (x) = 0.06246 -0.45700
# Poissons Ratio (y) = 0.03581 0.40063
# Poissons Ratio (z) = -0.13304 0.20341
#
# Static dielectric constant tensor:
#      x y z
#    x 1.685690 0.000000 0.011810 
#    y 0.000000 1.663490 -0.000010 
#    z 0.011810 -0.000010 1.730990 
# 
# From -- ./inp_files/377109.got.cif
#   From: 2010.05.17/outbox.cif.g08.bks.cpg/sg12_189_cif.got.tgz:377109.got - 2010.06.03 13:09:07.
