data_PCOD9170765
_publ_section_title
;
Structure prediction by ZEFSAII (Michael W. Deem and Ramdas Pophale) SiO2 
 PCOD9170765
Probable space group: C 2/M
;
_chemical_formula_sum "Si O2"
_cell_formula_units_Z 60
_cell_length_a 9.137482
_cell_length_b 27.488711
_cell_length_c 20.089211
_cell_angle_alpha 90.000000
_cell_angle_beta 39.329286
_cell_angle_gamma 90.000000
_cell_volume 3198.009903
_symmetry_space_group_name_H-M "C 2/M"
_symmetry_group_IT_number 12
_symmetry_cell_setting 'monoclinic'
loop_
_space_group_symop_operation_xyz
x,y,z
-x,y,-z
-x,-y,-z
x,-y,z
1/2+x,1/2+y,z
1/2-x,1/2+y,-z
1/2-x,1/2-y,-z
1/2+x,1/2-y,z
loop_
_atom_site_type_symbol
_atom_site_label
_atom_site_fract_x
_atom_site_fract_y
_atom_site_fract_z
Si Si1 0.339019 0.856902 0.495973
Si Si2 0.379307 0.880825 0.185287
Si Si3 0.627548 0.295214 0.342527
Si Si4 0.576524 0.557444 0.654780
Si Si5 0.000000 0.586304 0.000000
Si Si6 0.518360 0.445265 0.828950
Si Si7 0.515827 0.194019 0.314516
Si Si8 0.810710 0.131283 0.122531
O O1 0.500000 0.839441 0.500000
O O2 0.247173 0.909847 0.550389
O O3 0.472832 0.850886 0.379846
O O4 0.116948 0.822289 0.564876
O O5 0.267505 0.828595 0.240752
O O6 0.468558 0.883429 0.078650
O O7 0.587575 0.889499 0.162654
O O8 0.179618 0.920860 0.266419
O O9 0.583557 0.241137 0.332643
O O10 0.784278 0.296219 0.353424
O O11 0.591287 0.500000 0.636439
O O12 0.614638 0.565404 0.720753
O O13 0.238876 0.556941 0.922158
O O14 0.587843 0.500000 0.822863
O O15 0.595038 0.406596 0.856566
O O16 0.718694 0.178680 0.193240
O O17 0.000000 0.141811 0.000000
#
# Coordination Sequence:
#
# PCOD9170765 Si02
#       8
#     8   8   8   8   4   8   8   8
#     4  11  21  37  63  90 116 154 189 244 293 347
#     4   9  20  37  58  84 118 155 192 242 289 343
#     4  10  22  40  60  88 115 151 195 241 293 355
#     4   9  20  38  60  89 120 153 193 238 294 352
#     4  10  17  34  54  82 114 150 194 236 283 332
#     4  10  20  34  57  84 115 152 196 239 282 342
#     4  11  23  40  62  85 118 152 198 243 296 351
#     4  11  22  40  56  85 121 155 197 246 292 340
#
# _framework density 18.761666999999999
#
# number of rings (size 3 to 8) (size 9 to 14) (size 15 to 20)
#    0.000    1.867    1.333    2.600    0.000    3.733 
#    1.200    2.000    0.000   10.400    0.000    0.000 
#    0.000    0.000    0.000    0.000    0.000    0.000 
#
# Total GULP energy -167440.205059 kJ/mol
# GULP energy per Si atom -5581.340169 kJ/mol
# Density = 1.871896 g / cm^3
# Si number density = 18.761667 Si / 1000 Ang^3
#
#
#
# Elastic Constant Matrix: (Units=GPa)
#
#
# Indices 1 2 3 4 5 6 
#
# 1 96.1277 44.2854 32.7375 0.0000 -3.1662 0.0000
# 2 44.2854 94.2813 59.7418 0.0000 7.8642 0.0000
# 3 32.7375 59.7418 92.0542 0.0001 12.1465 -0.0001
# 4 0.0000 0.0000 0.0001 5.9512 0.0000 4.9818
# 5 -3.1662 7.8642 12.1465 0.0000 29.5168 0.0000
# 6 0.0000 0.0000 -0.0001 4.9818 0.0000 21.4997
#
#
#
# Elastic Compliance Matrix: (Units=1/GPa)
#
#
# Indices 1 2 3 4 5 6 
#
# 1 0.013714 -0.005691 -0.001669 0.000000 0.003674 0.000000
# 2 -0.005691 0.020376 -0.011001 0.000000 -0.001512 0.000000
# 3 -0.001669 -0.011001 0.019280 0.000000 -0.005182 0.000000
# 4 0.000000 0.000000 0.000000 0.208470 0.000000 -0.048305
# 5 0.003674 -0.001512 -0.005182 0.000000 0.036808 0.000000
# 6 0.000000 0.000000 0.000000 -0.048305 0.000000 0.057705
#
#
# Mechanical properties :
#
#
# Convention : Reuss Voigt Hill
#
# Bulk Modulus (GPa) = 60.06078 61.77699 60.91888
# Shear Modulus (GPa) = 12.54317 21.10676 16.82496
#
# Velocity S-wave (km/s) = 2.58844 3.35773 2.99787
# Velocity P-wave (km/s) = 6.40433 6.93045 6.67258
#
# Compressibility (1/GPa) = 0.01664980
#
# Stress axis : x y z
#
# Youngs Moduli (GPa) = 72.91934 49.07679 51.86847
#
# Poissons Ratio (x) = 0.27928 0.08655
# Poissons Ratio (y) = 0.41496 0.57058
# Poissons Ratio (z) = 0.12168 0.53987
#
# Static dielectric constant tensor:
#      x y z
#    x 1.639710 0.000000 -0.006100 
#    y 0.000000 1.618860 0.000000 
#    z -0.006100 0.000000 1.669310 
# 
# From -- ./inp_files/302742.got.cif
#   From: 2010.05.17/outbox.cif.g08.bks.cpg/sg12_152_cif.got.tgz:302742.got - 2010.06.03 13:09:07.
