data_PCOD9170815
_publ_section_title
;
Structure prediction by ZEFSAII (Michael W. Deem and Ramdas Pophale) SiO2 
 PCOD9170815
Probable space group: C 2/M
;
_chemical_formula_sum "Si O2"
_cell_formula_units_Z 58
_cell_length_a 17.208496
_cell_length_b 17.811749
_cell_length_c 10.981946
_cell_angle_alpha 90.000000
_cell_angle_beta 104.035285
_cell_angle_gamma 90.000000
_cell_volume 3265.623649
_symmetry_space_group_name_H-M "C 2/M"
_symmetry_group_IT_number 12
_symmetry_cell_setting 'monoclinic'
loop_
_space_group_symop_operation_xyz
x,y,z
-x,y,-z
-x,-y,-z
x,-y,z
1/2+x,1/2+y,z
1/2-x,1/2+y,-z
1/2-x,1/2-y,-z
1/2+x,1/2-y,z
loop_
_atom_site_type_symbol
_atom_site_label
_atom_site_fract_x
_atom_site_fract_y
_atom_site_fract_z
Si Si1 0.480815 0.196243 0.858366
Si Si2 0.024766 0.130987 0.822075
Si Si3 0.682960 0.201194 0.327915
Si Si4 0.636054 0.630845 0.389065
Si Si5 0.000000 0.000000 0.000000
Si Si6 0.190452 0.416325 0.551678
Si Si7 0.633628 0.674293 0.652719
Si Si8 0.941175 0.662071 0.365965
O O1 0.509751 0.283692 0.864194
O O2 0.386084 0.190505 0.797397
O O3 0.521141 0.158102 0.754254
O O4 0.500000 0.166521 0.000000
O O5 0.099228 0.134683 0.758327
O O6 0.942727 0.113149 0.716868
O O7 0.035768 0.067020 0.924919
O O8 0.662847 0.282428 0.377352
O O9 0.677140 0.140637 0.434226
O O10 0.772537 0.195649 0.309980
O O11 0.715152 0.585582 0.384178
O O12 0.620102 0.625384 0.526621
O O13 0.165876 0.500000 0.508267
O O14 0.137993 0.386844 0.643789
O O15 0.583257 0.751175 0.622564
O O16 0.000000 0.641116 0.500000
#
# Coordination Sequence:
#
# PCOD9170815 Si02
#       8
#     8   8   8   8   2   8   8   8
#     4  10  20  37  60  87 108 147 202 237 280 345
#     4  10  22  36  58  80 113 158 188 235 284 353
#     4  10  18  36  60  83 120 150 184 244 293 333
#     4  10  18  36  61  87 115 148 188 240 293 340
#     4  12  24  44  50  76 124 156 198 228 310 336
#     4  11  21  33  55  92 119 146 183 236 301 352
#     4  10  17  34  60  88 108 141 202 238 282 334
#     4  11  18  34  58  85 114 146 188 244 279 343
#
# _framework density 17.760773
#
# number of rings (size 3 to 8) (size 9 to 14) (size 15 to 20)
#    0.000    1.655    4.828    2.897    0.966    0.276 
#    4.966    4.828    0.000    1.655    0.000    0.000 
#    0.000    0.000    0.000    0.000    0.000    0.000 
#
# Total GULP energy -161478.174810 kJ/mol
# GULP energy per Si atom -5568.212924 kJ/mol
# Density = 1.772035 g / cm^3
# Si number density = 17.760773 Si / 1000 Ang^3
#
#
#
# Elastic Constant Matrix: (Units=GPa)
#
#
# Indices 1 2 3 4 5 6 
#
# 1 80.3144 -4.7778 37.4164 0.0000 -18.9300 0.0000
# 2 -4.7778 50.4417 -1.6084 0.0000 -7.8655 0.0000
# 3 37.4164 -1.6084 79.0995 0.0000 -17.4940 0.0000
# 4 0.0000 0.0000 0.0000 13.0984 0.0000 -8.9427
# 5 -18.9300 -7.8655 -17.4940 0.0000 22.0061 0.0000
# 6 0.0000 0.0000 0.0000 -8.9427 0.0000 7.1012
#
#
#
# Elastic Compliance Matrix: (Units=1/GPa)
#
#
# Indices 1 2 3 4 5 6 
#
# 1 0.018288 0.003466 -0.005857 0.000000 0.012315 0.000000
# 2 0.003466 0.022078 0.001473 0.000000 0.012044 0.000000
# 3 -0.005857 0.001473 0.017526 0.000000 0.009421 0.000000
# 4 0.000000 0.000000 0.000000 0.544496 0.000000 0.685700
# 5 0.012315 0.012044 0.009421 0.000000 0.067829 0.000000
# 6 0.000000 0.000000 0.000000 0.685700 0.000000 1.004343
#
#
# Mechanical properties :
#
#
# Convention : Reuss Voigt Hill
#
# Bulk Modulus (GPa) = 17.83900 30.21289 24.02594
# Shear Modulus (GPa) = 2.94971 20.36283 11.65627
#
# Velocity S-wave (km/s) = 1.29012 3.38968 2.56460
# Velocity P-wave (km/s) = 3.50500 5.68928 4.72509
#
# Compressibility (1/GPa) = 0.05605694
#
# Stress axis : x y z
#
# Youngs Moduli (GPa) = 54.67955 45.29364 57.05692
#
# Poissons Ratio (x) = -0.15698 0.33418
# Poissons Ratio (y) = -0.18951 -0.08405
# Poissons Ratio (z) = 0.32025 -0.06672
#
# Static dielectric constant tensor:
#      x y z
#    x 1.628640 0.000000 0.008870 
#    y 0.000000 1.597670 0.000000 
#    z 0.008870 0.000000 1.612680 
# 
# From -- ./inp_files/145623.got.cif
#   From: 2010.05.17/outbox.cif.g08.bks.cpg/sg12_73_cif.got.tgz:145623.got - 2010.06.03 13:09:07.
