data_PCOD9170048
_publ_section_title
;
Structure prediction by ZEFSAII (Michael W. Deem and Ramdas Pophale) SiO2 
 PCOD9170048
Probable space group: C 2/M
;
_chemical_formula_sum "Si O2"
_cell_formula_units_Z 64
_cell_length_a 26.593612
_cell_length_b 15.891459
_cell_length_c 17.224867
_cell_angle_alpha 90.000000
_cell_angle_beta 157.108016
_cell_angle_gamma 90.000000
_cell_volume 2831.659774
_symmetry_space_group_name_H-M "C 2/M"
_symmetry_group_IT_number 12
_symmetry_cell_setting 'monoclinic'
loop_
_space_group_symop_operation_xyz
x,y,z
-x,y,-z
-x,-y,-z
x,-y,z
1/2+x,1/2+y,z
1/2-x,1/2+y,-z
1/2-x,1/2-y,-z
1/2+x,1/2-y,z
loop_
_atom_site_type_symbol
_atom_site_label
_atom_site_fract_x
_atom_site_fract_y
_atom_site_fract_z
Si Si1 0.354073 0.592348 0.214918
Si Si2 0.400560 0.092759 0.255490
Si Si3 0.546717 0.216611 0.153969
Si Si4 0.280857 0.844606 0.821942
Si Si5 0.033376 0.762612 0.724525
Si Si6 0.234604 0.828342 0.138580
Si Si7 0.804706 0.854085 0.467907
Si Si8 0.012063 0.909870 0.148681
O O1 0.417832 0.500000 0.304785
O O2 0.289194 0.610361 0.206192
O O3 0.445056 0.667651 0.313095
O O4 0.234840 0.588008 0.985196
O O5 0.470513 0.169696 0.314080
O O6 0.459320 0.000000 0.337901
O O7 0.355782 0.123947 0.276187
O O8 0.687475 0.176112 0.354937
O O9 0.547929 0.318101 0.164885
O O10 0.500000 0.202602 0.000000
O O11 0.436910 0.169271 0.048704
O O12 0.246377 0.882688 0.689036
O O13 0.233697 0.747164 0.758210
O O14 0.156295 0.780472 0.956724
O O15 0.905528 0.779849 0.591705
O O16 0.134569 0.893957 0.032439
O O17 0.896516 0.914719 0.646083
O O18 0.023883 0.000000 0.123914
#
# Coordination Sequence:
#
# PCOD9170048 Si02
#       8
#     8   8   8   8   8   8   8   8
#     4  10  19  32  54  84 110 141 184 224 270 324
#     4  10  17  29  52  79 108 143 184 226 270 322
#     4   9  20  39  61  79 101 143 191 223 270 328
#     4  10  18  35  57  78 106 146 182 227 265 327
#     4  10  18  33  52  77 113 143 179 229 272 320
#     4   9  16  32  54  75 107 143 187 221 265 318
#     4  10  22  35  55  79 110 148 177 217 278 337
#     4  10  20  34  56  84 110 138 178 232 280 323
#
# _framework density 22.601585
#
# number of rings (size 3 to 8) (size 9 to 14) (size 15 to 20)
#    0.000    2.250    2.500    1.500    0.000    4.250 
#    0.000    1.875    0.000    6.750    0.000    0.000 
#    0.000    0.000    0.000    0.000    0.000    0.000 
#
# Total GULP energy -178560.139283 kJ/mol
# GULP energy per Si atom -5580.004353 kJ/mol
# Density = 2.255014 g / cm^3
# Si number density = 22.601585 Si / 1000 Ang^3
#
#
#
# Elastic Constant Matrix: (Units=GPa)
#
#
# Indices 1 2 3 4 5 6 
#
# 1 61.3922 8.4427 10.1531 0.0000 3.4047 0.0000
# 2 8.4427 106.4189 13.9776 0.0000 12.1201 0.0000
# 3 10.1531 13.9776 61.3232 0.0000 6.1186 0.0000
# 4 0.0000 0.0000 0.0000 -682.4306 0.0000 -377.0486
# 5 3.4047 12.1201 6.1186 0.0000 30.8199 0.0000
# 6 0.0000 0.0000 0.0000 -377.0486 0.0000 -208.6555
#
#
#
# Elastic Compliance Matrix: (Units=1/GPa)
#
#
# Indices 1 2 3 4 5 6 
#
# 1 0.016880 -0.000896 -0.002489 0.000000 -0.001018 0.000000
# 2 -0.000896 0.010105 -0.001804 0.000000 -0.003517 0.000000
# 3 -0.002489 -0.001804 0.017376 0.000000 -0.002465 0.000000
# 4 0.000000 0.000000 0.000000 -0.918076 0.000000 1.658999
# 5 -0.001018 -0.003517 -0.002465 0.000000 0.034431 0.000000
# 6 0.000000 0.000000 0.000000 1.658999 0.000000 -3.002668
#
#
# Mechanical properties :
#
#
# Convention : Reuss Voigt Hill
#
# Bulk Modulus (GPa) = 29.42629 32.69791 31.06210
# Shear Modulus (GPa) = -1.30882 -158.94917 -80.12899
#
# Velocity S-wave (km/s) = -0.76180 -8.39519 -5.96069
# Velocity P-wave (km/s) = 3.50343 8.91481 5.79654
#
# Compressibility (1/GPa) = 0.03398322
#
# Stress axis : x y z
#
# Youngs Moduli (GPa) = 59.24154 98.95679 57.54969
#
# Poissons Ratio (x) = 0.08870 0.14324
# Poissons Ratio (y) = 0.05310 0.10382
# Poissons Ratio (z) = 0.14745 0.17852
#
# Static dielectric constant tensor:
#      x y z
#    x 1.885200 0.000000 -0.048900 
#    y 0.000000 1.891490 0.000000 
#    z -0.048900 0.000000 1.900470 
# 
# From -- ./inp_files/330414.got.cif
#   From: 2010.05.17/outbox.cif.g08.bks.cpg/sg12_166_cif.got.tgz:330414.got - 2010.06.03 13:09:07.
