data_PCOD9170727
_publ_section_title
;
Structure prediction by ZEFSAII (Michael W. Deem and Ramdas Pophale) SiO2 
 PCOD9170727
Probable space group: C 2/M
;
_chemical_formula_sum "Si O2"
_cell_formula_units_Z 48
_cell_length_a 19.140156
_cell_length_b 14.867338
_cell_length_c 15.573212
_cell_angle_alpha 90.000000
_cell_angle_beta 145.016331
_cell_angle_gamma 90.000000
_cell_volume 2540.805060
_symmetry_space_group_name_H-M "C 2/M"
_symmetry_group_IT_number 12
_symmetry_cell_setting 'monoclinic'
loop_
_space_group_symop_operation_xyz
x,y,z
-x,y,-z
-x,-y,-z
x,-y,z
1/2+x,1/2+y,z
1/2-x,1/2+y,-z
1/2-x,1/2-y,-z
1/2+x,1/2-y,z
loop_
_atom_site_type_symbol
_atom_site_label
_atom_site_fract_x
_atom_site_fract_y
_atom_site_fract_z
Si Si1 0.160276 0.000000 0.358163
Si Si2 0.666929 0.172324 0.452610
Si Si3 0.135216 0.323933 0.614732
Si Si4 0.936732 0.000000 0.265593
Si Si5 0.103354 0.663858 0.856815
Si Si6 0.259282 0.000000 0.082582
Si Si7 0.325907 0.319251 0.197893
Si Si8 0.198084 0.000000 0.207423
O O1 0.248267 0.085216 0.457205
O O2 0.117171 0.000000 0.213379
O O3 0.058677 0.000000 0.330539
O O4 0.750000 0.250000 0.500000
O O5 0.630986 0.204276 0.511755
O O6 0.540686 0.152789 0.276112
O O7 0.170639 0.243857 0.715030
O O8 0.224173 0.408643 0.708095
O O9 0.000000 0.356010 0.500000
O O10 0.908639 0.908429 0.289373
O O11 0.830154 0.000000 0.087480
O O12 0.155549 0.587778 0.843974
O O13 0.123342 0.759794 0.830706
O O14 0.187882 0.659056 0.026787
O O15 0.174439 0.000000 0.081301
#
# Coordination Sequence:
#
# PCOD9170727 Si02
#       8
#     4   8   8   4   8   4   8   4
#     4  10  23  35  54  82 120 152 183 229 299 354
#     4  11  22  38  58  84 119 153 187 234 293 351
#     4  11  20  35  59  87 115 146 196 242 283 332
#     4  10  22  37  54  83 119 155 194 235 281 339
#     4  10  19  34  58  83 111 147 193 234 287 335
#     4  10  17  33  61  85 110 147 191 246 289 335
#     4  10  20  35  58  83 111 149 192 242 276 328
#     4  10  19  33  52  89 117 146 183 237 296 345
#
# _framework density 18.891649000000001
#
# number of rings (size 3 to 8) (size 9 to 14) (size 15 to 20)
#    0.000    1.667    3.333    1.750    0.000    1.667 
#    0.000    2.083    0.000    0.000    0.000    4.667 
#    0.000    0.000    0.000    0.000    0.000    0.000 
#
# Total GULP energy -133736.835186 kJ/mol
# GULP energy per Si atom -5572.368133 kJ/mol
# Density = 1.884865 g / cm^3
# Si number density = 18.891649 Si / 1000 Ang^3
#
#
#
# Elastic Constant Matrix: (Units=GPa)
#
#
# Indices 1 2 3 4 5 6 
#
# 1 54.1896 26.3211 23.0877 0.0000 15.0201 0.0000
# 2 26.3211 111.2906 19.8133 0.0000 9.9637 0.0000
# 3 23.0877 19.8133 68.8475 0.0000 16.5511 0.0000
# 4 0.0000 0.0000 0.0000 112.3800 0.0000 -109.0168
# 5 15.0201 9.9637 16.5511 0.0000 26.5114 0.0000
# 6 0.0000 0.0000 0.0000 -109.0168 0.0000 151.9114
#
#
#
# Elastic Compliance Matrix: (Units=1/GPa)
#
#
# Indices 1 2 3 4 5 6 
#
# 1 0.025293 -0.004238 -0.004942 0.000000 -0.009652 0.000000
# 2 -0.004238 0.010290 -0.001397 0.000000 -0.000594 0.000000
# 3 -0.004942 -0.001397 0.018572 0.000000 -0.008270 0.000000
# 4 0.000000 0.000000 0.000000 0.029286 0.000000 0.021017
# 5 -0.009652 -0.000594 -0.008270 0.000000 0.048574 0.000000
# 6 0.000000 0.000000 0.000000 0.021017 0.000000 0.021665
#
#
# Mechanical properties :
#
#
# Convention : Reuss Voigt Hill
#
# Bulk Modulus (GPa) = 30.30252 41.41910 35.86081
# Shear Modulus (GPa) = 26.90557 69.16759 48.03658
#
# Velocity S-wave (km/s) = 3.77796 6.05741 5.04803
# Velocity P-wave (km/s) = 5.92500 8.41993 7.28014
#
# Compressibility (1/GPa) = 0.03300055
#
# Stress axis : x y z
#
# Youngs Moduli (GPa) = 39.53653 97.18423 53.84364
#
# Poissons Ratio (x) = 0.41187 0.26609
# Poissons Ratio (y) = 0.16756 0.07523
# Poissons Ratio (z) = 0.19539 0.13579
#
# Static dielectric constant tensor:
#      x y z
#    x 1.561470 0.000000 -0.148750 
#    y 0.000000 1.669820 0.000000 
#    z -0.148750 0.000000 1.527330 
# 
# From -- ./inp_files/278279.got.cif
#   From: 2010.05.17/outbox.cif.g08.bks.cpg/sg12_140_cif.got.tgz:278279.got - 2010.06.03 13:09:07.
