data_PCOD9170961
_publ_section_title
;
Structure prediction by ZEFSAII (Michael W. Deem and Ramdas Pophale) SiO2 
 PCOD9170961
Probable space group: C 2/M
;
_chemical_formula_sum "Si O2"
_cell_formula_units_Z 52
_cell_length_a 14.010575
_cell_length_b 12.578290
_cell_length_c 21.856355
_cell_angle_alpha 90.000000
_cell_angle_beta 144.309206
_cell_angle_gamma 90.000000
_cell_volume 2247.137801
_symmetry_space_group_name_H-M "C 2/M"
_symmetry_group_IT_number 12
_symmetry_cell_setting 'monoclinic'
loop_
_space_group_symop_operation_xyz
x,y,z
-x,y,-z
-x,-y,-z
x,-y,z
1/2+x,1/2+y,z
1/2-x,1/2+y,-z
1/2-x,1/2-y,-z
1/2+x,1/2-y,z
loop_
_atom_site_type_symbol
_atom_site_label
_atom_site_fract_x
_atom_site_fract_y
_atom_site_fract_z
Si Si1 0.876040 0.879557 0.806416
Si Si2 0.848405 0.000000 0.373373
Si Si3 0.852311 0.768675 0.375723
Si Si4 0.618038 0.766267 0.001209
Si Si5 0.025368 0.000000 0.701216
Si Si6 0.082239 0.224489 0.378812
Si Si7 0.833538 0.500000 0.953391
Si Si8 0.637041 0.121032 0.801855
O O1 0.771995 0.827284 0.697825
O O2 0.759123 0.884991 0.806043
O O3 0.931211 0.000000 0.822167
O O4 0.018240 0.798146 0.898632
O O5 0.770560 0.884418 0.343108
O O6 0.000000 0.000000 0.500000
O O7 0.907906 0.000000 0.334039
O O8 0.000000 0.750514 0.500000
O O9 0.943329 0.778125 0.358327
O O10 0.662890 0.887864 0.009489
O O11 0.770890 0.695727 0.102032
O O12 0.500000 0.771336 0.000000
O O13 0.923083 0.108197 0.653824
O O14 0.179049 0.000000 0.826955
O O15 0.250000 0.250000 0.500000
O O16 0.024018 0.318000 0.304379
O O17 0.000000 0.500000 0.000000
O O18 0.610256 0.000000 0.808402
#
# Coordination Sequence:
#
# PCOD9170961 Si02
#       8
#     8   4   8   8   4   8   4   8
#     4   9  17  27  42  64  91 125 156 191 235 287
#     4   8  16  28  46  66  88 123 155 189 241 286
#     4   9  18  32  49  69  96 125 159 201 241 283
#     4   9  16  25  39  62  91 120 152 190 241 292
#     4  10  18  32  46  66 103 126 157 208 242 287
#     4  10  20  31  47  69  96 129 162 195 238 288
#     4  10  18  24  42  68  94 125 153 193 255 299
#     4   9  16  27  41  60  91 120 153 191 233 282
#
# _framework density 23.140547000000002
#
# number of rings (size 3 to 8) (size 9 to 14) (size 15 to 20)
#    0.000    2.769    1.538    0.462    7.538    2.154 
#    0.000    0.000    0.000    0.000    0.000    1.077 
#    0.000    0.000    0.000    0.000    0.000    0.000 
#
# Total GULP energy -145259.286678 kJ/mol
# GULP energy per Si atom -5586.895641 kJ/mol
# Density = 2.308788 g / cm^3
# Si number density = 23.140547 Si / 1000 Ang^3
#
#
#
# Elastic Constant Matrix: (Units=GPa)
#
#
# Indices 1 2 3 4 5 6 
#
# 1 85.4518 24.1568 1.9986 0.0000 -1.2826 0.0000
# 2 24.1568 278.9737 126.9437 0.0000 -0.9055 0.0000
# 3 1.9986 126.9437 152.8395 0.0001 4.5800 0.0000
# 4 0.0000 0.0000 0.0001 34.9631 0.0000 -0.9805
# 5 -1.2826 -0.9055 4.5800 0.0000 15.6325 0.0000
# 6 0.0000 0.0000 0.0000 -0.9805 0.0000 -0.0514
#
#
#
# Elastic Compliance Matrix: (Units=1/GPa)
#
#
# Indices 1 2 3 4 5 6 
#
# 1 0.012125 -0.001556 0.001117 0.000000 0.000577 0.000000
# 2 -0.001556 0.006010 -0.005022 0.000000 0.001692 0.000000
# 3 0.001117 -0.005022 0.010800 0.000000 -0.003363 0.000000
# 4 0.000000 0.000000 0.000000 0.018640 0.000000 -0.355234
# 5 0.000577 0.001692 -0.003363 0.000000 0.065100 0.000000
# 6 0.000000 0.000000 0.000000 -0.355234 0.000000-12.667248
#
#
# Mechanical properties :
#
#
# Convention : Reuss Voigt Hill
#
# Bulk Modulus (GPa) = 55.51862 91.49592 73.50727
# Shear Modulus (GPa) = -0.39880 34.38657 16.99388
#
# Velocity S-wave (km/s) = -0.41559 3.85903 2.71288
# Velocity P-wave (km/s) = 4.87993 7.71241 6.45349
#
# Compressibility (1/GPa) = 0.01801197
#
# Stress axis : x y z
#
# Youngs Moduli (GPa) = 82.47444 166.38753 92.59076
#
# Poissons Ratio (x) = 0.25893 -0.10339
# Poissons Ratio (y) = 0.12834 0.46500
# Poissons Ratio (z) = -0.09209 0.83562
#
# Static dielectric constant tensor:
#      x y z
#    x 1.773110 0.000000 0.013130 
#    y 0.000000 1.859120 0.000000 
#    z 0.013130 0.000000 1.789340 
# 
# From -- ./inp_files/363685.got.cif
#   From: 2010.05.17/outbox.cif.g08.bks.cpg/sg12_182_cif.got.tgz:363685.got - 2010.06.03 13:09:07.
