data_PCOD9170249
_publ_section_title
;
Structure prediction by ZEFSAII (Michael W. Deem and Ramdas Pophale) SiO2 
 PCOD9170249
Probable space group: C 2/M
;
_chemical_formula_sum "Si O2"
_cell_formula_units_Z 36
_cell_length_a 14.494843
_cell_length_b 10.224401
_cell_length_c 28.165797
_cell_angle_alpha 90.000000
_cell_angle_beta 154.965190
_cell_angle_gamma 90.000000
_cell_volume 1766.391983
_symmetry_space_group_name_H-M "C 2/M"
_symmetry_group_IT_number 12
_symmetry_cell_setting 'monoclinic'
loop_
_space_group_symop_operation_xyz
x,y,z
-x,y,-z
-x,-y,-z
x,-y,z
1/2+x,1/2+y,z
1/2-x,1/2+y,-z
1/2-x,1/2-y,-z
1/2+x,1/2-y,z
loop_
_atom_site_type_symbol
_atom_site_label
_atom_site_fract_x
_atom_site_fract_y
_atom_site_fract_z
Si Si1 0.409616 0.846873 0.905388
Si Si2 0.569600 0.651080 0.166700
Si Si3 0.000000 0.700506 0.500000
Si Si4 0.924618 0.360282 0.571931
Si Si5 0.448379 0.343934 0.733158
O O1 0.494603 0.753011 0.903724
O O2 0.149395 0.829816 0.791477
O O3 0.454842 0.000000 0.916265
O O4 0.500000 0.817842 0.000000
O O5 0.516303 0.500000 0.130018
O O6 0.485938 0.677790 0.181239
O O7 0.833527 0.660790 0.294991
O O8 0.044352 0.634344 0.470237
O O9 0.246199 0.750514 0.625750
O O10 0.841637 0.500000 0.550915
O O11 0.750000 0.250000 0.500000
O O12 0.383373 0.500000 0.700759
#
# Coordination Sequence:
#
# PCOD9170249 Si02
#       5
#     8   8   4   8   8
#     4  10  21  36  54  76 101 131 169 213 259 304
#     4   9  19  34  51  74 102 133 171 211 250 297
#     4  10  17  30  53  76  99 136 175 200 237 302
#     4  10  19  31  50  76 104 135 172 209 247 296
#     4   9  17  31  51  74 102 134 168 204 245 300
#
# _framework density 20.380527000000001
#
# number of rings (size 3 to 8) (size 9 to 14) (size 15 to 20)
#    0.000    2.444    0.000    4.667    0.000    4.000 
#    0.000    1.667    0.000    2.667    0.000    0.000 
#    0.000    0.000    0.000    0.000    0.000    0.000 
#
# Total GULP energy -100212.453993 kJ/mol
# GULP energy per Si atom -5567.358555 kJ/mol
# Density = 2.033414 g / cm^3
# Si number density = 20.380527 Si / 1000 Ang^3
#
#
#
# Elastic Constant Matrix: (Units=GPa)
#
#
# Indices 1 2 3 4 5 6 
#
# 1 79.3889 35.0957 16.3698 0.0002 -12.4032 0.0002
# 2 35.0957 56.8859 20.3740 0.0006 -18.7623 0.0002
# 3 16.3698 20.3740 58.8465 0.0010 -18.3514 0.0004
# 4 0.0002 0.0006 0.0010 20.2600 0.0000 -5.8117
# 5 -12.4032 -18.7623 -18.3514 0.0000 41.8800 0.0000
# 6 0.0002 0.0002 0.0004 -5.8117 0.0000 6.8894
#
#
#
# Elastic Compliance Matrix: (Units=1/GPa)
#
#
# Indices 1 2 3 4 5 6 
#
# 1 0.017404 -0.010282 -0.001287 0.000000 -0.000016 0.000000
# 2 -0.010282 0.028017 -0.004489 -0.000001 0.007540 -0.000001
# 3 -0.001287 -0.004489 0.021034 -0.000002 0.006825 -0.000003
# 4 0.000000 -0.000001 -0.000002 0.065115 -0.000001 0.054929
# 5 -0.000016 0.007540 0.006825 -0.000001 0.030241 -0.000001
# 6 0.000000 -0.000001 -0.000003 0.054929 -0.000001 0.191486
#
#
# Mechanical properties :
#
#
# Convention : Reuss Voigt Hill
#
# Bulk Modulus (GPa) = 29.11999 37.64446 33.38222
# Shear Modulus (GPa) = 12.59895 22.02467 17.31181
#
# Velocity S-wave (km/s) = 2.48903 3.29092 2.91766
# Velocity P-wave (km/s) = 4.75179 5.74031 5.26928
#
# Compressibility (1/GPa) = 0.03434067
#
# Stress axis : x y z
#
# Youngs Moduli (GPa) = 57.45646 35.69268 47.54294
#
# Poissons Ratio (x) = 0.36699 0.06117
# Poissons Ratio (y) = 0.59077 0.21340
# Poissons Ratio (z) = 0.07392 0.16021
#
# Static dielectric constant tensor:
#      x y z
#    x 1.714680 0.000000 0.038820 
#    y 0.000000 1.715490 0.000000 
#    z 0.038820 0.000000 1.811870 
# 
# From -- ./inp_files/140592.got.cif
#   From: 2010.05.17/outbox.cif.g08.bks.cpg/sg12_71_cif.got.tgz:140592.got - 2010.06.03 13:09:07.
