data_PCOD9170590
_publ_section_title
;
Structure prediction by ZEFSAII (Michael W. Deem and Ramdas Pophale) SiO2 
 PCOD9170590
Probable space group: C 2/M
;
_chemical_formula_sum "Si O2"
_cell_formula_units_Z 64
_cell_length_a 15.095652
_cell_length_b 7.458879
_cell_length_c 22.440283
_cell_angle_alpha 90.000000
_cell_angle_beta 97.442107
_cell_angle_gamma 90.000000
_cell_volume 2505.416191
_symmetry_space_group_name_H-M "C 2/M"
_symmetry_group_IT_number 12
_symmetry_cell_setting 'monoclinic'
loop_
_space_group_symop_operation_xyz
x,y,z
-x,y,-z
-x,-y,-z
x,-y,z
1/2+x,1/2+y,z
1/2-x,1/2+y,-z
1/2-x,1/2-y,-z
1/2+x,1/2-y,z
loop_
_atom_site_type_symbol
_atom_site_label
_atom_site_fract_x
_atom_site_fract_y
_atom_site_fract_z
Si Si1 0.956214 0.217000 0.239793
Si Si2 0.196636 0.219993 0.144329
Si Si3 0.535236 0.283766 0.367264
Si Si4 0.231613 0.219536 0.404056
Si Si5 0.676865 0.211086 0.943837
Si Si6 0.239831 0.291663 0.727538
Si Si7 0.505137 0.710780 0.112493
Si Si8 0.414624 0.206332 0.460073
O O1 0.860592 0.278494 0.256232
O O2 0.976119 0.283941 0.175006
O O3 0.027713 0.267026 0.297206
O O4 0.954040 0.000000 0.237804
O O5 0.280338 0.285881 0.113442
O O6 0.201185 0.281048 0.212906
O O7 0.103874 0.278179 0.106299
O O8 0.202093 0.000000 0.144987
O O9 0.530920 0.500000 0.369700
O O10 0.628880 0.228238 0.405697
O O11 0.450549 0.208587 0.395232
O O12 0.250696 0.281834 0.337856
O O13 0.314901 0.284476 0.451221
O O14 0.235390 0.000000 0.406409
O O15 0.575192 0.271137 0.940854
O O16 0.670984 0.000000 0.937879
O O17 0.750000 0.250000 0.000000
O O18 0.265470 0.500000 0.723514
O O19 0.517141 0.500000 0.122407
O O20 0.500000 0.293598 0.500000
O O21 0.408656 0.000000 0.479437
#
# Coordination Sequence:
#
# PCOD9170590 Si02
#       8
#     8   8   8   8   8   8   8   8
#     4  10  19  31  53  84 113 136 168 222 276 317
#     4   9  19  35  58  83 107 141 184 220 260 328
#     4  10  20  35  55  80 109 142 181 220 269 329
#     4   9  18  33  55  79 106 143 180 218 268 329
#     4  11  23  40  59  82 110 145 189 231 271 318
#     4  10  17  32  58  81 106 144 183 214 262 333
#     4  10  20  37  59  83 111 143 178 222 272 321
#     4  10  21  37  55  77 106 142 186 233 277 320
#
# _framework density 25.544657999999998
#
# number of rings (size 3 to 8) (size 9 to 14) (size 15 to 20)
#    0.000    2.125    2.500    1.125    0.000    4.250 
#    0.000    5.625    0.000    1.500    0.000    0.000 
#    0.000    0.000    0.000    0.000    0.000    0.000 
#
# Total GULP energy -178870.649974 kJ/mol
# GULP energy per Si atom -5589.707812 kJ/mol
# Density = 2.548652 g / cm^3
# Si number density = 25.544658 Si / 1000 Ang^3
#
#
#
# Elastic Constant Matrix: (Units=GPa)
#
#
# Indices 1 2 3 4 5 6 
#
# 1 130.7170 -2.6245 15.6959 0.0000 41.3777 0.0000
# 2 -2.6245 79.6945 -1.9413 0.0000 -1.3916 0.0000
# 3 15.6959 -1.9413 73.9553 0.0000 34.2864 0.0000
# 4 0.0000 0.0000 0.0000 9.5973 0.0000 -2.0175
# 5 41.3777 -1.3916 34.2864 0.0000 49.7438 0.0000
# 6 0.0000 0.0000 0.0000 -2.0175 0.0000 10.9701
#
#
#
# Elastic Compliance Matrix: (Units=1/GPa)
#
#
# Indices 1 2 3 4 5 6 
#
# 1 0.010753 0.000232 0.002745 0.000000 -0.010830 0.000000
# 2 0.000232 0.012562 0.000304 0.000000 -0.000051 0.000000
# 3 0.002745 0.000304 0.020577 0.000000 -0.016458 0.000000
# 4 0.000000 0.000000 0.000000 0.108386 0.000000 0.019933
# 5 -0.010830 -0.000051 -0.016458 0.000000 0.040454 0.000000
# 6 0.000000 0.000000 0.000000 0.019933 0.000000 0.094823
#
#
# Mechanical properties :
#
#
# Convention : Reuss Voigt Hill
#
# Bulk Modulus (GPa) = 19.81981 34.06966 26.94474
# Shear Modulus (GPa) = 16.78915 32.27801 24.53358
#
# Velocity S-wave (km/s) = 2.56646 3.55856 3.10243
# Velocity P-wave (km/s) = 4.06916 5.50006 4.83781
#
# Compressibility (1/GPa) = 0.05045456
#
# Stress axis : x y z
#
# Youngs Moduli (GPa) = 92.99330 79.60467 48.59791
#
# Poissons Ratio (x) = -0.01846 -0.13340
# Poissons Ratio (y) = -0.02156 -0.01479
# Poissons Ratio (z) = -0.25525 -0.02422
#
# Static dielectric constant tensor:
#      x y z
#    x 1.961780 0.000000 -0.000150 
#    y 0.000000 2.037970 0.000000 
#    z -0.000150 0.000000 2.044400 
# 
# From -- ./inp_files/359956.got.cif
#   From: 2010.05.17/outbox.cif.g08.bks.cpg/sg12_180_cif.got.tgz:359956.got - 2010.06.03 13:09:07.
