data_PCOD9170692
_publ_section_title
;
Structure prediction by ZEFSAII (Michael W. Deem and Ramdas Pophale) SiO2 
 PCOD9170692
Probable space group: C 2/M
;
_chemical_formula_sum "Si O2"
_cell_formula_units_Z 50
_cell_length_a 13.780847
_cell_length_b 14.882086
_cell_length_c 10.062301
_cell_angle_alpha 90.000000
_cell_angle_beta 77.124754
_cell_angle_gamma 90.000000
_cell_volume 2011.769352
_symmetry_space_group_name_H-M "C 2/M"
_symmetry_group_IT_number 12
_symmetry_cell_setting 'monoclinic'
loop_
_space_group_symop_operation_xyz
x,y,z
-x,y,-z
-x,-y,-z
x,-y,z
1/2+x,1/2+y,z
1/2-x,1/2+y,-z
1/2-x,1/2-y,-z
1/2+x,1/2-y,z
loop_
_atom_site_type_symbol
_atom_site_label
_atom_site_fract_x
_atom_site_fract_y
_atom_site_fract_z
Si Si1 0.884531 0.848859 0.065389
Si Si2 0.000000 0.500000 0.000000
Si Si3 0.079156 0.268032 0.362371
Si Si4 0.580520 0.835507 0.801171
Si Si5 0.099341 0.903522 0.658875
Si Si6 0.203478 0.608464 0.509189
Si Si7 0.862412 0.103695 0.782728
O O1 0.884162 0.745461 0.113382
O O2 0.855354 0.902132 0.206298
O O3 0.832898 0.877685 0.944735
O O4 0.000000 0.871418 0.000000
O O5 0.053660 0.421240 0.894410
O O6 0.133865 0.350643 0.415925
O O7 0.159426 0.195066 0.289012
O O8 0.000000 0.234541 0.500000
O O9 0.015369 0.300210 0.253783
O O10 0.656950 0.863049 0.662879
O O11 0.184594 0.853584 0.550842
O O12 0.983016 0.888004 0.721123
O O13 0.096757 0.000000 0.592449
O O14 0.202734 0.500000 0.500326
O O15 0.835106 0.000000 0.756545
#
# Coordination Sequence:
#
# PCOD9170692 Si02
#       7
#     8   2   8   8   8   8   8
#     4  10  17  33  56  86 108 136 191 250 283 331
#     4  12  20  32  58  84 106 152 194 252 282 324
#     4  10  21  36  53  83 116 153 195 232 284 350
#     4  11  20  34  55  84 114 143 198 241 284 339
#     4   9  18  34  57  87 111 145 189 241 295 341
#     4  10  22  37  56  85 121 157 186 234 298 353
#     4  10  19  36  63  87 112 148 195 250 286 338
#
# _framework density 24.853743000000001
#
# number of rings (size 3 to 8) (size 9 to 14) (size 15 to 20)
#    0.000    1.920    4.800    0.480    1.120    3.840 
#    0.000    0.800    0.000    0.000    2.080    0.000 
#    0.000    0.000    0.000    0.000    0.000    0.000 
#
# Total GULP energy -139301.194297 kJ/mol
# GULP energy per Si atom -5572.047772 kJ/mol
# Density = 2.479717 g / cm^3
# Si number density = 24.853743 Si / 1000 Ang^3
#
#
#
# Elastic Constant Matrix: (Units=GPa)
#
#
# Indices 1 2 3 4 5 6 
#
# 1 66.2740 28.8313 15.6952 0.0000 -9.1829 0.0000
# 2 28.8313 156.6162 33.0481 0.0000 12.9297 0.0000
# 3 15.6952 33.0481 115.6162 0.0000 -9.6477 0.0000
# 4 0.0000 0.0000 0.0000 1.6752 0.0000 -25.3722
# 5 -9.1829 12.9297 -9.6477 0.0000 20.7556 0.0000
# 6 0.0000 0.0000 0.0000 -25.3722 0.0000 -13.3842
#
#
#
# Elastic Compliance Matrix: (Units=1/GPa)
#
#
# Indices 1 2 3 4 5 6 
#
# 1 0.018477 -0.004184 -0.000429 0.000000 0.010582 0.000000
# 2 -0.004184 0.008364 -0.002509 0.000000 -0.008228 0.000000
# 3 -0.000429 -0.002509 0.009924 0.000000 0.005986 0.000000
# 4 0.000000 0.000000 0.000000 0.020091 0.000000 -0.038087
# 5 0.010582 -0.008228 0.005986 0.000000 0.060770 0.000000
# 6 0.000000 0.000000 0.000000 -0.038087 0.000000 -0.002515
#
#
# Mechanical properties :
#
#
# Convention : Reuss Voigt Hill
#
# Bulk Modulus (GPa) = 44.40578 54.85061 49.62819
# Shear Modulus (GPa) = 36.53231 19.20476 27.86853
#
# Velocity S-wave (km/s) = 3.83808 2.78278 3.35222
# Velocity P-wave (km/s) = 6.12754 5.69583 5.91562
#
# Compressibility (1/GPa) = 0.02251959
#
# Stress axis : x y z
#
# Youngs Moduli (GPa) = 54.12086 119.55770 100.76170
#
# Poissons Ratio (x) = 0.50029 0.04325
# Poissons Ratio (y) = 0.22647 0.25285
# Poissons Ratio (z) = 0.02323 0.30002
#
# Static dielectric constant tensor:
#      x y z
#    x 2.098040 0.000000 0.075930 
#    y 0.000000 2.001890 0.000000 
#    z 0.075930 0.000000 1.967220 
# 
# From -- ./inp_files/143670.got.cif
#   From: 2010.05.17/outbox.cif.g08.bks.cpg/sg12_72_cif.got.tgz:143670.got - 2010.06.03 13:09:07.
