data_PCOD9170039
_publ_section_title
;
Structure prediction by ZEFSAII (Michael W. Deem and Ramdas Pophale) SiO2 
 PCOD9170039
Probable space group: C 2/M
;
_chemical_formula_sum "Si O2"
_cell_formula_units_Z 56
_cell_length_a 5.039367
_cell_length_b 29.879277
_cell_length_c 20.260407
_cell_angle_alpha 90.000000
_cell_angle_beta 122.058993
_cell_angle_gamma 90.000000
_cell_volume 2585.443103
_symmetry_space_group_name_H-M "C 2/M"
_symmetry_group_IT_number 12
_symmetry_cell_setting 'monoclinic'
loop_
_space_group_symop_operation_xyz
x,y,z
-x,y,-z
-x,-y,-z
x,-y,z
1/2+x,1/2+y,z
1/2-x,1/2+y,-z
1/2-x,1/2-y,-z
1/2+x,1/2-y,z
loop_
_atom_site_type_symbol
_atom_site_label
_atom_site_fract_x
_atom_site_fract_y
_atom_site_fract_z
Si Si1 0.633054 0.950374 0.878133
Si Si2 0.417707 0.198621 0.708899
Si Si3 0.983250 0.085012 0.797697
Si Si4 0.482061 0.139034 0.074363
Si Si5 0.343921 0.303519 0.549692
Si Si6 0.631594 0.645117 0.325660
Si Si7 0.730298 0.275694 0.116357
O O1 0.777961 0.934264 0.828778
O O2 0.675457 0.909806 0.935330
O O3 0.259603 0.949417 0.820158
O O4 0.739801 0.000000 0.910632
O O5 0.117754 0.219213 0.630694
O O6 0.239053 0.156635 0.720115
O O7 0.670623 0.181387 0.690068
O O8 0.579504 0.224413 0.789325
O O9 0.820569 0.100224 0.708924
O O10 0.168025 0.129332 0.850451
O O11 0.301126 0.177464 0.090240
O O12 0.500000 0.148675 0.000000
O O13 0.500000 0.313878 0.500000
O O14 0.724675 0.347391 0.413883
O O15 0.000000 0.280916 0.500000
O O16 0.881276 0.237336 0.090370
#
# Coordination Sequence:
#
# PCOD9170039 Si02
#       7
#     8   8   8   8   8   8   8
#     4  10  22  39  63  91 125 156 197 249 307 373
#     4  10  19  34  55  79 112 153 201 253 292 349
#     4  10  20  37  61  86 119 159 199 243 299 354
#     4  10  24  43  64  88 125 162 198 256 310 358
#     4  10  17  29  51  86 117 152 192 247 295 359
#     4  10  17  31  58  81 116 156 195 243 291 358
#     4  12  26  41  63  87 116 161 217 255 300 353
#
# _framework density 21.659732000000002
#
# number of rings (size 3 to 8) (size 9 to 14) (size 15 to 20)
#    1.714    0.000    2.857    3.000    2.000    1.429 
#    0.000    0.714    0.000    2.571    0.000    0.000 
#    0.000   11.429    0.000    0.000    0.000    0.000 
#
# Total GULP energy -156180.119505 kJ/mol
# GULP energy per Si atom -5577.861411 kJ/mol
# Density = 2.161043 g / cm^3
# Si number density = 21.659732 Si / 1000 Ang^3
#
#
#
# Elastic Constant Matrix: (Units=GPa)
#
#
# Indices 1 2 3 4 5 6 
#
# 1 121.4461 18.5038 45.4753 0.0000 -38.8719 0.0000
# 2 18.5038 93.5781 36.6276 0.0000 -12.1511 0.0000
# 3 45.4753 36.6276 131.1711 0.0000 -18.9953 0.0000
# 4 0.0000 0.0000 0.0000 28.8970 0.0000 -40.5717
# 5 -38.8719 -12.1511 -18.9953 0.0000 36.0146 0.0000
# 6 0.0000 0.0000 0.0000 -40.5717 0.0000 58.5887
#
#
#
# Elastic Compliance Matrix: (Units=1/GPa)
#
#
# Indices 1 2 3 4 5 6 
#
# 1 0.013453 0.000138 -0.002807 0.000000 0.013086 0.000000
# 2 0.000138 0.012205 -0.003073 0.000000 0.002646 0.000000
# 3 -0.002807 -0.003073 0.009599 0.000000 0.000996 0.000000
# 4 0.000000 0.000000 0.000000 1.247372 0.000000 0.863785
# 5 0.013086 0.002646 0.000996 0.000000 0.043309 0.000000
# 6 0.000000 0.000000 0.000000 0.863785 0.000000 0.615226
#
#
# Mechanical properties :
#
#
# Convention : Reuss Voigt Hill
#
# Bulk Modulus (GPa) = 42.06483 60.82319 51.44401
# Shear Modulus (GPa) = 2.55028 41.07261 21.81144
#
# Velocity S-wave (km/s) = 1.08627 4.35934 3.17678
# Velocity P-wave (km/s) = 4.58653 7.31305 6.10397
#
# Compressibility (1/GPa) = 0.02377283
#
# Stress axis : x y z
#
# Youngs Moduli (GPa) = 74.33387 81.93154 104.17547
#
# Poissons Ratio (x) = -0.01130 0.29246
# Poissons Ratio (y) = -0.01025 0.32011
# Poissons Ratio (z) = 0.20869 0.25176
#
# Static dielectric constant tensor:
#      x y z
#    x 1.828840 0.000000 0.040210 
#    y 0.000000 1.823160 0.000000 
#    z 0.040210 0.000000 1.853550 
# 
# From -- ./inp_files/253914.got.cif
#   From: 2010.05.17/outbox.cif.g08.bks.cpg/sg12_127_cif.got.tgz:253914.got - 2010.06.03 13:09:07.
