data_PCOD9170907
_publ_section_title
;
Structure prediction by ZEFSAII (Michael W. Deem and Ramdas Pophale) SiO2 
 PCOD9170907
Probable space group: C 2/M
;
_chemical_formula_sum "Si O2"
_cell_formula_units_Z 36
_cell_length_a 29.835819
_cell_length_b 14.652321
_cell_length_c 9.172628
_cell_angle_alpha 90.000000
_cell_angle_beta 150.950443
_cell_angle_gamma 90.000000
_cell_volume 1947.091551
_symmetry_space_group_name_H-M "C 2/M"
_symmetry_group_IT_number 12
_symmetry_cell_setting 'monoclinic'
loop_
_space_group_symop_operation_xyz
x,y,z
-x,y,-z
-x,-y,-z
x,-y,z
1/2+x,1/2+y,z
1/2-x,1/2+y,-z
1/2-x,1/2-y,-z
1/2+x,1/2-y,z
loop_
_atom_site_type_symbol
_atom_site_label
_atom_site_fract_x
_atom_site_fract_y
_atom_site_fract_z
Si Si1 0.235640 0.808546 0.812669
Si Si2 0.854722 0.500000 0.559618
Si Si3 0.970809 0.500000 0.610286
Si Si4 0.426356 0.811817 0.180948
Si Si5 0.242294 0.500000 0.011027
Si Si6 0.601832 0.197057 0.222674
O O1 0.163087 0.759868 0.501307
O O2 0.250000 0.750000 0.000000
O O3 0.331385 0.817101 0.997638
O O4 0.210830 0.909610 0.795999
O O5 0.771645 0.500000 0.204057
O O6 0.856325 0.594076 0.652368
O O7 0.056018 0.500000 0.295337
O O8 0.026040 0.409480 0.724766
O O9 0.866718 0.500000 0.248835
O O10 0.500000 0.766062 0.500000
O O11 0.406095 0.769023 0.965672
O O12 0.500000 0.192960 0.000000
#
# Coordination Sequence:
#
# PCOD9170907 Si02
#       6
#     8   4   4   8   4   8
#     4  12  23  39  58  89 125 160 203 247 302 363
#     4  10  18  37  64  93 126 149 188 261 314 354
#     4  10  17  36  62  94 120 148 194 253 325 347
#     4  12  21  35  58  90 125 155 192 252 306 360
#     4  10  19  39  62  89 122 157 194 248 315 351
#     4  12  22  38  60  93 124 161 200 243 306 361
#
# _framework density 18.489115000000002
#
# number of rings (size 3 to 8) (size 9 to 14) (size 15 to 20)
#    0.667    0.000    6.667    4.000    0.000    0.000 
#    0.000    0.556    0.000    0.000    0.000    5.444 
#    0.000    0.000    0.000    0.000    0.000    0.000 
#
# Total GULP energy -100436.803108 kJ/mol
# GULP energy per Si atom -5579.822395 kJ/mol
# Density = 1.844703 g / cm^3
# Si number density = 18.489115 Si / 1000 Ang^3
#
#
#
# Elastic Constant Matrix: (Units=GPa)
#
#
# Indices 1 2 3 4 5 6 
#
# 1 70.1815 8.5657 21.5207 0.0000 -34.0750 0.0000
# 2 8.5657 105.0669 56.0088 0.0000 -17.8236 0.0000
# 3 21.5207 56.0088 131.6835 0.0000 -40.8508 0.0000
# 4 0.0000 0.0000 0.0000 32.3106 0.0000 -3.0981
# 5 -34.0750 -17.8236 -40.8508 0.0000 43.3692 0.0000
# 6 0.0000 0.0000 0.0000 -3.0981 0.0000 6.7274
#
#
#
# Elastic Compliance Matrix: (Units=1/GPa)
#
#
# Indices 1 2 3 4 5 6 
#
# 1 0.023698 0.000288 0.002568 0.000000 0.021157 0.000000
# 2 0.000288 0.012313 -0.005149 0.000000 0.000437 0.000000
# 3 0.002568 -0.005149 0.013187 0.000000 0.012323 0.000000
# 4 0.000000 0.000000 0.000000 0.032379 0.000000 0.014911
# 5 0.021157 0.000437 0.012323 0.000000 0.051467 0.000000
# 6 0.000000 0.000000 0.000000 0.014911 0.000000 0.155514
#
#
# Mechanical properties :
#
#
# Convention : Reuss Voigt Hill
#
# Bulk Modulus (GPa) = 22.41498 53.23580 37.82539
# Shear Modulus (GPa) = 16.23297 31.20388 23.71842
#
# Velocity S-wave (km/s) = 2.96628 4.11261 3.58555
# Velocity P-wave (km/s) = 4.88686 7.16986 6.13548
#
# Compressibility (1/GPa) = 0.04461303
#
# Stress axis : x y z
#
# Youngs Moduli (GPa) = 42.19693 81.21507 75.83294
#
# Poissons Ratio (x) = -0.02341 -0.19471
# Poissons Ratio (y) = -0.01216 0.39043
# Poissons Ratio (z) = -0.10835 0.41814
#
# Static dielectric constant tensor:
#      x y z
#    x 1.664680 0.000000 -0.045750 
#    y 0.000000 1.640400 0.000000 
#    z -0.045750 0.000000 1.672810 
# 
# From -- ./inp_files/111828.got.cif
#   From: 2010.05.17/outbox.cif.g08.bks.cpg/sg12_56_cif.got.tgz:111828.got - 2010.06.03 13:09:07.
