data_PCOD9170841
_publ_section_title
;
Structure prediction by ZEFSAII (Michael W. Deem and Ramdas Pophale) SiO2 
 PCOD9170841
Probable space group: C 2/M
;
_chemical_formula_sum "Si O2"
_cell_formula_units_Z 36
_cell_length_a 15.098446
_cell_length_b 14.761931
_cell_length_c 15.128614
_cell_angle_alpha 90.000000
_cell_angle_beta 152.814389
_cell_angle_gamma 90.000000
_cell_volume 1540.534854
_symmetry_space_group_name_H-M "C 2/M"
_symmetry_group_IT_number 12
_symmetry_cell_setting 'monoclinic'
loop_
_space_group_symop_operation_xyz
x,y,z
-x,y,-z
-x,-y,-z
x,-y,z
1/2+x,1/2+y,z
1/2-x,1/2+y,-z
1/2-x,1/2-y,-z
1/2+x,1/2-y,z
loop_
_atom_site_type_symbol
_atom_site_label
_atom_site_fract_x
_atom_site_fract_y
_atom_site_fract_z
Si Si1 0.208653 0.309112 0.048552
Si Si2 0.294545 0.000000 0.594693
Si Si3 0.237470 0.702409 0.392984
Si Si4 0.902026 0.500000 0.289004
Si Si5 0.771032 0.500000 0.982025
Si Si6 0.265229 0.321770 0.774324
O O1 0.300848 0.406938 0.119897
O O2 0.281412 0.257906 0.198047
O O3 0.250000 0.250000 0.000000
O O4 0.977551 0.313908 0.838146
O O5 0.198534 0.096880 0.534059
O O6 0.387089 0.000000 0.575033
O O7 0.497803 0.000000 0.828394
O O8 0.250000 0.750000 0.500000
O O9 0.297349 0.780200 0.375503
O O10 0.846011 0.411979 0.294933
O O11 0.756392 0.500000 0.074846
O O12 0.500000 0.338062 0.000000
#
# Coordination Sequence:
#
# PCOD9170841 Si02
#       6
#     8   4   8   4   4   8
#     4  10  17  35  55  78 106 146 179 220 268 327
#     4   8  18  37  56  72 109 149 182 212 269 340
#     4  10  21  36  53  79 111 144 177 227 274 319
#     4  10  17  35  55  84 106 143 185 229 261 327
#     4   8  16  28  57  74 104 133 185 214 262 310
#     4  10  20  31  55  83 113 138 183 229 274 313
#
# _framework density 23.368507000000001
#
# number of rings (size 3 to 8) (size 9 to 14) (size 15 to 20)
#    0.667    1.778    2.222    0.333    0.000    1.778 
#    0.000   12.222    0.000    0.000    0.000    7.778 
#    0.000    0.000    0.000    0.000    0.000    0.000 
#
# Total GULP energy -100232.890848 kJ/mol
# GULP energy per Si atom -5568.493936 kJ/mol
# Density = 2.331532 g / cm^3
# Si number density = 23.368507 Si / 1000 Ang^3
#
#
#
# Elastic Constant Matrix: (Units=GPa)
#
#
# Indices 1 2 3 4 5 6 
#
# 1 93.9824 78.4642 36.5289 -0.0183 -41.6421 -0.0123
# 2 78.4642 262.7925 47.9812 -0.0227 -31.2917 -0.0149
# 3 36.5289 47.9812 131.3008 -0.0040 -12.0185 0.0019
# 4 -0.0183 -0.0227 -0.0040 33.6423 0.0008 -13.8469
# 5 -41.6421 -31.2917 -12.0185 0.0008 44.5202 0.0008
# 6 -0.0123 -0.0149 0.0019 -13.8469 0.0008 48.8435
#
#
#
# Elastic Compliance Matrix: (Units=1/GPa)
#
#
# Indices 1 2 3 4 5 6 
#
# 1 0.023504 -0.004256 -0.003328 0.000012 0.018096 0.000008
# 2 -0.004256 0.005145 -0.000748 0.000001 -0.000566 0.000001
# 3 -0.003328 -0.000748 0.008697 -0.000002 -0.001290 -0.000002
# 4 0.000012 0.000001 -0.000002 0.033651 0.000011 0.009540
# 5 0.018096 -0.000566 -0.001290 0.000011 0.038641 0.000007
# 6 0.000008 0.000001 -0.000002 0.009540 0.000007 0.023178
#
#
# Mechanical properties :
#
#
# Convention : Reuss Voigt Hill
#
# Bulk Modulus (GPa) = 48.34650 90.44717 69.39684
# Shear Modulus (GPa) = 31.97458 47.07462 39.52460
#
# Velocity S-wave (km/s) = 3.70304 4.49313 4.11708
# Velocity P-wave (km/s) = 6.24635 8.10595 7.23614
#
# Compressibility (1/GPa) = 0.02068402
#
# Stress axis : x y z
#
# Youngs Moduli (GPa) = 42.54509 194.35992 114.98070
#
# Poissons Ratio (x) = 0.82713 0.38261
# Poissons Ratio (y) = 0.18106 0.08601
# Poissons Ratio (z) = 0.14157 0.14539
#
# Static dielectric constant tensor:
#      x y z
#    x 1.852610 -0.000010 -0.030690 
#    y -0.000010 1.877440 0.000000 
#    z -0.030690 0.000000 1.762830 
# 
# From -- ./inp_files/214510.got.cif
#   From: 2010.05.17/outbox.cif.g08.bks.cpg/sg12_108_cif.got.tgz:214510.got - 2010.06.03 13:09:07.
