data_PCOD9170998
_publ_section_title
;
Structure prediction by ZEFSAII (Michael W. Deem and Ramdas Pophale) SiO2 
 PCOD9170998
Probable space group: C 2/M
;
_chemical_formula_sum "Si O2"
_cell_formula_units_Z 64
_cell_length_a 28.101802
_cell_length_b 9.602692
_cell_length_c 19.579873
_cell_angle_alpha 90.000000
_cell_angle_beta 121.524204
_cell_angle_gamma 90.000000
_cell_volume 4503.916666
_symmetry_space_group_name_H-M "C 2/M"
_symmetry_group_IT_number 12
_symmetry_cell_setting 'monoclinic'
loop_
_space_group_symop_operation_xyz
x,y,z
-x,y,-z
-x,-y,-z
x,-y,z
1/2+x,1/2+y,z
1/2-x,1/2+y,-z
1/2-x,1/2-y,-z
1/2+x,1/2-y,z
loop_
_atom_site_type_symbol
_atom_site_label
_atom_site_fract_x
_atom_site_fract_y
_atom_site_fract_z
Si Si1 0.888122 0.163206 0.842505
Si Si2 0.450500 0.665668 0.513038
Si Si3 0.505048 0.662274 0.850138
Si Si4 0.952485 0.164294 0.673358
Si Si5 0.840764 0.662821 0.596456
Si Si6 0.660622 0.161571 0.567255
Si Si7 0.059067 0.339965 0.003250
Si Si8 0.716740 0.333585 0.332476
O O1 0.942411 0.180936 0.834295
O O2 0.898422 0.257854 0.916164
O O3 0.831947 0.195614 0.758745
O O4 0.886968 0.000000 0.860820
O O5 0.500000 0.710692 0.500000
O O6 0.442181 0.500000 0.498124
O O7 0.466774 0.688587 0.604832
O O8 0.392451 0.744189 0.455850
O O9 0.519612 0.500000 0.871873
O O10 0.499594 0.690264 0.765408
O O11 0.546074 0.759903 0.923400
O O12 0.900091 0.261479 0.650919
O O13 0.936624 0.000000 0.668671
O O14 0.842724 0.500000 0.616434
O O15 0.829409 0.672395 0.507105
O O16 0.797775 0.745361 0.611325
O O17 0.720406 0.198580 0.644513
O O18 0.647759 0.000000 0.572560
O O19 0.074968 0.500000 0.004762
O O20 0.000000 0.337906 0.000000
O O21 0.714851 0.500000 0.346269
#
# Coordination Sequence:
#
# PCOD9170998 Si02
#       8
#     8   8   8   8   8   8   8   8
#     4   9  16  26  39  54  75 109 146 173 198 237
#     4   9  18  32  49  66  85 109 138 175 216 255
#     4   9  15  25  40  56  75 106 144 174 200 238
#     4   9  16  28  44  61  82 111 144 174 208 248
#     4  10  18  26  38  59  85 111 141 175 210 241
#     4   9  19  31  43  61  83 110 142 175 209 249
#     4   9  17  26  36  53  78 107 136 172 210 240
#     4  10  18  29  42  57  82 114 147 175 203 241
#
# _framework density 14.209854999999999
#
# number of rings (size 3 to 8) (size 9 to 14) (size 15 to 20)
#    0.000    2.750    1.250    1.125    0.000    3.750 
#    0.000    0.000    0.000    0.000    0.000    0.000 
#    0.000    1.000    0.000    2.000    0.000    2.750 
#
# Total GULP energy -178204.365953 kJ/mol
# GULP energy per Si atom -5568.886436 kJ/mol
# Density = 1.417751 g / cm^3
# Si number density = 14.209855 Si / 1000 Ang^3
#
#
#
# Elastic Constant Matrix: (Units=GPa)
#
#
# Indices 1 2 3 4 5 6 
#
# 1 70.7398 41.2444 33.7482 0.0000 5.0086 0.0000
# 2 41.2444 57.1133 45.6910 0.0000 4.6230 0.0000
# 3 33.7482 45.6910 68.2680 0.0000 8.5033 0.0000
# 4 0.0000 0.0000 0.0000 16.4699 0.0000 1.3276
# 5 5.0086 4.6230 8.5033 0.0000 10.5932 0.0000
# 6 0.0000 0.0000 0.0000 1.3276 0.0000 14.6472
#
#
#
# Elastic Compliance Matrix: (Units=1/GPa)
#
#
# Indices 1 2 3 4 5 6 
#
# 1 0.024581 -0.017447 0.000027 0.000000 -0.004030 0.000000
# 2 -0.017447 0.050243 -0.025887 0.000000 0.007102 0.000000
# 3 0.000027 -0.025887 0.033949 0.000000 -0.015967 0.000000
# 4 0.000000 0.000000 0.000000 0.061164 0.000000 -0.005544
# 5 -0.004030 0.007102 -0.015967 0.000000 0.106024 0.000000
# 6 0.000000 0.000000 0.000000 -0.005544 0.000000 0.068775
#
#
# Mechanical properties :
#
#
# Convention : Reuss Voigt Hill
#
# Bulk Modulus (GPa) = 45.12527 48.60981 46.86754
# Shear Modulus (GPa) = 11.39643 13.37124 12.38383
#
# Velocity S-wave (km/s) = 2.83505 3.07087 2.95531
# Velocity P-wave (km/s) = 6.52242 6.84518 6.68575
#
# Compressibility (1/GPa) = 0.02216053
#
# Stress axis : x y z
#
# Youngs Moduli (GPa) = 40.68226 19.90330 29.45576
#
# Poissons Ratio (x) = 0.34725 -0.00081
# Poissons Ratio (y) = 0.70977 0.76252
# Poissons Ratio (z) = -0.00111 0.51523
#
# Static dielectric constant tensor:
#      x y z
#    x 1.438230 0.000000 -0.002830 
#    y 0.000000 1.474670 0.000000 
#    z -0.002830 0.000000 1.486800 
# 
# From -- ./inp_files/323740.got.cif
#   From: 2010.05.17/outbox.cif.g08.bks.cpg/sg12_162_cif.got.tgz:323740.got - 2010.06.03 13:09:07.
