data_PCOD9170274
_publ_section_title
;
Structure prediction by ZEFSAII (Michael W. Deem and Ramdas Pophale) SiO2 
 PCOD9170274
Probable space group: C 2/M
;
_chemical_formula_sum "Si O2"
_cell_formula_units_Z 64
_cell_length_a 21.118574
_cell_length_b 14.622695
_cell_length_c 12.213997
_cell_angle_alpha 90.000000
_cell_angle_beta 108.079950
_cell_angle_gamma 90.000000
_cell_volume 3585.574690
_symmetry_space_group_name_H-M "C 2/M"
_symmetry_group_IT_number 12
_symmetry_cell_setting 'monoclinic'
loop_
_space_group_symop_operation_xyz
x,y,z
-x,y,-z
-x,-y,-z
x,-y,z
1/2+x,1/2+y,z
1/2-x,1/2+y,-z
1/2-x,1/2-y,-z
1/2+x,1/2-y,z
loop_
_atom_site_type_symbol
_atom_site_label
_atom_site_fract_x
_atom_site_fract_y
_atom_site_fract_z
Si Si1 0.110558 0.814781 0.305142
Si Si2 0.169511 0.888794 0.951063
Si Si3 0.687795 0.390956 0.721847
Si Si4 0.289282 0.171381 0.590582
Si Si5 0.223238 0.891379 0.210688
Si Si6 0.850008 0.396132 0.412748
Si Si7 0.921847 0.207367 0.466602
Si Si8 0.484884 0.393019 0.121329
O O1 0.144225 0.714813 0.321064
O O2 0.164696 0.872826 0.266597
O O3 0.103721 0.832749 0.430889
O O4 0.039197 0.832367 0.212946
O O5 0.203860 0.863229 0.855294
O O6 0.091433 0.863799 0.903576
O O7 0.170074 0.000000 0.958582
O O8 0.202417 0.853943 0.080878
O O9 0.679445 0.500000 0.715710
O O10 0.742488 0.363823 0.661417
O O11 0.619312 0.343613 0.648811
O O12 0.250000 0.250000 0.500000
O O13 0.312054 0.102209 0.509105
O O14 0.294183 0.861017 0.296530
O O15 0.229595 0.000000 0.204511
O O16 0.872056 0.500000 0.398322
O O17 0.903977 0.315546 0.451283
O O18 0.000000 0.193719 0.500000
O O19 0.492209 0.500000 0.159916
O O20 0.500000 0.390008 0.000000
#
# Coordination Sequence:
#
# PCOD9170274 Si02
#       8
#     8   8   8   8   8   8   8   8
#     4  11  19  31  52  73 103 143 176 216 271 316
#     4   9  19  32  49  77 112 143 175 217 265 326
#     4  11  21  36  56  79 113 149 176 214 280 333
#     4  11  19  36  53  77 110 136 178 231 272 316
#     4  10  17  30  54  80 104 137 183 228 265 311
#     4  10  20  36  59  81 103 140 189 231 273 319
#     4  11  23  38  53  77 116 143 177 230 271 327
#     4  10  18  30  49  76 109 142 180 218 258 315
#
# _framework density 17.849301000000001
#
# number of rings (size 3 to 8) (size 9 to 14) (size 15 to 20)
#    0.000    1.625    5.000    1.500    0.000    2.500 
#    0.000    2.500    0.000    0.000    0.000    0.000 
#    0.000    3.000    0.000    0.125    0.000    0.000 
#
# Total GULP energy -178411.195723 kJ/mol
# GULP energy per Si atom -5575.349866 kJ/mol
# Density = 1.780868 g / cm^3
# Si number density = 17.849301 Si / 1000 Ang^3
#
#
#
# Elastic Constant Matrix: (Units=GPa)
#
#
# Indices 1 2 3 4 5 6 
#
# 1 62.0852 9.6888 37.7245 0.0000 -5.4389 0.0000
# 2 9.6888 49.2140 24.4789 0.0000 3.3841 0.0000
# 3 37.7245 24.4789 107.4753 0.0000 2.9231 0.0000
# 4 0.0000 0.0000 0.0000 20.8019 0.0000 6.1794
# 5 -5.4389 3.3841 2.9231 0.0000 29.5940 0.0000
# 6 0.0000 0.0000 0.0000 6.1794 0.0000 4.7236
#
#
#
# Elastic Compliance Matrix: (Units=1/GPa)
#
#
# Indices 1 2 3 4 5 6 
#
# 1 0.021114 -0.000823 -0.007352 0.000000 0.004701 0.000000
# 2 -0.000823 0.023080 -0.004905 0.000000 -0.002306 0.000000
# 3 -0.007352 -0.004905 0.013059 0.000000 -0.002080 0.000000
# 4 0.000000 0.000000 0.000000 0.078628 0.000000 -0.102859
# 5 0.004701 -0.002306 -0.002080 0.000000 0.035124 0.000000
# 6 0.000000 0.000000 0.000000 -0.102859 0.000000 0.346259
#
#
# Mechanical properties :
#
#
# Convention : Reuss Voigt Hill
#
# Bulk Modulus (GPa) = 32.16173 40.28432 36.22303
# Shear Modulus (GPa) = 9.02873 20.81606 14.92239
#
# Velocity S-wave (km/s) = 2.25151 3.41869 2.89454
# Velocity P-wave (km/s) = 4.98163 6.18073 5.61329
#
# Compressibility (1/GPa) = 0.03109285
#
# Stress axis : x y z
#
# Youngs Moduli (GPa) = 47.36155 43.32785 76.57763
#
# Poissons Ratio (x) = 0.03568 0.56296
# Poissons Ratio (y) = 0.03900 0.37561
# Poissons Ratio (z) = 0.34818 0.21252
#
# Static dielectric constant tensor:
#      x y z
#    x 1.608650 0.000000 -0.007320 
#    y 0.000000 1.628980 0.000000 
#    z -0.007320 0.000000 1.641130 
# 
# From -- ./inp_files/167282.got.cif
#   From: 2010.05.17/outbox.cif.g08.bks.cpg/sg12_84_cif.got.tgz:167282.got - 2010.06.03 13:09:07.
