data_PCOD9170797
_publ_section_title
;
Structure prediction by ZEFSAII (Michael W. Deem and Ramdas Pophale) SiO2 
 PCOD9170797
Probable space group: C 2/M
;
_chemical_formula_sum "Si O2"
_cell_formula_units_Z 46
_cell_length_a 16.073125
_cell_length_b 10.981034
_cell_length_c 10.850094
_cell_angle_alpha 90.000000
_cell_angle_beta 106.222037
_cell_angle_gamma 90.000000
_cell_volume 1838.791843
_symmetry_space_group_name_H-M "C 2/M"
_symmetry_group_IT_number 12
_symmetry_cell_setting 'monoclinic'
loop_
_space_group_symop_operation_xyz
x,y,z
-x,y,-z
-x,-y,-z
x,-y,z
1/2+x,1/2+y,z
1/2-x,1/2+y,-z
1/2-x,1/2-y,-z
1/2+x,1/2-y,z
loop_
_atom_site_type_symbol
_atom_site_label
_atom_site_fract_x
_atom_site_fract_y
_atom_site_fract_z
Si Si1 0.084793 0.250800 0.467945
Si Si2 0.083218 0.245568 0.871879
Si Si3 0.188788 0.500000 0.300028
Si Si4 0.617709 0.756418 0.170669
Si Si5 0.000000 0.500000 0.500000
Si Si6 0.854790 0.000000 0.511829
Si Si7 0.300756 0.139392 0.283286
Si Si8 0.646228 0.500000 0.776371
O O1 0.047268 0.389611 0.437087
O O2 0.165237 0.274436 0.593836
O O3 0.000000 0.197800 0.500000
O O4 0.118109 0.127125 0.412895
O O5 0.130987 0.337361 0.799055
O O6 0.979669 0.228636 0.823434
O O7 0.120349 0.116990 0.842590
O O8 0.105878 0.281099 0.020355
O O9 0.141691 0.373043 0.262349
O O10 0.251618 0.500000 0.443602
O O11 0.251886 0.500000 0.205743
O O12 0.702065 0.669611 0.209354
O O13 0.886461 0.000000 0.379828
O O14 0.312114 0.000000 0.323192
#
# Coordination Sequence:
#
# PCOD9170797 Si02
#       8
#     8   8   4   8   2   4   8   4
#     4  10  18  35  57  90 115 149 191 240 295 357
#     4  11  25  38  56  85 119 160 200 243 291 345
#     4  10  20  38  59  82 120 151 200 250 280 347
#     4  11  25  38  56  85 119 160 200 243 291 345
#     4   8  20  30  52  94 128 132 192 242 292 350
#     4  10  17  34  58  89 112 151 200 232 303 340
#     4  12  22  38  60  89 114 154 195 247 297 346
#     4  10  20  38  59  82 120 151 200 250 280 347
#
# _framework density 25.016427
#
# number of rings (size 3 to 8) (size 9 to 14) (size 15 to 20)
#    1.043    0.348    6.087    0.783    4.870    1.391 
#    0.000    0.000    0.000    1.043    0.000    0.000 
#    0.000    0.000    0.000    0.000    0.000    0.000 
#
# Total GULP energy -128088.848257 kJ/mol
# GULP energy per Si atom -5569.080359 kJ/mol
# Density = 2.495949 g / cm^3
# Si number density = 25.016427 Si / 1000 Ang^3
#
#
#
# Elastic Constant Matrix: (Units=GPa)
#
#
# Indices 1 2 3 4 5 6 
#
# 1 145.7489 24.6338 57.9628 0.0000 -6.6843 0.0000
# 2 24.6338 141.5198 44.4731 0.0000 -7.6349 0.0000
# 3 57.9628 44.4731 61.3324 0.0000 -7.7311 0.0000
# 4 0.0000 0.0000 0.0000 21.2018 0.0000 4.5817
# 5 -6.6843 -7.6349 -7.7311 0.0000 36.7664 0.0000
# 6 0.0000 0.0000 0.0000 4.5817 0.0000 117.0425
#
#
#
# Elastic Compliance Matrix: (Units=1/GPa)
#
#
# Indices 1 2 3 4 5 6 
#
# 1 0.011338 0.001803 -0.012035 0.000000 -0.000095 0.000000
# 2 0.001803 0.009448 -0.008491 0.000000 0.000504 0.000000
# 3 -0.012035 -0.008491 0.034245 0.000000 0.003250 0.000000
# 4 0.000000 0.000000 0.000000 0.047568 0.000000 -0.001862
# 5 -0.000095 0.000504 0.003250 0.000000 0.027970 0.000000
# 6 0.000000 0.000000 0.000000 -0.001862 0.000000 0.008617
#
#
# Mechanical properties :
#
#
# Convention : Reuss Voigt Hill
#
# Bulk Modulus (GPa) = 56.86594 66.97117 61.91856
# Shear Modulus (GPa) = 27.39829 49.77088 38.58458
#
# Velocity S-wave (km/s) = 3.31299 4.46525 3.93156
# Velocity P-wave (km/s) = 6.11681 7.30846 6.73903
#
# Compressibility (1/GPa) = 0.01758522
#
# Stress axis : x y z
#
# Youngs Moduli (GPa) = 88.19860 105.84303 29.20133
#
# Poissons Ratio (x) = -0.19086 0.35143
# Poissons Ratio (y) = -0.15904 0.24796
# Poissons Ratio (z) = 1.06144 0.89877
#
# Static dielectric constant tensor:
#      x y z
#    x 2.060920 0.000000 -0.029540 
#    y 0.000000 1.885690 0.000000 
#    z -0.029540 0.000000 2.063500 
# 
# From -- ./inp_files/212968.got.cif
#   From: 2010.05.17/outbox.cif.g08.bks.cpg/sg12_107_cif.got.tgz:212968.got - 2010.06.03 13:09:07.
