data_PCOD9170244
_publ_section_title
;
Structure prediction by ZEFSAII (Michael W. Deem and Ramdas Pophale) SiO2 
 PCOD9170244
Probable space group: C 2/M
;
_chemical_formula_sum "Si O2"
_cell_formula_units_Z 52
_cell_length_a 15.473764
_cell_length_b 30.464790
_cell_length_c 8.213113
_cell_angle_alpha 90.000000
_cell_angle_beta 146.491536
_cell_angle_gamma 90.000000
_cell_volume 2137.412606
_symmetry_space_group_name_H-M "C 2/M"
_symmetry_group_IT_number 12
_symmetry_cell_setting 'monoclinic'
loop_
_space_group_symop_operation_xyz
x,y,z
-x,y,-z
-x,-y,-z
x,-y,z
1/2+x,1/2+y,z
1/2-x,1/2+y,-z
1/2-x,1/2-y,-z
1/2+x,1/2-y,z
loop_
_atom_site_type_symbol
_atom_site_label
_atom_site_fract_x
_atom_site_fract_y
_atom_site_fract_z
Si Si1 0.609720 0.577706 0.383512
Si Si2 0.857473 0.238634 0.898809
Si Si3 0.542064 0.801146 0.376849
Si Si4 0.594938 0.654045 0.814253
Si Si5 0.793541 0.575449 0.016289
Si Si6 0.634085 0.500000 0.973680
Si Si7 0.088212 0.603811 0.312275
O O1 0.516457 0.623465 0.249168
O O2 0.689082 0.569843 0.686990
O O3 0.492497 0.538291 0.173425
O O4 0.747331 0.581635 0.468791
O O5 0.865355 0.199770 0.043234
O O6 0.893307 0.285207 0.038600
O O7 0.681419 0.233442 0.558918
O O8 0.000000 0.230520 0.000000
O O9 0.500000 0.800204 0.500000
O O10 0.601348 0.848140 0.409532
O O11 0.500000 0.661600 0.500000
O O12 0.743285 0.623157 0.005533
O O13 0.744343 0.538369 0.063046
O O14 0.973080 0.576050 0.245226
O O15 0.000000 0.608588 0.000000
#
# Coordination Sequence:
#
# PCOD9170244 Si02
#       7
#     8   8   8   8   8   4   8
#     4   9  17  30  53  83 119 155 195 249 302 352
#     4  12  25  41  63  91 122 161 206 258 307 361
#     4  12  26  43  63  90 123 164 208 254 306 368
#     4   9  18  35  57  83 116 159 203 247 301 359
#     4   9  17  30  53  82 118 157 195 245 301 356
#     4  10  17  30  52  88 125 154 194 244 302 362
#     4  10  21  37  56  85 122 159 198 250 308 355
#
# _framework density 24.328479999999999
#
# number of rings (size 3 to 8) (size 9 to 14) (size 15 to 20)
#    0.000    1.846    0.000    6.000    0.000    4.308 
#    0.000    2.308    0.000    0.000    0.000   67.846 
#    0.000    0.000    0.000    0.000    0.000    0.000 
#
# Total GULP energy -145258.626707 kJ/mol
# GULP energy per Si atom -5586.870258 kJ/mol
# Density = 2.427311 g / cm^3
# Si number density = 24.328480 Si / 1000 Ang^3
#
#
#
# Elastic Constant Matrix: (Units=GPa)
#
#
# Indices 1 2 3 4 5 6 
#
# 1 178.6354 42.4342 48.0049 0.0000 43.9904 0.0000
# 2 42.4342 88.3520 26.0789 0.0000 -2.0850 0.0000
# 3 48.0049 26.0789 78.4961 0.0000 13.4869 0.0000
# 4 0.0000 0.0000 0.0000 -28.0070 0.0000 24.5411
# 5 43.9904 -2.0850 13.4869 0.0000 34.4862 0.0000
# 6 0.0000 0.0000 0.0000 24.5411 0.0000 7.9878
#
#
#
# Elastic Compliance Matrix: (Units=1/GPa)
#
#
# Indices 1 2 3 4 5 6 
#
# 1 0.010526 -0.004539 -0.002761 0.000000 -0.012622 0.000000
# 2 -0.004539 0.014720 -0.003498 0.000000 0.008047 0.000000
# 3 -0.002761 -0.003498 0.016103 0.000000 -0.002987 0.000000
# 4 0.000000 0.000000 0.000000 -0.009671 0.000000 0.029711
# 5 -0.012622 0.008047 -0.002987 0.000000 0.046752 0.000000
# 6 0.000000 0.000000 0.000000 0.029711 0.000000 0.033907
#
#
# Mechanical properties :
#
#
# Convention : Reuss Voigt Hill
#
# Bulk Modulus (GPa) = 50.61824 64.27995 57.44910
# Shear Modulus (GPa) = 35.58241 18.15778 26.87009
#
# Velocity S-wave (km/s) = 3.82852 2.73492 3.32696
# Velocity P-wave (km/s) = 6.35569 6.03756 6.19866
#
# Compressibility (1/GPa) = 0.01975572
#
# Stress axis : x y z
#
# Youngs Moduli (GPa) = 94.99981 67.93256 62.09927
#
# Poissons Ratio (x) = 0.30832 0.17145
# Poissons Ratio (y) = 0.43116 0.21720
# Poissons Ratio (z) = 0.26229 0.23761
#
# Static dielectric constant tensor:
#      x y z
#    x 1.929510 0.000000 -0.028050 
#    y 0.000000 1.829300 0.000000 
#    z -0.028050 0.000000 2.023230 
# 
# From -- ./inp_files/68690.got.cif
#   From: 2010.05.17/outbox.cif.g08.bks.cpg/sg12_35_cif.got.tgz:68690.got - 2010.06.03 13:09:07.
