data_PCOD9170917
_publ_section_title
;
Structure prediction by ZEFSAII (Michael W. Deem and Ramdas Pophale) SiO2 
 PCOD9170917
Probable space group: C 2/M
;
_chemical_formula_sum "Si O2"
_cell_formula_units_Z 48
_cell_length_a 14.001002
_cell_length_b 28.722518
_cell_length_c 10.221448
_cell_angle_alpha 90.000000
_cell_angle_beta 150.779624
_cell_angle_gamma 90.000000
_cell_volume 2006.620271
_symmetry_space_group_name_H-M "C 2/M"
_symmetry_group_IT_number 12
_symmetry_cell_setting 'monoclinic'
loop_
_space_group_symop_operation_xyz
x,y,z
-x,y,-z
-x,-y,-z
x,-y,z
1/2+x,1/2+y,z
1/2-x,1/2+y,-z
1/2-x,1/2-y,-z
1/2+x,1/2-y,z
loop_
_atom_site_type_symbol
_atom_site_label
_atom_site_fract_x
_atom_site_fract_y
_atom_site_fract_z
Si Si1 0.940451 0.945886 0.577472
Si Si2 0.044431 0.294861 0.190274
Si Si3 0.833739 0.423247 0.192536
Si Si4 0.725785 0.339612 0.236818
Si Si5 0.419460 0.258430 0.533693
Si Si6 0.093373 0.606683 0.299990
O O1 0.000000 0.932158 0.500000
O O2 0.755984 0.915418 0.403609
O O3 0.882994 0.000000 0.503848
O O4 0.116636 0.942181 0.897066
O O5 0.281289 0.291225 0.459375
O O6 0.955471 0.266247 0.202581
O O7 0.981160 0.347960 0.113337
O O8 0.000000 0.272256 0.000000
O O9 0.784991 0.369903 0.180605
O O10 0.000000 0.439910 0.500000
O O11 0.941729 0.428516 0.182609
O O12 0.818485 0.288577 0.354804
O O13 0.806619 0.370733 0.452445
O O14 0.500000 0.336462 0.000000
O O15 0.500000 0.282844 0.500000
#
# Coordination Sequence:
#
# PCOD9170917 Si02
#       6
#     8   8   8   8   8   8
#     4  11  26  45  65  97 134 171 215 264 332 399
#     4  10  22  38  58  90 123 167 224 265 318 390
#     4  10  22  41  70 101 124 169 220 267 330 394
#     4  10  17  36  65  91 126 166 209 263 323 377
#     4  10  21  38  56  88 130 168 213 273 328 376
#     4  10  22  41  64  92 130 167 214 268 321 385
#
# _framework density 23.920817
#
# number of rings (size 3 to 8) (size 9 to 14) (size 15 to 20)
#    0.000    1.833    1.667    3.000    2.333    2.333 
#    0.000    7.500    0.000    0.000    0.000    0.000 
#    0.000    0.000    0.000    0.000    0.000    0.000 
#
# Total GULP energy -133623.395007 kJ/mol
# GULP energy per Si atom -5567.641459 kJ/mol
# Density = 2.386637 g / cm^3
# Si number density = 23.920817 Si / 1000 Ang^3
#
#
#
# Elastic Constant Matrix: (Units=GPa)
#
#
# Indices 1 2 3 4 5 6 
#
# 1 161.1550 24.7301 17.0327 0.0001 5.5220 -0.0001
# 2 24.7301 55.8157 -3.3622 0.0000 7.6857 0.0001
# 3 17.0327 -3.3622 53.8708 0.0005 -2.1214 -0.0007
# 4 0.0001 0.0000 0.0005 36.4308 0.0003 -37.6171
# 5 5.5220 7.6857 -2.1214 0.0003 42.6116 -0.0004
# 6 -0.0001 0.0001 -0.0007 -37.6171 -0.0004 66.5281
#
#
#
# Elastic Compliance Matrix: (Units=1/GPa)
#
#
# Indices 1 2 3 4 5 6 
#
# 1 0.006962 -0.003168 -0.002417 0.000000 -0.000451 0.000000
# 2 -0.003168 0.019870 0.002121 0.000000 -0.003068 0.000000
# 3 -0.002417 0.002121 0.019495 0.000000 0.000901 0.000000
# 4 0.000000 0.000000 0.000000 0.065960 0.000000 0.037296
# 5 -0.000451 -0.003068 0.000901 0.000000 0.024124 0.000000
# 6 0.000000 0.000000 0.000000 0.037296 0.000000 0.036119
#
#
# Mechanical properties :
#
#
# Convention : Reuss Voigt Hill
#
# Bulk Modulus (GPa) = 25.38115 38.62696 32.00405
# Shear Modulus (GPa) = 25.96165 44.61014 35.28590
#
# Velocity S-wave (km/s) = 3.29799 4.32314 3.84489
# Velocity P-wave (km/s) = 5.01356 6.41111 5.75492
#
# Compressibility (1/GPa) = 0.03939932
#
# Stress axis : x y z
#
# Youngs Moduli (GPa) = 143.63111 50.32701 51.29531
#
# Poissons Ratio (x) = 0.15945 0.12397
# Poissons Ratio (y) = 0.45506 -0.10880
# Poissons Ratio (z) = 0.34713 -0.10675
#
# Static dielectric constant tensor:
#      x y z
#    x 1.987990 0.000000 0.032880 
#    y 0.000000 1.903280 0.000000 
#    z 0.032880 0.000000 2.220900 
# 
# From -- ./inp_files/150325.got.cif
#   From: 2010.05.17/outbox.cif.g08.bks.cpg/sg12_76_cif.got.tgz:150325.got - 2010.06.03 13:09:07.
