data_PCOD9170118
_publ_section_title
;
Structure prediction by ZEFSAII (Michael W. Deem and Ramdas Pophale) SiO2 
 PCOD9170118
Probable space group: C 2/M
;
_chemical_formula_sum "Si O2"
_cell_formula_units_Z 36
_cell_length_a 5.087770
_cell_length_b 21.117466
_cell_length_c 16.604535
_cell_angle_alpha 90.000000
_cell_angle_beta 96.671292
_cell_angle_gamma 90.000000
_cell_volume 1771.925163
_symmetry_space_group_name_H-M "C 2/M"
_symmetry_group_IT_number 12
_symmetry_cell_setting 'monoclinic'
loop_
_space_group_symop_operation_xyz
x,y,z
-x,y,-z
-x,-y,-z
x,-y,z
1/2+x,1/2+y,z
1/2-x,1/2+y,-z
1/2-x,1/2-y,-z
1/2+x,1/2-y,z
loop_
_atom_site_type_symbol
_atom_site_label
_atom_site_fract_x
_atom_site_fract_y
_atom_site_fract_z
Si Si1 0.399078 0.572190 0.111025
Si Si2 0.500000 0.836235 0.000000
Si Si3 0.766943 0.324323 0.150112
Si Si4 0.491449 0.293461 0.590160
Si Si5 0.305921 0.652325 0.243372
O O1 0.384293 0.500000 0.086018
O O2 0.690980 0.603093 0.120449
O O3 0.319343 0.583857 0.201551
O O4 0.216486 0.619087 0.051943
O O5 0.637073 0.797390 0.931965
O O6 0.500710 0.307739 0.189724
O O7 0.007424 0.325540 0.220906
O O8 0.500000 0.320596 0.500000
O O9 0.203655 0.264207 0.596844
O O10 0.583655 0.339663 0.664148
#
# Coordination Sequence:
#
# PCOD9170118 Si02
#       5
#     8   4   8   8   8
#     4   9  19  30  47  73 106 143 177 212 249 290
#     4  10  17  30  46  74 106 138 184 218 250 278
#     4   9  19  29  47  68 105 145 167 205 248 290
#     4  10  20  35  61  88 103 120 157 212 270 319
#     4   9  19  34  47  75 108 134 162 203 263 308
#
# _framework density 20.316884999999999
#
# number of rings (size 3 to 8) (size 9 to 14) (size 15 to 20)
#    1.333    1.333    0.000    2.333    0.000    5.333 
#    0.000    0.000    0.000    0.667    0.000   84.000 
#    0.000    0.000    0.000    0.000    0.000    0.000 
#
# Total GULP energy -100234.355409 kJ/mol
# GULP energy per Si atom -5568.575301 kJ/mol
# Density = 2.027064 g / cm^3
# Si number density = 20.316885 Si / 1000 Ang^3
#
#
#
# Elastic Constant Matrix: (Units=GPa)
#
#
# Indices 1 2 3 4 5 6 
#
# 1 102.2886 7.1285 22.6927 0.0000 15.1147 0.0000
# 2 7.1285 37.3316 23.1046 0.0000 2.1501 0.0000
# 3 22.6927 23.1046 177.5409 0.0000 10.6790 0.0000
# 4 0.0000 0.0000 0.0000 15.6837 0.0000 8.1292
# 5 15.1147 2.1501 10.6790 0.0000 31.8209 0.0000
# 6 0.0000 0.0000 0.0000 8.1292 0.0000 4.1462
#
#
#
# Elastic Compliance Matrix: (Units=1/GPa)
#
#
# Indices 1 2 3 4 5 6 
#
# 1 0.010765 -0.001205 -0.000935 0.000000 -0.004718 0.000000
# 2 -0.001205 0.029284 -0.003646 0.000000 -0.000183 0.000000
# 3 -0.000935 -0.003646 0.006312 0.000000 -0.001428 0.000000
# 4 0.000000 0.000000 0.000000 -3.924986 0.000000 7.695509
# 5 -0.004718 -0.000183 -0.001428 0.000000 0.034158 0.000000
# 6 0.000000 0.000000 0.000000 7.695509 0.000000-14.846987
#
#
# Mechanical properties :
#
#
# Convention : Reuss Voigt Hill
#
# Bulk Modulus (GPa) = 28.74483 47.00141 37.87312
# Shear Modulus (GPa) = -0.26783 27.94584 13.83900
#
# Velocity S-wave (km/s) = -0.36348 3.71279 2.61273
# Velocity P-wave (km/s) = 3.74203 6.44703 5.27100
#
# Compressibility (1/GPa) = 0.03478887
#
# Stress axis : x y z
#
# Youngs Moduli (GPa) = 92.89463 34.14831 158.41812
#
# Poissons Ratio (x) = 0.04115 0.14818
# Poissons Ratio (y) = 0.11193 0.57758
# Poissons Ratio (z) = 0.08689 0.12450
#
# Static dielectric constant tensor:
#      x y z
#    x 1.807460 0.000000 -0.039280 
#    y 0.000000 1.764590 0.000000 
#    z -0.039280 0.000000 1.744960 
# 
# From -- ./inp_files/191519.got.cif
#   From: 2010.05.17/outbox.cif.g08.bks.cpg/sg12_96_cif.got.tgz:191519.got - 2010.06.03 13:09:07.
