data_PCOD9170938
_publ_section_title
;
Structure prediction by ZEFSAII (Michael W. Deem and Ramdas Pophale) SiO2 
 PCOD9170938
Probable space group: C 2/M
;
_chemical_formula_sum "Si O2"
_cell_formula_units_Z 36
_cell_length_a 14.756842
_cell_length_b 17.742331
_cell_length_c 14.221324
_cell_angle_alpha 90.000000
_cell_angle_beta 152.229924
_cell_angle_gamma 90.000000
_cell_volume 1734.841338
_symmetry_space_group_name_H-M "C 2/M"
_symmetry_group_IT_number 12
_symmetry_cell_setting 'monoclinic'
loop_
_space_group_symop_operation_xyz
x,y,z
-x,y,-z
-x,-y,-z
x,-y,z
1/2+x,1/2+y,z
1/2-x,1/2+y,-z
1/2-x,1/2-y,-z
1/2+x,1/2-y,z
loop_
_atom_site_type_symbol
_atom_site_label
_atom_site_fract_x
_atom_site_fract_y
_atom_site_fract_z
Si Si1 0.768742 0.373582 0.803897
Si Si2 0.148789 0.500000 0.758068
Si Si3 0.318089 0.500000 0.639927
Si Si4 0.500000 0.754620 0.500000
Si Si5 0.800300 0.500000 0.981896
Si Si6 0.263837 0.500000 0.378167
Si Si7 0.314717 0.629302 0.775009
O O1 0.635204 0.300118 0.685892
O O2 0.743000 0.425719 0.871432
O O3 0.704313 0.426229 0.656378
O O4 0.000000 0.358165 0.000000
O O5 0.213074 0.572380 0.756489
O O6 0.917181 0.500000 0.560191
O O7 0.242724 0.500000 0.947652
O O8 0.362769 0.500000 0.570652
O O9 0.381945 0.575402 0.752389
O O10 0.341432 0.809498 0.401809
O O11 0.034508 0.500000 0.187985
O O12 0.500000 0.662501 0.000000
#
# Coordination Sequence:
#
# PCOD9170938 Si02
#       7
#     8   4   4   4   4   4   8
#     4   9  19  39  60  87 115 154 185 234 289 332
#     4  10  17  37  65  87 110 144 202 245 273 329
#     4  10  17  37  65  87 110 144 202 245 273 329
#     4  12  22  38  58  82 128 150 190 222 290 364
#     4   8  17  35  66  88 111 144 199 244 274 327
#     4   8  17  35  66  88 111 144 199 244 274 327
#     4  11  22  38  58  85 113 157 190 238 289 328
#
# _framework density 20.751176999999998
#
# number of rings (size 3 to 8) (size 9 to 14) (size 15 to 20)
#    0.000    2.222    2.222    4.000    0.000    1.778 
#    8.000    2.222    0.000    0.000    0.000    0.000 
#    0.000    0.000    0.000    0.000    0.000    0.000 
#
# Total GULP energy -100501.388720 kJ/mol
# GULP energy per Si atom -5583.410484 kJ/mol
# Density = 2.070395 g / cm^3
# Si number density = 20.751177 Si / 1000 Ang^3
#
#
#
# Elastic Constant Matrix: (Units=GPa)
#
#
# Indices 1 2 3 4 5 6 
#
# 1 97.9054 31.8974 46.6755 0.0000 -16.5907 0.0000
# 2 31.8974 114.4304 54.0704 0.0000 -1.3737 0.0000
# 3 46.6755 54.0704 121.4339 0.0000 3.5829 0.0000
# 4 0.0000 0.0000 0.0000 102.0443 0.0000 19.9965
# 5 -16.5907 -1.3737 3.5829 0.0000 52.8983 0.0000
# 6 0.0000 0.0000 0.0000 19.9965 0.0000 5.5945
#
#
#
# Elastic Compliance Matrix: (Units=1/GPa)
#
#
# Indices 1 2 3 4 5 6 
#
# 1 0.013752 -0.001541 -0.004735 0.000000 0.004594 0.000000
# 2 -0.001541 0.011261 -0.004425 0.000000 0.000109 0.000000
# 3 -0.004735 -0.004425 0.012097 0.000000 -0.002419 0.000000
# 4 0.000000 0.000000 0.000000 0.032711 0.000000 -0.116920
# 5 0.004594 0.000109 -0.002419 0.000000 0.020512 0.000000
# 6 0.000000 0.000000 0.000000 -0.116920 0.000000 0.596657
#
#
# Mechanical properties :
#
#
# Convention : Reuss Voigt Hill
#
# Bulk Modulus (GPa) = 63.66494 66.56179 65.11337
# Shear Modulus (GPa) = 7.00646 45.51583 26.26115
#
# Velocity S-wave (km/s) = 1.83950 4.68847 3.56128
# Velocity P-wave (km/s) = 5.93788 7.83931 6.95389
#
# Compressibility (1/GPa) = 0.01570723
#
# Stress axis : x y z
#
# Youngs Moduli (GPa) = 72.71744 88.80532 82.66691
#
# Poissons Ratio (x) = 0.13682 0.39146
# Poissons Ratio (y) = 0.11203 0.36580
# Poissons Ratio (z) = 0.34434 0.39296
#
# Static dielectric constant tensor:
#      x y z
#    x 1.718860 0.000000 0.026360 
#    y 0.000000 1.721910 0.000000 
#    z 0.026360 0.000000 1.840470 
# 
# From -- ./inp_files/216199.got.cif
#   From: 2010.05.17/outbox.cif.g08.bks.cpg/sg12_109_cif.got.tgz:216199.got - 2010.06.03 13:09:07.
