data_PCOD9171539
_publ_section_title
;
Structure prediction by ZEFSAII (Michael W. Deem and Ramdas Pophale) SiO2 
 PCOD9171539
Probable space group: C 2/M
;
_chemical_formula_sum "Si O2"
_cell_formula_units_Z 56
_cell_length_a 17.690117
_cell_length_b 12.590858
_cell_length_c 14.436786
_cell_angle_alpha 90.000000
_cell_angle_beta 125.692368
_cell_angle_gamma 90.000000
_cell_volume 2611.552821
_symmetry_space_group_name_H-M "C 2/M"
_symmetry_group_IT_number 12
_symmetry_cell_setting 'monoclinic'
loop_
_space_group_symop_operation_xyz
x,y,z
-x,y,-z
-x,-y,-z
x,-y,z
1/2+x,1/2+y,z
1/2-x,1/2+y,-z
1/2-x,1/2-y,-z
1/2+x,1/2-y,z
loop_
_atom_site_type_symbol
_atom_site_label
_atom_site_fract_x
_atom_site_fract_y
_atom_site_fract_z
Si Si1 0.953643 0.172944 0.674327
Si Si2 0.135659 0.883740 0.575500
Si Si3 0.558958 0.823300 0.626345
Si Si4 0.868751 0.181888 0.093460
Si Si5 0.755607 0.315403 0.155075
Si Si6 0.480224 0.882430 0.095142
Si Si7 0.170007 0.281918 0.277938
O O1 0.922297 0.113127 0.560438
O O2 0.865225 0.192760 0.676129
O O3 0.990786 0.286490 0.659615
O O4 0.040419 0.128999 0.795581
O O5 0.095916 0.788621 0.609356
O O6 0.239853 0.846666 0.627134
O O7 0.134260 0.000000 0.619085
O O8 0.500000 0.874015 0.500000
O O9 0.653045 0.872596 0.736157
O O10 0.800782 0.217937 0.127950
O O11 0.911235 0.290158 0.078668
O O12 0.810002 0.129501 0.968558
O O13 0.695249 0.271633 0.197432
O O14 0.582140 0.859091 0.207852
O O15 0.445788 0.000000 0.094729
O O16 0.500000 0.876861 0.000000
#
# Coordination Sequence:
#
# PCOD9171539 Si02
#       7
#     8   8   8   8   8   8   8
#     4   9  18  29  46  67  95 126 161 196 234 280
#     4  10  19  31  48  71 100 128 156 197 245 289
#     4   8  16  29  43  66  93 122 151 191 235 284
#     4   9  17  30  45  66  94 127 166 195 226 284
#     4   9  16  28  47  66  90 123 164 197 228 271
#     4  10  18  28  44  69 100 122 145 191 246 292
#     4  10  18  30  48  72  97 123 159 197 241 285
#
# _framework density 21.443180000000002
#
# number of rings (size 3 to 8) (size 9 to 14) (size 15 to 20)
#    0.000    2.714    1.429    0.857    0.000    2.571 
#    0.000    0.000    0.000    7.714    0.000    1.000 
#    0.000   43.429    0.000    0.000    0.000    0.000 
#
# Total GULP energy -156016.733191 kJ/mol
# GULP energy per Si atom -5572.026185 kJ/mol
# Density = 2.139437 g / cm^3
# Si number density = 21.443180 Si / 1000 Ang^3
#
#
#
# Elastic Constant Matrix: (Units=GPa)
#
#
# Indices 1 2 3 4 5 6 
#
# 1 113.4304 19.5304 24.1882 0.0000 -5.1198 0.0000
# 2 19.5304 53.1895 8.0954 0.0000 -1.4853 0.0000
# 3 24.1882 8.0954 162.2174 0.0000 18.2969 0.0000
# 4 0.0000 0.0000 0.0000 -3.0247 0.0000 -5.4957
# 5 -5.1198 -1.4853 18.2969 0.0000 44.9213 0.0000
# 6 0.0000 0.0000 0.0000 -5.4957 0.0000 -7.0851
#
#
#
# Elastic Compliance Matrix: (Units=1/GPa)
#
#
# Indices 1 2 3 4 5 6 
#
# 1 0.009774 -0.003320 -0.001473 0.000000 0.001604 0.000000
# 2 -0.003320 0.020121 -0.000568 0.000000 0.000518 0.000000
# 3 -0.001473 -0.000568 0.006743 0.000000 -0.002933 0.000000
# 4 0.000000 0.000000 0.000000 0.807677 0.000000 -0.626485
# 5 0.001604 0.000518 -0.002933 0.000000 0.023656 0.000000
# 6 0.000000 0.000000 0.000000 -0.626485 0.000000 0.344800
#
#
# Mechanical properties :
#
#
# Convention : Reuss Voigt Hill
#
# Bulk Modulus (GPa) = 38.58364 48.05172 43.31768
# Shear Modulus (GPa) = 4.05801 25.43052 14.74426
#
# Velocity S-wave (km/s) = 1.37716 3.44750 2.62505
# Velocity P-wave (km/s) = 4.53445 6.18906 5.42521
#
# Compressibility (1/GPa) = 0.02591772
#
# Stress axis : x y z
#
# Youngs Moduli (GPa) = 102.31181 49.70031 148.29490
#
# Poissons Ratio (x) = 0.16500 0.21839
# Poissons Ratio (y) = 0.33967 0.08416
# Poissons Ratio (z) = 0.15067 0.02821
#
# Static dielectric constant tensor:
#      x y z
#    x 1.773870 0.000000 0.022940 
#    y 0.000000 1.761400 0.000000 
#    z 0.022940 0.000000 1.867580 
# 
# From -- ./inp_files/224890.got.cif
#   From: 2010.05.17/outbox.cif.g08.bks.cpg/sg12_113_cif.got.tgz:224890.got - 2010.06.03 13:09:07.
