data_PCOD9171689
_publ_section_title
;
Structure prediction by ZEFSAII (Michael W. Deem and Ramdas Pophale) SiO2 
 PCOD9171689
Probable space group: C 2/M
;
_chemical_formula_sum "Si O2"
_cell_formula_units_Z 56
_cell_length_a 10.510936
_cell_length_b 14.721370
_cell_length_c 16.455193
_cell_angle_alpha 90.000000
_cell_angle_beta 99.169943
_cell_angle_gamma 90.000000
_cell_volume 2513.660070
_symmetry_space_group_name_H-M "C 2/M"
_symmetry_group_IT_number 12
_symmetry_cell_setting 'monoclinic'
loop_
_space_group_symop_operation_xyz
x,y,z
-x,y,-z
-x,-y,-z
x,-y,z
1/2+x,1/2+y,z
1/2-x,1/2+y,-z
1/2-x,1/2-y,-z
1/2+x,1/2-y,z
loop_
_atom_site_type_symbol
_atom_site_label
_atom_site_fract_x
_atom_site_fract_y
_atom_site_fract_z
Si Si1 0.348051 0.163928 0.502809
Si Si2 0.586791 0.850308 0.778011
Si Si3 0.628972 0.889747 0.967443
Si Si4 0.901031 0.107640 0.057454
Si Si5 0.181193 0.360849 0.318388
Si Si6 0.065800 0.862683 0.749130
Si Si7 0.210680 0.860832 0.329252
O O1 0.500000 0.186395 0.500000
O O2 0.250000 0.250000 0.500000
O O3 0.337397 0.115007 0.588746
O O4 0.288076 0.114851 0.418451
O O5 0.622363 0.854911 0.875271
O O6 0.445925 0.889009 0.744002
O O7 0.573850 0.746488 0.747641
O O8 0.701897 0.891140 0.737027
O O9 0.629383 0.000000 0.964105
O O10 0.500000 0.861724 0.000000
O O11 0.757092 0.857501 0.026267
O O12 0.938485 0.117711 0.155180
O O13 0.894501 0.000000 0.041939
O O14 0.000000 0.145049 0.000000
O O15 0.307832 0.395592 0.285378
O O16 0.195558 0.249934 0.321783
O O17 0.934952 0.894094 0.693108
#
# Coordination Sequence:
#
# PCOD9171689 Si02
#       7
#     8   8   8   8   8   8   8
#     4  10  18  28  46  72 107 143 170 201 248 298
#     4  10  18  32  49  72 102 131 163 207 253 297
#     4  10  21  35  52  73  97 129 170 209 249 301
#     4  10  21  37  54  73  99 129 168 213 252 304
#     4   9  18  29  46  71 105 135 164 204 246 293
#     4  10  20  32  49  76 102 131 167 206 257 299
#     4   9  18  29  46  71 103 133 167 202 244 298
#
# _framework density 22.278272000000001
#
# number of rings (size 3 to 8) (size 9 to 14) (size 15 to 20)
#    0.000    2.286    1.429    1.714    6.000    1.143 
#    0.000    0.000    0.000    0.000    0.000    6.000 
#    0.000    0.000    0.000    0.000    0.000    0.000 
#
# Total GULP energy -156321.105292 kJ/mol
# GULP energy per Si atom -5582.896618 kJ/mol
# Density = 2.222757 g / cm^3
# Si number density = 22.278272 Si / 1000 Ang^3
#
#
#
# Elastic Constant Matrix: (Units=GPa)
#
#
# Indices 1 2 3 4 5 6 
#
# 1 182.9815 6.8240 59.7317 0.0000 -5.5753 0.0000
# 2 6.8240 67.5916 -19.9441 0.0000 -1.7362 0.0000
# 3 59.7317 -19.9441 113.1699 0.0000 -3.5371 0.0000
# 4 0.0000 0.0000 0.0000 151.8781 0.0000 -13.8573
# 5 -5.5753 -1.7362 -3.5371 0.0000 48.5311 0.0000
# 6 0.0000 0.0000 0.0000 -13.8573 0.0000 -16.8485
#
#
#
# Elastic Compliance Matrix: (Units=1/GPa)
#
#
# Indices 1 2 3 4 5 6 
#
# 1 0.006823 -0.001832 -0.003910 0.000000 0.000433 0.000000
# 2 -0.001832 0.016126 0.003829 0.000000 0.000646 0.000000
# 3 -0.003910 0.003829 0.011592 0.000000 0.000533 0.000000
# 4 0.000000 0.000000 0.000000 0.006125 0.000000 -0.005037
# 5 0.000433 0.000646 0.000533 0.000000 0.020717 0.000000
# 6 0.000000 0.000000 0.000000 -0.005037 0.000000 -0.055210
#
#
# Mechanical properties :
#
#
# Convention : Reuss Voigt Hill
#
# Bulk Modulus (GPa) = 32.55828 50.77403 41.66616
# Shear Modulus (GPa) = 247.06700 57.85424 152.46062
#
# Velocity S-wave (km/s) = 10.54235 5.10150 8.28150
# Velocity P-wave (km/s) = 12.76066 7.58556 10.49702
#
# Compressibility (1/GPa) = 0.03071415
#
# Stress axis : x y z
#
# Youngs Moduli (GPa) = 146.56164 62.01172 86.26901
#
# Poissons Ratio (x) = 0.11358 0.33735
# Poissons Ratio (y) = 0.26844 -0.33031
# Poissons Ratio (z) = 0.57313 -0.23743
#
# Static dielectric constant tensor:
#      x y z
#    x 1.732480 0.000000 0.029330 
#    y 0.000000 1.877980 0.000000 
#    z 0.029330 0.000000 1.763680 
# 
# From -- ./inp_files/197549.got.cif
#   From: 2010.05.17/outbox.cif.g08.bks.cpg/sg12_99_cif.got.tgz:197549.got - 2010.06.03 13:09:07.
