data_PCOD9171973
_publ_section_title
;
Structure prediction by ZEFSAII (Michael W. Deem and Ramdas Pophale) SiO2 
 PCOD9171973
Probable space group: C 2/M
;
_chemical_formula_sum "Si O2"
_cell_formula_units_Z 56
_cell_length_a 20.657147
_cell_length_b 9.319643
_cell_length_c 22.785404
_cell_angle_alpha 90.000000
_cell_angle_beta 51.521068
_cell_angle_gamma 90.000000
_cell_volume 3433.979493
_symmetry_space_group_name_H-M "C 2/M"
_symmetry_group_IT_number 12
_symmetry_cell_setting 'monoclinic'
loop_
_space_group_symop_operation_xyz
x,y,z
-x,y,-z
-x,-y,-z
x,-y,z
1/2+x,1/2+y,z
1/2-x,1/2+y,-z
1/2-x,1/2-y,-z
1/2+x,1/2-y,z
loop_
_atom_site_type_symbol
_atom_site_label
_atom_site_fract_x
_atom_site_fract_y
_atom_site_fract_z
Si Si1 0.995001 0.665109 0.639590
Si Si2 0.264637 0.830680 0.192618
Si Si3 0.403144 0.330853 0.788743
Si Si4 0.837775 0.828425 0.950440
Si Si5 0.326155 0.165694 0.656861
Si Si6 0.404532 0.670754 0.041767
Si Si7 0.084475 0.834263 0.491501
O O1 0.019895 0.500000 0.633093
O O2 0.968876 0.739943 0.714869
O O3 0.911018 0.665747 0.647477
O O4 0.061047 0.754880 0.564883
O O5 0.185908 0.813728 0.193154
O O6 0.239744 0.749867 0.266390
O O7 0.343180 0.759499 0.117539
O O8 0.275842 0.000000 0.196142
O O9 0.424117 0.500000 0.773926
O O10 0.390129 0.286733 0.863437
O O11 0.824027 0.000000 0.953698
O O12 0.750000 0.750000 0.000000
O O13 0.882778 0.798844 0.986288
O O14 0.348860 0.247927 0.584386
O O15 0.303312 0.000000 0.659932
O O16 0.391066 0.500000 0.059247
O O17 0.500000 0.702837 0.000000
O O18 0.000000 0.833963 0.500000
O O19 0.107515 0.000000 0.487338
#
# Coordination Sequence:
#
# PCOD9171973 Si02
#       7
#     8   8   8   8   8   8   8
#     4   9  16  24  36  56  83 116 150 186 228 275
#     4  10  18  29  45  65  89 118 155 196 237 281
#     4   9  17  28  42  63  88 116 151 192 234 276
#     4  10  19  32  50  70  93 121 158 199 239 285
#     4   9  16  25  38  57  83 116 153 190 228 276
#     4  10  21  35  50  69  95 126 158 196 243 290
#     4   9  15  23  35  53  81 117 152 186 226 273
#
# _framework density 16.30761
#
# number of rings (size 3 to 8) (size 9 to 14) (size 15 to 20)
#    0.000    2.571    1.429    1.714    0.000    6.571 
#    0.000    0.000    0.000    0.000    0.000    0.000 
#    0.000    1.143    0.000    3.143    0.000    4.571 
#
# Total GULP energy -156077.964573 kJ/mol
# GULP energy per Si atom -5574.213020 kJ/mol
# Density = 1.627049 g / cm^3
# Si number density = 16.307610 Si / 1000 Ang^3
#
#
#
# Elastic Constant Matrix: (Units=GPa)
#
#
# Indices 1 2 3 4 5 6 
#
# 1 41.5774 35.1981 40.6625 0.0000 4.8529 0.0001
# 2 35.1981 127.4351 113.3277 0.0000 6.4158 0.0001
# 3 40.6625 113.3277 195.6554 0.0000 20.2622 0.0000
# 4 0.0000 0.0000 0.0000 37.2127 0.0000 0.3002
# 5 4.8529 6.4158 20.2622 0.0000 9.6257 0.0000
# 6 0.0001 0.0001 0.0000 0.3002 0.0000 8.4168
#
#
#
# Elastic Compliance Matrix: (Units=1/GPa)
#
#
# Indices 1 2 3 4 5 6 
#
# 1 0.032734 -0.006825 -0.002061 0.000000 -0.007615 0.000000
# 2 -0.006825 0.018654 -0.010812 0.000000 0.013767 0.000000
# 3 -0.002061 -0.010812 0.014000 0.000000 -0.021225 0.000000
# 4 0.000000 0.000000 0.000000 0.026880 0.000000 -0.000959
# 5 -0.007615 0.013767 -0.021225 0.000000 0.143230 0.000000
# 6 0.000000 0.000000 0.000000 -0.000959 0.000000 0.118845
#
#
# Mechanical properties :
#
#
# Convention : Reuss Voigt Hill
#
# Bulk Modulus (GPa) = 38.47388 82.56051 60.51719
# Shear Modulus (GPa) = 12.42531 22.74966 17.58749
#
# Velocity S-wave (km/s) = 2.76331 3.73907 3.28759
# Velocity P-wave (km/s) = 5.81592 8.32933 7.18341
#
# Compressibility (1/GPa) = 0.02599166
#
# Stress axis : x y z
#
# Youngs Moduli (GPa) = 30.54932 53.60640 71.42715
#
# Poissons Ratio (x) = 0.36584 0.14724
# Poissons Ratio (y) = 0.20849 0.77230
# Poissons Ratio (z) = 0.06298 0.57962
#
# Static dielectric constant tensor:
#      x y z
#    x 1.515000 0.000000 0.014320 
#    y 0.000000 1.546920 0.000000 
#    z 0.014320 0.000000 1.537740 
# 
# From -- ./inp_files/345470.got.cif
#   From: 2010.05.17/outbox.cif.g08.bks.cpg/sg12_173_cif.got.tgz:345470.got - 2010.06.03 13:09:07.
