data_PCOD9171775
_publ_section_title
;
Structure prediction by ZEFSAII (Michael W. Deem and Ramdas Pophale) SiO2 
 PCOD9171775
Probable space group: C 2/M
;
_chemical_formula_sum "Si O2"
_cell_formula_units_Z 56
_cell_length_a 20.361501
_cell_length_b 7.474705
_cell_length_c 27.161210
_cell_angle_alpha 90.000000
_cell_angle_beta 149.051031
_cell_angle_gamma 90.000000
_cell_volume 2125.924758
_symmetry_space_group_name_H-M "C 2/M"
_symmetry_group_IT_number 12
_symmetry_cell_setting 'monoclinic'
loop_
_space_group_symop_operation_xyz
x,y,z
-x,y,-z
-x,-y,-z
x,-y,z
1/2+x,1/2+y,z
1/2-x,1/2+y,-z
1/2-x,1/2-y,-z
1/2+x,1/2-y,z
loop_
_atom_site_type_symbol
_atom_site_label
_atom_site_fract_x
_atom_site_fract_y
_atom_site_fract_z
Si Si1 0.006490 0.704857 0.078865
Si Si2 0.232486 0.790693 0.728857
Si Si3 0.964769 0.214469 0.165235
Si Si4 0.863711 0.219411 0.432629
Si Si5 0.766899 0.217578 0.116417
Si Si6 0.327559 0.211087 0.615828
Si Si7 0.522263 0.793458 0.665676
O O1 0.011260 0.500000 0.064139
O O2 0.147932 0.785971 0.164196
O O3 0.983376 0.706479 0.123179
O O4 0.877992 0.784095 0.973383
O O5 0.226935 0.718174 0.670289
O O6 0.093290 0.783215 0.663946
O O7 0.261058 0.000000 0.742554
O O8 0.831848 0.267141 0.106152
O O9 0.071851 0.268858 0.274340
O O10 0.968034 0.000000 0.162810
O O11 0.804849 0.281136 0.446479
O O12 0.000000 0.277419 0.500000
O O13 0.864643 0.000000 0.434692
O O14 0.864811 0.279570 0.220954
O O15 0.765410 0.000000 0.118235
O O16 0.397972 0.288013 0.612863
O O17 0.312742 0.000000 0.597468
O O18 0.498797 0.000000 0.640684
#
# Coordination Sequence:
#
# PCOD9171775 Si02
#       7
#     8   8   8   8   8   8   8
#     4  10  19  32  50  72 102 141 181 219 260 305
#     4  10  20  35  55  77 104 138 174 216 262 311
#     4  10  18  28  47  76 106 136 172 219 263 304
#     4   9  17  33  60  87 103 125 172 222 257 304
#     4   9  19  33  49  72 103 140 182 220 255 302
#     4   9  17  34  56  77 103 138 176 211 256 313
#     4  10  21  35  53  75 107 145 176 213 257 309
#
# _framework density 26.341477000000001
#
# number of rings (size 3 to 8) (size 9 to 14) (size 15 to 20)
#    0.000    2.429    1.429    1.286    0.000    2.857 
#    0.000    3.571    0.000    1.714    0.000    0.000 
#    0.000    0.000    0.000    0.000    0.000    0.000 
#
# Total GULP energy -156522.742910 kJ/mol
# GULP energy per Si atom -5590.097961 kJ/mol
# Density = 2.628152 g / cm^3
# Si number density = 26.341477 Si / 1000 Ang^3
#
#
#
# Elastic Constant Matrix: (Units=GPa)
#
#
# Indices 1 2 3 4 5 6 
#
# 1 171.9883 6.7155 48.9104 0.0000 21.1230 0.0002
# 2 6.7155 92.9490 12.5881 0.0000 4.1559 0.0007
# 3 48.9104 12.5881 108.1834 0.0001 28.3110 0.0001
# 4 0.0000 0.0000 0.0001 11.7249 0.0000 -2.7470
# 5 21.1230 4.1559 28.3110 0.0000 59.6395 0.0000
# 6 0.0002 0.0007 0.0001 -2.7470 0.0000 16.3953
#
#
#
# Elastic Compliance Matrix: (Units=1/GPa)
#
#
# Indices 1 2 3 4 5 6 
#
# 1 0.006732 -0.000065 -0.002756 0.000000 -0.001072 0.000000
# 2 -0.000065 0.010933 -0.001198 0.000000 -0.000170 0.000000
# 3 -0.002756 -0.001198 0.011820 0.000000 -0.004551 0.000000
# 4 0.000000 0.000000 0.000000 0.088774 0.000000 0.014874
# 5 -0.001072 -0.000170 -0.004551 0.000000 0.019319 0.000000
# 6 0.000000 0.000000 0.000000 0.014874 0.000000 0.063485
#
#
# Mechanical properties :
#
#
# Convention : Reuss Voigt Hill
#
# Bulk Modulus (GPa) = 46.62629 56.61651 51.62140
# Shear Modulus (GPa) = 23.12134 37.87905 30.50020
#
# Velocity S-wave (km/s) = 2.96591 3.79621 3.40645
# Velocity P-wave (km/s) = 5.42844 6.38396 5.92549
#
# Compressibility (1/GPa) = 0.02144713
#
# Stress axis : x y z
#
# Youngs Moduli (GPa) = 148.54055 91.46474 84.60317
#
# Poissons Ratio (x) = 0.00597 0.23313
# Poissons Ratio (y) = 0.00970 0.10137
# Poissons Ratio (z) = 0.40932 0.10959
#
# Static dielectric constant tensor:
#      x y z
#    x 2.065640 0.000000 0.034940 
#    y 0.000000 2.000080 0.000000 
#    z 0.034940 0.000000 2.135920 
# 
# From -- ./inp_files/281665.got.cif
#   From: 2010.05.17/outbox.cif.g08.bks.cpg/sg12_141_cif.got.tgz:281665.got - 2010.06.03 13:09:07.
