data_PCOD9171363
_publ_section_title
;
Structure prediction by ZEFSAII (Michael W. Deem and Ramdas Pophale) SiO2 
 PCOD9171363
Probable space group: C 2/M
;
_chemical_formula_sum "Si O2"
_cell_formula_units_Z 64
_cell_length_a 22.636865
_cell_length_b 7.259071
_cell_length_c 20.446661
_cell_angle_alpha 90.000000
_cell_angle_beta 59.215153
_cell_angle_gamma 90.000000
_cell_volume 2886.430188
_symmetry_space_group_name_H-M "C 2/M"
_symmetry_group_IT_number 12
_symmetry_cell_setting 'monoclinic'
loop_
_space_group_symop_operation_xyz
x,y,z
-x,y,-z
-x,-y,-z
x,-y,z
1/2+x,1/2+y,z
1/2-x,1/2+y,-z
1/2-x,1/2-y,-z
1/2+x,1/2-y,z
loop_
_atom_site_type_symbol
_atom_site_label
_atom_site_fract_x
_atom_site_fract_y
_atom_site_fract_z
Si Si1 0.224911 0.778811 0.252791
Si Si2 0.007774 0.776754 0.738830
Si Si3 0.533045 0.275981 0.582055
Si Si4 0.153473 0.223603 0.161054
Si Si5 0.352265 0.277736 0.977881
Si Si6 0.514029 0.276191 0.878538
Si Si7 0.360086 0.715782 0.113675
Si Si8 0.607101 0.276077 0.412484
O O1 0.192800 0.710132 0.202580
O O2 0.304747 0.732500 0.202616
O O3 0.177756 0.714149 0.339300
O O4 0.219997 0.000000 0.255306
O O5 0.040735 0.713636 0.652237
O O6 0.036090 0.717297 0.793043
O O7 0.926865 0.728861 0.784861
O O8 0.010631 0.000000 0.736969
O O9 0.533954 0.500000 0.582123
O O10 0.588196 0.216332 0.496526
O O11 0.457707 0.224681 0.596737
O O12 0.176548 0.288432 0.075712
O O13 0.156755 0.000000 0.159333
O O14 0.345321 0.500000 0.978957
O O15 0.433947 0.231011 0.932187
O O16 0.329623 0.210187 0.062297
O O17 0.515906 0.500000 0.879170
O O18 0.567147 0.209342 0.902869
O O19 0.371500 0.500000 0.094697
O O20 0.607782 0.500000 0.412988
#
# Coordination Sequence:
#
# PCOD9171363 Si02
#       8
#     8   8   8   8   8   8   8   8
#     4  10  18  28  41  58  85 114 133 154 193 247
#     4   8  11  18  35  59  83 100 121 165 214 239
#     4   8  11  17  33  58  84 102 122 160 206 238
#     4   8  13  22  37  59  83 104 127 160 204 243
#     4   8  14  25  42  60  77  99 132 175 211 232
#     4   8  14  24  40  59  77  99 132 173 208 232
#     4  10  19  29  41  59  81 108 139 167 195 231
#     4   8  13  20  33  56  84 107 125 155 199 241
#
# _framework density 22.172716999999999
#
# number of rings (size 3 to 8) (size 9 to 14) (size 15 to 20)
#    0.000    3.500    1.250    2.625    0.000    2.000 
#    0.000    0.000    0.000    2.250    0.000    4.375 
#    0.000    0.000    0.000    0.000    0.000    0.000 
#
# Total GULP energy -178487.948757 kJ/mol
# GULP energy per Si atom -5577.748399 kJ/mol
# Density = 2.212225 g / cm^3
# Si number density = 22.172717 Si / 1000 Ang^3
#
#
#
# Elastic Constant Matrix: (Units=GPa)
#
#
# Indices 1 2 3 4 5 6 
#
# 1 22.9965 -2.1227 6.1093 0.0005 2.9640 -0.0153
# 2 -2.1227 99.1800 -4.4704 0.0035 4.4445 -0.0490
# 3 6.1093 -4.4704 142.5782 -0.0009 16.3601 -0.0273
# 4 0.0005 0.0035 -0.0009 2.0153 0.0018 21.0651
# 5 2.9640 4.4445 16.3601 0.0018 23.8247 0.0146
# 6 -0.0153 -0.0490 -0.0273 21.0651 0.0146 183.6393
#
#
#
# Elastic Compliance Matrix: (Units=1/GPa)
#
#
# Indices 1 2 3 4 5 6 
#
# 1 0.044562 0.001111 -0.001319 0.000264 -0.004846 -0.000026
# 2 0.001111 0.010240 0.000552 0.000241 -0.002428 -0.000025
# 3 -0.001319 0.000552 0.007686 0.000046 -0.005217 -0.000004
# 4 0.000264 0.000241 0.000046 -2.493498 -0.000097 0.286027
# 5 -0.004846 -0.002428 -0.005217 -0.000097 0.046611 0.000006
# 6 -0.000026 -0.000025 -0.000004 0.286027 0.000006 -0.027365
#
#
# Mechanical properties :
#
#
# Convention : Reuss Voigt Hill
#
# Bulk Modulus (GPa) = 15.82818 29.30966 22.56892
# Shear Modulus (GPa) = -2.09083 59.57844 28.74380
#
# Velocity S-wave (km/s) = -0.97212 5.18927 3.60440
# Velocity P-wave (km/s) = 2.42777 7.01086 5.24625
#
# Compressibility (1/GPa) = 0.06317845
#
# Stress axis : x y z
#
# Youngs Moduli (GPa) = 22.44046 97.65515 130.10484
#
# Poissons Ratio (x) = -0.10854 0.17155
# Poissons Ratio (y) = -0.02494 -0.07182
# Poissons Ratio (z) = 0.02959 -0.05391
#
# Static dielectric constant tensor:
#      x y z
#    x 1.782810 0.000000 0.022350 
#    y 0.000000 1.875500 0.000000 
#    z 0.022350 0.000000 1.847180 
# 
# From -- ./inp_files/320723.got.cif
#   From: 2010.05.17/outbox.cif.g08.bks.cpg/sg12_161_cif.got.tgz:320723.got - 2010.06.03 13:09:07.
