data_PCOD9171149
_publ_section_title
;
Structure prediction by ZEFSAII (Michael W. Deem and Ramdas Pophale) SiO2 
 PCOD9171149
Probable space group: C 2/M
;
_chemical_formula_sum "Si O2"
_cell_formula_units_Z 64
_cell_length_a 25.592104
_cell_length_b 7.612376
_cell_length_c 19.844725
_cell_angle_alpha 90.000000
_cell_angle_beta 65.660735
_cell_angle_gamma 90.000000
_cell_volume 3522.470697
_symmetry_space_group_name_H-M "C 2/M"
_symmetry_group_IT_number 12
_symmetry_cell_setting 'monoclinic'
loop_
_space_group_symop_operation_xyz
x,y,z
-x,y,-z
-x,-y,-z
x,-y,z
1/2+x,1/2+y,z
1/2-x,1/2+y,-z
1/2-x,1/2-y,-z
1/2+x,1/2-y,z
loop_
_atom_site_type_symbol
_atom_site_label
_atom_site_fract_x
_atom_site_fract_y
_atom_site_fract_z
Si Si1 0.249523 0.290900 0.838088
Si Si2 0.311085 0.210550 0.002314
Si Si3 0.743484 0.789055 0.319655
Si Si4 0.887331 0.284959 0.590843
Si Si5 0.802483 0.790682 0.421808
Si Si6 0.542296 0.215274 0.313663
Si Si7 0.578165 0.206128 0.573652
Si Si8 0.129665 0.293171 0.158004
O O1 0.253379 0.500000 0.844293
O O2 0.199887 0.225584 0.915706
O O3 0.239158 0.251886 0.765730
O O4 0.311464 0.220308 0.829663
O O5 0.319199 0.000000 0.000922
O O6 0.250000 0.250000 0.000000
O O7 0.356836 0.281260 0.923715
O O8 0.678441 0.725900 0.366738
O O9 0.784583 0.723645 0.357346
O O10 0.741613 0.000000 0.326756
O O11 0.886682 0.500000 0.589856
O O12 0.923800 0.233984 0.636500
O O13 0.913258 0.221475 0.506353
O O14 0.750000 0.750000 0.500000
O O15 0.862065 0.721233 0.419042
O O16 0.808426 0.000000 0.415594
O O17 0.476874 0.275650 0.357027
O O18 0.577895 0.280101 0.230144
O O19 0.543683 0.000000 0.309744
O O20 0.566046 0.000000 0.570346
O O21 0.118459 0.500000 0.154893
#
# Coordination Sequence:
#
# PCOD9171149 Si02
#       8
#     8   8   8   8   8   8   8   8
#     4  10  18  27  41  67  96 121 150 191 236 272
#     4   8  15  25  39  61  92 123 151 183 224 271
#     4  10  19  32  49  66  87 122 159 188 225 276
#     4   9  15  27  46  68  91 118 153 187 219 263
#     4  11  22  36  52  69  90 119 156 195 235 275
#     4   9  16  26  47  72  92 120 159 189 217 263
#     4  10  19  32  49  70  93 120 155 195 228 265
#     4   9  15  27  45  65  92 128 159 183 217 274
#
# _framework density 18.169066000000001
#
# number of rings (size 3 to 8) (size 9 to 14) (size 15 to 20)
#    0.000    2.500    2.500    1.125    0.000    3.000 
#    0.000    0.625    0.000    0.750    0.000    0.875 
#    0.000    7.000    0.000    0.000    0.000    0.000 
#
# Total GULP energy -178364.773961 kJ/mol
# GULP energy per Si atom -5573.899186 kJ/mol
# Density = 1.812771 g / cm^3
# Si number density = 18.169066 Si / 1000 Ang^3
#
#
#
# Elastic Constant Matrix: (Units=GPa)
#
#
# Indices 1 2 3 4 5 6 
#
# 1 72.2631 -6.9858 65.1182 -0.0001 -26.3859 -0.0004
# 2 -6.9858 35.5772 -1.6308 -0.0003 -5.2319 -0.0010
# 3 65.1182 -1.6308 195.8271 0.0000 -32.3029 -0.0004
# 4 -0.0001 -0.0003 0.0000 11.4010 0.0001 1.4355
# 5 -26.3859 -5.2319 -32.3029 0.0001 20.9428 -0.0001
# 6 -0.0004 -0.0010 -0.0004 1.4355 -0.0001 12.2846
#
#
#
# Elastic Compliance Matrix: (Units=1/GPa)
#
#
# Indices 1 2 3 4 5 6 
#
# 1 0.032589 0.011587 -0.004681 0.000000 0.036734 0.000002
# 2 0.011587 0.033859 0.000312 0.000000 0.023537 0.000003
# 3 -0.004681 0.000312 0.007653 0.000000 0.005984 0.000000
# 4 0.000000 0.000000 0.000000 0.089021 -0.000001 -0.010402
# 5 0.036734 0.023537 0.005984 -0.000001 0.109140 0.000005
# 6 0.000002 0.000003 0.000000 -0.010402 0.000005 0.082618
#
#
# Mechanical properties :
#
#
# Convention : Reuss Voigt Hill
#
# Bulk Modulus (GPa) = 11.29492 46.29672 28.79582
# Shear Modulus (GPa) = 13.51505 25.40342 19.45923
#
# Velocity S-wave (km/s) = 2.73032 3.74327 3.27618
# Velocity P-wave (km/s) = 4.02114 6.64974 5.49494
#
# Compressibility (1/GPa) = 0.08853534
#
# Stress axis : x y z
#
# Youngs Moduli (GPa) = 30.68476 29.53468 130.67036
#
# Poissons Ratio (x) = -0.34220 0.61166
# Poissons Ratio (y) = -0.35553 -0.04073
# Poissons Ratio (z) = 0.14363 -0.00921
#
# Static dielectric constant tensor:
#      x y z
#    x 1.572740 0.000000 -0.026020 
#    y 0.000000 1.693800 0.000000 
#    z -0.026020 0.000000 1.677540 
# 
# From -- ./inp_files/287540.got.cif
#   From: 2010.05.17/outbox.cif.g08.bks.cpg/sg12_144_cif.got.tgz:287540.got - 2010.06.03 13:09:07.
