data_PCOD9171785
_publ_section_title
;
Structure prediction by ZEFSAII (Michael W. Deem and Ramdas Pophale) SiO2 
 PCOD9171785
Probable space group: C 2/M
;
_chemical_formula_sum "Si O2"
_cell_formula_units_Z 56
_cell_length_a 24.578401
_cell_length_b 21.499211
_cell_length_c 12.524246
_cell_angle_alpha 90.000000
_cell_angle_beta 151.823428
_cell_angle_gamma 90.000000
_cell_volume 3124.962839
_symmetry_space_group_name_H-M "C 2/M"
_symmetry_group_IT_number 12
_symmetry_cell_setting 'monoclinic'
loop_
_space_group_symop_operation_xyz
x,y,z
-x,y,-z
-x,-y,-z
x,-y,z
1/2+x,1/2+y,z
1/2-x,1/2+y,-z
1/2-x,1/2-y,-z
1/2+x,1/2-y,z
loop_
_atom_site_type_symbol
_atom_site_label
_atom_site_fract_x
_atom_site_fract_y
_atom_site_fract_z
Si Si1 0.619423 0.174710 0.767370
Si Si2 0.438031 0.069971 0.776587
Si Si3 0.285937 0.336394 0.362515
Si Si4 0.003576 0.192263 0.128110
Si Si5 0.344139 0.071240 0.003848
Si Si6 0.702417 0.272315 0.083601
Si Si7 0.347076 0.804677 0.669677
O O1 0.500000 0.180961 0.500000
O O2 0.632462 0.109488 0.849069
O O3 0.722366 0.184097 0.861411
O O4 0.631462 0.227206 0.880730
O O5 0.539222 0.073849 0.864726
O O6 0.353547 0.129562 0.619022
O O7 0.385971 0.000000 0.680913
O O8 0.500000 0.074576 0.000000
O O9 0.399301 0.340596 0.631502
O O10 0.287647 0.273516 0.295925
O O11 0.176137 0.328031 0.250578
O O12 0.256422 0.393585 0.235488
O O13 0.045571 0.264026 0.184577
O O14 0.000000 0.167567 0.000000
O O15 0.882863 0.194469 0.980839
O O16 0.314740 0.000000 0.971450
O O17 0.250000 0.750000 0.500000
#
# Coordination Sequence:
#
# PCOD9171785 Si02
#       7
#     8   8   8   8   8   8   8
#     4  10  21  37  54  78 108 147 187 238 281 343
#     4  10  18  30  52  81 114 145 184 236 291 346
#     4  10  19  32  52  82 114 148 182 225 282 354
#     4  11  20  31  51  83 119 149 179 228 285 356
#     4  10  21  37  58  80 106 145 192 246 289 338
#     4  10  20  34  53  78 114 149 183 223 289 336
#     4  10  18  28  47  79 120 154 178 223 281 348
#
# _framework density 17.920213
#
# number of rings (size 3 to 8) (size 9 to 14) (size 15 to 20)
#    0.000    1.857    2.857    3.000    0.000    1.429 
#    0.000    0.000    0.000    2.143    0.000    0.000 
#    0.000    1.714    0.000    0.000    0.000    0.000 
#
# Total GULP energy -155964.510972 kJ/mol
# GULP energy per Si atom -5570.161106 kJ/mol
# Density = 1.787943 g / cm^3
# Si number density = 17.920213 Si / 1000 Ang^3
#
#
#
# Elastic Constant Matrix: (Units=GPa)
#
#
# Indices 1 2 3 4 5 6 
#
# 1 104.4121 29.9042 24.8674 0.0000 -4.2262 0.0000
# 2 29.9042 93.6257 30.5914 0.0000 4.2734 0.0000
# 3 24.8674 30.5914 99.1526 0.0000 -12.1020 0.0000
# 4 0.0000 0.0000 0.0000 11.9473 0.0000 0.9722
# 5 -4.2262 4.2734 -12.1020 0.0000 22.8483 0.0000
# 6 0.0000 0.0000 0.0000 0.9722 0.0000 25.1064
#
#
#
# Elastic Compliance Matrix: (Units=1/GPa)
#
#
# Indices 1 2 3 4 5 6 
#
# 1 0.010896 -0.003044 -0.001580 0.000000 0.001748 0.000000
# 2 -0.003044 0.013167 -0.003922 0.000000 -0.005103 0.000000
# 3 -0.001580 -0.003922 0.012558 0.000000 0.007093 0.000000
# 4 0.000000 0.000000 0.000000 0.083966 0.000000 -0.003252
# 5 0.001748 -0.005103 0.007093 0.000000 0.048801 0.000000
# 6 0.000000 0.000000 0.000000 -0.003252 0.000000 0.039956
#
#
# Mechanical properties :
#
#
# Convention : Reuss Voigt Hill
#
# Bulk Modulus (GPa) = 51.20584 51.99073 51.59828
# Shear Modulus (GPa) = 21.46415 26.10224 23.78319
#
# Velocity S-wave (km/s) = 3.46462 3.82066 3.64699
# Velocity P-wave (km/s) = 6.68141 6.96696 6.82568
#
# Compressibility (1/GPa) = 0.01952902
#
# Stress axis : x y z
#
# Youngs Moduli (GPa) = 91.77432 75.94518 79.63336
#
# Poissons Ratio (x) = 0.23115 0.12585
# Poissons Ratio (y) = 0.27933 0.31232
# Poissons Ratio (z) = 0.14504 0.29786
#
# Static dielectric constant tensor:
#      x y z
#    x 1.629750 0.000000 -0.007380 
#    y 0.000000 1.628620 0.000000 
#    z -0.007380 0.000000 1.674320 
# 
# From -- ./inp_files/177950.got.cif
#   From: 2010.05.17/outbox.cif.g08.bks.cpg/sg12_89_cif.got.tgz:177950.got - 2010.06.03 13:09:07.
