data_PCOD9171893
_publ_section_title
;
Structure prediction by ZEFSAII (Michael W. Deem and Ramdas Pophale) SiO2 
 PCOD9171893
Probable space group: C 2/M
;
_chemical_formula_sum "Si O2"
_cell_formula_units_Z 58
_cell_length_a 25.215075
_cell_length_b 7.857780
_cell_length_c 14.918570
_cell_angle_alpha 90.000000
_cell_angle_beta 89.212673
_cell_angle_gamma 90.000000
_cell_volume 2955.604516
_symmetry_space_group_name_H-M "C 2/M"
_symmetry_group_IT_number 12
_symmetry_cell_setting 'monoclinic'
loop_
_space_group_symop_operation_xyz
x,y,z
-x,y,-z
-x,-y,-z
x,-y,z
1/2+x,1/2+y,z
1/2-x,1/2+y,-z
1/2-x,1/2-y,-z
1/2+x,1/2-y,z
loop_
_atom_site_type_symbol
_atom_site_label
_atom_site_fract_x
_atom_site_fract_y
_atom_site_fract_z
Si Si1 0.860045 0.294710 0.477627
Si Si2 0.459554 0.802617 0.606531
Si Si3 0.828729 0.695101 0.294431
Si Si4 0.798183 0.801361 0.103433
Si Si5 0.177955 0.301681 0.088620
Si Si6 0.620648 0.302703 0.254968
Si Si7 0.781650 0.699909 0.625792
Si Si8 0.000000 0.000000 0.500000
O O1 0.854843 0.500000 0.472584
O O2 0.862573 0.229869 0.376220
O O3 0.808357 0.233326 0.533467
O O4 0.910462 0.264169 0.538884
O O5 0.432430 0.780451 0.704300
O O6 0.498822 0.652967 0.577935
O O7 0.476853 0.000000 0.595416
O O8 0.844318 0.500000 0.279013
O O9 0.826100 0.781212 0.198149
O O10 0.769246 0.703488 0.336722
O O11 0.737409 0.733620 0.110244
O O12 0.793475 0.000000 0.081824
O O13 0.826672 0.717705 0.018022
O O14 0.176644 0.500000 0.112576
O O15 0.133602 0.213873 0.149996
O O16 0.619794 0.500000 0.281347
O O17 0.670784 0.216747 0.303504
O O18 0.768306 0.500000 0.617958
#
# Coordination Sequence:
#
# PCOD9171893 Si02
#       8
#     8   8   8   8   8   8   8   2
#     4   8  18  33  48  67  98 135 170 210 256 300
#     4  10  21  39  58  81 111 136 166 212 262 319
#     4  11  19  29  44  65  95 135 181 218 251 299
#     4  10  20  31  42  64  92 133 181 223 262 297
#     4  10  19  31  47  63  94 134 175 223 265 300
#     4  11  19  31  50  75 101 135 177 215 257 312
#     4  10  18  29  42  63  94 136 178 216 256 290
#     4  12  22  40  60  90 104 134 174 204 276 346
#
# _framework density 19.623733999999999
#
# number of rings (size 3 to 8) (size 9 to 14) (size 15 to 20)
#    0.000    1.931    2.069    4.345    0.000    1.103 
#    2.483    0.000    0.000    0.000    0.000    0.000 
#    0.000    2.207    0.000    8.000    0.000    0.000 
#
# Total GULP energy -161523.502871 kJ/mol
# GULP energy per Si atom -5569.775961 kJ/mol
# Density = 1.957907 g / cm^3
# Si number density = 19.623734 Si / 1000 Ang^3
#
#
#
# Elastic Constant Matrix: (Units=GPa)
#
#
# Indices 1 2 3 4 5 6 
#
# 1 11.9033 8.7454 10.0839 0.0000 -9.7307 0.0000
# 2 8.7454 88.0343 14.5903 0.0000 -12.3823 0.0000
# 3 10.0839 14.5903 127.9628 0.0000 -11.6668 0.0000
# 4 0.0000 0.0000 0.0000 27.9853 0.0000 -5.9012
# 5 -9.7307 -12.3823 -11.6668 0.0000 29.2663 0.0000
# 6 0.0000 0.0000 0.0000 -5.9012 0.0000 4.8593
#
#
#
# Elastic Compliance Matrix: (Units=1/GPa)
#
#
# Indices 1 2 3 4 5 6 
#
# 1 0.122751 -0.006198 -0.005691 0.000000 0.035922 0.000000
# 2 -0.006198 0.012502 -0.000667 0.000000 0.002963 0.000000
# 3 -0.005691 -0.000667 0.008448 0.000000 0.001193 0.000000
# 4 0.000000 0.000000 0.000000 0.048033 0.000000 0.058332
# 5 0.035922 0.002963 0.001193 0.000000 0.047842 0.000000
# 6 0.000000 0.000000 0.000000 0.058332 0.000000 0.276631
#
#
# Mechanical properties :
#
#
# Convention : Reuss Voigt Hill
#
# Bulk Modulus (GPa) = 8.43258 32.74885 20.59071
# Shear Modulus (GPa) = 8.60807 25.38758 16.99783
#
# Velocity S-wave (km/s) = 2.09668 3.60073 2.94630
# Velocity P-wave (km/s) = 3.18872 5.83195 4.69998
#
# Compressibility (1/GPa) = 0.11858773
#
# Stress axis : x y z
#
# Youngs Moduli (GPa) = 8.14658 79.98576 118.36977
#
# Poissons Ratio (x) = 0.49579 0.67368
# Poissons Ratio (y) = 0.05050 0.07894
# Poissons Ratio (z) = 0.04636 0.05334
#
# Static dielectric constant tensor:
#      x y z
#    x 1.715630 0.000000 -0.004910 
#    y 0.000000 1.694110 0.000000 
#    z -0.004910 0.000000 1.738840 
# 
# From -- ./inp_files/237552.got.cif
#   From: 2010.05.17/outbox.cif.g08.bks.cpg/sg12_119_cif.got.tgz:237552.got - 2010.06.03 13:09:07.
