data_PCOD9171568
_publ_section_title
;
Structure prediction by ZEFSAII (Michael W. Deem and Ramdas Pophale) SiO2 
 PCOD9171568
Probable space group: C 2/M
;
_chemical_formula_sum "Si O2"
_cell_formula_units_Z 64
_cell_length_a 29.286860
_cell_length_b 8.045166
_cell_length_c 15.250684
_cell_angle_alpha 90.000000
_cell_angle_beta 91.097852
_cell_angle_gamma 90.000000
_cell_volume 3592.670706
_symmetry_space_group_name_H-M "C 2/M"
_symmetry_group_IT_number 12
_symmetry_cell_setting 'monoclinic'
loop_
_space_group_symop_operation_xyz
x,y,z
-x,y,-z
-x,-y,-z
x,-y,z
1/2+x,1/2+y,z
1/2-x,1/2+y,-z
1/2-x,1/2-y,-z
1/2+x,1/2-y,z
loop_
_atom_site_type_symbol
_atom_site_label
_atom_site_fract_x
_atom_site_fract_y
_atom_site_fract_z
Si Si1 0.893846 0.308671 0.336134
Si Si2 0.261050 0.699698 0.902170
Si Si3 0.918355 0.802645 0.674500
Si Si4 0.510721 0.196712 0.597803
Si Si5 0.850231 0.192329 0.507173
Si Si6 0.195409 0.700492 0.743728
Si Si7 0.337253 0.297660 0.780084
Si Si8 0.728428 0.193394 0.381319
O O1 0.900966 0.500000 0.308868
O O2 0.943459 0.231560 0.356335
O O3 0.868060 0.303148 0.428764
O O4 0.856110 0.234087 0.269074
O O5 0.259906 0.500000 0.898207
O O6 0.223674 0.761134 0.829450
O O7 0.311282 0.750150 0.868181
O O8 0.250000 0.750000 0.000000
O O9 0.884641 0.777228 0.590017
O O10 0.888831 0.747937 0.758053
O O11 0.966165 0.718503 0.655487
O O12 0.926550 0.000000 0.681330
O O13 0.500000 0.266706 0.500000
O O14 0.519699 0.000000 0.585679
O O15 0.798872 0.221929 0.540045
O O16 0.854606 0.000000 0.481091
O O17 0.193648 0.500000 0.748698
O O18 0.224375 0.742152 0.657412
O O19 0.335511 0.500000 0.771612
O O20 0.305630 0.224691 0.702217
O O21 0.732080 0.000000 0.400582
#
# Coordination Sequence:
#
# PCOD9171568 Si02
#       8
#     8   8   8   8   8   8   8   8
#     4  10  20  33  47  63  87 123 161 195 234 276
#     4   9  17  31  52  75  98 120 145 181 226 280
#     4   9  17  29  46  65  89 124 161 193 229 273
#     4  10  19  30  45  67  93 118 155 207 247 266
#     4  10  19  30  44  63  89 123 161 197 233 272
#     4   9  19  35  49  63  91 126 154 183 226 281
#     4   8  16  31  47  68  97 126 153 185 229 279
#     4  10  18  28  45  66  89 119 157 196 231 268
#
# _framework density 17.814045
#
# number of rings (size 3 to 8) (size 9 to 14) (size 15 to 20)
#    0.000    2.625    1.250    3.000    0.000    5.750 
#    0.000    0.000    0.000    0.000    0.000    0.875 
#    0.000    7.000    0.000    0.000    0.000    0.000 
#
# Total GULP energy -178291.515449 kJ/mol
# GULP energy per Si atom -5571.609858 kJ/mol
# Density = 1.777350 g / cm^3
# Si number density = 17.814045 Si / 1000 Ang^3
#
#
#
# Elastic Constant Matrix: (Units=GPa)
#
#
# Indices 1 2 3 4 5 6 
#
# 1 145.2287 7.1859 41.7838 0.0000 3.1387 0.0000
# 2 7.1859 9.5416 4.6325 0.0000 0.9873 0.0000
# 3 41.7838 4.6325 72.0909 0.0000 -11.5777 0.0000
# 4 0.0000 0.0000 0.0000 15.8969 0.0000 -8.9504
# 5 3.1387 0.9873 -11.5777 0.0000 20.8111 0.0000
# 6 0.0000 0.0000 0.0000 -8.9504 0.0000 15.2518
#
#
#
# Elastic Compliance Matrix: (Units=1/GPa)
#
#
# Indices 1 2 3 4 5 6 
#
# 1 0.008736 -0.003463 -0.005519 0.000000 -0.004224 0.000000
# 2 -0.003463 0.111434 -0.006500 0.000000 -0.008380 0.000000
# 3 -0.005519 -0.006500 0.019405 0.000000 0.011936 0.000000
# 4 0.000000 0.000000 0.000000 0.093945 0.000000 0.055131
# 5 -0.004224 -0.008380 0.011936 0.000000 0.055726 0.000000
# 6 0.000000 0.000000 0.000000 0.055131 0.000000 0.097919
#
#
# Mechanical properties :
#
#
# Convention : Reuss Voigt Hill
#
# Bulk Modulus (GPa) = 9.20706 37.11840 23.16273
# Shear Modulus (GPa) = 11.00512 21.94257 16.47385
#
# Velocity S-wave (km/s) = 2.48821 3.51345 3.04430
# Velocity P-wave (km/s) = 3.66532 6.11072 5.03862
#
# Compressibility (1/GPa) = 0.10861225
#
# Stress axis : x y z
#
# Youngs Moduli (GPa) = 114.46508 8.97391 51.53304
#
# Poissons Ratio (x) = 0.03107 0.28443
# Poissons Ratio (y) = 0.39635 0.33494
# Poissons Ratio (z) = 0.63178 0.05833
#
# Static dielectric constant tensor:
#      x y z
#    x 1.669400 0.000000 0.024760 
#    y 0.000000 1.669580 0.000000 
#    z 0.024760 0.000000 1.618400 
# 
# From -- ./inp_files/244059.got.cif
#   From: 2010.05.17/outbox.cif.g08.bks.cpg/sg12_123_cif.got.tgz:244059.got - 2010.06.03 13:09:07.
