data_PCOD9171618
_publ_section_title
;
Structure prediction by ZEFSAII (Michael W. Deem and Ramdas Pophale) SiO2 
 PCOD9171618
Probable space group: C 2/M
;
_chemical_formula_sum "Si O2"
_cell_formula_units_Z 64
_cell_length_a 25.636101
_cell_length_b 9.064000
_cell_length_c 19.698557
_cell_angle_alpha 90.000000
_cell_angle_beta 116.321404
_cell_angle_gamma 90.000000
_cell_volume 4102.700205
_symmetry_space_group_name_H-M "C 2/M"
_symmetry_group_IT_number 12
_symmetry_cell_setting 'monoclinic'
loop_
_space_group_symop_operation_xyz
x,y,z
-x,y,-z
-x,-y,-z
x,-y,z
1/2+x,1/2+y,z
1/2-x,1/2+y,-z
1/2-x,1/2-y,-z
1/2+x,1/2-y,z
loop_
_atom_site_type_symbol
_atom_site_label
_atom_site_fract_x
_atom_site_fract_y
_atom_site_fract_z
Si Si1 0.004555 0.323601 0.819044
Si Si2 0.949793 0.822507 0.916328
Si Si3 0.994779 0.322321 0.658659
Si Si4 0.108983 0.176391 0.660123
Si Si5 0.208354 0.822939 0.820377
Si Si6 0.329536 0.677156 0.919514
Si Si7 0.434260 0.829817 0.492782
Si Si8 0.631081 0.677768 0.906922
O O1 0.007285 0.500000 0.827671
O O2 0.068999 0.255767 0.864112
O O3 0.964802 0.254847 0.854527
O O4 0.983327 0.288801 0.730442
O O5 0.887291 0.781160 0.911000
O O6 0.951484 0.000000 0.908691
O O7 0.000000 0.784740 0.000000
O O8 0.002225 0.500000 0.655857
O O9 0.944418 0.279570 0.576035
O O10 0.054596 0.245872 0.669666
O O11 0.167877 0.218681 0.733236
O O12 0.104042 0.234457 0.580426
O O13 0.103528 0.000000 0.658585
O O14 0.271075 0.749327 0.858267
O O15 0.172540 0.783096 0.867944
O O16 0.214787 0.000000 0.823994
O O17 0.324332 0.500000 0.913702
O O18 0.340259 0.717579 0.004526
O O19 0.500000 0.826227 0.500000
O O20 0.414839 0.000000 0.480262
O O21 0.622027 0.500000 0.900949
#
# Coordination Sequence:
#
# PCOD9171618 Si02
#       8
#     8   8   8   8   8   8   8   8
#     4  11  21  31  50  77  99 126 165 206 243 285
#     4  10  20  37  55  69  94 129 163 203 251 295
#     4   9  18  31  45  67  99 130 160 195 239 286
#     4  10  18  28  45  70  98 129 161 193 237 287
#     4  10  21  33  48  71 102 132 160 202 246 284
#     4  10  21  35  53  70  90 129 172 203 238 292
#     4   8  15  28  44  63  94 131 159 190 234 285
#     4  10  19  35  51  68  98 134 165 196 244 291
#
# _framework density 15.599481000000001
#
# number of rings (size 3 to 8) (size 9 to 14) (size 15 to 20)
#    0.000    2.250    2.500    1.875    0.000    5.500 
#    0.000    0.000    0.000    0.000    0.000    0.875 
#    0.000    0.000    0.000    0.000    0.000    0.000 
#
# Total GULP energy -178444.731250 kJ/mol
# GULP energy per Si atom -5576.397852 kJ/mol
# Density = 1.556398 g / cm^3
# Si number density = 15.599481 Si / 1000 Ang^3
#
#
#
# Elastic Constant Matrix: (Units=GPa)
#
#
# Indices 1 2 3 4 5 6 
#
# 1 85.7684 33.0857 75.3840 0.0000 9.6116 0.0000
# 2 33.0857 27.3602 51.1415 0.0000 0.6132 0.0000
# 3 75.3840 51.1415 169.0401 0.0000 -3.5956 0.0000
# 4 0.0000 0.0000 0.0000 26.5896 0.0000 2.5147
# 5 9.6116 0.6132 -3.5956 0.0000 16.3439 0.0000
# 6 0.0000 0.0000 0.0000 2.5147 0.0000 23.5064
#
#
#
# Elastic Compliance Matrix: (Units=1/GPa)
#
#
# Indices 1 2 3 4 5 6 
#
# 1 0.026783 -0.020828 -0.005989 0.000000 -0.016287 0.000000
# 2 -0.020828 0.101594 -0.021369 0.000000 0.003735 0.000000
# 3 -0.005989 -0.021369 0.015215 0.000000 0.007671 0.000000
# 4 0.000000 0.000000 0.000000 0.037993 0.000000 -0.004064
# 5 -0.016287 0.003735 0.007671 0.000000 0.072310 0.000000
# 6 0.000000 0.000000 0.000000 -0.004064 0.000000 0.042976
#
#
# Mechanical properties :
#
#
# Convention : Reuss Voigt Hill
#
# Bulk Modulus (GPa) = 21.17716 66.82121 43.99919
# Shear Modulus (GPa) = 12.22546 21.45848 16.84197
#
# Velocity S-wave (km/s) = 2.80252 3.71292 3.28937
# Velocity P-wave (km/s) = 4.90685 7.83004 6.53401
#
# Compressibility (1/GPa) = 0.04722069
#
# Stress axis : x y z
#
# Youngs Moduli (GPa) = 37.33736 9.84309 65.72577
#
# Poissons Ratio (x) = 0.20501 0.39364
# Poissons Ratio (y) = 0.77765 1.40448
# Poissons Ratio (z) = 0.22362 0.21034
#
# Static dielectric constant tensor:
#      x y z
#    x 1.486150 0.000000 -0.016760 
#    y 0.000000 1.522070 0.000000 
#    z -0.016760 0.000000 1.540210 
# 
# From -- ./inp_files/323781.got.cif
#   From: 2010.05.17/outbox.cif.g08.bks.cpg/sg12_162_cif.got.tgz:323781.got - 2010.06.03 13:09:07.
