data_PCOD9171240
_publ_section_title
;
Structure prediction by ZEFSAII (Michael W. Deem and Ramdas Pophale) SiO2 
 PCOD9171240
Probable space group: C 2/M
;
_chemical_formula_sum "Si O2"
_cell_formula_units_Z 64
_cell_length_a 12.274258
_cell_length_b 17.460035
_cell_length_c 21.501793
_cell_angle_alpha 90.000000
_cell_angle_beta 43.299461
_cell_angle_gamma 90.000000
_cell_volume 3160.238078
_symmetry_space_group_name_H-M "C 2/M"
_symmetry_group_IT_number 12
_symmetry_cell_setting 'monoclinic'
loop_
_space_group_symop_operation_xyz
x,y,z
-x,y,-z
-x,-y,-z
x,-y,z
1/2+x,1/2+y,z
1/2-x,1/2+y,-z
1/2-x,1/2-y,-z
1/2+x,1/2-y,z
loop_
_atom_site_type_symbol
_atom_site_label
_atom_site_fract_x
_atom_site_fract_y
_atom_site_fract_z
Si Si1 0.113474 0.820463 0.712039
Si Si2 0.414012 0.916073 0.796988
Si Si3 0.433896 0.088726 0.597225
Si Si4 0.152708 0.087485 0.121494
Si Si5 0.024132 0.706174 0.662108
Si Si6 0.332008 0.768637 0.185980
Si Si7 0.959965 0.590532 0.920167
Si Si8 0.567513 0.384281 0.905950
O O1 0.252762 0.880787 0.668568
O O2 0.110911 0.759854 0.769845
O O3 0.944819 0.863237 0.788596
O O4 0.139625 0.774203 0.636848
O O5 0.522768 0.854954 0.718488
O O6 0.384594 0.900689 0.882082
O O7 0.247856 0.913797 0.829011
O O8 0.485928 0.000000 0.763423
O O9 0.500000 0.089177 0.500000
O O10 0.526479 0.151944 0.600650
O O11 0.442025 0.000000 0.616851
O O12 0.041569 0.089819 0.105591
O O13 0.166991 0.000000 0.136221
O O14 0.326414 0.113541 0.025935
O O15 0.853624 0.748847 0.734495
O O16 0.390460 0.853009 0.144638
O O17 0.414185 0.707558 0.105756
O O18 0.995243 0.500000 0.914258
O O19 0.500000 0.408489 0.000000
#
# Coordination Sequence:
#
# PCOD9171240 Si02
#       8
#     8   8   8   8   8   8   8   8
#     4  10  20  36  57  82 115 147 183 229 281 340
#     4  10  18  28  47  73 103 136 177 227 273 316
#     4  10  22  41  65  92 118 141 173 225 289 353
#     4  10  20  31  48  73 109 151 189 235 278 318
#     4  10  20  36  59  83 111 144 185 225 277 336
#     4   9  20  33  47  73 108 144 188 233 275 317
#     4  10  19  31  46  67 104 150 194 231 262 304
#     4  10  18  27  43  69  96 131 181 240 284 325
#
# _framework density 20.251639000000001
#
# number of rings (size 3 to 8) (size 9 to 14) (size 15 to 20)
#    0.000    2.125    2.500    1.875    0.000    5.000 
#    0.000    1.250    0.000    1.875    0.000    0.000 
#    0.000    9.000    0.000    0.000    0.000    0.000 
#
# Total GULP energy -178426.551017 kJ/mol
# GULP energy per Si atom -5575.829719 kJ/mol
# Density = 2.020555 g / cm^3
# Si number density = 20.251639 Si / 1000 Ang^3
#
#
#
# Elastic Constant Matrix: (Units=GPa)
#
#
# Indices 1 2 3 4 5 6 
#
# 1 46.1655 24.9452 9.9321 0.0000 12.7299 0.0000
# 2 24.9452 84.7177 26.9760 0.0000 12.0490 0.0001
# 3 9.9321 26.9760 54.3151 0.0001 14.2395 0.0003
# 4 0.0000 0.0000 0.0001 23.6894 -0.0001 12.3198
# 5 12.7299 12.0490 14.2395 -0.0001 21.1995 -0.0001
# 6 0.0000 0.0001 0.0003 12.3198 -0.0001 4.9600
#
#
#
# Elastic Compliance Matrix: (Units=1/GPa)
#
#
# Indices 1 2 3 4 5 6 
#
# 1 0.029169 -0.007147 0.002115 -0.000001 -0.014874 0.000001
# 2 -0.007147 0.016057 -0.006555 0.000000 -0.000432 0.000000
# 3 0.002115 -0.006555 0.025047 -0.000002 -0.014368 0.000004
# 4 -0.000001 0.000000 -0.000002 -0.144694 0.000004 0.359398
# 5 -0.014874 -0.000432 -0.014368 0.000004 0.065999 -0.000007
# 6 0.000001 0.000000 0.000004 0.359398 -0.000007 -0.691075
#
#
# Mechanical properties :
#
#
# Convention : Reuss Voigt Hill
#
# Bulk Modulus (GPa) = 21.23135 34.32275 27.77705
# Shear Modulus (GPa) = -7.56861 18.19279 5.31209
#
# Velocity S-wave (km/s) = -1.93530 3.00048 1.62134
# Velocity P-wave (km/s) = 2.34791 5.38412 4.15340
#
# Compressibility (1/GPa) = 0.04710017
#
# Stress axis : x y z
#
# Youngs Moduli (GPa) = 34.28240 62.27857 39.92561
#
# Poissons Ratio (x) = 0.44510 -0.08445
# Poissons Ratio (y) = 0.24502 0.26170
# Poissons Ratio (z) = -0.07251 0.40821
#
# Static dielectric constant tensor:
#      x y z
#    x 1.781370 0.000000 0.014190 
#    y 0.000000 1.757620 0.000000 
#    z 0.014190 0.000000 1.698530 
# 
# From -- ./inp_files/340119.got.cif
#   From: 2010.05.17/outbox.cif.g08.bks.cpg/sg12_171_cif.got.tgz:340119.got - 2010.06.03 13:09:07.
