data_PCOD9171843
_publ_section_title
;
Structure prediction by ZEFSAII (Michael W. Deem and Ramdas Pophale) SiO2 
 PCOD9171843
Probable space group: C 2/M
;
_chemical_formula_sum "Si O2"
_cell_formula_units_Z 64
_cell_length_a 31.338922
_cell_length_b 9.584530
_cell_length_c 12.090680
_cell_angle_alpha 90.000000
_cell_angle_beta 91.277166
_cell_angle_gamma 90.000000
_cell_volume 3630.761294
_symmetry_space_group_name_H-M "C 2/M"
_symmetry_group_IT_number 12
_symmetry_cell_setting 'monoclinic'
loop_
_space_group_symop_operation_xyz
x,y,z
-x,y,-z
-x,-y,-z
x,-y,z
1/2+x,1/2+y,z
1/2-x,1/2+y,-z
1/2-x,1/2-y,-z
1/2+x,1/2-y,z
loop_
_atom_site_type_symbol
_atom_site_label
_atom_site_fract_x
_atom_site_fract_y
_atom_site_fract_z
Si Si1 0.480123 0.161195 0.166268
Si Si2 0.840495 0.666582 0.218734
Si Si3 0.693223 0.337366 0.415976
Si Si4 0.768967 0.163018 0.333254
Si Si5 0.936853 0.834825 0.833780
Si Si6 0.604746 0.838510 0.989196
Si Si7 0.424040 0.834661 0.372540
Si Si8 0.093699 0.834429 0.415118
O O1 0.517952 0.263535 0.137428
O O2 0.439286 0.170073 0.083810
O O3 0.461756 0.192965 0.287317
O O4 0.495223 0.000000 0.163788
O O5 0.832251 0.500000 0.226204
O O6 0.799891 0.755810 0.251561
O O7 0.858308 0.695850 0.096899
O O8 0.879622 0.697473 0.305687
O O9 0.697407 0.500000 0.382781
O O10 0.723827 0.240101 0.345413
O O11 0.708863 0.327649 0.544098
O O12 0.643772 0.296987 0.409019
O O13 0.764455 0.000000 0.305551
O O14 0.927507 0.807891 0.704293
O O15 0.937801 0.000000 0.852641
O O16 0.901249 0.762715 0.908207
O O17 0.609728 0.000000 0.023916
O O18 0.426513 0.749058 0.484838
O O19 0.424006 0.000000 0.395110
O O20 0.091444 0.000000 0.438071
#
# Coordination Sequence:
#
# PCOD9171843 Si02
#       8
#     8   8   8   8   8   8   8   8
#     4   9  19  36  55  75 100 129 165 212 258 298
#     4   9  17  31  52  77 103 129 161 205 254 299
#     4   9  18  32  48  69 102 139 165 195 243 297
#     4  10  18  28  49  79 104 129 163 202 246 295
#     4  11  23  35  50  74 101 133 172 211 249 294
#     4   9  19  36  56  75  98 131 169 210 254 297
#     4   9  18  32  52  76  99 129 169 207 245 294
#     4  10  21  36  50  69 104 141 168 199 248 302
#
# _framework density 17.627158000000001
#
# number of rings (size 3 to 8) (size 9 to 14) (size 15 to 20)
#    0.000    2.500    1.250    2.625    0.000    5.500 
#    0.000    5.000    0.000    0.750    0.000    0.000 
#    0.000    0.000    0.000    0.000    0.000    0.000 
#
# Total GULP energy -178540.192398 kJ/mol
# GULP energy per Si atom -5579.381012 kJ/mol
# Density = 1.758704 g / cm^3
# Si number density = 17.627158 Si / 1000 Ang^3
#
#
#
# Elastic Constant Matrix: (Units=GPa)
#
#
# Indices 1 2 3 4 5 6 
#
# 1 28.9575 21.3433 12.1626 0.0000 -17.4069 0.0000
# 2 21.3433 60.4269 51.7384 0.0000 -25.5300 0.0000
# 3 12.1626 51.7384 79.4586 0.0000 -29.8832 0.0000
# 4 0.0000 0.0000 0.0000 25.9948 0.0000 -4.4151
# 5 -17.4069 -25.5300 -29.8832 0.0000 24.4356 0.0000
# 6 0.0000 0.0000 0.0000 -4.4151 0.0000 17.7843
#
#
#
# Elastic Compliance Matrix: (Units=1/GPa)
#
#
# Indices 1 2 3 4 5 6 
#
# 1 0.081593 -0.025623 0.029600 0.000000 0.067551 0.000000
# 2 -0.025623 0.049810 -0.029263 0.000000 -0.001998 0.000000
# 3 0.029600 -0.029263 0.043587 0.000000 0.043817 0.000000
# 4 0.000000 0.000000 0.000000 0.040163 0.000000 0.009971
# 5 0.067551 -0.001998 0.043817 0.000000 0.140542 0.000000
# 6 0.000000 0.000000 0.000000 0.009971 0.000000 0.058705
#
#
# Mechanical properties :
#
#
# Convention : Reuss Voigt Hill
#
# Bulk Modulus (GPa) = 8.03737 37.70351 22.87044
# Shear Modulus (GPa) = 9.87274 19.21618 14.54446
#
# Velocity S-wave (km/s) = 2.36918 3.30532 2.87560
# Velocity P-wave (km/s) = 3.47183 6.00023 4.90185
#
# Compressibility (1/GPa) = 0.12441877
#
# Stress axis : x y z
#
# Youngs Moduli (GPa) = 12.25591 20.07619 22.94248
#
# Poissons Ratio (x) = 0.51442 -0.67910
# Poissons Ratio (y) = 0.31404 0.67136
# Poissons Ratio (z) = -0.36278 0.58748
#
# Static dielectric constant tensor:
#      x y z
#    x 1.589120 0.000000 -0.002300 
#    y 0.000000 1.582220 0.000000 
#    z -0.002300 0.000000 1.601590 
# 
# From -- ./inp_files/187456.got.cif
#   From: 2010.05.17/outbox.cif.g08.bks.cpg/sg12_94_cif.got.tgz:187456.got - 2010.06.03 13:09:07.
