data_PCOD9171587
_publ_section_title
;
Structure prediction by ZEFSAII (Michael W. Deem and Ramdas Pophale) SiO2 
 PCOD9171587
Probable space group: C 2/M
;
_chemical_formula_sum "Si O2"
_cell_formula_units_Z 56
_cell_length_a 27.765431
_cell_length_b 8.733222
_cell_length_c 25.715113
_cell_angle_alpha 90.000000
_cell_angle_beta 144.357821
_cell_angle_gamma 90.000000
_cell_volume 3633.526351
_symmetry_space_group_name_H-M "C 2/M"
_symmetry_group_IT_number 12
_symmetry_cell_setting 'monoclinic'
loop_
_space_group_symop_operation_xyz
x,y,z
-x,y,-z
-x,-y,-z
x,-y,z
1/2+x,1/2+y,z
1/2-x,1/2+y,-z
1/2-x,1/2-y,-z
1/2+x,1/2-y,z
loop_
_atom_site_type_symbol
_atom_site_label
_atom_site_fract_x
_atom_site_fract_y
_atom_site_fract_z
Si Si1 0.298597 0.684341 0.809279
Si Si2 0.405272 0.817771 0.808473
Si Si3 0.835095 0.316277 0.635277
Si Si4 0.545320 0.182588 0.465362
Si Si5 0.879790 0.816766 0.365341
Si Si6 0.141524 0.817972 0.454898
Si Si7 0.552944 0.323357 0.992822
O O1 0.293577 0.500000 0.804772
O O2 0.345718 0.737399 0.798277
O O3 0.208714 0.758094 0.731193
O O4 0.357040 0.730220 0.909290
O O5 0.379674 0.772448 0.727847
O O6 0.499000 0.772924 0.905309
O O7 0.394211 0.000000 0.803805
O O8 0.842432 0.500000 0.634882
O O9 0.869284 0.234089 0.614079
O O10 0.737182 0.281200 0.552917
O O11 0.454536 0.250911 0.396304
O O12 0.602557 0.253053 0.561195
O O13 0.582041 0.232004 0.442488
O O14 0.543178 0.000000 0.468950
O O15 0.883057 0.000000 0.369181
O O16 0.130324 0.000000 0.450169
O O17 0.557547 0.500000 0.979522
O O18 0.500000 0.321932 0.000000
#
# Coordination Sequence:
#
# PCOD9171587 Si02
#       7
#     8   8   8   8   8   8   8
#     4  10  19  31  46  66  94 126 157 189 231 278
#     4  10  18  28  45  68  95 125 157 193 231 273
#     4   9  19  32  45  66  94 123 155 190 230 273
#     4  11  21  34  50  68  94 125 154 186 229 275
#     4  11  21  33  49  70  94 120 156 194 226 267
#     4  10  19  32  49  68  92 122 157 194 228 265
#     4   8  16  29  43  62  91 123 154 189 228 275
#
# _framework density 15.412024000000001
#
# number of rings (size 3 to 8) (size 9 to 14) (size 15 to 20)
#    0.000    2.143    0.000    6.429    0.000    6.000 
#    0.000    0.000    0.000    0.000    0.000    1.000 
#    0.000    0.000    0.000    0.000    0.000    0.000 
#
# Total GULP energy -156202.332802 kJ/mol
# GULP energy per Si atom -5578.654743 kJ/mol
# Density = 1.537695 g / cm^3
# Si number density = 15.412024 Si / 1000 Ang^3
#
#
#
# Elastic Constant Matrix: (Units=GPa)
#
#
# Indices 1 2 3 4 5 6 
#
# 1 68.3296 36.7891 42.7898 0.0000 -6.4520 0.0000
# 2 36.7891 85.8508 46.1144 0.0000 -3.0056 0.0000
# 3 42.7898 46.1144 122.0534 0.0000 -3.3595 0.0000
# 4 0.0000 0.0000 0.0000 26.7059 0.0000 -0.0005
# 5 -6.4520 -3.0056 -3.3595 0.0000 21.4451 0.0000
# 6 0.0000 0.0000 0.0000 -0.0005 0.0000 25.4003
#
#
#
# Elastic Compliance Matrix: (Units=1/GPa)
#
#
# Indices 1 2 3 4 5 6 
#
# 1 0.021714 -0.006421 -0.005053 0.000000 0.004841 0.000000
# 2 -0.006421 0.016543 -0.004006 0.000000 -0.000241 0.000000
# 3 -0.005053 -0.004006 0.011470 0.000000 -0.000285 0.000000
# 4 0.000000 0.000000 0.000000 0.037445 0.000000 0.000001
# 5 0.004841 -0.000241 -0.000285 0.000000 0.048009 0.000000
# 6 0.000000 0.000000 0.000000 0.000001 0.000000 0.039370
#
#
# Mechanical properties :
#
#
# Convention : Reuss Voigt Hill
#
# Bulk Modulus (GPa) = 53.28531 58.62451 55.95491
# Shear Modulus (GPa) = 23.61097 24.74629 24.17863
#
# Velocity S-wave (km/s) = 3.91830 4.01140 3.96512
# Velocity P-wave (km/s) = 7.42426 7.71854 7.57283
#
# Compressibility (1/GPa) = 0.01876690
#
# Stress axis : x y z
#
# Youngs Moduli (GPa) = 46.05402 60.44876 87.18147
#
# Poissons Ratio (x) = 0.38814 0.44054
# Poissons Ratio (y) = 0.29571 0.34923
# Poissons Ratio (z) = 0.23272 0.24215
#
# Static dielectric constant tensor:
#      x y z
#    x 1.484680 0.000000 0.004410 
#    y 0.000000 1.516660 0.000000 
#    z 0.004410 0.000000 1.523560 
# 
# From -- ./inp_files/348631.got.cif
#   From: 2010.05.17/outbox.cif.g08.bks.cpg/sg12_175_cif.got.tgz:348631.got - 2010.06.03 13:09:07.
