data_PCOD9171358
_publ_section_title
;
Structure prediction by ZEFSAII (Michael W. Deem and Ramdas Pophale) SiO2 
 PCOD9171358
Probable space group: C 2/M
;
_chemical_formula_sum "Si O2"
_cell_formula_units_Z 64
_cell_length_a 29.429695
_cell_length_b 7.409573
_cell_length_c 15.459515
_cell_angle_alpha 90.000000
_cell_angle_beta 88.395783
_cell_angle_gamma 90.000000
_cell_volume 3369.803332
_symmetry_space_group_name_H-M "C 2/M"
_symmetry_group_IT_number 12
_symmetry_cell_setting 'monoclinic'
loop_
_space_group_symop_operation_xyz
x,y,z
-x,y,-z
-x,-y,-z
x,-y,z
1/2+x,1/2+y,z
1/2-x,1/2+y,-z
1/2-x,1/2-y,-z
1/2+x,1/2-y,z
loop_
_atom_site_type_symbol
_atom_site_label
_atom_site_fract_x
_atom_site_fract_y
_atom_site_fract_z
Si Si1 0.513632 0.794944 0.381764
Si Si2 0.402617 0.219207 0.525429
Si Si3 0.164773 0.792047 0.313496
Si Si4 0.058765 0.721408 0.745734
Si Si5 0.855211 0.719563 0.349355
Si Si6 0.006019 0.284102 0.096607
Si Si7 0.744991 0.783101 0.603169
Si Si8 0.918807 0.215238 0.776518
O O1 0.545944 0.719074 0.455633
O O2 0.469753 0.714781 0.337113
O O3 0.548999 0.799554 0.298829
O O4 0.501152 0.000000 0.405461
O O5 0.368697 0.284668 0.601875
O O6 0.380872 0.272087 0.436234
O O7 0.403536 0.000000 0.529117
O O8 0.212042 0.711351 0.344628
O O9 0.132511 0.718631 0.238483
O O10 0.174344 0.000000 0.290527
O O11 0.056857 0.500000 0.744819
O O12 0.111095 0.773987 0.729844
O O13 0.031726 0.782103 0.832328
O O14 0.853596 0.500000 0.348778
O O15 0.803489 0.783169 0.358852
O O16 0.000610 0.500000 0.093764
O O17 0.055557 0.248492 0.135170
O O18 0.000000 0.214035 0.000000
O O19 0.750000 0.750000 0.500000
O O20 0.745320 0.000000 0.611291
O O21 0.919080 0.000000 0.761390
#
# Coordination Sequence:
#
# PCOD9171358 Si02
#       8
#     8   8   8   8   8   8   8   8
#     4   8  14  24  38  55  79 109 138 167 201 236
#     4   9  15  23  37  57  77 104 142 175 202 233
#     4   9  17  27  39  56  82 112 140 174 209 235
#     4   8  14  25  39  58  83 106 128 163 207 247
#     4   9  16  24  37  58  81 105 139 177 207 238
#     4   9  17  30  48  68  87 105 127 160 205 255
#     4  10  18  28  41  58  80 109 146 183 211 234
#     4   9  16  26  41  62  85 108 135 165 201 243
#
# _framework density 18.992204999999998
#
# number of rings (size 3 to 8) (size 9 to 14) (size 15 to 20)
#    0.000    3.125    1.250    1.125    0.000    1.250 
#    0.000    2.500    0.000    6.000    0.000   12.250 
#    0.000    0.000    0.000    0.000    0.000    0.000 
#
# Total GULP energy -178295.647634 kJ/mol
# GULP energy per Si atom -5571.738989 kJ/mol
# Density = 1.894898 g / cm^3
# Si number density = 18.992205 Si / 1000 Ang^3
#
#
#
# Elastic Constant Matrix: (Units=GPa)
#
#
# Indices 1 2 3 4 5 6 
#
# 1 189.3244 2.0942 70.0650 0.0000 12.3824 0.0000
# 2 2.0942 67.2486 4.5362 0.0000 -1.2573 0.0000
# 3 70.0650 4.5362 104.8689 0.0000 17.6234 0.0000
# 4 0.0000 0.0000 0.0000 0.8194 0.0000 2.3602
# 5 12.3824 -1.2573 17.6234 0.0000 22.0641 0.0000
# 6 0.0000 0.0000 0.0000 2.3602 0.0000 6.7882
#
#
#
# Elastic Compliance Matrix: (Units=1/GPa)
#
#
# Indices 1 2 3 4 5 6 
#
# 1 0.007018 0.000092 -0.004657 0.000000 -0.000214 0.000000
# 2 0.000092 0.014963 -0.000974 0.000000 0.001579 0.000000
# 3 -0.004657 -0.000974 0.014160 0.000000 -0.008752 0.000000
# 4 0.000000 0.000000 0.000000********** 0.000000280.494585
# 5 -0.000214 0.001579 -0.008752 0.000000 0.052523 0.000000
# 6 0.000000 0.000000 0.000000280.494585 0.000000-97.376905
#
#
# Mechanical properties :
#
#
# Convention : Reuss Voigt Hill
#
# Bulk Modulus (GPa) = 39.90037 57.20364 48.55201
# Shear Modulus (GPa) = -0.00553 24.91744 12.45596
#
# Velocity S-wave (km/s) = -0.05402 3.62606 2.56373
# Velocity P-wave (km/s) = 4.58809 6.90768 5.86372
#
# Compressibility (1/GPa) = 0.02506242
#
# Stress axis : x y z
#
# Youngs Moduli (GPa) = 142.48190 66.83356 70.62035
#
# Poissons Ratio (x) = -0.00612 0.32889
# Poissons Ratio (y) = -0.01305 0.06877
# Poissons Ratio (z) = 0.66357 0.06508
#
# Static dielectric constant tensor:
#      x y z
#    x 1.715450 0.000000 0.019040 
#    y 0.000000 1.726690 0.000000 
#    z 0.019040 0.000000 1.654320 
# 
# From -- ./inp_files/248442.got.cif
#   From: 2010.05.17/outbox.cif.g08.bks.cpg/sg12_125_cif.got.tgz:248442.got - 2010.06.03 13:09:07.
