data_PCOD9171532
_publ_section_title
;
Structure prediction by ZEFSAII (Michael W. Deem and Ramdas Pophale) SiO2 
 PCOD9171532
Probable space group: C 2/M
;
_chemical_formula_sum "Si O2"
_cell_formula_units_Z 56
_cell_length_a 28.782179
_cell_length_b 8.611228
_cell_length_c 18.962631
_cell_angle_alpha 90.000000
_cell_angle_beta 48.186833
_cell_angle_gamma 90.000000
_cell_volume 3502.932448
_symmetry_space_group_name_H-M "C 2/M"
_symmetry_group_IT_number 12
_symmetry_cell_setting 'monoclinic'
loop_
_space_group_symop_operation_xyz
x,y,z
-x,y,-z
-x,-y,-z
x,-y,z
1/2+x,1/2+y,z
1/2-x,1/2+y,-z
1/2-x,1/2-y,-z
1/2+x,1/2-y,z
loop_
_atom_site_type_symbol
_atom_site_label
_atom_site_fract_x
_atom_site_fract_y
_atom_site_fract_z
Si Si1 0.004018 0.687308 0.413307
Si Si2 0.312510 0.814756 0.974184
Si Si3 0.188208 0.313289 0.600424
Si Si4 0.749613 0.186596 0.676648
Si Si5 0.251820 0.684853 0.165765
Si Si6 0.872376 0.184616 0.783308
Si Si7 0.126495 0.687956 0.525150
O O1 0.010750 0.500000 0.401060
O O2 0.063535 0.765160 0.317446
O O3 0.000000 0.726651 0.500000
O O4 0.939649 0.732655 0.440433
O O5 0.366371 0.751712 0.868720
O O6 0.311979 0.000000 0.973939
O O7 0.250000 0.750000 0.000000
O O8 0.305554 0.753184 0.060518
O O9 0.190194 0.500000 0.598931
O O10 0.250000 0.250000 0.500000
O O11 0.196523 0.264916 0.673242
O O12 0.134044 0.268360 0.600327
O O13 0.740892 0.262324 0.761359
O O14 0.816028 0.238900 0.576349
O O15 0.749445 0.000000 0.683697
O O16 0.251371 0.500000 0.160365
O O17 0.185552 0.747702 0.203303
O O18 0.865846 0.000000 0.792175
O O19 0.132145 0.500000 0.513758
#
# Coordination Sequence:
#
# PCOD9171532 Si02
#       7
#     8   8   8   8   8   8   8
#     4  10  20  32  46  66  93 126 161 192 222 261
#     4  10  18  31  49  68  91 118 150 185 225 270
#     4   8  15  27  43  63  88 119 153 189 227 271
#     4  10  18  28  44  68  95 120 151 191 234 274
#     4  11  20  31  47  68  94 121 151 186 229 275
#     4  11  21  33  48  67  93 123 155 188 225 268
#     4   9  17  30  46  64  91 127 161 190 225 269
#
# _framework density 15.986606999999999
#
# number of rings (size 3 to 8) (size 9 to 14) (size 15 to 20)
#    0.000    2.143    0.000    6.857    0.000    2.571 
#    0.000    0.000    0.000    0.000    0.000    1.000 
#    0.000    8.000    0.000    0.000    0.000    0.000 
#
# Total GULP energy -156060.676894 kJ/mol
# GULP energy per Si atom -5573.595603 kJ/mol
# Density = 1.595022 g / cm^3
# Si number density = 15.986607 Si / 1000 Ang^3
#
#
#
# Elastic Constant Matrix: (Units=GPa)
#
#
# Indices 1 2 3 4 5 6 
#
# 1 116.1805 39.1213 60.9689 -0.0062 23.7581 -0.0037
# 2 39.1213 92.0088 54.2818 -0.0232 10.2551 -0.0180
# 3 60.9689 54.2818 125.1730 -0.0186 24.5240 -0.0095
# 4 -0.0062 -0.0232 -0.0186 10.7321 0.0092 -15.6625
# 5 23.7581 10.2551 24.5240 0.0092 25.6357 0.0047
# 6 -0.0037 -0.0180 -0.0095 -15.6625 0.0047 -3.5763
#
#
#
# Elastic Compliance Matrix: (Units=1/GPa)
#
#
# Indices 1 2 3 4 5 6 
#
# 1 0.012927 -0.002435 -0.003796 0.000000 -0.007375 -0.000001
# 2 -0.002435 0.015065 -0.005671 -0.000008 0.001656 -0.000019
# 3 -0.003796 -0.005671 0.013738 -0.000001 -0.007356 -0.000011
# 4 0.000000 -0.000008 -0.000001 0.012606 0.000009 -0.055209
# 5 -0.007375 0.001656 -0.007356 0.000009 0.052218 0.000046
# 6 -0.000001 -0.000019 -0.000011 -0.055209 0.000046 -0.037830
#
#
# Mechanical properties :
#
#
# Convention : Reuss Voigt Hill
#
# Bulk Modulus (GPa) = 55.78315 71.34517 63.56416
# Shear Modulus (GPa) = 50.75847 18.49099 34.62473
#
# Velocity S-wave (km/s) = 5.64088 3.40465 4.65893
# Velocity P-wave (km/s) = 8.79747 7.75761 8.29385
#
# Compressibility (1/GPa) = 0.01792656
#
# Stress axis : x y z
#
# Youngs Moduli (GPa) = 77.35523 66.37752 72.78900
#
# Poissons Ratio (x) = 0.16165 0.27627
# Poissons Ratio (y) = 0.18839 0.41281
# Poissons Ratio (z) = 0.29361 0.37645
#
# Static dielectric constant tensor:
#      x y z
#    x 1.531320 0.000000 0.039460 
#    y 0.000000 1.513860 0.000000 
#    z 0.039460 0.000000 1.531140 
# 
# From -- ./inp_files/291828.got.cif
#   From: 2010.05.17/outbox.cif.g08.bks.cpg/sg12_146_cif.got.tgz:291828.got - 2010.06.03 13:09:07.
