data_PCOD9171191
_publ_section_title
;
Structure prediction by ZEFSAII (Michael W. Deem and Ramdas Pophale) SiO2 
 PCOD9171191
Probable space group: C 2/M
;
_chemical_formula_sum "Si O2"
_cell_formula_units_Z 56
_cell_length_a 24.796030
_cell_length_b 8.788034
_cell_length_c 18.190698
_cell_angle_alpha 90.000000
_cell_angle_beta 118.102547
_cell_angle_gamma 90.000000
_cell_volume 3496.584158
_symmetry_space_group_name_H-M "C 2/M"
_symmetry_group_IT_number 12
_symmetry_cell_setting 'monoclinic'
loop_
_space_group_symop_operation_xyz
x,y,z
-x,y,-z
-x,-y,-z
x,-y,z
1/2+x,1/2+y,z
1/2-x,1/2+y,-z
1/2-x,1/2-y,-z
1/2+x,1/2-y,z
loop_
_atom_site_type_symbol
_atom_site_label
_atom_site_fract_x
_atom_site_fract_y
_atom_site_fract_z
Si Si1 0.039333 0.178387 0.779574
Si Si2 0.412724 0.682436 0.488477
Si Si3 0.894405 0.821618 0.717425
Si Si4 0.561544 0.178465 0.944119
Si Si5 0.959238 0.318770 0.373396
Si Si6 0.682648 0.819098 0.461445
Si Si7 0.915529 0.678714 0.881294
O O1 0.071421 0.230882 0.875519
O O2 0.058242 0.272698 0.720246
O O3 0.966202 0.201955 0.744398
O O4 0.048983 0.000000 0.772743
O O5 0.415381 0.500000 0.490986
O O6 0.416112 0.745795 0.407843
O O7 0.473731 0.748188 0.566887
O O8 0.355072 0.742916 0.496380
O O9 0.854083 0.723886 0.636132
O O10 0.885481 0.772255 0.796237
O O11 0.881075 0.000000 0.698628
O O12 0.488668 0.187888 0.913724
O O13 0.575429 0.000000 0.942228
O O14 0.593757 0.230528 0.040420
O O15 0.961932 0.500000 0.383829
O O16 0.750000 0.750000 0.500000
O O17 0.684623 0.000000 0.472139
O O18 0.899255 0.500000 0.865591
#
# Coordination Sequence:
#
# PCOD9171191 Si02
#       7
#     8   8   8   8   8   8   8
#     4  10  18  27  42  65  95 126 158 196 236 280
#     4  11  21  35  51  70  95 122 157 200 243 285
#     4  10  19  30  45  65  91 122 159 198 238 283
#     4   8  14  24  38  58  86 120 156 191 229 277
#     4  11  20  31  49  71  95 127 162 196 237 287
#     4  12  24  38  54  71  94 125 162 203 244 287
#     4   8  14  25  40  58  84 119 156 192 231 277
#
# _framework density 16.015630999999999
#
# number of rings (size 3 to 8) (size 9 to 14) (size 15 to 20)
#    0.000    2.000    1.429    6.429    0.000    1.714 
#    0.000    2.857    0.000    0.000    0.000    0.000 
#    0.000    1.143    0.000    4.286    0.000    6.571 
#
# Total GULP energy -156153.072054 kJ/mol
# GULP energy per Si atom -5576.895431 kJ/mol
# Density = 1.597918 g / cm^3
# Si number density = 16.015631 Si / 1000 Ang^3
#
#
#
# Elastic Constant Matrix: (Units=GPa)
#
#
# Indices 1 2 3 4 5 6 
#
# 1 73.8667 46.3295 40.6735 0.0000 -16.2437 0.0000
# 2 46.3295 123.4002 52.8990 0.0000 -16.1526 0.0000
# 3 40.6735 52.8990 77.6133 0.0000 -34.0029 0.0000
# 4 0.0000 0.0000 0.0000 20.1933 0.0000 -5.2798
# 5 -16.2437 -16.1526 -34.0029 0.0000 22.2666 0.0000
# 6 0.0000 0.0000 0.0000 -5.2798 0.0000 19.4401
#
#
#
# Elastic Compliance Matrix: (Units=1/GPa)
#
#
# Indices 1 2 3 4 5 6 
#
# 1 0.020582 -0.004365 -0.007916 0.000000 -0.000241 0.000000
# 2 -0.004365 0.013325 -0.011948 0.000000 -0.011764 0.000000
# 3 -0.007916 -0.011948 0.056950 0.000000 0.072525 0.000000
# 4 0.000000 0.000000 0.000000 0.053307 0.000000 0.014478
# 5 -0.000241 -0.011764 0.072525 0.000000 0.146953 0.000000
# 6 0.000000 0.000000 0.000000 0.014478 0.000000 0.055372
#
#
# Mechanical properties :
#
#
# Convention : Reuss Voigt Hill
#
# Bulk Modulus (GPa) = 23.58620 61.63157 42.60889
# Shear Modulus (GPa) = 12.22256 21.37854 16.80055
#
# Velocity S-wave (km/s) = 2.76554 3.65753 3.24236
# Velocity P-wave (km/s) = 4.99566 7.51015 6.37805
#
# Compressibility (1/GPa) = 0.04239768
#
# Stress axis : x y z
#
# Youngs Moduli (GPa) = 48.58660 75.04934 17.55922
#
# Poissons Ratio (x) = 0.32761 0.13900
# Poissons Ratio (y) = 0.21209 0.20980
# Poissons Ratio (z) = 0.38462 0.89669
#
# Static dielectric constant tensor:
#      x y z
#    x 1.516950 0.000000 -0.026760 
#    y 0.000000 1.533840 0.000000 
#    z -0.026760 0.000000 1.557710 
# 
# From -- ./inp_files/287862.got.cif
#   From: 2010.05.17/outbox.cif.g08.bks.cpg/sg12_144_cif.got.tgz:287862.got - 2010.06.03 13:09:07.
