data_PCOD9171190
_publ_section_title
;
Structure prediction by ZEFSAII (Michael W. Deem and Ramdas Pophale) SiO2 
 PCOD9171190
Probable space group: C 2/M
;
_chemical_formula_sum "Si O2"
_cell_formula_units_Z 56
_cell_length_a 17.014757
_cell_length_b 14.224559
_cell_length_c 17.774801
_cell_angle_alpha 90.000000
_cell_angle_beta 46.444720
_cell_angle_gamma 90.000000
_cell_volume 3117.694101
_symmetry_space_group_name_H-M "C 2/M"
_symmetry_group_IT_number 12
_symmetry_cell_setting 'monoclinic'
loop_
_space_group_symop_operation_xyz
x,y,z
-x,y,-z
-x,-y,-z
x,-y,z
1/2+x,1/2+y,z
1/2-x,1/2+y,-z
1/2-x,1/2-y,-z
1/2+x,1/2-y,z
loop_
_atom_site_type_symbol
_atom_site_label
_atom_site_fract_x
_atom_site_fract_y
_atom_site_fract_z
Si Si1 0.246903 0.607756 0.017579
Si Si2 0.339169 0.609473 0.308377
Si Si3 0.469720 0.895936 0.930806
Si Si4 0.806175 0.272636 0.800005
Si Si5 0.117937 0.613602 0.391489
Si Si6 0.421341 0.285548 0.119810
Si Si7 0.937311 0.112079 0.779504
O O1 0.245202 0.500000 0.046681
O O2 0.214162 0.676849 0.106292
O O3 0.155857 0.613258 0.011425
O O4 0.365155 0.624973 0.903509
O O5 0.329514 0.500000 0.331318
O O6 0.216836 0.647160 0.380913
O O7 0.389389 0.627710 0.192668
O O8 0.437616 0.643692 0.295491
O O9 0.528162 0.800724 0.865859
O O10 0.504109 0.000000 0.879872
O O11 0.500000 0.895938 0.000000
O O12 0.860801 0.343002 0.704397
O O13 0.688908 0.248707 0.844311
O O14 0.876865 0.179488 0.761846
O O15 0.124235 0.500000 0.382797
O O16 0.000000 0.639214 0.500000
O O17 0.500000 0.312291 0.000000
O O18 0.932384 0.000000 0.766725
#
# Coordination Sequence:
#
# PCOD9171190 Si02
#       7
#     8   8   8   8   8   8   8
#     4  10  19  30  46  70 101 133 163 197 233 271
#     4   9  18  31  47  67  91 121 153 185 230 289
#     4   9  17  29  43  60  89 131 170 193 215 258
#     4  11  20  30  49  74  98 125 162 202 237 279
#     4   9  19  37  57  73  90 116 155 204 253 292
#     4  10  18  27  42  65  94 126 157 190 227 270
#     4  10  19  30  45  69 103 135 157 183 228 286
#
# _framework density 17.961994000000001
#
# number of rings (size 3 to 8) (size 9 to 14) (size 15 to 20)
#    0.000    2.286    0.000    4.286    0.000    2.571 
#    0.000    0.714    0.000    0.429    0.000    0.000 
#    0.000    0.000    0.000    0.000    0.000    0.000 
#
# Total GULP energy -155876.794741 kJ/mol
# GULP energy per Si atom -5567.028384 kJ/mol
# Density = 1.792111 g / cm^3
# Si number density = 17.961994 Si / 1000 Ang^3
#
#
#
# Elastic Constant Matrix: (Units=GPa)
#
#
# Indices 1 2 3 4 5 6 
#
# 1 89.6093 7.1466 21.8785 0.0000 -32.8673 0.0000
# 2 7.1466 33.5198 6.5439 0.0000 -4.6488 0.0000
# 3 21.8785 6.5439 55.9265 0.0000 -27.5669 0.0000
# 4 0.0000 0.0000 0.0000 14.6474 0.0000 -3.1829
# 5 -32.8673 -4.6488 -27.5669 0.0000 26.9000 0.0000
# 6 0.0000 0.0000 0.0000 -3.1829 0.0000 20.8253
#
#
#
# Elastic Compliance Matrix: (Units=1/GPa)
#
#
# Indices 1 2 3 4 5 6 
#
# 1 0.022591 -0.001542 0.009734 0.000000 0.037312 0.000000
# 2 -0.001542 0.030778 -0.002637 0.000000 0.000732 0.000000
# 3 0.009734 -0.002637 0.040453 0.000000 0.052894 0.000000
# 4 0.000000 0.000000 0.000000 0.070617 0.000000 0.010793
# 5 0.037312 0.000732 0.052894 0.000000 0.137096 0.000000
# 6 0.000000 0.000000 0.000000 0.010793 0.000000 0.049668
#
#
# Mechanical properties :
#
#
# Convention : Reuss Voigt Hill
#
# Bulk Modulus (GPa) = 9.52991 27.79928 18.66459
# Shear Modulus (GPa) = 13.33077 22.04031 17.68554
#
# Velocity S-wave (km/s) = 2.72723 3.50673 3.14125
# Velocity P-wave (km/s) = 3.90309 5.64859 4.85493
#
# Compressibility (1/GPa) = 0.10493280
#
# Stress axis : x y z
#
# Youngs Moduli (GPa) = 44.26462 32.49045 24.71983
#
# Poissons Ratio (x) = 0.05011 -0.24063
# Poissons Ratio (y) = 0.06827 0.06519
# Poissons Ratio (z) = -0.43088 0.08568
#
# Static dielectric constant tensor:
#      x y z
#    x 1.669710 0.000000 -0.015790 
#    y 0.000000 1.653990 0.000000 
#    z -0.015790 0.000000 1.595270 
# 
# From -- ./inp_files/214329.got.cif
#   From: 2010.05.17/outbox.cif.g08.bks.cpg/sg12_108_cif.got.tgz:214329.got - 2010.06.03 13:09:07.
