data_PCOD9171308
_publ_section_title
;
Structure prediction by ZEFSAII (Michael W. Deem and Ramdas Pophale) SiO2 
 PCOD9171308
Probable space group: C 2/M
;
_chemical_formula_sum "Si O2"
_cell_formula_units_Z 40
_cell_length_a 26.038168
_cell_length_b 9.216825
_cell_length_c 25.766423
_cell_angle_alpha 90.000000
_cell_angle_beta 23.399180
_cell_angle_gamma 90.000000
_cell_volume 2455.747979
_symmetry_space_group_name_H-M "C 2/M"
_symmetry_group_IT_number 12
_symmetry_cell_setting 'monoclinic'
loop_
_space_group_symop_operation_xyz
x,y,z
-x,y,-z
-x,-y,-z
x,-y,z
1/2+x,1/2+y,z
1/2-x,1/2+y,-z
1/2-x,1/2-y,-z
1/2+x,1/2-y,z
loop_
_atom_site_type_symbol
_atom_site_label
_atom_site_fract_x
_atom_site_fract_y
_atom_site_fract_z
Si Si1 0.151274 0.173749 0.130815
Si Si2 0.308087 0.172706 0.085896
Si Si3 0.136386 0.825862 0.636584
Si Si4 0.577777 0.674860 0.808110
Si Si5 0.844461 0.833013 0.154194
O O1 0.197304 0.205211 0.146632
O O2 0.004623 0.217209 0.254529
O O3 0.160281 0.000000 0.114579
O O4 0.250000 0.250000 0.000000
O O5 0.283255 0.235913 0.166173
O O6 0.326295 0.000000 0.071705
O O7 0.440087 0.246695 0.942741
O O8 0.250000 0.750000 0.500000
O O9 0.136578 0.790294 0.697723
O O10 0.147846 0.000000 0.621087
O O11 0.556123 0.500000 0.830720
O O12 0.666062 0.713017 0.776021
O O13 0.802712 0.000000 0.187170
O O14 0.000000 0.829446 0.000000
#
# Coordination Sequence:
#
# PCOD9171308 Si02
#       5
#     8   8   8   8   8
#     4  10  20  33  51  74 101 131 164 204 249 295
#     4  10  18  27  45  75 102 124 157 202 247 291
#     4  10  21  36  52  72 100 132 167 207 247 294
#     4   9  17  31  49  68  96 132 165 198 241 291
#     4   8  15  27  44  67  95 129 162 195 241 291
#
# _framework density 16.288315000000001
#
# number of rings (size 3 to 8) (size 9 to 14) (size 15 to 20)
#    0.000    2.600    2.000    1.800    0.000    6.000 
#    0.000    0.000    0.000    1.200    0.000    8.400 
#    0.000    0.000    0.000    0.000    0.000    0.000 
#
# Total GULP energy -111437.586218 kJ/mol
# GULP energy per Si atom -5571.879311 kJ/mol
# Density = 1.625124 g / cm^3
# Si number density = 16.288315 Si / 1000 Ang^3
#
#
#
# Elastic Constant Matrix: (Units=GPa)
#
#
# Indices 1 2 3 4 5 6 
#
# 1 181.0736 58.7653 73.3361 0.0001 16.7973 -0.0003
# 2 58.7653 32.3807 33.2746 -0.0005 4.5170 0.0003
# 3 73.3361 33.2746 90.2606 -0.0014 7.4389 0.0011
# 4 0.0001 -0.0005 -0.0014 23.1096 -0.0009 4.1041
# 5 16.7973 4.5170 7.4389 -0.0009 17.8739 0.0004
# 6 -0.0003 0.0003 0.0011 4.1041 0.0004 28.3589
#
#
#
# Elastic Compliance Matrix: (Units=1/GPa)
#
#
# Indices 1 2 3 4 5 6 
#
# 1 0.014763 -0.022683 -0.003067 -0.000001 -0.006865 0.000001
# 2 -0.022683 0.085024 -0.013358 0.000001 0.005390 -0.000001
# 3 -0.003067 -0.013358 0.018618 0.000001 -0.001491 -0.000001
# 4 -0.000001 0.000001 0.000001 0.044414 0.000003 -0.006428
# 5 -0.006865 0.005390 -0.001491 0.000003 0.061658 -0.000001
# 6 0.000001 -0.000001 -0.000001 -0.006428 -0.000001 0.036192
#
#
# Mechanical properties :
#
#
# Convention : Reuss Voigt Hill
#
# Bulk Modulus (GPa) = 24.88288 70.49633 47.68960
# Shear Modulus (GPa) = 14.19317 23.09108 18.64212
#
# Velocity S-wave (km/s) = 2.95510 3.76925 3.38673
# Velocity P-wave (km/s) = 5.19165 7.89413 6.68096
#
# Compressibility (1/GPa) = 0.04018828
#
# Stress axis : x y z
#
# Youngs Moduli (GPa) = 67.73597 11.76141 53.71044
#
# Poissons Ratio (x) = 0.26679 0.16473
# Poissons Ratio (y) = 1.53647 0.71748
# Poissons Ratio (z) = 0.20775 0.15711
#
# Static dielectric constant tensor:
#      x y z
#    x 1.590540 0.000000 0.009660 
#    y 0.000000 1.547050 0.000000 
#    z 0.009660 0.000000 1.503020 
# 
# From -- ./inp_files/101022.got.cif
#   From: 2010.05.17/outbox.cif.g08.bks.cpg/sg12_51_cif.got.tgz:101022.got - 2010.06.03 13:09:07.
