data_PCOD9171082
_publ_section_title
;
Structure prediction by ZEFSAII (Michael W. Deem and Ramdas Pophale) SiO2 
 PCOD9171082
Probable space group: C 2/M
;
_chemical_formula_sum "Si O2"
_cell_formula_units_Z 64
_cell_length_a 30.395523
_cell_length_b 7.339961
_cell_length_c 16.271687
_cell_angle_alpha 90.000000
_cell_angle_beta 118.094192
_cell_angle_gamma 90.000000
_cell_volume 3202.510094
_symmetry_space_group_name_H-M "C 2/M"
_symmetry_group_IT_number 12
_symmetry_cell_setting 'monoclinic'
loop_
_space_group_symop_operation_xyz
x,y,z
-x,y,-z
-x,-y,-z
x,-y,z
1/2+x,1/2+y,z
1/2-x,1/2+y,-z
1/2-x,1/2-y,-z
1/2+x,1/2-y,z
loop_
_atom_site_type_symbol
_atom_site_label
_atom_site_fract_x
_atom_site_fract_y
_atom_site_fract_z
Si Si1 0.734139 0.720830 0.612719
Si Si2 0.298478 0.291300 0.239100
Si Si3 0.095714 0.221353 0.069402
Si Si4 0.638941 0.277364 0.852273
Si Si5 0.928969 0.776800 0.767818
Si Si6 0.829768 0.787201 0.597754
Si Si7 0.959585 0.221742 0.143488
Si Si8 0.695097 0.719987 0.065580
O O1 0.734046 0.500000 0.613055
O O2 0.715675 0.787963 0.684817
O O3 0.790358 0.773405 0.637836
O O4 0.698483 0.787092 0.507330
O O5 0.313268 0.500000 0.268562
O O6 0.340929 0.211832 0.217440
O O7 0.248099 0.290507 0.140899
O O8 0.080845 0.280760 0.146823
O O9 0.151177 0.275374 0.089837
O O10 0.095132 0.000000 0.069384
O O11 0.058336 0.277204 0.963604
O O12 0.639550 0.500000 0.851742
O O13 0.583739 0.221193 0.831773
O O14 0.676531 0.223534 0.958925
O O15 0.883133 0.712907 0.671528
O O16 0.984211 0.719857 0.789966
O O17 0.928090 0.000000 0.766963
O O18 0.837419 0.000000 0.587129
O O19 0.959349 0.000000 0.143397
O O20 0.697634 0.500000 0.068426
#
# Coordination Sequence:
#
# PCOD9171082 Si02
#       8
#     8   8   8   8   8   8   8   8
#     4   9  18  30  42  58  82 109 131 155 195 244
#     4  10  18  27  40  57  79 108 137 161 192 235
#     4   8  13  20  32  54  81 102 121 153 197 237
#     4   8  15  26  38  54  79 109 135 161 194 231
#     4   9  14  20  35  57  78 100 126 159 197 231
#     4   9  17  29  44  62  82 101 127 165 201 232
#     4   8  13  21  33  52  79 105 127 154 192 235
#     4   9  16  26  40  59  82 105 132 165 196 227
#
# _framework density 19.984323
#
# number of rings (size 3 to 8) (size 9 to 14) (size 15 to 20)
#    0.000    3.250    0.000    3.000    0.000    3.000 
#    0.000    0.000    0.000    0.750    0.000    9.625 
#    0.000   13.000    0.000    7.375    0.000    7.750 
#
# Total GULP energy -178549.080008 kJ/mol
# GULP energy per Si atom -5579.658750 kJ/mol
# Density = 1.993884 g / cm^3
# Si number density = 19.984323 Si / 1000 Ang^3
#
#
#
# Elastic Constant Matrix: (Units=GPa)
#
#
# Indices 1 2 3 4 5 6 
#
# 1 125.1817 -7.8282 71.5305 0.0000 4.1743 0.0000
# 2 -7.8282 73.8414 -5.1220 0.0000 1.1253 0.0000
# 3 71.5305 -5.1220 66.2322 0.0000 -0.5190 0.0000
# 4 0.0000 0.0000 0.0000 0.5902 0.0000 2.9454
# 5 4.1743 1.1253 -0.5190 0.0000 36.3745 0.0000
# 6 0.0000 0.0000 0.0000 2.9454 0.0000 1.3366
#
#
#
# Elastic Compliance Matrix: (Units=1/GPa)
#
#
# Indices 1 2 3 4 5 6 
#
# 1 0.021172 0.000703 -0.022833 0.000000 -0.002777 0.000000
# 2 0.000703 0.013645 0.000292 0.000000 -0.000499 0.000000
# 3 -0.022833 0.000292 0.039806 0.000000 0.003179 0.000000
# 4 0.000000 0.000000 0.000000 -0.169479 0.000000 0.373467
# 5 -0.002777 -0.000499 0.003179 0.000000 0.027871 0.000000
# 6 0.000000 0.000000 0.000000 0.373467 0.000000 -0.074832
#
#
# Mechanical properties :
#
#
# Convention : Reuss Voigt Hill
#
# Bulk Modulus (GPa) = 32.31393 42.49067 37.40230
# Shear Modulus (GPa) = -56.93184 21.43859 -17.74663
#
# Velocity S-wave (km/s) = -5.34323 3.27887 -2.98321
# Velocity P-wave (km/s) = 4.67569 5.97016 2.62495
#
# Compressibility (1/GPa) = 0.03094640
#
# Stress axis : x y z
#
# Youngs Moduli (GPa) = 47.23169 73.28737 25.12200
#
# Poissons Ratio (x) = -0.05152 0.57362
# Poissons Ratio (y) = -0.03321 -0.00734
# Poissons Ratio (z) = 1.07846 -0.02140
#
# Static dielectric constant tensor:
#      x y z
#    x 1.699320 0.000000 -0.009330 
#    y 0.000000 1.849860 0.000000 
#    z -0.009330 0.000000 1.685440 
# 
# From -- ./inp_files/245147.got.cif
#   From: 2010.05.17/outbox.cif.g08.bks.cpg/sg12_123_cif.got.tgz:245147.got - 2010.06.03 13:09:07.
