data_PCOD9171926
_publ_section_title
;
Structure prediction by ZEFSAII (Michael W. Deem and Ramdas Pophale) SiO2 
 PCOD9171926
Probable space group: C 2/M
;
_chemical_formula_sum "Si O2"
_cell_formula_units_Z 56
_cell_length_a 36.175367
_cell_length_b 8.019245
_cell_length_c 15.207545
_cell_angle_alpha 90.000000
_cell_angle_beta 131.518937
_cell_angle_gamma 90.000000
_cell_volume 3303.198287
_symmetry_space_group_name_H-M "C 2/M"
_symmetry_group_IT_number 12
_symmetry_cell_setting 'monoclinic'
loop_
_space_group_symop_operation_xyz
x,y,z
-x,y,-z
-x,-y,-z
x,-y,z
1/2+x,1/2+y,z
1/2-x,1/2+y,-z
1/2-x,1/2-y,-z
1/2+x,1/2-y,z
loop_
_atom_site_type_symbol
_atom_site_label
_atom_site_fract_x
_atom_site_fract_y
_atom_site_fract_z
Si Si1 0.465297 0.302911 0.310178
Si Si2 0.107955 0.699438 0.657693
Si Si3 0.567584 0.800231 0.035993
Si Si4 0.457550 0.204570 0.811764
Si Si5 0.070975 0.693726 0.421861
Si Si6 0.378038 0.299881 0.042078
Si Si7 0.306284 0.300550 0.076582
O O1 0.474799 0.500000 0.314353
O O2 0.437385 0.274732 0.357971
O O3 0.515927 0.207211 0.375422
O O4 0.425489 0.245543 0.174488
O O5 0.101395 0.500000 0.646209
O O6 0.105642 0.763503 0.553739
O O7 0.157818 0.738913 0.789064
O O8 0.569136 0.744210 0.139854
O O9 0.564872 0.000000 0.033821
O O10 0.514855 0.741729 0.912638
O O11 0.611776 0.752659 0.041204
O O12 0.433647 0.266734 0.683475
O O13 0.458046 0.000000 0.809341
O O14 0.084549 0.500000 0.431960
O O15 0.377505 0.500000 0.042970
O O16 0.330642 0.240514 0.022691
O O17 0.309208 0.500000 0.081512
O O18 0.250000 0.250000 0.000000
#
# Coordination Sequence:
#
# PCOD9171926 Si02
#       7
#     8   8   8   8   8   8   8
#     4  10  19  29  41  61  92 127 159 193 228 266
#     4  10  20  31  46  67  90 121 156 188 228 277
#     4   9  15  26  45  64  87 123 162 194 225 262
#     4   8  15  26  41  64  91 122 161 198 224 255
#     4  10  18  29  44  63  91 126 161 192 224 268
#     4   9  18  30  44  66  94 120 149 187 231 273
#     4  10  21  37  54  72  94 117 146 189 235 281
#
# _framework density 16.953267
#
# number of rings (size 3 to 8) (size 9 to 14) (size 15 to 20)
#    0.000    2.571    1.429    3.429    0.000    5.714 
#    0.000    2.143    0.000    0.000    0.000    1.000 
#    0.000    0.000    0.000    0.000    0.000    0.000 
#
# Total GULP energy -156015.052546 kJ/mol
# GULP energy per Si atom -5571.966162 kJ/mol
# Density = 1.691468 g / cm^3
# Si number density = 16.953267 Si / 1000 Ang^3
#
#
#
# Elastic Constant Matrix: (Units=GPa)
#
#
# Indices 1 2 3 4 5 6 
#
# 1 120.4409 0.7133 71.4126 0.0000 -23.3230 0.0000
# 2 0.7133 14.3627 0.5959 0.0000 -0.9737 0.0000
# 3 71.4126 0.5959 81.6165 0.0000 -27.4378 0.0000
# 4 0.0000 0.0000 0.0000 9.7771 0.0000 3.4409
# 5 -23.3230 -0.9737 -27.4378 0.0000 31.6616 0.0000
# 6 0.0000 0.0000 0.0000 3.4409 0.0000 17.4886
#
#
#
# Elastic Compliance Matrix: (Units=1/GPa)
#
#
# Indices 1 2 3 4 5 6 
#
# 1 0.017262 -0.000260 -0.015282 0.000000 -0.000535 0.000000
# 2 -0.000260 0.069779 0.000529 0.000000 0.002413 0.000000
# 3 -0.015282 0.000529 0.030819 0.000000 0.015467 0.000000
# 4 0.000000 0.000000 0.000000 0.109889 0.000000 -0.021621
# 5 -0.000535 0.002413 0.015467 0.000000 0.044668 0.000000
# 6 0.000000 0.000000 0.000000 -0.021621 0.000000 0.061434
#
#
# Mechanical properties :
#
#
# Convention : Reuss Voigt Hill
#
# Bulk Modulus (GPa) = 11.38491 40.20706 25.79598
# Shear Modulus (GPa) = 12.71767 21.36535 17.04151
#
# Velocity S-wave (km/s) = 2.74188 3.55385 3.17394
# Velocity P-wave (km/s) = 4.09315 6.37242 5.35545
#
# Compressibility (1/GPa) = 0.08783556
#
# Stress axis : x y z
#
# Youngs Moduli (GPa) = 57.93239 14.33090 32.44717
#
# Poissons Ratio (x) = 0.00372 0.49584
# Poissons Ratio (y) = 0.01503 -0.01716
# Poissons Ratio (z) = 0.88530 -0.00758
#
# Static dielectric constant tensor:
#      x y z
#    x 1.741960 0.000000 -0.004230 
#    y 0.000000 1.604250 0.000000 
#    z -0.004230 0.000000 1.602900 
# 
# From -- ./inp_files/247925.got.cif
#   From: 2010.05.17/outbox.cif.g08.bks.cpg/sg12_124_cif.got.tgz:247925.got - 2010.06.03 13:09:07.
