data_PCOD9171655
_publ_section_title
;
Structure prediction by ZEFSAII (Michael W. Deem and Ramdas Pophale) SiO2 
 PCOD9171655
Probable space group: C 2/M
;
_chemical_formula_sum "Si O2"
_cell_formula_units_Z 64
_cell_length_a 20.265842
_cell_length_b 9.330345
_cell_length_c 24.286742
_cell_angle_alpha 90.000000
_cell_angle_beta 121.927594
_cell_angle_gamma 90.000000
_cell_volume 3897.575724
_symmetry_space_group_name_H-M "C 2/M"
_symmetry_group_IT_number 12
_symmetry_cell_setting 'monoclinic'
loop_
_space_group_symop_operation_xyz
x,y,z
-x,y,-z
-x,-y,-z
x,-y,z
1/2+x,1/2+y,z
1/2-x,1/2+y,-z
1/2-x,1/2-y,-z
1/2+x,1/2-y,z
loop_
_atom_site_type_symbol
_atom_site_label
_atom_site_fract_x
_atom_site_fract_y
_atom_site_fract_z
Si Si1 0.709659 0.665392 0.564012
Si Si2 0.906967 0.666848 0.960822
Si Si3 0.025580 0.171374 0.833066
Si Si4 0.620498 0.829613 0.177966
Si Si5 0.790640 0.165878 0.692562
Si Si6 0.870937 0.335488 0.564438
Si Si7 0.549827 0.664123 0.309531
Si Si8 0.669372 0.329950 0.972807
O O1 0.690350 0.500000 0.566378
O O2 0.727806 0.753345 0.627279
O O3 0.790518 0.666081 0.564548
O O4 0.647143 0.742529 0.497482
O O5 0.892351 0.500000 0.969397
O O6 0.874353 0.691456 0.885161
O O7 0.870444 0.770021 0.989655
O O8 0.000000 0.686197 0.000000
O O9 0.109094 0.198626 0.896335
O O10 0.960710 0.260583 0.837399
O O11 0.015407 0.205416 0.763899
O O12 0.008571 0.000000 0.831194
O O13 0.687080 0.751117 0.242501
O O14 0.620421 0.000000 0.189244
O O15 0.870427 0.166619 0.691442
O O16 0.770909 0.000000 0.693939
O O17 0.887831 0.500000 0.558347
O O18 0.935415 0.265830 0.632391
O O19 0.538045 0.500000 0.322410
O O20 0.680853 0.500000 0.981318
O O21 0.750000 0.250000 0.000000
#
# Coordination Sequence:
#
# PCOD9171655 Si02
#       8
#     8   8   8   8   8   8   8   8
#     4   9  15  22  32  46  69 104 144 181 222 270
#     4  10  20  35  53  75 100 127 160 203 248 292
#     4   9  18  31  46  65  89 119 154 194 238 286
#     4  10  18  28  46  68  91 118 152 195 239 283
#     4   9  16  25  36  53  80 110 144 186 229 274
#     4   9  15  21  30  47  70 100 140 181 222 267
#     4   8  14  24  36  51  74 104 141 183 225 269
#     4  11  23  37  54  74  99 130 164 203 249 300
#
# _framework density 16.420463000000002
#
# number of rings (size 3 to 8) (size 9 to 14) (size 15 to 20)
#    0.000    2.625    1.250    2.625    0.000    7.750 
#    0.000    0.000    0.000    0.000    0.000    0.000 
#    0.000    0.000    0.000    1.125    0.000   23.000 
#
# Total GULP energy -178317.136942 kJ/mol
# GULP energy per Si atom -5572.410529 kJ/mol
# Density = 1.638309 g / cm^3
# Si number density = 16.420463 Si / 1000 Ang^3
#
#
#
# Elastic Constant Matrix: (Units=GPa)
#
#
# Indices 1 2 3 4 5 6 
#
# 1 22.0531 29.2992 30.5874 0.0000 6.6502 0.0000
# 2 29.2992 123.7391 103.1091 0.0000 7.9018 0.0000
# 3 30.5874 103.1091 170.0334 0.0000 7.9878 0.0000
# 4 0.0000 0.0000 0.0000 32.8906 0.0000 -1.1605
# 5 6.6502 7.9018 7.9878 0.0000 6.1343 0.0000
# 6 0.0000 0.0000 0.0000 -1.1605 0.0000 13.6205
#
#
#
# Elastic Compliance Matrix: (Units=1/GPa)
#
#
# Indices 1 2 3 4 5 6 
#
# 1 0.092918 -0.012447 -0.005526 0.000000 -0.077503 0.000000
# 2 -0.012447 0.018449 -0.009018 0.000000 0.001472 0.000000
# 3 -0.005526 -0.009018 0.012267 0.000000 0.001633 0.000000
# 4 0.000000 0.000000 0.000000 0.030496 0.000000 0.002598
# 5 -0.077503 0.001472 0.001633 0.000000 0.243016 0.000000
# 6 0.000000 0.000000 0.000000 0.002598 0.000000 0.073640
#
#
# Mechanical properties :
#
#
# Convention : Reuss Voigt Hill
#
# Bulk Modulus (GPa) = 14.35705 71.31300 42.83503
# Shear Modulus (GPa) = 9.12434 20.71775 14.92104
#
# Velocity S-wave (km/s) = 2.35982 3.55590 3.01771
# Velocity P-wave (km/s) = 4.02335 7.77064 6.18750
#
# Compressibility (1/GPa) = 0.06965218
#
# Stress axis : x y z
#
# Youngs Moduli (GPa) = 10.76214 54.20358 81.52084
#
# Poissons Ratio (x) = 0.67470 0.45048
# Poissons Ratio (y) = 0.13396 0.73511
# Poissons Ratio (z) = 0.05947 0.48878
#
# Static dielectric constant tensor:
#      x y z
#    x 1.509800 0.000000 0.007720 
#    y 0.000000 1.550590 0.000000 
#    z 0.007720 0.000000 1.571410 
# 
# From -- ./inp_files/345626.got.cif
#   From: 2010.05.17/outbox.cif.g08.bks.cpg/sg12_173_cif.got.tgz:345626.got - 2010.06.03 13:09:07.
