data_PCOD9171090
_publ_section_title
;
Structure prediction by ZEFSAII (Michael W. Deem and Ramdas Pophale) SiO2 
 PCOD9171090
Probable space group: C 2/M
;
_chemical_formula_sum "Si O2"
_cell_formula_units_Z 56
_cell_length_a 28.278329
_cell_length_b 8.947668
_cell_length_c 16.574185
_cell_angle_alpha 90.000000
_cell_angle_beta 115.127564
_cell_angle_gamma 90.000000
_cell_volume 3796.813850
_symmetry_space_group_name_H-M "C 2/M"
_symmetry_group_IT_number 12
_symmetry_cell_setting 'monoclinic'
loop_
_space_group_symop_operation_xyz
x,y,z
-x,y,-z
-x,-y,-z
x,-y,z
1/2+x,1/2+y,z
1/2-x,1/2+y,-z
1/2-x,1/2-y,-z
1/2+x,1/2-y,z
loop_
_atom_site_type_symbol
_atom_site_label
_atom_site_fract_x
_atom_site_fract_y
_atom_site_fract_z
Si Si1 0.102170 0.679544 0.681462
Si Si2 0.813068 0.819582 0.964010
Si Si3 0.556617 0.327742 0.496839
Si Si4 0.306005 0.819815 0.133584
Si Si5 0.417287 0.318707 0.955998
Si Si6 0.992567 0.678417 0.688184
Si Si7 0.512975 0.319306 0.140660
O O1 0.102456 0.500000 0.672016
O O2 0.095405 0.753631 0.589279
O O3 0.153526 0.725724 0.767864
O O4 0.050748 0.717581 0.697353
O O5 0.754451 0.779437 0.893813
O O6 0.859700 0.768618 0.939451
O O7 0.815340 0.000000 0.971461
O O8 0.820674 0.752147 0.058515
O O9 0.500000 0.322470 0.500000
O O10 0.569839 0.500000 0.491668
O O11 0.547946 0.241230 0.407164
O O12 0.309000 0.000000 0.128153
O O13 0.417032 0.500000 0.953897
O O14 0.440689 0.271843 0.886796
O O15 0.459294 0.277411 0.055445
O O16 0.989138 0.500000 0.689039
O O17 0.984316 0.747960 0.769831
O O18 0.513806 0.500000 0.148230
#
# Coordination Sequence:
#
# PCOD9171090 Si02
#       7
#     8   8   8   8   8   8   8
#     4   9  17  28  40  57  84 112 133 159 199 242
#     4   9  16  27  42  59  81 109 140 169 197 233
#     4   9  17  28  42  60  80 104 135 166 196 235
#     4   9  17  27  40  60  84 109 136 165 199 237
#     4   8  15  27  42  59  80 108 139 171 202 231
#     4  10  18  27  40  59  84 110 133 160 199 243
#     4   9  16  27  42  59  80 107 140 171 199 233
#
# _framework density 14.749209
#
# number of rings (size 3 to 8) (size 9 to 14) (size 15 to 20)
#    0.000    3.000    0.000    2.571    0.000    2.857 
#    0.000    2.143    0.000    0.000    0.000    1.000 
#    0.000    0.000    0.000    0.000    0.000    0.000 
#
# Total GULP energy -155936.225262 kJ/mol
# GULP energy per Si atom -5569.150902 kJ/mol
# Density = 1.471564 g / cm^3
# Si number density = 14.749209 Si / 1000 Ang^3
#
#
#
# Elastic Constant Matrix: (Units=GPa)
#
#
# Indices 1 2 3 4 5 6 
#
# 1 91.9666 26.6840 64.6835 0.0000 -3.4230 0.0000
# 2 26.6840 24.2306 43.8601 0.0000 -1.9187 0.0000
# 3 64.6835 43.8601 151.2903 0.0000 -0.5637 0.0000
# 4 0.0000 0.0000 0.0000 26.3277 0.0000 -2.8811
# 5 -3.4230 -1.9187 -0.5637 0.0000 23.4036 0.0000
# 6 0.0000 0.0000 0.0000 -2.8811 0.0000 11.8242
#
#
#
# Elastic Compliance Matrix: (Units=1/GPa)
#
#
# Indices 1 2 3 4 5 6 
#
# 1 0.017042 -0.011517 -0.003942 0.000000 0.001453 0.000000
# 2 -0.011517 0.095629 -0.022779 0.000000 0.005607 0.000000
# 3 -0.003942 -0.022779 0.014891 0.000000 -0.002085 0.000000
# 4 0.000000 0.000000 0.000000 0.039023 0.000000 0.009508
# 5 0.001453 0.005607 -0.002085 0.000000 0.043350 0.000000
# 6 0.000000 0.000000 0.000000 0.009508 0.000000 0.086889
#
#
# Mechanical properties :
#
#
# Convention : Reuss Voigt Hill
#
# Bulk Modulus (GPa) = 19.57450 59.77143 39.67296
# Shear Modulus (GPa) = 12.80975 21.12842 16.96908
#
# Velocity S-wave (km/s) = 2.95024 3.78896 3.39559
# Velocity P-wave (km/s) = 4.99055 7.73012 6.50616
#
# Compressibility (1/GPa) = 0.05108686
#
# Stress axis : x y z
#
# Youngs Moduli (GPa) = 58.67981 10.45712 67.15449
#
# Poissons Ratio (x) = 0.12043 0.26471
# Poissons Ratio (y) = 0.67580 1.52968
# Poissons Ratio (z) = 0.23131 0.23820
#
# Static dielectric constant tensor:
#      x y z
#    x 1.491550 0.000000 0.009830 
#    y 0.000000 1.492330 0.000000 
#    z 0.009830 0.000000 1.467720 
# 
# From -- ./inp_files/243239.got.cif
#   From: 2010.05.17/outbox.cif.g08.bks.cpg/sg12_122_cif.got.tgz:243239.got - 2010.06.03 13:09:07.
