data_PCOD9171273
_publ_section_title
;
Structure prediction by ZEFSAII (Michael W. Deem and Ramdas Pophale) SiO2 
 PCOD9171273
Probable space group: C 2/M
;
_chemical_formula_sum "Si O2"
_cell_formula_units_Z 56
_cell_length_a 26.756795
_cell_length_b 16.086563
_cell_length_c 11.997245
_cell_angle_alpha 90.000000
_cell_angle_beta 143.767998
_cell_angle_gamma 90.000000
_cell_volume 3052.163051
_symmetry_space_group_name_H-M "C 2/M"
_symmetry_group_IT_number 12
_symmetry_cell_setting 'monoclinic'
loop_
_space_group_symop_operation_xyz
x,y,z
-x,y,-z
-x,-y,-z
x,-y,z
1/2+x,1/2+y,z
1/2-x,1/2+y,-z
1/2-x,1/2-y,-z
1/2+x,1/2-y,z
loop_
_atom_site_type_symbol
_atom_site_label
_atom_site_fract_x
_atom_site_fract_y
_atom_site_fract_z
Si Si1 0.945305 0.168231 0.150137
Si Si2 0.401313 0.751896 0.850440
Si Si3 0.139985 0.312371 0.898098
Si Si4 0.901327 0.090812 0.289147
Si Si5 0.637107 0.318331 0.454248
Si Si6 0.322348 0.755428 0.256436
Si Si7 0.311073 0.094525 0.805014
O O1 0.902055 0.105008 0.157415
O O2 0.043045 0.146522 0.304999
O O3 0.901501 0.186524 0.953346
O O4 0.939216 0.257271 0.204590
O O5 0.358771 0.715021 0.663782
O O6 0.358409 0.836129 0.816199
O O7 0.500000 0.767019 0.000000
O O8 0.221291 0.252451 0.069170
O O9 0.156464 0.388364 0.010093
O O10 0.143576 0.322069 0.771457
O O11 0.856235 0.166764 0.269537
O O12 0.000000 0.094220 0.500000
O O13 0.866998 0.000000 0.257077
O O14 0.649901 0.243474 0.566167
O O15 0.712003 0.382359 0.616038
O O16 0.326558 0.000000 0.800461
#
# Coordination Sequence:
#
# PCOD9171273 Si02
#       7
#     8   8   8   8   8   8   8
#     4   9  17  32  48  71 100 133 170 204 244 291
#     4   9  19  35  54  73  97 132 174 212 243 290
#     4   8  17  30  47  68  96 127 165 204 241 288
#     4  10  18  27  44  71 104 133 161 200 247 298
#     4  10  18  30  52  76  99 129 168 211 245 294
#     4   9  16  29  47  71  95 128 167 207 239 285
#     4  10  20  33  51  76 101 129 164 208 257 299
#
# _framework density 18.347643000000001
#
# number of rings (size 3 to 8) (size 9 to 14) (size 15 to 20)
#    0.000    2.714    1.429    0.429    0.000    3.143 
#    0.000    0.714    0.000    3.429    0.000    9.000 
#    0.000    0.000    0.000    0.000    0.000    0.000 
#
# Total GULP energy -155942.896991 kJ/mol
# GULP energy per Si atom -5569.389178 kJ/mol
# Density = 1.830588 g / cm^3
# Si number density = 18.347643 Si / 1000 Ang^3
#
#
#
# Elastic Constant Matrix: (Units=GPa)
#
#
# Indices 1 2 3 4 5 6 
#
# 1 65.3142 11.8065 17.6635 0.0000 -13.4395 0.0000
# 2 11.8065 57.6804 18.3372 0.0000 3.4911 0.0000
# 3 17.6635 18.3372 58.9380 0.0000 -23.8946 0.0000
# 4 0.0000 0.0000 0.0000 11.8205 0.0000 -1.4449
# 5 -13.4395 3.4911 -23.8946 0.0000 42.0197 0.0000
# 6 0.0000 0.0000 0.0000 -1.4449 0.0000 13.3390
#
#
#
# Elastic Compliance Matrix: (Units=1/GPa)
#
#
# Indices 1 2 3 4 5 6 
#
# 1 0.017443 -0.003046 -0.002489 0.000000 0.004417 0.000000
# 2 -0.003046 0.021243 -0.008846 0.000000 -0.007770 0.000000
# 3 -0.002489 -0.008846 0.026565 0.000000 0.015045 0.000000
# 4 0.000000 0.000000 0.000000 0.085734 0.000000 0.009287
# 5 0.004417 -0.007770 0.015045 0.000000 0.034412 0.000000
# 6 0.000000 0.000000 0.000000 0.009287 0.000000 0.075974
#
#
# Mechanical properties :
#
#
# Convention : Reuss Voigt Hill
#
# Bulk Modulus (GPa) = 27.40690 30.83858 29.12274
# Shear Modulus (GPa) = 16.53999 22.37754 19.45877
#
# Velocity S-wave (km/s) = 3.00572 3.49612 3.26016
# Velocity P-wave (km/s) = 5.19767 5.75687 5.48440
#
# Compressibility (1/GPa) = 0.03648717
#
# Stress axis : x y z
#
# Youngs Moduli (GPa) = 57.32871 47.07420 37.64375
#
# Poissons Ratio (x) = 0.14341 0.09371
# Poissons Ratio (y) = 0.17464 0.33301
# Poissons Ratio (z) = 0.14271 0.41643
#
# Static dielectric constant tensor:
#      x y z
#    x 1.688810 0.000000 -0.021640 
#    y 0.000000 1.610660 0.000000 
#    z -0.021640 0.000000 1.677730 
# 
# From -- ./inp_files/189248.got.cif
#   From: 2010.05.17/outbox.cif.g08.bks.cpg/sg12_95_cif.got.tgz:189248.got - 2010.06.03 13:09:07.
