data_PCOD9171147
_publ_section_title
;
Structure prediction by ZEFSAII (Michael W. Deem and Ramdas Pophale) SiO2 
 PCOD9171147
Probable space group: C 2/M
;
_chemical_formula_sum "Si O2"
_cell_formula_units_Z 64
_cell_length_a 26.345463
_cell_length_b 7.642754
_cell_length_c 22.234368
_cell_angle_alpha 90.000000
_cell_angle_beta 53.315607
_cell_angle_gamma 90.000000
_cell_volume 3590.223766
_symmetry_space_group_name_H-M "C 2/M"
_symmetry_group_IT_number 12
_symmetry_cell_setting 'monoclinic'
loop_
_space_group_symop_operation_xyz
x,y,z
-x,y,-z
-x,-y,-z
x,-y,z
1/2+x,1/2+y,z
1/2-x,1/2+y,-z
1/2-x,1/2-y,-z
1/2+x,1/2-y,z
loop_
_atom_site_type_symbol
_atom_site_label
_atom_site_fract_x
_atom_site_fract_y
_atom_site_fract_z
Si Si1 0.276670 0.209404 0.837114
Si Si2 0.757721 0.796556 0.594282
Si Si3 0.895732 0.792725 0.837322
Si Si4 0.844404 0.707467 0.427149
Si Si5 0.309973 0.290083 0.000117
Si Si6 0.456522 0.714054 0.586378
Si Si7 0.312054 0.709383 0.678523
Si Si8 0.490485 0.288412 0.321985
O O1 0.339634 0.273372 0.827577
O O2 0.214614 0.273557 0.917681
O O3 0.279843 0.258766 0.765431
O O4 0.277946 0.000000 0.840639
O O5 0.819068 0.786583 0.507570
O O6 0.700332 0.721818 0.594892
O O7 0.774852 0.719372 0.646929
O O8 0.741497 0.000000 0.615577
O O9 0.960204 0.722000 0.763092
O O10 0.904897 0.000000 0.839555
O O11 0.869184 0.720355 0.919519
O O12 0.833215 0.500000 0.440034
O O13 0.917912 0.738964 0.364253
O O14 0.317599 0.500000 0.998841
O O15 0.250000 0.250000 0.000000
O O16 0.500000 0.769179 0.500000
O O17 0.455997 0.500000 0.587203
O O18 0.384320 0.774820 0.630378
O O19 0.485292 0.770959 0.629681
O O20 0.316749 0.500000 0.667037
O O21 0.493829 0.500000 0.319709
#
# Coordination Sequence:
#
# PCOD9171147 Si02
#       8
#     8   8   8   8   8   8   8   8
#     4  10  18  27  41  66  98 122 143 182 236 275
#     4   9  19  35  53  68  85 117 159 194 225 266
#     4   9  16  29  46  63  87 123 164 188 208 261
#     4  10  20  33  49  70  93 116 147 193 240 271
#     4   8  15  26  41  61  87 120 152 184 219 261
#     4   9  16  26  42  63  85 112 149 185 214 252
#     4  10  18  31  49  66  87 119 157 190 217 263
#     4  10  18  29  46  67  90 121 156 186 219 265
#
# _framework density 17.826186
#
# number of rings (size 3 to 8) (size 9 to 14) (size 15 to 20)
#    0.000    2.625    1.250    1.500    0.000    4.000 
#    0.000    0.000    0.000    1.500    0.000    0.875 
#    0.000    7.000    0.000    0.000    0.000    0.000 
#
# Total GULP energy -178342.251734 kJ/mol
# GULP energy per Si atom -5573.195367 kJ/mol
# Density = 1.778561 g / cm^3
# Si number density = 17.826186 Si / 1000 Ang^3
#
#
#
# Elastic Constant Matrix: (Units=GPa)
#
#
# Indices 1 2 3 4 5 6 
#
# 1 73.3672 -3.0421 73.9088 -0.0006 2.2965 -0.0010
# 2 -3.0421 32.2616 -7.1360 -0.0116 1.1625 -0.0103
# 3 73.9088 -7.1360 167.5185 0.0015 5.8972 -0.0057
# 4 -0.0006 -0.0116 0.0015 7.1757 -0.0003 -2.8315
# 5 2.2965 1.1625 5.8972 -0.0003 18.8047 0.0021
# 6 -0.0010 -0.0103 -0.0057 -2.8315 0.0021 9.5738
#
#
#
# Elastic Compliance Matrix: (Units=1/GPa)
#
#
# Indices 1 2 3 4 5 6 
#
# 1 0.024538 -0.000100 -0.010845 0.000003 0.000410 -0.000003
# 2 -0.000100 0.031398 0.001466 0.000073 -0.002388 0.000057
# 3 -0.010845 0.001466 0.010893 0.000002 -0.002182 0.000008
# 4 0.000003 0.000073 0.000002 0.157771 -0.000008 0.046661
# 5 0.000410 -0.002388 -0.002182 -0.000008 0.053960 -0.000018
# 6 -0.000003 0.000057 0.000008 0.046661 -0.000018 0.118251
#
#
# Mechanical properties :
#
#
# Convention : Reuss Voigt Hill
#
# Bulk Modulus (GPa) = 20.88952 44.51209 32.70080
# Shear Modulus (GPa) = 11.58143 21.07196 16.32669
#
# Velocity S-wave (km/s) = 2.55166 3.44187 3.02964
# Velocity P-wave (km/s) = 4.51942 6.38902 5.53375
#
# Compressibility (1/GPa) = 0.04787090
#
# Stress axis : x y z
#
# Youngs Moduli (GPa) = 40.75327 31.84966 91.79833
#
# Poissons Ratio (x) = 0.00318 0.99553
# Poissons Ratio (y) = 0.00407 -0.13454
# Poissons Ratio (z) = 0.44196 -0.04668
#
# Static dielectric constant tensor:
#      x y z
#    x 1.587110 0.000000 -0.000360 
#    y 0.000000 1.650790 0.000000 
#    z -0.000360 0.000000 1.651190 
# 
# From -- ./inp_files/326583.got.cif
#   From: 2010.05.17/outbox.cif.g08.bks.cpg/sg12_164_cif.got.tgz:326583.got - 2010.06.03 13:09:07.
