data_PCOD9172992
_publ_section_title
;
Structure prediction by ZEFSAII (Michael W. Deem and Ramdas Pophale) SiO2 
 PCOD9172992
Probable space group: C 2/M
;
_chemical_formula_sum "Si O2"
_cell_formula_units_Z 64
_cell_length_a 19.196313
_cell_length_b 7.488605
_cell_length_c 18.139152
_cell_angle_alpha 90.000000
_cell_angle_beta 88.316969
_cell_angle_gamma 90.000000
_cell_volume 2606.443602
_symmetry_space_group_name_H-M "C 2/M"
_symmetry_group_IT_number 12
_symmetry_cell_setting 'monoclinic'
loop_
_space_group_symop_operation_xyz
x,y,z
-x,y,-z
-x,-y,-z
x,-y,z
1/2+x,1/2+y,z
1/2-x,1/2+y,-z
1/2-x,1/2-y,-z
1/2+x,1/2-y,z
loop_
_atom_site_type_symbol
_atom_site_label
_atom_site_fract_x
_atom_site_fract_y
_atom_site_fract_z
Si Si1 0.832809 0.719284 0.181965
Si Si2 0.574442 0.780888 0.529545
Si Si3 0.512744 0.799339 0.808431
Si Si4 0.434105 0.195044 0.964915
Si Si5 0.166891 0.708783 0.652133
Si Si6 0.378767 0.781205 0.747941
Si Si7 0.294862 0.700414 0.898255
Si Si8 0.685886 0.785050 0.405440
O O1 0.828137 0.500000 0.178608
O O2 0.913074 0.776456 0.170354
O O3 0.816399 0.779713 0.266567
O O4 0.778671 0.787996 0.122328
O O5 0.500000 0.724058 0.500000
O O6 0.599981 0.720757 0.609752
O O7 0.634818 0.723786 0.471119
O O8 0.573204 0.000000 0.531097
O O9 0.463756 0.813594 0.881249
O O10 0.459122 0.718999 0.751752
O O11 0.528990 0.000000 0.781247
O O12 0.353184 0.240202 0.955223
O O13 0.431611 0.000000 0.002603
O O14 0.500000 0.295103 0.000000
O O15 0.154526 0.500000 0.663951
O O16 0.234264 0.726392 0.598137
O O17 0.334311 0.707566 0.817680
O O18 0.345712 0.728479 0.672042
O O19 0.377956 0.000000 0.753300
O O20 0.279033 0.500000 0.921485
O O21 0.686019 0.000000 0.407334
#
# Coordination Sequence:
#
# PCOD9172992 Si02
#       8
#     8   8   8   8   8   8   8   8
#     4   9  17  28  46  73  99 126 161 202 245 287
#     4   9  19  32  48  73  99 124 166 218 254 287
#     4   8  15  28  47  70  95 124 161 199 234 278
#     4   9  18  34  55  76  99 131 167 198 234 283
#     4  10  19  32  50  70  96 131 166 202 248 300
#     4   9  17  29  48  71  94 126 165 204 244 287
#     4  10  18  30  49  74 102 127 159 199 240 289
#     4  10  19  31  49  72  97 126 164 208 252 295
#
# _framework density 24.554531000000001
#
# number of rings (size 3 to 8) (size 9 to 14) (size 15 to 20)
#    0.000    2.750    1.250    1.500    1.750    0.250 
#    0.000    0.625    0.000   10.500    0.000    0.000 
#    0.000    0.000    0.000    0.000    0.000    0.000 
#
# Total GULP energy -178388.088801 kJ/mol
# GULP energy per Si atom -5574.627775 kJ/mol
# Density = 2.449864 g / cm^3
# Si number density = 24.554531 Si / 1000 Ang^3
#
#
#
# Elastic Constant Matrix: (Units=GPa)
#
#
# Indices 1 2 3 4 5 6 
#
# 1 190.6131 -0.4780 41.2356 0.0000 45.8516 0.0000
# 2 -0.4780 61.3592 1.7122 0.0000 7.3070 0.0000
# 3 41.2356 1.7122 67.5690 0.0000 23.5775 0.0000
# 4 0.0000 0.0000 0.0000 13.1362 0.0000 -20.8596
# 5 45.8516 7.3070 23.5775 0.0000 60.5842 0.0000
# 6 0.0000 0.0000 0.0000 -20.8596 0.0000 -24.6351
#
#
#
# Elastic Compliance Matrix: (Units=1/GPa)
#
#
# Indices 1 2 3 4 5 6 
#
# 1 0.006848 0.000629 -0.002731 0.000000 -0.004196 0.000000
# 2 0.000629 0.016599 0.000070 0.000000 -0.002505 0.000000
# 3 -0.002731 0.000070 0.018221 0.000000 -0.005032 0.000000
# 4 0.000000 0.000000 0.000000 0.032469 0.000000 -0.027493
# 5 -0.004196 -0.002505 -0.005032 0.000000 0.021942 0.000000
# 6 0.000000 0.000000 0.000000 -0.027493 0.000000 -0.017313
#
#
# Mechanical properties :
#
#
# Convention : Reuss Voigt Hill
#
# Bulk Modulus (GPa) = 26.59374 44.94232 35.76803
# Shear Modulus (GPa) = 52.43101 28.28847 40.35974
#
# Velocity S-wave (km/s) = 4.62593 3.39789 4.05863
# Velocity P-wave (km/s) = 6.27585 5.80836 6.04663
#
# Compressibility (1/GPa) = 0.03760283
#
# Stress axis : x y z
#
# Youngs Moduli (GPa) = 146.03066 60.24542 54.88298
#
# Poissons Ratio (x) = -0.03791 0.14988
# Poissons Ratio (y) = -0.09188 -0.00382
# Poissons Ratio (z) = 0.39881 -0.00419
#
# Static dielectric constant tensor:
#      x y z
#    x 1.997690 0.000000 0.042370 
#    y 0.000000 1.964700 0.000000 
#    z 0.042370 0.000000 1.970450 
# 
# From -- ./inp_files/314201.got.cif
#   From: 2010.05.17/outbox.cif.g08.bks.cpg/sg12_158_cif.got.tgz:314201.got - 2010.06.03 13:09:07.
