data_PCOD9172146
_publ_section_title
;
Structure prediction by ZEFSAII (Michael W. Deem and Ramdas Pophale) SiO2 
 PCOD9172146
Probable space group: C 2/M
;
_chemical_formula_sum "Si O2"
_cell_formula_units_Z 52
_cell_length_a 13.199253
_cell_length_b 19.543725
_cell_length_c 11.454127
_cell_angle_alpha 90.000000
_cell_angle_beta 93.222124
_cell_angle_gamma 90.000000
_cell_volume 2950.065009
_symmetry_space_group_name_H-M "C 2/M"
_symmetry_group_IT_number 12
_symmetry_cell_setting 'monoclinic'
loop_
_space_group_symop_operation_xyz
x,y,z
-x,y,-z
-x,-y,-z
x,-y,z
1/2+x,1/2+y,z
1/2-x,1/2+y,-z
1/2-x,1/2-y,-z
1/2+x,1/2-y,z
loop_
_atom_site_type_symbol
_atom_site_label
_atom_site_fract_x
_atom_site_fract_y
_atom_site_fract_z
Si Si1 0.962998 0.419371 0.278267
Si Si2 0.619405 0.077312 0.974020
Si Si3 0.363561 0.729446 0.644773
Si Si4 0.500000 0.362588 0.500000
Si Si5 0.670298 0.847815 0.547841
Si Si6 0.799014 0.922553 0.376894
Si Si7 0.335798 0.152685 0.802376
O O1 0.966572 0.500000 0.305042
O O2 0.885350 0.409532 0.164261
O O3 0.921477 0.374706 0.381389
O O4 0.073242 0.394296 0.244072
O O5 0.658603 0.000000 0.998696
O O6 0.500000 0.076288 0.000000
O O7 0.669650 0.132674 0.062265
O O8 0.454758 0.682964 0.603210
O O9 0.356972 0.788840 0.545981
O O10 0.261049 0.684912 0.630083
O O11 0.366020 0.770550 0.766499
O O12 0.407712 0.405098 0.439255
O O13 0.718985 0.908985 0.475853
O O14 0.765120 0.870239 0.273174
O O15 0.794066 0.000000 0.334477
#
# Coordination Sequence:
#
# PCOD9172146 Si02
#       7
#     8   8   8   4   8   8   8
#     4  10  18  29  48  71  94 117 142 180 229 272
#     4   8  15  28  44  65  92 119 145 175 219 269
#     4   9  18  31  46  64  88 122 155 181 215 262
#     4  10  19  32  46  62  89 124 154 182 218 260
#     4   9  18  31  46  66  93 120 147 181 222 268
#     4  10  19  30  46  68  91 116 150 188 222 260
#     4  10  18  29  47  68  93 118 146 182 220 267
#
# _framework density 17.626729999999998
#
# number of rings (size 3 to 8) (size 9 to 14) (size 15 to 20)
#    0.000    2.615    0.000    4.846    0.000    1.846 
#    0.000    4.615    0.000    1.846    0.000    3.231 
#    0.000   16.000    0.000    0.000    0.000    0.000 
#
# Total GULP energy -144874.137578 kJ/mol
# GULP energy per Si atom -5572.082215 kJ/mol
# Density = 1.758661 g / cm^3
# Si number density = 17.626730 Si / 1000 Ang^3
#
#
#
# Elastic Constant Matrix: (Units=GPa)
#
#
# Indices 1 2 3 4 5 6 
#
# 1 37.1996 -6.8552 1.5618 0.0000 2.9238 0.0000
# 2 -6.8552 37.3521 5.0756 0.0000 -1.9984 0.0000
# 3 1.5618 5.0756 44.6517 0.0000 12.3864 0.0000
# 4 0.0000 0.0000 0.0000 21.4283 0.0000 7.0783
# 5 2.9238 -1.9984 12.3864 0.0000 15.6138 0.0000
# 6 0.0000 0.0000 0.0000 7.0783 0.0000 9.4910
#
#
#
# Elastic Compliance Matrix: (Units=1/GPa)
#
#
# Indices 1 2 3 4 5 6 
#
# 1 0.028157 0.004980 -0.000340 0.000000 -0.004365 0.000000
# 2 0.004980 0.028796 -0.005399 0.000000 0.007036 0.000000
# 3 -0.000340 -0.005399 0.029740 0.000000 -0.024220 0.000000
# 4 0.000000 0.000000 0.000000 0.061922 0.000000 -0.046181
# 5 -0.004365 0.007036 -0.024220 0.000000 0.084978 0.000000
# 6 0.000000 0.000000 0.000000 -0.046181 0.000000 0.139805
#
#
# Mechanical properties :
#
#
# Convention : Reuss Voigt Hill
#
# Bulk Modulus (GPa) = 11.74049 13.19642 12.46845
# Shear Modulus (GPa) = 12.39745 17.26802 14.83273
#
# Velocity S-wave (km/s) = 2.65492 3.13333 2.90399
# Velocity P-wave (km/s) = 4.00914 4.53797 4.28173
#
# Compressibility (1/GPa) = 0.08517532
#
# Stress axis : x y z
#
# Youngs Moduli (GPa) = 35.51496 34.72652 33.62489
#
# Poissons Ratio (x) = -0.17295 0.01143
# Poissons Ratio (y) = -0.17688 0.18155
# Poissons Ratio (z) = 0.01207 0.18750
#
# Static dielectric constant tensor:
#      x y z
#    x 1.594720 0.000000 0.013220 
#    y 0.000000 1.609360 0.000000 
#    z 0.013220 0.000000 1.660030 
# 
# From -- ./inp_files/146641.got.cif
#   From: 2010.05.17/outbox.cif.g08.bks.cpg/sg12_74_cif.got.tgz:146641.got - 2010.06.03 13:09:07.
