data_PCOD9172912
_publ_section_title
;
Structure prediction by ZEFSAII (Michael W. Deem and Ramdas Pophale) SiO2 
 PCOD9172912
Probable space group: C 2/M
;
_chemical_formula_sum "Si O2"
_cell_formula_units_Z 56
_cell_length_a 14.338214
_cell_length_b 14.250082
_cell_length_c 12.741955
_cell_angle_alpha 90.000000
_cell_angle_beta 55.761528
_cell_angle_gamma 90.000000
_cell_volume 2152.276115
_symmetry_space_group_name_H-M "C 2/M"
_symmetry_group_IT_number 12
_symmetry_cell_setting 'monoclinic'
loop_
_space_group_symop_operation_xyz
x,y,z
-x,y,-z
-x,-y,-z
x,-y,z
1/2+x,1/2+y,z
1/2-x,1/2+y,-z
1/2-x,1/2-y,-z
1/2+x,1/2-y,z
loop_
_atom_site_type_symbol
_atom_site_label
_atom_site_fract_x
_atom_site_fract_y
_atom_site_fract_z
Si Si1 0.500088 0.397702 0.714065
Si Si2 0.465669 0.000000 0.349926
Si Si3 0.714152 0.397702 0.285936
Si Si4 0.991477 0.303300 0.734024
Si Si5 0.394661 0.105332 0.988596
Si Si6 0.184405 0.500000 0.349926
Si Si7 0.616743 0.394667 0.988595
Si Si8 0.225500 0.303300 0.265977
O O1 0.558283 0.500000 0.679474
O O2 0.416197 0.398379 0.667606
O O3 0.556209 0.295240 0.685354
O O4 0.418848 0.393135 0.868100
O O5 0.442133 0.098983 0.309363
O O6 0.596640 0.000000 0.306721
O O7 0.392424 0.000000 0.500000
O O8 0.737756 0.500000 0.320528
O O9 0.741561 0.295240 0.314648
O O10 0.786947 0.393135 0.131901
O O11 0.915591 0.317497 0.886694
O O12 0.903653 0.303197 0.692695
O O13 0.396456 0.000000 0.938902
O O14 0.500000 0.112491 0.000000
O O15 0.248503 0.401016 0.309364
O O16 0.664642 0.500000 0.938901
O O17 0.697716 0.317496 0.886693
O O18 0.500000 0.387508 0.000000
#
# Coordination Sequence:
#
# PCOD9172912 Si02
#       8
#     8   4   8   8   8   4   8   8
#     4   9  18  30  44  65  96 132 164 189 226 288
#     4   9  18  32  51  74  94 116 158 211 250 279
#     4   9  18  30  44  65  96 132 164 189 226 288
#     4  10  18  30  49  69  96 132 162 196 241 282
#     4  10  19  29  43  69 104 132 162 192 233 287
#     4   9  18  32  51  74  94 116 158 211 250 279
#     4  10  19  29  43  69 104 132 162 192 233 287
#     4  10  18  30  49  69  96 132 162 196 241 282
#
# _framework density 26.018967
#
# number of rings (size 3 to 8) (size 9 to 14) (size 15 to 20)
#    0.000    2.429    1.429    1.714    0.000    5.714 
#    0.000    0.000    0.000    0.857    0.000   10.000 
#    0.000    0.000    0.000    0.000    0.000    1.143 
#
# Total GULP energy -156349.856403 kJ/mol
# GULP energy per Si atom -5583.923443 kJ/mol
# Density = 2.595975 g / cm^3
# Si number density = 26.018967 Si / 1000 Ang^3
#
#
#
# Elastic Constant Matrix: (Units=GPa)
#
#
# Indices 1 2 3 4 5 6 
#
# 1 84.6767 22.2922 -2.5868 0.0000 4.0886 0.0000
# 2 22.2922 311.7925 11.0477 0.0000 0.6460 0.0000
# 3 -2.5868 11.0477 30.4958 0.0000 -0.9766 0.0000
# 4 0.0000 0.0000 0.0000 4.1650 0.0000 1.0604
# 5 4.0886 0.6460 -0.9766 0.0000 8.3203 0.0000
# 6 0.0000 0.0000 0.0000 1.0604 0.0000 22.6351
#
#
#
# Elastic Compliance Matrix: (Units=1/GPa)
#
#
# Indices 1 2 3 4 5 6 
#
# 1 0.012370 -0.000915 0.001193 0.000000 -0.005868 0.000000
# 2 -0.000915 0.003318 -0.001278 0.000000 0.000042 0.000000
# 3 0.001193 -0.001278 0.033466 0.000000 0.003441 0.000000
# 4 0.000000 0.000000 0.000000 0.242996 0.000000 -0.011384
# 5 -0.005868 0.000042 0.003441 0.000000 0.123473 0.000000
# 6 0.000000 0.000000 0.000000 -0.011384 0.000000 0.044713
#
#
# Mechanical properties :
#
#
# Convention : Reuss Voigt Hill
#
# Bulk Modulus (GPa) = 21.20720 54.27457 37.74089
# Shear Modulus (GPa) = 10.45910 33.43819 21.94865
#
# Velocity S-wave (km/s) = 2.00712 3.58878 2.90757
# Velocity P-wave (km/s) = 3.67964 6.17069 5.08021
#
# Compressibility (1/GPa) = 0.04715379
#
# Stress axis : x y z
#
# Youngs Moduli (GPa) = 80.83983 301.39999 29.88118
#
# Poissons Ratio (x) = 0.27564 -0.03564
# Poissons Ratio (y) = 0.07393 0.03819
# Poissons Ratio (z) = -0.09642 0.38525
#
# Static dielectric constant tensor:
#      x y z
#    x 1.979990 0.000000 -0.001850 
#    y 0.000000 2.153490 0.000000 
#    z -0.001850 0.000000 2.012210 
# 
# From -- ./inp_files/224707.got.cif
#   From: 2010.05.17/outbox.cif.g08.bks.cpg/sg12_113_cif.got.tgz:224707.got - 2010.06.03 13:09:07.
