data_PCOD9172131
_publ_section_title
;
Structure prediction by ZEFSAII (Michael W. Deem and Ramdas Pophale) SiO2 
 PCOD9172131
Probable space group: C 2/M
;
_chemical_formula_sum "Si O2"
_cell_formula_units_Z 64
_cell_length_a 28.323540
_cell_length_b 18.190144
_cell_length_c 25.165323
_cell_angle_alpha 90.000000
_cell_angle_beta 159.996720
_cell_angle_gamma 90.000000
_cell_volume 4435.128066
_symmetry_space_group_name_H-M "C 2/M"
_symmetry_group_IT_number 12
_symmetry_cell_setting 'monoclinic'
loop_
_space_group_symop_operation_xyz
x,y,z
-x,y,-z
-x,-y,-z
x,-y,z
1/2+x,1/2+y,z
1/2-x,1/2+y,-z
1/2-x,1/2-y,-z
1/2+x,1/2-y,z
loop_
_atom_site_type_symbol
_atom_site_label
_atom_site_fract_x
_atom_site_fract_y
_atom_site_fract_z
Si Si1 0.931564 0.705444 0.739961
Si Si2 0.048271 0.322522 0.693577
Si Si3 0.633945 0.325226 0.995294
Si Si4 0.588612 0.413242 0.838791
Si Si5 0.095448 0.416216 0.549185
Si Si6 0.866475 0.086076 0.895649
Si Si7 0.096657 0.587480 0.852281
Si Si8 0.615251 0.702360 0.418749
O O1 0.778239 0.692517 0.600430
O O2 0.906508 0.751495 0.658961
O O3 0.030606 0.756381 0.880504
O O4 0.011711 0.631977 0.806760
O O5 0.054432 0.377159 0.750944
O O6 0.974012 0.365479 0.567832
O O7 0.961188 0.251327 0.618105
O O8 0.206018 0.303866 0.845086
O O9 0.597149 0.379541 0.907240
O O10 0.622091 0.367080 0.038678
O O11 0.567604 0.500000 0.819617
O O12 0.467842 0.372410 0.679451
O O13 0.738215 0.399059 0.970106
O O14 0.111184 0.500000 0.545234
O O15 0.241042 0.389197 0.725500
O O16 0.000000 0.419069 0.500000
O O17 0.840044 0.000000 0.882122
O O18 0.000000 0.089264 0.000000
O O19 0.072606 0.500000 0.827824
#
# Coordination Sequence:
#
# PCOD9172131 Si02
#       8
#     8   8   8   8   8   8   8   8
#     4   9  18  30  43  62  90 118 146 183 224 270
#     4  10  18  29  47  66  88 120 155 188 222 259
#     4  10  18  30  47  64  88 122 155 185 223 264
#     4   9  17  29  47  67  88 116 151 187 222 266
#     4  10  19  31  46  65  90 119 154 192 223 254
#     4  10  21  33  44  63  92 123 154 189 225 260
#     4   9  17  29  46  67  90 117 150 184 222 269
#     4   9  18  30  43  63  89 116 148 185 224 266
#
# _framework density 14.430249
#
# number of rings (size 3 to 8) (size 9 to 14) (size 15 to 20)
#    0.000    2.500    1.250    1.500    1.750    4.500 
#    0.000    0.000    0.000    0.000    0.000    0.000 
#    0.000    2.000    0.000    0.125    0.000    0.000 
#
# Total GULP energy -178284.312262 kJ/mol
# GULP energy per Si atom -5571.384758 kJ/mol
# Density = 1.439740 g / cm^3
# Si number density = 14.430249 Si / 1000 Ang^3
#
#
#
# Elastic Constant Matrix: (Units=GPa)
#
#
# Indices 1 2 3 4 5 6 
#
# 1 58.5732 39.1205 49.5642 -0.0023 5.0402 -0.0015
# 2 39.1205 79.0300 65.7143 -0.0071 9.4105 -0.0044
# 3 49.5642 65.7143 130.0575 -0.0068 6.9517 -0.0063
# 4 -0.0023 -0.0071 -0.0068 25.7421 -0.0033 -5.4674
# 5 5.0402 9.4105 6.9517 -0.0033 19.1641 -0.0018
# 6 -0.0015 -0.0044 -0.0063 -5.4674 -0.0018 30.3317
#
#
#
# Elastic Compliance Matrix: (Units=1/GPa)
#
#
# Indices 1 2 3 4 5 6 
#
# 1 0.028295 -0.008575 -0.006402 -0.000002 -0.000909 -0.000002
# 2 -0.008575 0.025339 -0.009168 0.000003 -0.006861 0.000002
# 3 -0.006402 -0.009168 0.014716 0.000001 0.000848 0.000002
# 4 -0.000002 0.000003 0.000001 0.040393 0.000006 0.007281
# 5 -0.000909 -0.006861 0.000848 0.000006 0.055482 0.000004
# 6 -0.000002 0.000002 0.000002 0.007281 0.000004 0.034281
#
#
# Mechanical properties :
#
#
# Convention : Reuss Voigt Hill
#
# Bulk Modulus (GPa) = 49.85181 64.05097 56.95139
# Shear Modulus (GPa) = 19.72524 22.59836 21.16180
#
# Velocity S-wave (km/s) = 3.70122 3.96162 3.83363
# Velocity P-wave (km/s) = 7.27235 8.08757 7.69077
#
# Compressibility (1/GPa) = 0.02005945
#
# Stress axis : x y z
#
# Youngs Moduli (GPa) = 35.34170 39.46552 67.95421
#
# Poissons Ratio (x) = 0.33841 0.43504
# Poissons Ratio (y) = 0.30305 0.62302
# Poissons Ratio (z) = 0.22625 0.36183
#
# Static dielectric constant tensor:
#      x y z
#    x 1.417620 0.000000 -0.024490 
#    y 0.000000 1.461880 0.000000 
#    z -0.024490 0.000000 1.423930 
# 
# From -- ./inp_files/97697.got.cif
#   From: 2010.05.17/outbox.cif.g08.bks.cpg/sg12_49_cif.got.tgz:97697.got - 2010.06.03 13:09:07.
