data_PCOD9172194
_publ_section_title
;
Structure prediction by ZEFSAII (Michael W. Deem and Ramdas Pophale) SiO2 
 PCOD9172194
Probable space group: C 2/M
;
_chemical_formula_sum "Si O2"
_cell_formula_units_Z 64
_cell_length_a 25.734421
_cell_length_b 8.661261
_cell_length_c 24.636032
_cell_angle_alpha 90.000000
_cell_angle_beta 133.570860
_cell_angle_gamma 90.000000
_cell_volume 3978.489024
_symmetry_space_group_name_H-M "C 2/M"
_symmetry_group_IT_number 12
_symmetry_cell_setting 'monoclinic'
loop_
_space_group_symop_operation_xyz
x,y,z
-x,y,-z
-x,-y,-z
x,-y,z
1/2+x,1/2+y,z
1/2-x,1/2+y,-z
1/2-x,1/2-y,-z
1/2+x,1/2-y,z
loop_
_atom_site_type_symbol
_atom_site_label
_atom_site_fract_x
_atom_site_fract_y
_atom_site_fract_z
Si Si1 0.417378 0.814815 0.662218
Si Si2 0.059820 0.814033 0.811741
Si Si3 0.977532 0.185095 0.090843
Si Si4 0.777378 0.813394 0.077141
Si Si5 0.364648 0.815073 0.818628
Si Si6 0.845498 0.313383 0.928003
Si Si7 0.302049 0.314587 0.665802
Si Si8 0.692703 0.814188 0.501745
O O1 0.497049 0.756185 0.730258
O O2 0.365286 0.746372 0.671543
O O3 0.383263 0.768328 0.579255
O O4 0.415262 0.000000 0.665112
O O5 0.044642 0.771280 0.863644
O O6 0.140330 0.764784 0.854791
O O7 0.055796 0.000000 0.805447
O O8 0.054708 0.254998 0.132848
O O9 0.981631 0.000000 0.091071
O O10 0.916961 0.245162 0.006432
O O11 0.722595 0.765105 0.084855
O O12 0.776769 0.000000 0.073963
O O13 0.750000 0.750000 0.000000
O O14 0.340303 0.767956 0.861381
O O15 0.315921 0.749929 0.735312
O O16 0.364905 0.000000 0.815821
O O17 0.850430 0.500000 0.933771
O O18 0.306662 0.500000 0.670221
O O19 0.226059 0.267240 0.583618
O O20 0.750000 0.750000 0.500000
O O21 0.694719 0.000000 0.502284
#
# Coordination Sequence:
#
# PCOD9172194 Si02
#       8
#     8   8   8   8   8   8   8   8
#     4  10  18  29  47  71  98 128 158 192 233 284
#     4  10  20  32  48  72  99 126 157 196 240 283
#     4  11  21  33  50  72  98 128 160 196 238 285
#     4  10  20  36  54  70  91 121 159 202 245 282
#     4  11  22  34  48  70  98 129 164 198 233 283
#     4  10  22  37  52  69  93 126 164 204 242 278
#     4  10  18  30  47  68  97 130 159 193 234 280
#     4   8  16  28  43  66  95 125 157 189 229 279
#
# _framework density 16.086509
#
# number of rings (size 3 to 8) (size 9 to 14) (size 15 to 20)
#    0.000    2.000    2.500    1.875    0.000    4.500 
#    0.000    0.000    0.000    0.000    0.000    0.875 
#    0.000    7.000    0.000    0.000    0.000    0.000 
#
# Total GULP energy -178452.044358 kJ/mol
# GULP energy per Si atom -5576.626386 kJ/mol
# Density = 1.604990 g / cm^3
# Si number density = 16.086509 Si / 1000 Ang^3
#
#
#
# Elastic Constant Matrix: (Units=GPa)
#
#
# Indices 1 2 3 4 5 6 
#
# 1 78.8512 24.2733 73.5485 0.0000 -13.9356 0.0000
# 2 24.2733 20.0152 36.1561 0.0000 -3.2082 0.0000
# 3 73.5485 36.1561 191.9593 0.0000 -2.1553 0.0000
# 4 0.0000 0.0000 0.0000 26.4703 0.0000 1.6513
# 5 -13.9356 -3.2082 -2.1553 0.0000 14.9088 0.0000
# 6 0.0000 0.0000 0.0000 1.6513 0.0000 14.6481
#
#
#
# Elastic Compliance Matrix: (Units=1/GPa)
#
#
# Indices 1 2 3 4 5 6 
#
# 1 0.029294 -0.018375 -0.007512 0.000000 0.022342 0.000000
# 2 -0.018375 0.090405 -0.009978 0.000000 0.000836 0.000000
# 3 -0.007512 -0.009978 0.009880 0.000000 -0.007741 0.000000
# 4 0.000000 0.000000 0.000000 0.038046 0.000000 -0.004289
# 5 0.022342 0.000836 -0.007741 0.000000 0.087019 0.000000
# 6 0.000000 0.000000 0.000000 -0.004289 0.000000 0.068751
#
#
# Mechanical properties :
#
#
# Convention : Reuss Voigt Hill
#
# Bulk Modulus (GPa) = 17.28649 62.08684 39.68666
# Shear Modulus (GPa) = 12.06536 21.66198 16.86367
#
# Velocity S-wave (km/s) = 2.74164 3.67358 3.24128
# Velocity P-wave (km/s) = 4.55976 7.52814 6.22352
#
# Compressibility (1/GPa) = 0.05784864
#
# Stress axis : x y z
#
# Youngs Moduli (GPa) = 34.13661 11.06129 101.21239
#
# Poissons Ratio (x) = 0.20325 0.76031
# Poissons Ratio (y) = 0.62726 1.00994
# Poissons Ratio (z) = 0.25644 0.11037
#
# Static dielectric constant tensor:
#      x y z
#    x 1.512520 0.000000 -0.001120 
#    y 0.000000 1.567540 0.000000 
#    z -0.001120 0.000000 1.562520 
# 
# From -- ./inp_files/348571.got.cif
#   From: 2010.05.17/outbox.cif.g08.bks.cpg/sg12_175_cif.got.tgz:348571.got - 2010.06.03 13:09:07.
