data_PCOD9172857
_publ_section_title
;
Structure prediction by ZEFSAII (Michael W. Deem and Ramdas Pophale) SiO2 
 PCOD9172857
Probable space group: C 2/M
;
_chemical_formula_sum "Si O2"
_cell_formula_units_Z 36
_cell_length_a 17.520595
_cell_length_b 8.468642
_cell_length_c 11.876905
_cell_angle_alpha 90.000000
_cell_angle_beta 130.183256
_cell_angle_gamma 90.000000
_cell_volume 1346.326906
_symmetry_space_group_name_H-M "C 2/M"
_symmetry_group_IT_number 12
_symmetry_cell_setting 'monoclinic'
loop_
_space_group_symop_operation_xyz
x,y,z
-x,y,-z
-x,-y,-z
x,-y,z
1/2+x,1/2+y,z
1/2-x,1/2+y,-z
1/2-x,1/2-y,-z
1/2+x,1/2-y,z
loop_
_atom_site_type_symbol
_atom_site_label
_atom_site_fract_x
_atom_site_fract_y
_atom_site_fract_z
Si Si1 0.863631 0.500000 0.069977
Si Si2 0.880103 0.835602 0.372567
Si Si3 0.336967 0.313641 0.662518
Si Si4 0.878376 0.500000 0.356050
Si Si5 0.558225 0.666603 0.818574
Si Si6 0.119076 0.500000 0.145888
O O1 0.851478 0.500000 0.195823
O O2 0.914342 0.330264 0.101195
O O3 0.809955 0.500000 0.897729
O O4 0.877833 0.838618 0.234355
O O5 0.000000 0.831257 0.500000
O O6 0.839238 0.665133 0.367460
O O7 0.846177 0.000000 0.393196
O O8 0.326313 0.500000 0.689384
O O9 0.250000 0.250000 0.500000
O O10 0.440133 0.322343 0.687569
O O11 0.359244 0.166779 0.769530
O O12 0.000000 0.500000 0.500000
O O13 0.578181 0.500000 0.899334
O O14 0.000000 0.500000 0.000000
#
# Coordination Sequence:
#
# PCOD9172857 Si02
#       6
#     4   8   8   4   8   4
#     4  10  18  30  48  72 104 130 164 212 263 307
#     4   8  13  22  37  60  92 125 149 196 257 307
#     4  11  22  36  53  72 104 147 186 219 260 319
#     4   8  14  24  40  64  96 128 152 192 255 310
#     4   9  17  28  45  69  97 133 165 207 258 308
#     4  12  22  36  54  78 105 144 176 226 272 306
#
# _framework density 26.739421
#
# number of rings (size 3 to 8) (size 9 to 14) (size 15 to 20)
#    0.000    2.444    3.333    0.000    0.000    1.333 
#    0.000    0.000    0.000    0.000    0.000    0.000 
#    0.000   28.444    2.667    0.000    0.000    0.889 
#
# Total GULP energy -100231.660546 kJ/mol
# GULP energy per Si atom -5568.425586 kJ/mol
# Density = 2.667856 g / cm^3
# Si number density = 26.739421 Si / 1000 Ang^3
#
#
#
# Elastic Constant Matrix: (Units=GPa)
#
#
# Indices 1 2 3 4 5 6 
#
# 1 100.3190 55.6670 43.0322 0.0000 -1.8803 0.0000
# 2 55.6670 374.0289 67.8859 0.0000 5.5444 0.0000
# 3 43.0322 67.8859 116.0002 0.0000 -6.0685 0.0000
# 4 0.0000 0.0000 0.0000 19.2813 0.0000 15.6746
# 5 -1.8803 5.5444 -6.0685 0.0000 39.0568 0.0000
# 6 0.0000 0.0000 0.0000 15.6746 0.0000 22.7921
#
#
#
# Elastic Compliance Matrix: (Units=1/GPa)
#
#
# Indices 1 2 3 4 5 6 
#
# 1 0.012259 -0.001122 -0.003884 0.000000 0.000146 0.000000
# 2 -0.001122 0.003113 -0.001443 0.000000 -0.000720 0.000000
# 3 -0.003884 -0.001443 0.010996 0.000000 0.001727 0.000000
# 4 0.000000 0.000000 0.000000 0.117625 0.000000 -0.080893
# 5 0.000146 -0.000720 0.001727 0.000000 0.025981 0.000000
# 6 0.000000 0.000000 0.000000 -0.080893 0.000000 0.099507
#
#
# Mechanical properties :
#
#
# Convention : Reuss Voigt Hill
#
# Bulk Modulus (GPa) = 74.23273 102.61313 88.42293
# Shear Modulus (GPa) = 17.42946 44.47693 30.95319
#
# Velocity S-wave (km/s) = 2.55586 4.08284 3.40602
# Velocity P-wave (km/s) = 6.04414 7.79003 6.97196
#
# Compressibility (1/GPa) = 0.01347115
#
# Stress axis : x y z
#
# Youngs Moduli (GPa) = 81.57036 321.21143 90.93869
#
# Poissons Ratio (x) = 0.36035 0.35317
# Poissons Ratio (y) = 0.09151 0.13126
# Poissons Ratio (z) = 0.31679 0.46365
#
# Static dielectric constant tensor:
#      x y z
#    x 1.863570 0.000000 0.122720 
#    y 0.000000 2.005900 0.000000 
#    z 0.122720 0.000000 2.078120 
# 
# From -- ./inp_files/210792.got.cif
#   From: 2010.05.17/outbox.cif.g08.bks.cpg/sg12_106_cif.got.tgz:210792.got - 2010.06.03 13:09:07.
