data_PCOD9172177
_publ_section_title
;
Structure prediction by ZEFSAII (Michael W. Deem and Ramdas Pophale) SiO2 
 PCOD9172177
Probable space group: C 2/M
;
_chemical_formula_sum "Si O2"
_cell_formula_units_Z 56
_cell_length_a 25.974974
_cell_length_b 14.177402
_cell_length_c 15.034523
_cell_angle_alpha 90.000000
_cell_angle_beta 35.393033
_cell_angle_gamma 90.000000
_cell_volume 3206.686650
_symmetry_space_group_name_H-M "C 2/M"
_symmetry_group_IT_number 12
_symmetry_cell_setting 'monoclinic'
loop_
_space_group_symop_operation_xyz
x,y,z
-x,y,-z
-x,-y,-z
x,-y,z
1/2+x,1/2+y,z
1/2-x,1/2+y,-z
1/2-x,1/2-y,-z
1/2+x,1/2-y,z
loop_
_atom_site_type_symbol
_atom_site_label
_atom_site_fract_x
_atom_site_fract_y
_atom_site_fract_z
Si Si1 0.116308 0.893287 0.999238
Si Si2 0.706095 0.889172 0.991893
Si Si3 0.957546 0.776490 0.158683
Si Si4 0.125525 0.387918 0.462725
Si Si5 0.290418 0.203761 0.825221
Si Si6 0.010893 0.609120 0.201849
Si Si7 0.301462 0.393499 0.315444
O O1 0.190210 0.833781 0.946666
O O2 0.151639 0.897335 0.847771
O O3 0.112745 0.000000 0.038405
O O4 0.020624 0.845300 0.127861
O O5 0.682206 0.849439 0.123396
O O6 0.617013 0.880461 0.058067
O O7 0.730286 0.000000 0.961698
O O8 0.780476 0.815983 0.852443
O O9 0.859279 0.819713 0.289331
O O10 0.967308 0.675938 0.190579
O O11 0.000000 0.772639 0.000000
O O12 0.132894 0.500000 0.430136
O O13 0.149659 0.328457 0.341887
O O14 0.200591 0.369093 0.432440
O O15 0.032153 0.369043 0.641181
O O16 0.989835 0.500000 0.213798
O O17 0.305541 0.500000 0.347133
#
# Coordination Sequence:
#
# PCOD9172177 Si02
#       7
#     8   8   8   8   8   8   8
#     4   9  15  26  46  73  98 120 157 204 248 289
#     4  10  20  33  52  78 104 129 164 204 243 294
#     4  10  18  29  47  70  97 131 169 201 251 292
#     4   9  18  33  53  75 101 129 162 208 254 293
#     4  10  18  32  54  78  97 130 165 201 249 294
#     4  10  21  35  48  70 104 135 166 205 246 292
#     4   8  15  27  46  70  95 122 158 205 249 287
#
# _framework density 17.463508999999998
#
# number of rings (size 3 to 8) (size 9 to 14) (size 15 to 20)
#    0.000    2.571    1.429    2.571    0.000    3.143 
#    0.000    2.143    0.000    1.714    0.000    2.000 
#    0.000    0.000    0.000    0.000    0.000    0.000 
#
# Total GULP energy -155986.528201 kJ/mol
# GULP energy per Si atom -5570.947436 kJ/mol
# Density = 1.742376 g / cm^3
# Si number density = 17.463509 Si / 1000 Ang^3
#
#
#
# Elastic Constant Matrix: (Units=GPa)
#
#
# Indices 1 2 3 4 5 6 
#
# 1 44.2571 23.2056 -7.0338 0.0000 5.7325 0.0000
# 2 23.2056 106.4097 12.9742 0.0000 8.3915 0.0000
# 3 -7.0338 12.9742 25.4094 0.0000 -0.1826 0.0000
# 4 0.0000 0.0000 0.0000 14.5268 0.0000 4.5585
# 5 5.7325 8.3915 -0.1826 0.0000 10.3761 0.0000
# 6 0.0000 0.0000 0.0000 4.5585 0.0000 28.0417
#
#
#
# Elastic Compliance Matrix: (Units=1/GPa)
#
#
# Indices 1 2 3 4 5 6 
#
# 1 0.029487 -0.007035 0.011680 0.000000 -0.010396 0.000000
# 2 -0.007035 0.012449 -0.008349 0.000000 -0.006328 0.000000
# 3 0.011680 -0.008349 0.046860 0.000000 0.001124 0.000000
# 4 0.000000 0.000000 0.000000 0.072538 0.000000 -0.011792
# 5 -0.010396 -0.006328 0.001124 0.000000 0.107257 0.000000
# 6 0.000000 0.000000 0.000000 -0.011792 0.000000 0.037578
#
#
# Mechanical properties :
#
#
# Convention : Reuss Voigt Hill
#
# Bulk Modulus (GPa) = 12.28701 26.04091 19.16396
# Shear Modulus (GPa) = 14.67542 20.38427 17.52985
#
# Velocity S-wave (km/s) = 2.90202 3.42021 3.17172
# Velocity P-wave (km/s) = 4.27552 5.52640 4.94071
#
# Compressibility (1/GPa) = 0.08138678
#
# Stress axis : x y z
#
# Youngs Moduli (GPa) = 33.91379 80.32921 21.34023
#
# Poissons Ratio (x) = 0.56508 -0.24925
# Poissons Ratio (y) = 0.23857 0.17817
# Poissons Ratio (z) = -0.39610 0.67068
#
# Static dielectric constant tensor:
#      x y z
#    x 1.609820 0.000000 -0.017710 
#    y 0.000000 1.605820 0.000000 
#    z -0.017710 0.000000 1.586370 
# 
# From -- ./inp_files/224281.got.cif
#   From: 2010.05.17/outbox.cif.g08.bks.cpg/sg12_113_cif.got.tgz:224281.got - 2010.06.03 13:09:07.
