data_PCOD9172419
_publ_section_title
;
Structure prediction by ZEFSAII (Michael W. Deem and Ramdas Pophale) SiO2 
 PCOD9172419
Probable space group: C 2/M
;
_chemical_formula_sum "Si O2"
_cell_formula_units_Z 48
_cell_length_a 28.026060
_cell_length_b 10.823778
_cell_length_c 9.774039
_cell_angle_alpha 90.000000
_cell_angle_beta 121.218634
_cell_angle_gamma 90.000000
_cell_volume 2535.598697
_symmetry_space_group_name_H-M "C 2/M"
_symmetry_group_IT_number 12
_symmetry_cell_setting 'monoclinic'
loop_
_space_group_symop_operation_xyz
x,y,z
-x,y,-z
-x,-y,-z
x,-y,z
1/2+x,1/2+y,z
1/2-x,1/2+y,-z
1/2-x,1/2-y,-z
1/2+x,1/2-y,z
loop_
_atom_site_type_symbol
_atom_site_label
_atom_site_fract_x
_atom_site_fract_y
_atom_site_fract_z
Si Si1 0.793412 0.857748 0.727197
Si Si2 0.515236 0.284638 0.230008
Si Si3 0.790405 0.139789 0.391970
Si Si4 0.549924 0.132518 0.684260
Si Si5 0.592467 0.360814 0.592350
Si Si6 0.083281 0.138158 0.093890
O O1 0.798199 0.852210 0.568169
O O2 0.750539 0.751930 0.707562
O O3 0.855994 0.831700 0.872653
O O4 0.777781 0.000000 0.739103
O O5 0.483095 0.161226 0.225870
O O6 0.543767 0.342181 0.406405
O O7 0.562267 0.273693 0.184042
O O8 0.465721 0.363199 0.089359
O O9 0.849247 0.151648 0.401990
O O10 0.768896 0.000000 0.332068
O O11 0.500000 0.125528 0.500000
O O12 0.585452 0.251318 0.691510
O O13 0.579294 0.000000 0.729887
O O14 0.588645 0.500000 0.643363
O O15 0.087943 0.000000 0.162313
#
# Coordination Sequence:
#
# PCOD9172419 Si02
#       6
#     8   8   8   8   8   8
#     4   9  17  30  47  70 100 131 161 196 241 289
#     4  10  18  30  49  73 103 132 160 196 246 293
#     4   9  17  30  47  71 100 126 162 204 241 284
#     4   9  20  35  48  68 101 135 166 202 243 291
#     4  10  18  30  52  77  99 126 165 209 244 284
#     4  10  18  29  49  76 105 131 160 200 241 292
#
# _framework density 18.930440999999998
#
# number of rings (size 3 to 8) (size 9 to 14) (size 15 to 20)
#    0.000    2.500    1.667    2.000    0.000    5.000 
#    0.000    3.333    0.000    1.000    0.000    0.000 
#    0.000    0.000    0.000    0.000    0.000    0.000 
#
# Total GULP energy -133645.634286 kJ/mol
# GULP energy per Si atom -5568.568095 kJ/mol
# Density = 1.888735 g / cm^3
# Si number density = 18.930441 Si / 1000 Ang^3
#
#
#
# Elastic Constant Matrix: (Units=GPa)
#
#
# Indices 1 2 3 4 5 6 
#
# 1 74.5889 71.9644 18.3236 0.0000 11.0838 0.0000
# 2 71.9644 151.0022 22.0502 0.0000 8.4347 0.0000
# 3 18.3236 22.0502 28.7804 0.0000 12.7694 0.0000
# 4 0.0000 0.0000 0.0000 -2.1753 0.0000 4.3702
# 5 11.0838 8.4347 12.7694 0.0000 26.9272 0.0000
# 6 0.0000 0.0000 0.0000 4.3702 0.0000 27.8082
#
#
#
# Elastic Compliance Matrix: (Units=1/GPa)
#
#
# Indices 1 2 3 4 5 6 
#
# 1 0.026799 -0.011620 -0.006180 0.000000 -0.004460 0.000000
# 2 -0.011620 0.012500 -0.003247 0.000000 0.002407 0.000000
# 3 -0.006180 -0.003247 0.050137 0.000000 -0.020215 0.000000
# 4 0.000000 0.000000 0.000000 -0.349399 0.000000 0.054910
# 5 -0.004460 0.002407 -0.020215 0.000000 0.047805 0.000000
# 6 0.000000 0.000000 0.000000 0.054910 0.000000 0.027331
#
#
# Mechanical properties :
#
#
# Convention : Reuss Voigt Hill
#
# Bulk Modulus (GPa) = 21.12295 53.22754 37.17524
# Shear Modulus (GPa) = -39.38569 19.98092 -9.70238
#
# Velocity S-wave (km/s) = -4.56625 3.25236 -2.26636
# Velocity P-wave (km/s) = 4.07657 6.50248 3.58216
#
# Compressibility (1/GPa) = 0.04734187
#
# Stress axis : x y z
#
# Youngs Moduli (GPa) = 37.31433 79.99958 19.94521
#
# Poissons Ratio (x) = 0.92962 0.12327
# Poissons Ratio (y) = 0.43361 0.06476
# Poissons Ratio (z) = 0.23062 0.25974
#
# Static dielectric constant tensor:
#      x y z
#    x 1.670640 0.000000 -0.009520 
#    y 0.000000 1.690140 0.000000 
#    z -0.009520 0.000000 1.676020 
# 
# From -- ./inp_files/181692.got.cif
#   From: 2010.05.17/outbox.cif.g08.bks.cpg/sg12_91_cif.got.tgz:181692.got - 2010.06.03 13:09:07.
