data_PCOD9172471
_publ_section_title
;
Structure prediction by ZEFSAII (Michael W. Deem and Ramdas Pophale) SiO2 
 PCOD9172471
Probable space group: C 2/M
;
_chemical_formula_sum "Si O2"
_cell_formula_units_Z 64
_cell_length_a 25.720927
_cell_length_b 18.065714
_cell_length_c 7.274864
_cell_angle_alpha 90.000000
_cell_angle_beta 56.291392
_cell_angle_gamma 90.000000
_cell_volume 2812.046399
_symmetry_space_group_name_H-M "C 2/M"
_symmetry_group_IT_number 12
_symmetry_cell_setting 'monoclinic'
loop_
_space_group_symop_operation_xyz
x,y,z
-x,y,-z
-x,-y,-z
x,-y,z
1/2+x,1/2+y,z
1/2-x,1/2+y,-z
1/2-x,1/2-y,-z
1/2+x,1/2-y,z
loop_
_atom_site_type_symbol
_atom_site_label
_atom_site_fract_x
_atom_site_fract_y
_atom_site_fract_z
Si Si1 0.370166 0.134639 0.990845
Si Si2 0.399232 0.658635 0.486308
Si Si3 0.501777 0.080280 0.720626
Si Si4 0.110635 0.321812 0.459588
Si Si5 0.021919 0.916553 0.173356
Si Si6 0.622827 0.697135 0.882090
Si Si7 0.756344 0.316410 0.735977
Si Si8 0.763020 0.859219 0.814301
O O1 0.431773 0.091444 0.931595
O O2 0.376163 0.135854 0.756509
O O3 0.377649 0.219284 0.044504
O O4 0.298833 0.107288 0.159155
O O5 0.396246 0.737044 0.595260
O O6 0.460137 0.610740 0.400099
O O7 0.402785 0.690711 0.272416
O O8 0.333383 0.616406 0.632556
O O9 0.500000 0.081011 0.500000
O O10 0.548797 0.146574 0.673663
O O11 0.526392 0.000000 0.728093
O O12 0.172697 0.332817 0.461347
O O13 0.040099 0.000000 0.186254
O O14 0.078816 0.858960 0.081405
O O15 0.000000 0.918042 0.000000
O O16 0.695389 0.671506 0.734252
O O17 0.759099 0.228244 0.770023
O O18 0.743526 0.358248 0.952346
#
# Coordination Sequence:
#
# PCOD9172471 Si02
#       8
#     8   8   8   8   8   8   8   8
#     4   9  17  30  49  71  96 123 148 185 233 270
#     4  10  18  29  50  73  89 115 156 194 225 268
#     4   9  17  30  49  71  92 121 162 192 214 263
#     4   9  17  30  49  71  96 123 148 185 233 270
#     4   9  19  34  47  63  92 125 154 188 232 275
#     4  10  18  29  50  73  89 115 156 194 225 268
#     4   8  15  28  45  68  97 122 144 180 233 277
#     4   8  15  28  45  68  97 122 144 180 233 277
#
# _framework density 22.759228
#
# number of rings (size 3 to 8) (size 9 to 14) (size 15 to 20)
#    0.000    3.000    0.000    3.000    0.000    4.500 
#    0.000    3.125    0.000    9.000    0.000    0.000 
#    0.000    0.000    0.000    0.000    0.000    0.000 
#
# Total GULP energy -178453.868459 kJ/mol
# GULP energy per Si atom -5576.683389 kJ/mol
# Density = 2.270743 g / cm^3
# Si number density = 22.759228 Si / 1000 Ang^3
#
#
#
# Elastic Constant Matrix: (Units=GPa)
#
#
# Indices 1 2 3 4 5 6 
#
# 1 67.7486 30.9022 24.6395 0.0000 -17.0565 0.0000
# 2 30.9022 50.5981 17.0777 0.0000 -24.9697 0.0000
# 3 24.6395 17.0777 70.2592 0.0000 -29.1267 0.0000
# 4 0.0000 0.0000 0.0000 -2.1824 0.0000 10.3052
# 5 -17.0565 -24.9697 -29.1267 0.0000 44.1556 0.0000
# 6 0.0000 0.0000 0.0000 10.3052 0.0000 -1.0472
#
#
#
# Elastic Compliance Matrix: (Units=1/GPa)
#
#
# Indices 1 2 3 4 5 6 
#
# 1 0.022005 -0.012730 -0.005620 0.000000 -0.002406 0.000000
# 2 -0.012730 0.034783 0.002925 0.000000 0.016682 0.000000
# 3 -0.005620 0.002925 0.021029 0.000000 0.013355 0.000000
# 4 0.000000 0.000000 0.000000 0.010078 0.000000 0.099173
# 5 -0.002406 0.016682 0.013355 0.000000 0.039961 0.000000
# 6 0.000000 0.000000 0.000000 0.099173 0.000000 0.021003
#
#
# Mechanical properties :
#
#
# Convention : Reuss Voigt Hill
#
# Bulk Modulus (GPa) = 21.29083 37.09384 29.19234
# Shear Modulus (GPa) = 25.59317 15.91763 20.75540
#
# Velocity S-wave (km/s) = 3.35702 2.64747 3.02314
# Velocity P-wave (km/s) = 4.93976 5.06747 5.00402
#
# Compressibility (1/GPa) = 0.04696857
#
# Stress axis : x y z
#
# Youngs Moduli (GPa) = 45.44382 28.74954 47.55246
#
# Poissons Ratio (x) = 0.36597 0.26725
# Poissons Ratio (y) = 0.57848 -0.13910
# Poissons Ratio (z) = 0.25540 -0.08410
#
# Static dielectric constant tensor:
#      x y z
#    x 1.901920 0.000000 0.012670 
#    y 0.000000 1.813860 0.000000 
#    z 0.012670 0.000000 1.927290 
# 
# From -- ./inp_files/106382.got.cif
#   From: 2010.05.17/outbox.cif.g08.bks.cpg/sg12_54_cif.got.tgz:106382.got - 2010.06.03 13:09:07.
