data_PCOD9172209
_publ_section_title
;
Structure prediction by ZEFSAII (Michael W. Deem and Ramdas Pophale) SiO2 
 PCOD9172209
Probable space group: C 2/M
;
_chemical_formula_sum "Si O2"
_cell_formula_units_Z 56
_cell_length_a 10.710791
_cell_length_b 14.823807
_cell_length_c 20.444390
_cell_angle_alpha 90.000000
_cell_angle_beta 121.594147
_cell_angle_gamma 90.000000
_cell_volume 2764.923537
_symmetry_space_group_name_H-M "C 2/M"
_symmetry_group_IT_number 12
_symmetry_cell_setting 'monoclinic'
loop_
_space_group_symop_operation_xyz
x,y,z
-x,y,-z
-x,-y,-z
x,-y,z
1/2+x,1/2+y,z
1/2-x,1/2+y,-z
1/2-x,1/2-y,-z
1/2+x,1/2-y,z
loop_
_atom_site_type_symbol
_atom_site_label
_atom_site_fract_x
_atom_site_fract_y
_atom_site_fract_z
Si Si1 0.690097 0.391281 0.333156
Si Si2 0.922330 0.857005 0.171853
Si Si3 0.476216 0.891281 0.333156
Si Si4 0.421376 0.857005 0.171853
Si Si5 0.348087 0.103842 0.500000
Si Si6 0.588654 0.639526 0.088654
Si Si7 0.910518 0.360390 0.910518
O O1 0.703177 0.500000 0.339276
O O2 0.529785 0.370349 0.262569
O O3 0.731334 0.356480 0.416947
O O4 0.817066 0.359406 0.317066
O O5 0.907999 0.750000 0.157999
O O6 0.757642 0.891573 0.133638
O O7 0.006737 0.892553 0.131258
O O8 0.495354 0.870349 0.262569
O O9 0.602560 0.856480 0.416947
O O10 0.475375 0.000000 0.339276
O O11 0.255779 0.892553 0.131258
O O12 0.509633 0.891573 0.133637
O O13 0.500000 0.101409 0.500000
O O14 0.303050 0.000000 0.500000
O O15 0.590895 0.749878 0.090895
O O16 0.500000 0.613196 0.000000
O O17 0.000000 0.386457 0.000000
#
# Coordination Sequence:
#
# PCOD9172209 Si02
#       7
#     8   8   8   8   8   8   8
#     4   9  16  29  50  73  95 120 156 197 235 274
#     4  10  18  29  47  72  97 122 156 196 237 276
#     4   9  16  29  50  73  95 120 156 197 235 274
#     4  10  18  29  47  72  97 122 156 196 237 276
#     4   7  12  24  45  71  93 117 152 193 230 272
#     4   9  16  28  47  68  91 120 160 203 233 267
#     4   9  18  30  45  66  93 128 162 191 227 277
#
# _framework density 20.253723999999998
#
# number of rings (size 3 to 8) (size 9 to 14) (size 15 to 20)
#    0.000    3.000    1.429    2.571    0.000    3.429 
#    0.000    1.429    0.000    6.000    0.000    3.000 
#    0.000    0.000    0.000    0.000    0.000    0.000 
#
# Total GULP energy -156080.190102 kJ/mol
# GULP energy per Si atom -5574.292504 kJ/mol
# Density = 2.020763 g / cm^3
# Si number density = 20.253724 Si / 1000 Ang^3
#
#
#
# Elastic Constant Matrix: (Units=GPa)
#
#
# Indices 1 2 3 4 5 6 
#
# 1 148.3292 10.4446 113.5522 0.0000 -0.9611 0.0000
# 2 10.4446 46.5826 -6.2461 0.0000 0.7645 0.0000
# 3 113.5522 -6.2461 215.9751 0.0000 -2.1378 0.0000
# 4 0.0000 0.0000 0.0000 19.7612 0.0000 -1.1971
# 5 -0.9611 0.7645 -2.1378 0.0000 27.9306 0.0000
# 6 0.0000 0.0000 0.0000 -1.1971 0.0000 -6.3746
#
#
#
# Elastic Compliance Matrix: (Units=1/GPa)
#
#
# Indices 1 2 3 4 5 6 
#
# 1 0.011825 -0.003499 -0.006318 0.000000 0.000019 0.000000
# 2 -0.003499 0.022594 0.002488 0.000000 -0.000548 0.000000
# 3 -0.006318 0.002488 0.008027 0.000000 0.000329 0.000000
# 4 0.000000 0.000000 0.000000 0.050035 0.000000 -0.009396
# 5 0.000019 -0.000548 0.000329 0.000000 0.035844 0.000000
# 6 0.000000 0.000000 0.000000 -0.009396 0.000000 -0.155108
#
#
# Mechanical properties :
#
#
# Convention : Reuss Voigt Hill
#
# Bulk Modulus (GPa) = 35.98722 71.82093 53.90407
# Shear Modulus (GPa) = -1747.54485 27.80585 -859.86950
#
# Velocity S-wave (km/s) = -29.40577 3.70925 -20.62694
# Velocity P-wave (km/s) = 33.69163 7.34046 23.25128
#
# Compressibility (1/GPa) = 0.02778765
#
# Stress axis : x y z
#
# Youngs Moduli (GPa) = 84.56558 44.25892 124.57525
#
# Poissons Ratio (x) = 0.15486 0.78710
# Poissons Ratio (y) = 0.29589 -0.30989
# Poissons Ratio (z) = 0.53431 -0.11010
#
# Static dielectric constant tensor:
#      x y z
#    x 1.710080 0.000000 -0.001550 
#    y 0.000000 1.760580 0.000000 
#    z -0.001550 0.000000 1.743860 
# 
# From -- ./inp_files/300888.got.cif
#   From: 2010.05.17/outbox.cif.g08.bks.cpg/sg12_151_cif.got.tgz:300888.got - 2010.06.03 13:09:07.
