data_PCOD9172783
_publ_section_title
;
Structure prediction by ZEFSAII (Michael W. Deem and Ramdas Pophale) SiO2 
 PCOD9172783
Probable space group: C 2/M
;
_chemical_formula_sum "Si O2"
_cell_formula_units_Z 64
_cell_length_a 21.529358
_cell_length_b 24.453612
_cell_length_c 9.834594
_cell_angle_alpha 90.000000
_cell_angle_beta 133.178475
_cell_angle_gamma 90.000000
_cell_volume 3775.656939
_symmetry_space_group_name_H-M "C 2/M"
_symmetry_group_IT_number 12
_symmetry_cell_setting 'monoclinic'
loop_
_space_group_symop_operation_xyz
x,y,z
-x,y,-z
-x,-y,-z
x,-y,z
1/2+x,1/2+y,z
1/2-x,1/2+y,-z
1/2-x,1/2-y,-z
1/2+x,1/2-y,z
loop_
_atom_site_type_symbol
_atom_site_label
_atom_site_fract_x
_atom_site_fract_y
_atom_site_fract_z
Si Si1 0.522658 0.740722 0.887250
Si Si2 0.677981 0.774225 0.731959
Si Si3 0.530988 0.060232 0.200702
Si Si4 0.576959 0.675240 0.707175
Si Si5 0.191688 0.307046 0.208892
Si Si6 0.874963 0.327719 0.606691
Si Si7 0.262224 0.136416 0.979232
Si Si8 0.082448 0.436985 0.710526
O O1 0.546447 0.696546 0.808870
O O2 0.444863 0.779534 0.727299
O O3 0.500000 0.715400 0.000000
O O4 0.599974 0.782944 0.029592
O O5 0.607969 0.731098 0.677519
O O6 0.742506 0.739259 0.737437
O O7 0.651478 0.821350 0.588103
O O8 0.715329 0.805052 0.918074
O O9 0.588605 0.112230 0.315427
O O10 0.453013 0.063450 0.188869
O O11 0.571116 0.000000 0.281380
O O12 0.500000 0.063814 0.000000
O O13 0.500000 0.652728 0.500000
O O14 0.659569 0.635543 0.839709
O O15 0.191006 0.318145 0.368414
O O16 0.214163 0.357828 0.144820
O O17 0.327299 0.094236 0.147362
O O18 0.095004 0.500000 0.684926
O O19 0.000000 0.415279 0.500000
#
# Coordination Sequence:
#
# PCOD9172783 Si02
#       8
#     8   8   8   8   8   8   8   8
#     4  10  18  30  48  66  97 131 167 205 251 305
#     4  11  20  30  48  69  99 136 167 213 251 308
#     4  10  20  34  50  71  98 132 173 208 247 300
#     4  11  20  34  47  72 100 133 174 210 249 306
#     4  10  19  32  43  70 102 129 172 204 247 303
#     4  11  20  29  48  71  97 137 164 208 256 301
#     4  11  20  33  53  71 101 137 171 208 257 308
#     4  10  21  36  55  80 106 131 168 214 255 304
#
# _framework density 16.950693000000001
#
# number of rings (size 3 to 8) (size 9 to 14) (size 15 to 20)
#    0.000    1.500    3.750    4.500    0.000    0.500 
#    0.000    0.000    0.000    0.375    0.000    0.000 
#    0.000    0.500    0.000    0.000    0.000    2.375 
#
# Total GULP energy -178294.695186 kJ/mol
# GULP energy per Si atom -5571.709225 kJ/mol
# Density = 1.691211 g / cm^3
# Si number density = 16.950693 Si / 1000 Ang^3
#
#
#
# Elastic Constant Matrix: (Units=GPa)
#
#
# Indices 1 2 3 4 5 6 
#
# 1 98.0027 20.2531 38.2512 0.0000 -9.9813 0.0000
# 2 20.2531 54.7167 21.1336 0.0000 3.9212 0.0000
# 3 38.2512 21.1336 80.9733 0.0000 -2.6927 0.0000
# 4 0.0000 0.0000 0.0000 25.7562 0.0000 2.6747
# 5 -9.9813 3.9212 -2.6927 0.0000 30.0926 0.0000
# 6 0.0000 0.0000 0.0000 2.6747 0.0000 13.6848
#
#
#
# Elastic Compliance Matrix: (Units=1/GPa)
#
#
# Indices 1 2 3 4 5 6 
#
# 1 0.013400 -0.003209 -0.005347 0.000000 0.004384 0.000000
# 2 -0.003209 0.021392 -0.004208 0.000000 -0.004228 0.000000
# 3 -0.005347 -0.004208 0.015981 0.000000 0.000205 0.000000
# 4 0.000000 0.000000 0.000000 0.039630 0.000000 -0.007746
# 5 0.004384 -0.004228 0.000205 0.000000 0.035254 0.000000
# 6 0.000000 0.000000 0.000000 -0.007746 0.000000 0.074588
#
#
# Mechanical properties :
#
#
# Convention : Reuss Voigt Hill
#
# Bulk Modulus (GPa) = 39.61126 43.66316 41.63721
# Shear Modulus (GPa) = 21.35036 24.17704 22.76370
#
# Velocity S-wave (km/s) = 3.55287 3.78076 3.66859
# Velocity P-wave (km/s) = 6.34427 6.69878 6.52394
#
# Compressibility (1/GPa) = 0.02524534
#
# Stress axis : x y z
#
# Youngs Moduli (GPa) = 74.62419 46.74632 62.57584
#
# Poissons Ratio (x) = 0.15002 0.33459
# Poissons Ratio (y) = 0.23948 0.26331
# Poissons Ratio (z) = 0.39901 0.19670
#
# Static dielectric constant tensor:
#      x y z
#    x 1.603310 0.000000 -0.000580 
#    y 0.000000 1.572760 0.000000 
#    z -0.000580 0.000000 1.637380 
# 
# From -- ./inp_files/90691.got.cif
#   From: 2010.05.17/outbox.cif.g08.bks.cpg/sg12_46_cif.got.tgz:90691.got - 2010.06.03 13:09:07.
