data_PCOD9172023
_publ_section_title
;
Structure prediction by ZEFSAII (Michael W. Deem and Ramdas Pophale) SiO2 
 PCOD9172023
Probable space group: C 2/M
;
_chemical_formula_sum "Si O2"
_cell_formula_units_Z 40
_cell_length_a 26.889416
_cell_length_b 7.738281
_cell_length_c 19.122188
_cell_angle_alpha 90.000000
_cell_angle_beta 147.971901
_cell_angle_gamma 90.000000
_cell_volume 2110.152398
_symmetry_space_group_name_H-M "C 2/M"
_symmetry_group_IT_number 12
_symmetry_cell_setting 'monoclinic'
loop_
_space_group_symop_operation_xyz
x,y,z
-x,y,-z
-x,-y,-z
x,-y,z
1/2+x,1/2+y,z
1/2-x,1/2+y,-z
1/2-x,1/2-y,-z
1/2+x,1/2-y,z
loop_
_atom_site_type_symbol
_atom_site_label
_atom_site_fract_x
_atom_site_fract_y
_atom_site_fract_z
Si Si1 0.331357 0.292590 0.652920
Si Si2 0.044707 0.796182 0.318413
Si Si3 0.297332 0.797449 0.383158
Si Si4 0.649963 0.794373 0.848712
Si Si5 0.607637 0.788141 0.642104
O O1 0.337970 0.500000 0.669012
O O2 0.250000 0.250000 0.500000
O O3 0.423716 0.232890 0.721207
O O4 0.290486 0.223023 0.677459
O O5 0.111691 0.713870 0.457444
O O6 0.937118 0.769931 0.209106
O O7 0.065534 0.000000 0.346075
O O8 0.327453 0.724729 0.344196
O O9 0.277563 0.000000 0.348459
O O10 0.638961 0.729383 0.756024
O O11 0.640898 0.000000 0.834989
O O12 0.750000 0.750000 0.000000
O O13 0.500000 0.737433 0.500000
O O14 0.609361 0.000000 0.642997
#
# Coordination Sequence:
#
# PCOD9172023 Si02
#       5
#     8   8   8   8   8
#     4   8  15  25  42  68  97 125 156 195 237 282
#     4  10  18  29  45  71 102 129 159 197 239 285
#     4   9  15  28  49  72  97 127 161 198 242 284
#     4  11  22  36  52  71  97 130 165 200 242 291
#     4   9  16  29  51  75  96 123 161 203 242 283
#
# _framework density 18.955976
#
# number of rings (size 3 to 8) (size 9 to 14) (size 15 to 20)
#    0.000    2.600    2.000    1.200    0.000    0.800 
#    0.000    3.000    0.000    1.200    0.000    8.400 
#    0.000    0.000    0.000    0.000    0.000    0.000 
#
# Total GULP energy -111403.977928 kJ/mol
# GULP energy per Si atom -5570.198896 kJ/mol
# Density = 1.891283 g / cm^3
# Si number density = 18.955976 Si / 1000 Ang^3
#
#
#
# Elastic Constant Matrix: (Units=GPa)
#
#
# Indices 1 2 3 4 5 6 
#
# 1 247.8546 4.2810 70.0811 0.0000 6.7627 0.0000
# 2 4.2810 31.6826 -7.2230 0.0000 -4.4603 0.0000
# 3 70.0811 -7.2230 75.7787 0.0000 -4.1059 0.0000
# 4 0.0000 0.0000 0.0000 11.6356 0.0000 -2.7883
# 5 6.7627 -4.4603 -4.1059 0.0000 17.3633 0.0000
# 6 0.0000 0.0000 0.0000 -2.7883 0.0000 9.3014
#
#
#
# Elastic Compliance Matrix: (Units=1/GPa)
#
#
# Indices 1 2 3 4 5 6 
#
# 1 0.005883 -0.002771 -0.005944 0.000000 -0.004409 0.000000
# 2 -0.002771 0.035065 0.006535 0.000000 0.011632 0.000000
# 3 -0.005944 0.006535 0.019786 0.000000 0.008673 0.000000
# 4 0.000000 0.000000 0.000000 0.092595 0.000000 0.027757
# 5 -0.004409 0.011632 0.008673 0.000000 0.064349 0.000000
# 6 0.000000 0.000000 0.000000 0.027757 0.000000 0.115831
#
#
# Mechanical properties :
#
#
# Convention : Reuss Voigt Hill
#
# Bulk Modulus (GPa) = 17.73841 54.39935 36.06888
# Shear Modulus (GPa) = 14.01893 26.87186 20.44539
#
# Velocity S-wave (km/s) = 2.72242 3.76918 3.28773
# Velocity P-wave (km/s) = 4.38863 6.90669 5.78629
#
# Compressibility (1/GPa) = 0.05637485
#
# Stress axis : x y z
#
# Youngs Moduli (GPa) = 169.96740 28.51858 50.53995
#
# Poissons Ratio (x) = 0.07902 0.30042
# Poissons Ratio (y) = 0.47095 -0.33028
# Poissons Ratio (z) = 1.01031 -0.18637
#
# Static dielectric constant tensor:
#      x y z
#    x 1.726130 0.000000 -0.023010 
#    y 0.000000 1.376280 0.000000 
#    z -0.023010 0.000000 1.562450 
# 
# From -- ./inp_files/162521.got.cif
#   From: 2010.05.17/outbox.cif.g08.bks.cpg/sg12_82_cif.got.tgz:162521.got - 2010.06.03 13:09:07.
