data_PCOD9172627
_publ_section_title
;
Structure prediction by ZEFSAII (Michael W. Deem and Ramdas Pophale) SiO2 
 PCOD9172627
Probable space group: C 2/M
;
_chemical_formula_sum "Si O2"
_cell_formula_units_Z 56
_cell_length_a 11.236194
_cell_length_b 23.395052
_cell_length_c 12.838809
_cell_angle_alpha 90.000000
_cell_angle_beta 120.116780
_cell_angle_gamma 90.000000
_cell_volume 2919.351257
_symmetry_space_group_name_H-M "C 2/M"
_symmetry_group_IT_number 12
_symmetry_cell_setting 'monoclinic'
loop_
_space_group_symop_operation_xyz
x,y,z
-x,y,-z
-x,-y,-z
x,-y,z
1/2+x,1/2+y,z
1/2-x,1/2+y,-z
1/2-x,1/2-y,-z
1/2+x,1/2-y,z
loop_
_atom_site_type_symbol
_atom_site_label
_atom_site_fract_x
_atom_site_fract_y
_atom_site_fract_z
Si Si1 0.372694 0.063723 0.863219
Si Si2 0.305694 0.684263 0.523845
Si Si3 0.465711 0.720817 0.869859
Si Si4 0.175273 0.325107 0.671361
Si Si5 0.530682 0.841264 0.811000
Si Si6 0.622449 0.302615 0.668357
Si Si7 0.778611 0.151779 0.085328
O O1 0.426297 0.110518 0.804834
O O2 0.245090 0.090199 0.872000
O O3 0.345825 0.000000 0.811407
O O4 0.500000 0.060398 0.000000
O O5 0.250000 0.750000 0.500000
O O6 0.212728 0.653789 0.571478
O O7 0.313047 0.667535 0.405349
O O8 0.467168 0.677696 0.625923
O O9 0.321074 0.690399 0.788859
O O10 0.477953 0.775556 0.797892
O O11 0.580623 0.671945 0.903908
O O12 0.500000 0.743667 0.000000
O O13 0.084207 0.355670 0.718697
O O14 0.106307 0.263103 0.630749
O O15 0.658560 0.840863 0.948768
O O16 0.720001 0.307827 0.811393
#
# Coordination Sequence:
#
# PCOD9172627 Si02
#       7
#     8   8   8   8   8   8   8
#     4   9  20  37  54  73 102 141 184 215 240 297
#     4   9  19  30  43  62 100 146 176 198 242 304
#     4  12  20  28  45  77 116 133 156 200 262 322
#     4  11  18  29  44  70 105 138 168 201 251 308
#     4  11  20  29  49  76 106 140 167 203 258 308
#     4  10  18  30  44  68 102 141 173 204 244 309
#     4  11  19  31  50  74 102 133 168 210 257 306
#
# _framework density 19.182344000000001
#
# number of rings (size 3 to 8) (size 9 to 14) (size 15 to 20)
#    0.000    1.571    4.286    3.429    0.000    1.143 
#    0.000    0.000    0.000    1.286    0.000    4.000 
#    0.000    0.000    0.000    0.000    0.000    0.000 
#
# Total GULP energy -155966.601289 kJ/mol
# GULP energy per Si atom -5570.235760 kJ/mol
# Density = 1.913868 g / cm^3
# Si number density = 19.182344 Si / 1000 Ang^3
#
#
#
# Elastic Constant Matrix: (Units=GPa)
#
#
# Indices 1 2 3 4 5 6 
#
# 1 99.2231 39.8826 25.1130 0.0000 -25.2772 0.0000
# 2 39.8826 68.9469 -1.1850 0.0000 2.3506 0.0000
# 3 25.1130 -1.1850 89.4274 0.0000 -15.1088 0.0000
# 4 0.0000 0.0000 0.0000 7.5002 0.0000 -1.1931
# 5 -25.2772 2.3506 -15.1088 0.0000 42.9919 0.0000
# 6 0.0000 0.0000 0.0000 -1.1931 0.0000 13.9621
#
#
#
# Elastic Compliance Matrix: (Units=1/GPa)
#
#
# Indices 1 2 3 4 5 6 
#
# 1 0.017729 -0.010649 -0.003466 0.000000 0.009788 0.000000
# 2 -0.010649 0.020927 0.002144 0.000000 -0.006652 0.000000
# 3 -0.003466 0.002144 0.012566 0.000000 0.002261 0.000000
# 4 0.000000 0.000000 0.000000 0.135168 0.000000 0.011550
# 5 0.009788 -0.006652 0.002261 0.000000 0.030174 0.000000
# 6 0.000000 0.000000 0.000000 0.011550 0.000000 0.072610
#
#
# Mechanical properties :
#
#
# Convention : Reuss Voigt Hill
#
# Bulk Modulus (GPa) = 36.65621 42.80208 39.72915
# Shear Modulus (GPa) = 15.51783 25.80993 20.66388
#
# Velocity S-wave (km/s) = 2.84731 3.67209 3.28569
# Velocity P-wave (km/s) = 5.47361 6.35143 5.92879
#
# Compressibility (1/GPa) = 0.02728051
#
# Stress axis : x y z
#
# Youngs Moduli (GPa) = 56.40322 47.78409 79.57961
#
# Poissons Ratio (x) = 0.50885 0.27584
# Poissons Ratio (y) = 0.60064 -0.17061
# Poissons Ratio (z) = 0.19550 -0.10244
#
# Static dielectric constant tensor:
#      x y z
#    x 1.768550 0.000000 -0.026680 
#    y 0.000000 1.627920 0.000000 
#    z -0.026680 0.000000 1.764690 
# 
# From -- ./inp_files/207302.got.cif
#   From: 2010.05.17/outbox.cif.g08.bks.cpg/sg12_104_cif.got.tgz:207302.got - 2010.06.03 13:09:07.
