data_PCOD9172816
_publ_section_title
;
Structure prediction by ZEFSAII (Michael W. Deem and Ramdas Pophale) SiO2 
 PCOD9172816
Probable space group: C 2/M
;
_chemical_formula_sum "Si O2"
_cell_formula_units_Z 56
_cell_length_a 20.237890
_cell_length_b 20.508189
_cell_length_c 25.977826
_cell_angle_alpha 90.000000
_cell_angle_beta 18.325083
_cell_angle_gamma 90.000000
_cell_volume 3389.916690
_symmetry_space_group_name_H-M "C 2/M"
_symmetry_group_IT_number 12
_symmetry_cell_setting 'monoclinic'
loop_
_space_group_symop_operation_xyz
x,y,z
-x,y,-z
-x,-y,-z
x,-y,z
1/2+x,1/2+y,z
1/2-x,1/2+y,-z
1/2-x,1/2-y,-z
1/2+x,1/2-y,z
loop_
_atom_site_type_symbol
_atom_site_label
_atom_site_fract_x
_atom_site_fract_y
_atom_site_fract_z
Si Si1 0.523476 0.189146 0.818495
Si Si2 0.435479 0.656642 0.863403
Si Si3 0.054366 0.131334 0.886606
Si Si4 0.860783 0.284059 0.152884
Si Si5 0.239201 0.845975 0.546974
Si Si6 0.383574 0.300061 0.472491
Si Si7 0.332620 0.076085 0.764270
O O1 0.474877 0.265871 0.843714
O O2 0.569477 0.182969 0.845136
O O3 0.722237 0.175088 0.635262
O O4 0.314764 0.150068 0.957130
O O5 0.529412 0.622934 0.844377
O O6 0.558910 0.636522 0.721056
O O7 0.110430 0.206368 0.858273
O O8 0.231870 0.088093 0.782458
O O9 0.830876 0.113899 0.077765
O O10 0.619889 0.299479 0.318292
O O11 0.000000 0.300902 0.000000
O O12 0.324268 0.774674 0.501665
O O13 0.147917 0.839089 0.557195
O O14 0.437225 0.893800 0.402068
O O15 0.329782 0.000000 0.778678
#
# Coordination Sequence:
#
# PCOD9172816 Si02
#       7
#     8   8   8   8   8   8   8
#     4   9  18  28  43  70  98 130 161 198 249 307
#     4   9  18  30  46  66  95 128 165 207 251 298
#     4  10  18  32  48  66  94 132 172 206 246 285
#     4  11  17  27  46  71 102 129 163 197 247 298
#     4  10  19  32  48  69  94 128 166 210 255 294
#     4  10  18  30  48  69  99 129 163 199 253 311
#     4  11  21  35  50  70  96 135 181 212 246 289
#
# _framework density 16.519580000000001
#
# number of rings (size 3 to 8) (size 9 to 14) (size 15 to 20)
#    0.000    2.000    2.857    3.000    0.000    5.143 
#    0.000    2.143    0.000    0.000    0.000    0.000 
#    0.000   15.429    0.000    0.000    0.000    0.143 
#
# Total GULP energy -156134.956431 kJ/mol
# GULP energy per Si atom -5576.248444 kJ/mol
# Density = 1.648198 g / cm^3
# Si number density = 16.519580 Si / 1000 Ang^3
#
#
#
# Elastic Constant Matrix: (Units=GPa)
#
#
# Indices 1 2 3 4 5 6 
#
# 1 136.9185 14.4975 74.1684 -0.1060 9.6995 -0.0059
# 2 14.4975 20.4768 23.6994 -0.0491 -1.1015 -0.0102
# 3 74.1684 23.6994 142.5254 -0.3011 -2.5060 -0.0805
# 4 -0.1060 -0.0491 -0.3011 0.6973 -0.0688 -2.4603
# 5 9.6995 -1.1015 -2.5060 -0.0688 26.5056 -0.0173
# 6 -0.0059 -0.0102 -0.0805 -2.4603 -0.0173 7.6142
#
#
#
# Elastic Compliance Matrix: (Units=1/GPa)
#
#
# Indices 1 2 3 4 5 6 
#
# 1 0.010698 -0.001586 -0.005358 0.010372 -0.004458 0.003291
# 2 -0.001586 0.060774 -0.009245 -0.001550 0.002228 -0.000513
# 3 -0.005358 -0.009245 0.011320 -0.029002 0.002566 -0.009262
# 4 0.010372 -0.001550 -0.029002-10.127090 -0.035003 -3.272661
# 5 -0.004458 0.002228 0.002566 -0.035003 0.039596 -0.011194
# 6 0.003291 -0.000513 -0.009262 -3.272661 -0.011194 -0.926254
#
#
# Mechanical properties :
#
#
# Convention : Reuss Voigt Hill
#
# Bulk Modulus (GPa) = 19.83542 58.29457 39.06499
# Shear Modulus (GPa) = -0.45948 19.46712 9.50382
#
# Velocity S-wave (km/s) = -0.52797 3.43655 2.40116
# Velocity P-wave (km/s) = 3.41491 7.14921 5.60236
#
# Compressibility (1/GPa) = 0.05041488
#
# Stress axis : x y z
#
# Youngs Moduli (GPa) = 93.47591 16.45437 88.33699
#
# Poissons Ratio (x) = 0.02610 0.47330
# Poissons Ratio (y) = 0.14828 0.81664
# Poissons Ratio (z) = 0.50084 0.15211
#
# Static dielectric constant tensor:
#      x y z
#    x 1.565250 0.000010 0.013780 
#    y 0.000010 1.523060 0.000060 
#    z 0.013780 0.000060 1.549120 
# 
# From -- ./inp_files/77633.got.cif
#   From: 2010.05.17/outbox.cif.g08.bks.cpg/sg12_39_cif.got.tgz:77633.got - 2010.06.03 13:09:07.
