data_PCOD9172107
_publ_section_title
;
Structure prediction by ZEFSAII (Michael W. Deem and Ramdas Pophale) SiO2 
 PCOD9172107
Probable space group: C 2/M
;
_chemical_formula_sum "Si O2"
_cell_formula_units_Z 44
_cell_length_a 14.375701
_cell_length_b 22.095853
_cell_length_c 11.927033
_cell_angle_alpha 90.000000
_cell_angle_beta 39.732455
_cell_angle_gamma 90.000000
_cell_volume 2421.650111
_symmetry_space_group_name_H-M "C 2/M"
_symmetry_group_IT_number 12
_symmetry_cell_setting 'monoclinic'
loop_
_space_group_symop_operation_xyz
x,y,z
-x,y,-z
-x,-y,-z
x,-y,z
1/2+x,1/2+y,z
1/2-x,1/2+y,-z
1/2-x,1/2-y,-z
1/2+x,1/2-y,z
loop_
_atom_site_type_symbol
_atom_site_label
_atom_site_fract_x
_atom_site_fract_y
_atom_site_fract_z
Si Si1 0.053271 0.720336 0.677646
Si Si2 0.846973 0.069592 0.211745
Si Si3 0.000000 0.147603 0.500000
Si Si4 0.232248 0.657859 0.150835
Si Si5 0.509990 0.363532 0.249200
Si Si6 0.259734 0.240401 0.296585
O O1 0.175086 0.718166 0.467323
O O2 0.116406 0.708577 0.743268
O O3 0.917503 0.681085 0.763098
O O4 0.014024 0.791479 0.717803
O O5 0.729563 0.105427 0.246533
O O6 0.888543 0.104924 0.285912
O O7 0.808718 0.000000 0.266363
O O8 0.000000 0.071283 0.000000
O O9 0.004284 0.111802 0.380189
O O10 0.141919 0.191172 0.366951
O O11 0.300561 0.715896 0.155451
O O12 0.337178 0.633294 0.956550
#
# Coordination Sequence:
#
# PCOD9172107 Si02
#       6
#     8   8   4   8   8   8
#     4  10  19  29  45  77 105 140 160 200 267 313
#     4   9  19  34  53  76 101 135 175 216 257 296
#     4  10  20  34  45  74 105 138 164 208 266 310
#     4  11  18  31  51  76 105 132 173 216 251 307
#     4  10  19  31  50  73 105 135 172 212 249 309
#     4  10  18  29  46  71 106 141 160 197 260 314
#
# _framework density 18.169429000000001
#
# number of rings (size 3 to 8) (size 9 to 14) (size 15 to 20)
#    0.000    2.000    5.455    0.545    0.000    0.000 
#    0.000    0.455    0.000    2.182    0.000    0.000 
#    0.000    5.818    0.000    0.000    0.000    0.000 
#
# Total GULP energy -122609.650036 kJ/mol
# GULP energy per Si atom -5573.165911 kJ/mol
# Density = 1.812807 g / cm^3
# Si number density = 18.169429 Si / 1000 Ang^3
#
#
#
# Elastic Constant Matrix: (Units=GPa)
#
#
# Indices 1 2 3 4 5 6 
#
# 1 164.4640 57.8502 34.5574 -0.0007 7.7979 0.0007
# 2 57.8502 74.5370 14.9270 -0.0001 -2.1218 0.0001
# 3 34.5574 14.9270 46.5404 -0.0005 21.5495 0.0007
# 4 -0.0007 -0.0001 -0.0005 5.5985 0.0006 -0.4718
# 5 7.7979 -2.1218 21.5495 0.0006 31.6768 -0.0007
# 6 0.0007 0.0001 0.0007 -0.4718 -0.0007 19.9018
#
#
#
# Elastic Compliance Matrix: (Units=1/GPa)
#
#
# Indices 1 2 3 4 5 6 
#
# 1 0.009326 -0.006127 -0.005411 0.000000 0.000975 0.000000
# 2 -0.006127 0.019179 -0.004227 -0.000001 0.005668 0.000000
# 3 -0.005411 -0.004227 0.038503 0.000005 -0.025144 -0.000002
# 4 0.000000 -0.000001 0.000005 0.178978 -0.000007 0.004243
# 5 0.000975 0.005668 -0.025144 -0.000007 0.048814 0.000002
# 6 0.000000 0.000000 -0.000002 0.004243 0.000002 0.050347
#
#
# Mechanical properties :
#
#
# Convention : Reuss Voigt Hill
#
# Bulk Modulus (GPa) = 28.18593 55.57895 41.88244
# Shear Modulus (GPa) = 12.86989 23.31586 18.09288
#
# Velocity S-wave (km/s) = 2.66433 3.58613 3.15903
# Velocity P-wave (km/s) = 5.00114 6.91396 6.03383
#
# Compressibility (1/GPa) = 0.03547869
#
# Stress axis : x y z
#
# Youngs Moduli (GPa) = 107.22319 52.13978 25.97204
#
# Poissons Ratio (x) = 0.31946 0.14055
# Poissons Ratio (y) = 0.65695 0.10977
# Poissons Ratio (z) = 0.58023 0.22037
#
# Static dielectric constant tensor:
#      x y z
#    x 1.690560 0.000000 0.022320 
#    y 0.000000 1.594460 0.000000 
#    z 0.022320 0.000000 1.687370 
# 
# From -- ./inp_files/148544.got.cif
#   From: 2010.05.17/outbox.cif.g08.bks.cpg/sg12_75_cif.got.tgz:148544.got - 2010.06.03 13:09:07.
