data_PCOD9172142
_publ_section_title
;
Structure prediction by ZEFSAII (Michael W. Deem and Ramdas Pophale) SiO2 
 PCOD9172142
Probable space group: C 2/M
;
_chemical_formula_sum "Si O2"
_cell_formula_units_Z 56
_cell_length_a 25.759375
_cell_length_b 7.277416
_cell_length_c 17.987238
_cell_angle_alpha 90.000000
_cell_angle_beta 136.872939
_cell_angle_gamma 90.000000
_cell_volume 2305.105709
_symmetry_space_group_name_H-M "C 2/M"
_symmetry_group_IT_number 12
_symmetry_cell_setting 'monoclinic'
loop_
_space_group_symop_operation_xyz
x,y,z
-x,y,-z
-x,-y,-z
x,-y,z
1/2+x,1/2+y,z
1/2-x,1/2+y,-z
1/2-x,1/2-y,-z
1/2+x,1/2-y,z
loop_
_atom_site_type_symbol
_atom_site_label
_atom_site_fract_x
_atom_site_fract_y
_atom_site_fract_z
Si Si1 0.944788 0.724769 0.597163
Si Si2 0.614845 0.793470 0.016063
Si Si3 0.408322 0.224302 0.164085
Si Si4 0.822464 0.723079 0.766535
Si Si5 0.849363 0.287012 0.362357
Si Si6 0.336129 0.218261 0.615436
Si Si7 0.783951 0.276150 0.141817
O O1 0.942487 0.500000 0.592293
O O2 0.910951 0.790227 0.483637
O O3 0.889988 0.786848 0.606625
O O4 0.028205 0.777036 0.710274
O O5 0.626695 0.711930 0.110431
O O6 0.701191 0.798995 0.074325
O O7 0.584546 0.000000 0.994908
O O8 0.573679 0.711108 0.900878
O O9 0.327260 0.281774 0.112703
O O10 0.407883 0.000000 0.160152
O O11 0.823857 0.500000 0.770520
O O12 0.734454 0.776592 0.687656
O O13 0.847298 0.786539 0.711104
O O14 0.869555 0.500000 0.373177
O O15 0.836210 0.215310 0.266071
O O16 0.250000 0.250000 0.500000
O O17 0.348864 0.000000 0.632699
O O18 0.778323 0.500000 0.137257
#
# Coordination Sequence:
#
# PCOD9172142 Si02
#       7
#     8   8   8   8   8   8   8
#     4   9  17  28  43  65  92 117 143 179 222 263
#     4   9  17  30  47  65  88 118 149 180 217 257
#     4   9  17  29  44  64  91 120 147 180 219 258
#     4   9  17  28  44  67  90 112 143 182 219 256
#     4   9  16  27  44  67  90 113 144 181 220 258
#     4  10  18  29  47  68  89 113 144 180 218 261
#     4   9  17  28  46  69  88 112 150 187 217 253
#
# _framework density 24.293896
#
# number of rings (size 3 to 8) (size 9 to 14) (size 15 to 20)
#    0.000    2.857    1.429    0.429    0.000    0.571 
#    0.000    3.571    0.000    7.714    0.000    4.000 
#    0.000    5.714    0.000    0.000    0.000    0.000 
#
# Total GULP energy -156319.684081 kJ/mol
# GULP energy per Si atom -5582.845860 kJ/mol
# Density = 2.423860 g / cm^3
# Si number density = 24.293896 Si / 1000 Ang^3
#
#
#
# Elastic Constant Matrix: (Units=GPa)
#
#
# Indices 1 2 3 4 5 6 
#
# 1 35.0053 -7.7391 -10.2638 0.0000 -15.2404 0.0000
# 2 -7.7391 109.8286 -0.9505 0.0000 -5.5620 0.0000
# 3 -10.2638 -0.9505 109.5055 0.0000 -31.4480 0.0000
# 4 0.0000 0.0000 0.0000 -0.6086 0.0000 4.4003
# 5 -15.2404 -5.5620 -31.4480 0.0000 44.2728 0.0000
# 6 0.0000 0.0000 0.0000 4.4003 0.0000 3.4103
#
#
#
# Elastic Compliance Matrix: (Units=1/GPa)
#
#
# Indices 1 2 3 4 5 6 
#
# 1 0.042414 0.004224 0.010499 0.000000 0.022589 0.000000
# 2 0.004224 0.009607 0.001562 0.000000 0.003770 0.000000
# 3 0.010499 0.001562 0.014100 0.000000 0.013826 0.000000
# 4 0.000000 0.000000 0.000000 -0.159073 0.000000 0.205253
# 5 0.022589 0.003770 0.013826 0.000000 0.040658 0.000000
# 6 0.000000 0.000000 0.000000 0.205253 0.000000 0.028390
#
#
# Mechanical properties :
#
#
# Convention : Reuss Voigt Hill
#
# Bulk Modulus (GPa) = 10.13267 24.04806 17.09036
# Shear Modulus (GPa) = -212.07187 27.63442 -92.21873
#
# Velocity S-wave (km/s) = -9.35328 3.37635 -6.16782
# Velocity P-wave (km/s) = 10.60496 5.01198 6.60853
#
# Compressibility (1/GPa) = 0.09869070
#
# Stress axis : x y z
#
# Youngs Moduli (GPa) = 23.57719 104.08896 70.92098
#
# Poissons Ratio (x) = -0.43962 -0.74461
# Poissons Ratio (y) = -0.09958 -0.11078
# Poissons Ratio (z) = -0.24754 -0.16259
#
# Static dielectric constant tensor:
#      x y z
#    x 1.863810 0.000000 -0.018980 
#    y 0.000000 1.920340 0.000000 
#    z -0.018980 0.000000 1.982050 
# 
# From -- ./inp_files/245619.got.cif
#   From: 2010.05.17/outbox.cif.g08.bks.cpg/sg12_123_cif.got.tgz:245619.got - 2010.06.03 13:09:07.
