data_PCOD9172800
_publ_section_title
;
Structure prediction by ZEFSAII (Michael W. Deem and Ramdas Pophale) SiO2 
 PCOD9172800
Probable space group: C 2/M
;
_chemical_formula_sum "Si O2"
_cell_formula_units_Z 64
_cell_length_a 29.654089
_cell_length_b 8.904805
_cell_length_c 17.345097
_cell_angle_alpha 90.000000
_cell_angle_beta 63.957581
_cell_angle_gamma 90.000000
_cell_volume 4115.181096
_symmetry_space_group_name_H-M "C 2/M"
_symmetry_group_IT_number 12
_symmetry_cell_setting 'monoclinic'
loop_
_space_group_symop_operation_xyz
x,y,z
-x,y,-z
-x,-y,-z
x,-y,z
1/2+x,1/2+y,z
1/2-x,1/2+y,-z
1/2-x,1/2-y,-z
1/2+x,1/2-y,z
loop_
_atom_site_type_symbol
_atom_site_label
_atom_site_fract_x
_atom_site_fract_y
_atom_site_fract_z
Si Si1 0.048109 0.681109 0.912548
Si Si2 0.923913 0.817413 0.599295
Si Si3 0.242581 0.180284 0.920347
Si Si4 0.633162 0.675005 0.947523
Si Si5 0.919336 0.170593 0.847296
Si Si6 0.023395 0.322937 0.759311
Si Si7 0.529663 0.319190 0.595082
Si Si8 0.337897 0.677777 0.773863
O O1 0.046713 0.500000 0.913851
O O2 0.099362 0.736176 0.912510
O O3 0.042996 0.732191 0.827750
O O4 0.000000 0.732735 0.000000
O O5 0.935550 0.771654 0.502982
O O6 0.871718 0.768825 0.676438
O O7 0.972582 0.773874 0.613956
O O8 0.923429 0.000000 0.601417
O O9 0.189547 0.228616 0.922868
O O10 0.288168 0.232474 0.832124
O O11 0.241357 0.000000 0.929456
O O12 0.250000 0.250000 0.000000
O O13 0.635611 0.500000 0.922557
O O14 0.604225 0.682387 0.050726
O O15 0.875523 0.191157 0.818295
O O16 0.964209 0.285880 0.804284
O O17 0.939359 0.000000 0.821131
O O18 0.031839 0.500000 0.748232
O O19 0.044027 0.245746 0.666838
O O20 0.530276 0.500000 0.597754
O O21 0.326242 0.500000 0.773755
#
# Coordination Sequence:
#
# PCOD9172800 Si02
#       8
#     8   8   8   8   8   8   8   8
#     4  10  21  35  48  67  96 128 160 196 242 290
#     4   8  15  28  49  71  95 126 162 197 232 282
#     4  11  22  35  49  71  99 129 164 201 239 283
#     4  10  21  35  49  68  94 125 166 205 233 271
#     4  10  18  30  48  68  95 129 164 199 231 275
#     4  11  21  31  45  70 100 129 161 198 240 286
#     4   9  16  30  49  69  94 129 163 195 235 281
#     4  10  18  32  50  72  98 129 165 199 235 281
#
# _framework density 15.55217
#
# number of rings (size 3 to 8) (size 9 to 14) (size 15 to 20)
#    0.000    2.125    3.750    1.500    0.000    2.750 
#    0.000    1.875    0.000    0.000    0.000    0.875 
#    0.000    0.000    0.000    0.000    0.000    0.000 
#
# Total GULP energy -178398.519478 kJ/mol
# GULP energy per Si atom -5574.953734 kJ/mol
# Density = 1.551677 g / cm^3
# Si number density = 15.552170 Si / 1000 Ang^3
#
#
#
# Elastic Constant Matrix: (Units=GPa)
#
#
# Indices 1 2 3 4 5 6 
#
# 1 87.1096 24.2554 56.8238 0.0000 4.9420 0.0000
# 2 24.2554 18.6531 27.2711 0.0000 4.3628 0.0000
# 3 56.8238 27.2711 122.8336 0.0000 8.1943 0.0000
# 4 0.0000 0.0000 0.0000 22.4531 0.0000 -0.4785
# 5 4.9420 4.3628 8.1943 0.0000 24.8325 0.0000
# 6 0.0000 0.0000 0.0000 -0.4785 0.0000 23.7852
#
#
#
# Elastic Compliance Matrix: (Units=1/GPa)
#
#
# Indices 1 2 3 4 5 6 
#
# 1 0.019997 -0.018678 -0.005171 0.000000 0.001008 0.000000
# 2 -0.018678 0.098536 -0.012607 0.000000 -0.009435 0.000000
# 3 -0.005171 -0.012607 0.013411 0.000000 -0.001181 0.000000
# 4 0.000000 0.000000 0.000000 0.044556 0.000000 0.000896
# 5 0.001008 -0.009435 -0.001181 0.000000 0.042117 0.000000
# 6 0.000000 0.000000 0.000000 0.000896 0.000000 0.042061
#
#
# Mechanical properties :
#
#
# Convention : Reuss Voigt Hill
#
# Bulk Modulus (GPa) = 16.93990 49.47744 33.20867
# Shear Modulus (GPa) = 14.15359 22.23056 18.19207
#
# Velocity S-wave (km/s) = 3.02001 3.78487 3.42386
# Velocity P-wave (km/s) = 4.80381 7.14025 6.08522
#
# Compressibility (1/GPa) = 0.05903224
#
# Stress axis : x y z
#
# Youngs Moduli (GPa) = 50.00835 10.14853 74.56604
#
# Poissons Ratio (x) = 0.18956 0.38558
# Poissons Ratio (y) = 0.93407 0.94003
# Poissons Ratio (z) = 0.25859 0.12794
#
# Static dielectric constant tensor:
#      x y z
#    x 1.496150 0.000000 -0.002080 
#    y 0.000000 1.531210 0.000000 
#    z -0.002080 0.000000 1.539710 
# 
# From -- ./inp_files/294566.got.cif
#   From: 2010.05.17/outbox.cif.g08.bks.cpg/sg12_148_cif.got.tgz:294566.got - 2010.06.03 13:09:07.
