data_PCOD9172763
_publ_section_title
;
Structure prediction by ZEFSAII (Michael W. Deem and Ramdas Pophale) SiO2 
 PCOD9172763
Probable space group: C 2/M
;
_chemical_formula_sum "Si O2"
_cell_formula_units_Z 40
_cell_length_a 21.000648
_cell_length_b 7.776939
_cell_length_c 19.890919
_cell_angle_alpha 90.000000
_cell_angle_beta 133.624457
_cell_angle_gamma 90.000000
_cell_volume 2351.588196
_symmetry_space_group_name_H-M "C 2/M"
_symmetry_group_IT_number 12
_symmetry_cell_setting 'monoclinic'
loop_
_space_group_symop_operation_xyz
x,y,z
-x,y,-z
-x,-y,-z
x,-y,z
1/2+x,1/2+y,z
1/2-x,1/2+y,-z
1/2-x,1/2-y,-z
1/2+x,1/2-y,z
loop_
_atom_site_type_symbol
_atom_site_label
_atom_site_fract_x
_atom_site_fract_y
_atom_site_fract_z
Si Si1 0.232352 0.798280 0.751438
Si Si2 0.484320 0.000000 0.600174
Si Si3 0.068752 0.807149 0.734411
Si Si4 0.146441 0.500000 0.611568
Si Si5 0.405744 0.790252 0.958267
Si Si6 0.852784 0.293953 0.068247
O O1 0.159027 0.785548 0.757171
O O2 0.201503 0.669838 0.670706
O O3 0.325070 0.743162 0.850993
O O4 0.236398 0.000000 0.734603
O O5 0.501101 0.833390 0.657982
O O6 0.563463 0.000000 0.602788
O O7 0.395045 0.000000 0.492602
O O8 0.094587 0.781857 0.830601
O O9 0.036724 0.000000 0.699051
O O10 0.405900 0.000000 0.959686
O O11 0.500000 0.732399 0.000000
O O12 0.386583 0.733119 0.020311
O O13 0.861704 0.500000 0.077886
O O14 0.750000 0.250000 0.000000
#
# Coordination Sequence:
#
# PCOD9172763 Si02
#       6
#     8   4   8   4   8   8
#     4   9  17  30  48  70  99 135 168 203 250 303
#     4   9  18  32  46  72 101 130 162 213 262 300
#     4  10  18  30  47  72 102 130 166 209 250 303
#     4   9  18  30  49  70 100 130 167 209 258 306
#     4   9  18  32  49  72 106 140 172 208 250 302
#     4  11  19  29  49  74 102 140 173 203 250 304
#
# _framework density 17.009781
#
# number of rings (size 3 to 8) (size 9 to 14) (size 15 to 20)
#    0.000    2.400    3.000    0.600    0.000    0.800 
#    1.800    4.500    0.000    0.000    0.000    1.400 
#    0.000    0.000    0.000    0.000    0.000    0.000 
#
# Total GULP energy -111542.516213 kJ/mol
# GULP energy per Si atom -5577.125811 kJ/mol
# Density = 1.697107 g / cm^3
# Si number density = 17.009781 Si / 1000 Ang^3
#
#
#
# Elastic Constant Matrix: (Units=GPa)
#
#
# Indices 1 2 3 4 5 6 
#
# 1 69.0150 26.2797 46.7734 0.0000 -1.4357 0.0000
# 2 26.2797 96.7492 76.5919 0.0000 2.7892 0.0000
# 3 46.7734 76.5919 175.0131 0.0000 -5.7261 0.0000
# 4 0.0000 0.0000 0.0000 21.7356 0.0000 2.3725
# 5 -1.4357 2.7892 -5.7261 0.0000 11.9026 0.0000
# 6 0.0000 0.0000 0.0000 2.3725 0.0000 8.1795
#
#
#
# Elastic Compliance Matrix: (Units=1/GPa)
#
#
# Indices 1 2 3 4 5 6 
#
# 1 0.017868 -0.001694 -0.004014 0.000000 0.000621 0.000000
# 2 -0.001694 0.016598 -0.007056 0.000000 -0.007488 0.000000
# 3 -0.004014 -0.007056 0.010071 0.000000 0.006015 0.000000
# 4 0.000000 0.000000 0.000000 0.047512 0.000000 -0.013781
# 5 0.000621 -0.007488 0.006015 0.000000 0.088739 0.000000
# 6 0.000000 0.000000 0.000000 -0.013781 0.000000 0.126254
#
#
# Mechanical properties :
#
#
# Convention : Reuss Voigt Hill
#
# Bulk Modulus (GPa) = 52.60476 71.11859 61.86167
# Shear Modulus (GPa) = 14.75340 21.10571 17.92955
#
# Velocity S-wave (km/s) = 2.94827 3.52632 3.25017
# Velocity P-wave (km/s) = 6.52557 7.64729 7.10859
#
# Compressibility (1/GPa) = 0.01900969
#
# Stress axis : x y z
#
# Youngs Moduli (GPa) = 55.96705 60.24803 99.29158
#
# Poissons Ratio (x) = 0.10205 0.39852
# Poissons Ratio (y) = 0.09480 0.70062
# Poissons Ratio (z) = 0.22463 0.42512
#
# Static dielectric constant tensor:
#      x y z
#    x 1.555130 0.000000 -0.007440 
#    y 0.000000 1.604380 0.000000 
#    z -0.007440 0.000000 1.554200 
# 
# From -- ./inp_files/229112.got.cif
#   From: 2010.05.17/outbox.cif.g08.bks.cpg/sg12_115_cif.got.tgz:229112.got - 2010.06.03 13:09:07.
