data_PCOD9172286
_publ_section_title
;
Structure prediction by ZEFSAII (Michael W. Deem and Ramdas Pophale) SiO2 
 PCOD9172286
Probable space group: C 2/M
;
_chemical_formula_sum "Si O2"
_cell_formula_units_Z 48
_cell_length_a 8.570559
_cell_length_b 17.281151
_cell_length_c 18.217990
_cell_angle_alpha 90.000000
_cell_angle_beta 118.063243
_cell_angle_gamma 90.000000
_cell_volume 2381.014133
_symmetry_space_group_name_H-M "C 2/M"
_symmetry_group_IT_number 12
_symmetry_cell_setting 'monoclinic'
loop_
_space_group_symop_operation_xyz
x,y,z
-x,y,-z
-x,-y,-z
x,-y,z
1/2+x,1/2+y,z
1/2-x,1/2+y,-z
1/2-x,1/2-y,-z
1/2+x,1/2-y,z
loop_
_atom_site_type_symbol
_atom_site_label
_atom_site_fract_x
_atom_site_fract_y
_atom_site_fract_z
Si Si1 0.326207 0.217016 0.342118
Si Si2 0.287970 0.913201 0.937277
Si Si3 0.751867 0.818532 0.940880
Si Si4 0.358029 0.217016 0.842118
Si Si5 0.370108 0.318532 0.559120
Si Si6 0.086584 0.586799 0.437277
O O1 0.239606 0.250000 0.250000
O O2 0.430549 0.289499 0.401766
O O3 0.182818 0.181756 0.366357
O O4 0.477481 0.150627 0.366772
O O5 0.256063 0.849373 0.866772
O O6 0.242260 0.000000 0.904478
O O7 0.500000 0.908529 0.000000
O O8 0.209042 0.891977 0.999695
O O9 0.549895 0.818244 0.866357
O O10 0.872982 0.789499 0.901766
O O11 0.750000 0.750000 0.000000
O O12 0.250000 0.250000 0.500000
O O13 0.290349 0.391977 0.499696
O O14 0.066696 0.500000 0.404478
O O15 0.000000 0.591471 0.500000
#
# Coordination Sequence:
#
# PCOD9172286 Si02
#       6
#     8   8   8   8   8   8
#     4  10  18  29  48  72  96 121 155 201 242 277
#     4   8  15  29  48  67  89 123 160 187 222 280
#     4   9  17  30  49  69  91 125 163 194 228 281
#     4  10  18  29  48  72  96 121 155 201 242 277
#     4   9  17  30  49  69  91 125 163 194 228 281
#     4   8  15  29  48  67  89 123 160 187 222 280
#
# _framework density 20.159476000000002
#
# number of rings (size 3 to 8) (size 9 to 14) (size 15 to 20)
#    0.000    3.000    0.000    4.000    0.000    0.000 
#    0.000    1.667    0.000   36.000    0.000    0.000 
#    0.000    0.000    0.000    0.000    0.000    0.000 
#
# Total GULP energy -133614.155281 kJ/mol
# GULP energy per Si atom -5567.256470 kJ/mol
# Density = 2.011359 g / cm^3
# Si number density = 20.159476 Si / 1000 Ang^3
#
#
#
# Elastic Constant Matrix: (Units=GPa)
#
#
# Indices 1 2 3 4 5 6 
#
# 1 63.9218 8.2923 14.9404 0.0000 -0.1498 0.0000
# 2 8.2923 101.5434 42.3069 0.0000 0.4029 0.0000
# 3 14.9404 42.3069 110.0855 0.0000 0.6964 0.0000
# 4 0.0000 0.0000 0.0000 26.5735 0.0000 0.1284
# 5 -0.1498 0.4029 0.6964 0.0000 18.1774 0.0000
# 6 0.0000 0.0000 0.0000 0.1284 0.0000 15.7363
#
#
#
# Elastic Compliance Matrix: (Units=1/GPa)
#
#
# Indices 1 2 3 4 5 6 
#
# 1 0.016177 -0.000484 -0.002011 0.000000 0.000221 0.000000
# 2 -0.000484 0.011740 -0.004446 0.000000 -0.000094 0.000000
# 3 -0.002011 -0.004446 0.011067 0.000000 -0.000342 0.000000
# 4 0.000000 0.000000 0.000000 0.037633 0.000000 -0.000307
# 5 0.000221 -0.000094 -0.000342 0.000000 0.055031 0.000000
# 6 0.000000 0.000000 0.000000 -0.000307 0.000000 0.063550
#
#
# Mechanical properties :
#
#
# Convention : Reuss Voigt Hill
#
# Bulk Modulus (GPa) = 39.83461 45.18109 42.50785
# Shear Modulus (GPa) = 22.99408 26.09817 24.54613
#
# Velocity S-wave (km/s) = 3.38095 3.60194 3.49319
# Velocity P-wave (km/s) = 5.91978 6.30548 6.11567
#
# Compressibility (1/GPa) = 0.02510380
#
# Stress axis : x y z
#
# Youngs Moduli (GPa) = 61.81444 85.17824 90.35570
#
# Poissons Ratio (x) = 0.04124 0.18169
# Poissons Ratio (y) = 0.02993 0.40168
# Poissons Ratio (z) = 0.12430 0.37866
#
# Static dielectric constant tensor:
#      x y z
#    x 1.846500 0.000000 -0.001370 
#    y 0.000000 1.762370 0.000000 
#    z -0.001370 0.000000 1.731240 
# 
# From -- ./inp_files/264000.got.cif
#   From: 2010.05.17/outbox.cif.g08.bks.cpg/sg12_132_cif.got.tgz:264000.got - 2010.06.03 13:09:07.
