data_PCOD9172601
_publ_section_title
;
Structure prediction by ZEFSAII (Michael W. Deem and Ramdas Pophale) SiO2 
 PCOD9172601
Probable space group: C 2/M
;
_chemical_formula_sum "Si O2"
_cell_formula_units_Z 48
_cell_length_a 16.377786
_cell_length_b 14.282418
_cell_length_c 8.918531
_cell_angle_alpha 90.000000
_cell_angle_beta 107.238077
_cell_angle_gamma 90.000000
_cell_volume 1992.465228
_symmetry_space_group_name_H-M "C 2/M"
_symmetry_group_IT_number 12
_symmetry_cell_setting 'monoclinic'
loop_
_space_group_symop_operation_xyz
x,y,z
-x,y,-z
-x,-y,-z
x,-y,z
1/2+x,1/2+y,z
1/2-x,1/2+y,-z
1/2-x,1/2-y,-z
1/2+x,1/2-y,z
loop_
_atom_site_type_symbol
_atom_site_label
_atom_site_fract_x
_atom_site_fract_y
_atom_site_fract_z
Si Si1 0.276001 0.111489 0.232101
Si Si2 0.561573 0.658856 0.419133
Si Si3 0.764846 0.891260 0.448877
Si Si4 0.094588 0.177447 0.102013
Si Si5 0.603928 0.103913 0.143854
Si Si6 0.971992 0.356867 0.321532
O O1 0.269474 0.135636 0.405982
O O2 0.190155 0.147474 0.102304
O O3 0.371275 0.141369 0.238067
O O4 0.274593 0.000000 0.219372
O O5 0.500000 0.604970 0.500000
O O6 0.652650 0.668811 0.549631
O O7 0.592052 0.632851 0.269495
O O8 0.508549 0.751847 0.351877
O O9 0.689021 0.885669 0.290310
O O10 0.793185 0.000000 0.470040
O O11 0.095080 0.290443 0.075623
O O12 0.000000 0.146209 0.000000
O O13 0.524352 0.098233 0.215149
O O14 0.610259 0.000000 0.072033
O O15 0.000000 0.397185 0.500000
#
# Coordination Sequence:
#
# PCOD9172601 Si02
#       6
#     8   8   8   8   8   8
#     4  10  20  34  58  86 114 147 189 240 288 337
#     4   9  20  34  56  85 114 146 188 235 283 332
#     4   9  18  32  53  84 114 149 191 236 286 335
#     4  10  23  40  58  83 115 157 194 229 281 339
#     4  10  20  33  55  83 115 150 191 235 281 339
#     4  10  18  29  54  87 118 144 177 238 298 335
#
# _framework density 24.09076
#
# number of rings (size 3 to 8) (size 9 to 14) (size 15 to 20)
#    0.000    2.333    1.667    0.500    4.667    3.667 
#    0.000    3.333    0.000    0.000    0.000    0.000 
#    0.000    0.000    0.000    0.000    0.000    0.000 
#
# Total GULP energy -133703.701200 kJ/mol
# GULP energy per Si atom -5570.987550 kJ/mol
# Density = 2.403593 g / cm^3
# Si number density = 24.090760 Si / 1000 Ang^3
#
#
#
# Elastic Constant Matrix: (Units=GPa)
#
#
# Indices 1 2 3 4 5 6 
#
# 1 174.8158 49.3536 43.0703 0.0000 62.1703 0.0000
# 2 49.3536 87.4762 16.2928 0.0000 28.8520 0.0000
# 3 43.0703 16.2928 71.7194 0.0000 48.4496 0.0000
# 4 0.0000 0.0000 0.0000 24.4769 0.0000 18.5731
# 5 62.1703 28.8520 48.4496 0.0000 60.4223 0.0000
# 6 0.0000 0.0000 0.0000 18.5731 0.0000 33.4312
#
#
#
# Elastic Compliance Matrix: (Units=1/GPa)
#
#
# Indices 1 2 3 4 5 6 
#
# 1 0.009539 -0.002409 0.001466 0.000000 -0.009840 0.000000
# 2 -0.002409 0.014445 0.002510 0.000000 -0.006431 0.000000
# 3 0.001466 0.002510 0.031248 0.000000 -0.027763 0.000000
# 4 0.000000 0.000000 0.000000 0.070629 0.000000 -0.039239
# 5 -0.009840 -0.006431 -0.027763 0.000000 0.052007 0.000000
# 6 0.000000 0.000000 0.000000 -0.039239 0.000000 0.051712
#
#
# Mechanical properties :
#
#
# Convention : Reuss Voigt Hill
#
# Bulk Modulus (GPa) = 17.13376 61.27164 39.20270
# Shear Modulus (GPa) = 20.33344 38.68575 29.50959
#
# Velocity S-wave (km/s) = 2.90838 4.01163 3.50370
# Velocity P-wave (km/s) = 4.29020 6.85175 5.71631
#
# Compressibility (1/GPa) = 0.05836430
#
# Stress axis : x y z
#
# Youngs Moduli (GPa) = 104.83717 69.23007 32.00230
#
# Poissons Ratio (x) = 0.16680 -0.04692
# Poissons Ratio (y) = 0.25258 -0.08032
# Poissons Ratio (z) = -0.15372 -0.17375
#
# Static dielectric constant tensor:
#      x y z
#    x 2.002700 0.000000 -0.023460 
#    y 0.000000 1.944990 0.000000 
#    z -0.023460 0.000000 2.051040 
# 
# From -- ./inp_files/142685.got.cif
#   From: 2010.05.17/outbox.cif.g08.bks.cpg/sg12_72_cif.got.tgz:142685.got - 2010.06.03 13:09:07.
