data_PCOD9172775
_publ_section_title
;
Structure prediction by ZEFSAII (Michael W. Deem and Ramdas Pophale) SiO2 
 PCOD9172775
Probable space group: C 2/M
;
_chemical_formula_sum "Si O2"
_cell_formula_units_Z 34
_cell_length_a 18.716677
_cell_length_b 14.412853
_cell_length_c 5.553912
_cell_angle_alpha 90.000000
_cell_angle_beta 65.491908
_cell_angle_gamma 90.000000
_cell_volume 1363.241027
_symmetry_space_group_name_H-M "C 2/M"
_symmetry_group_IT_number 12
_symmetry_cell_setting 'monoclinic'
loop_
_space_group_symop_operation_xyz
x,y,z
-x,y,-z
-x,-y,-z
x,-y,z
1/2+x,1/2+y,z
1/2-x,1/2+y,-z
1/2-x,1/2-y,-z
1/2+x,1/2-y,z
loop_
_atom_site_type_symbol
_atom_site_label
_atom_site_fract_x
_atom_site_fract_y
_atom_site_fract_z
Si Si1 0.933457 0.856963 0.777135
Si Si2 0.516476 0.840833 0.726858
Si Si3 0.743922 0.360969 0.044035
Si Si4 0.302249 0.842403 0.461417
Si Si5 0.000000 0.000000 0.000000
O O1 0.848446 0.874343 0.787162
O O2 0.000000 0.893529 0.500000
O O3 0.959999 0.751054 0.793041
O O4 0.938275 0.918137 0.007662
O O5 0.500000 0.890953 0.500000
O O6 0.608014 0.814759 0.611775
O O7 0.500000 0.890133 0.000000
O O8 0.792193 0.389573 0.213240
O O9 0.750000 0.250000 0.000000
O O10 0.772599 0.394922 0.742148
O O11 0.250000 0.750000 0.500000
#
# Coordination Sequence:
#
# PCOD9172775 Si02
#       5
#     8   8   8   8   2
#     4  11  23  37  52  76 107 151 194 221 266 319
#     4  11  19  31  52  74 109 142 180 218 267 332
#     4  10  20  32  53  73 101 136 184 224 275 319
#     4  10  18  30  47  76  96 136 176 215 277 319
#     4  12  26  36  56  70 112 152 206 220 254 304
#
# _framework density 24.940564999999999
#
# number of rings (size 3 to 8) (size 9 to 14) (size 15 to 20)
#    0.000    1.412    1.176   10.235    3.294    0.000 
#    0.000    0.000    0.000    0.000    0.000    0.000 
#    0.000    0.000    0.000   66.706    0.000    0.000 
#
# Total GULP energy -94692.137314 kJ/mol
# GULP energy per Si atom -5570.125724 kJ/mol
# Density = 2.488380 g / cm^3
# Si number density = 24.940565 Si / 1000 Ang^3
#
#
#
# Elastic Constant Matrix: (Units=GPa)
#
#
# Indices 1 2 3 4 5 6 
#
# 1 167.6185 -8.8339 58.1975 0.0000 23.1704 0.0000
# 2 -8.8339 89.4558 7.6581 0.0000 10.1546 0.0000
# 3 58.1975 7.6581 208.5788 0.0000 37.2635 0.0000
# 4 0.0000 0.0000 0.0000 -23.3997 0.0000 12.7577
# 5 23.1704 10.1546 37.2635 0.0000 56.4095 0.0000
# 6 0.0000 0.0000 0.0000 12.7577 0.0000 4.8032
#
#
#
# Elastic Compliance Matrix: (Units=1/GPa)
#
#
# Indices 1 2 3 4 5 6 
#
# 1 0.006844 0.001033 -0.001601 0.000000 -0.001940 0.000000
# 2 0.001033 0.011568 -0.000301 0.000000 -0.002308 0.000000
# 3 -0.001601 -0.000301 0.005811 0.000000 -0.003127 0.000000
# 4 0.000000 0.000000 0.000000 -0.017457 0.000000 0.046366
# 5 -0.001940 -0.002308 -0.003127 0.000000 0.021005 0.000000
# 6 0.000000 0.000000 0.000000 0.046366 0.000000 0.085043
#
#
# Mechanical properties :
#
#
# Convention : Reuss Voigt Hill
#
# Bulk Modulus (GPa) = 44.47123 64.41070 54.44097
# Shear Modulus (GPa) = 40.96753 34.80468 37.88610
#
# Velocity S-wave (km/s) = 4.05730 3.73970 3.90173
# Velocity P-wave (km/s) = 6.31019 6.67300 6.49413
#
# Compressibility (1/GPa) = 0.02248645
#
# Stress axis : x y z
#
# Youngs Moduli (GPa) = 146.10445 86.44166 172.09519
#
# Poissons Ratio (x) = -0.08931 0.27555
# Poissons Ratio (y) = -0.15095 0.05174
# Poissons Ratio (z) = 0.23393 0.02599
#
# Static dielectric constant tensor:
#      x y z
#    x 2.098590 0.000000 -0.049370 
#    y 0.000000 1.977100 0.000000 
#    z -0.049370 0.000000 2.258460 
# 
# From -- ./inp_files/10741.got.cif
#   From: 2010.05.17/outbox.cif.g08.bks.cpg/sg12_6_cif.got.tgz:10741.got - 2010.06.03 13:09:07.
