data_PCOD9172514
_publ_section_title
;
Structure prediction by ZEFSAII (Michael W. Deem and Ramdas Pophale) SiO2 
 PCOD9172514
Probable space group: C 2/M
;
_chemical_formula_sum "Si O2"
_cell_formula_units_Z 64
_cell_length_a 17.729002
_cell_length_b 22.483048
_cell_length_c 12.042999
_cell_angle_alpha 90.000000
_cell_angle_beta 130.283212
_cell_angle_gamma 90.000000
_cell_volume 3661.994805
_symmetry_space_group_name_H-M "C 2/M"
_symmetry_group_IT_number 12
_symmetry_cell_setting 'monoclinic'
loop_
_space_group_symop_operation_xyz
x,y,z
-x,y,-z
-x,-y,-z
x,-y,z
1/2+x,1/2+y,z
1/2-x,1/2+y,-z
1/2-x,1/2-y,-z
1/2+x,1/2-y,z
loop_
_atom_site_type_symbol
_atom_site_label
_atom_site_fract_x
_atom_site_fract_y
_atom_site_fract_z
Si Si1 0.409144 0.163868 0.495039
Si Si2 0.028552 0.220449 0.322763
Si Si3 0.612309 0.606887 0.493373
Si Si4 0.604504 0.567147 0.740217
Si Si5 0.751574 0.776542 0.817714
Si Si6 0.408846 0.348001 0.841559
Si Si7 0.697534 0.680119 0.898778
Si Si8 0.749577 0.571545 0.427288
O O1 0.500000 0.147029 0.500000
O O2 0.444149 0.212099 0.620751
O O3 0.332564 0.199968 0.343660
O O4 0.348830 0.108664 0.490916
O O5 0.084589 0.176801 0.463512
O O6 0.061814 0.190939 0.238265
O O7 0.910885 0.210919 0.213960
O O8 0.619106 0.583794 0.624750
O O9 0.511967 0.577640 0.347220
O O10 0.705381 0.589466 0.506468
O O11 0.629999 0.500000 0.784657
O O12 0.672130 0.611419 0.872764
O O13 0.852314 0.801607 0.865612
O O14 0.752008 0.706372 0.842801
O O15 0.744856 0.803861 0.935017
O O16 0.334647 0.400248 0.733665
O O17 0.500000 0.371460 0.000000
O O18 0.759210 0.500000 0.427735
#
# Coordination Sequence:
#
# PCOD9172514 Si02
#       8
#     8   8   8   8   8   8   8   8
#     4  11  22  36  57  81 106 142 189 235 276 316
#     4  10  19  33  56  80 107 139 177 222 279 326
#     4   9  18  31  52  80 111 140 175 222 275 326
#     4  10  18  29  50  79 111 145 178 214 270 334
#     4  10  20  34  53  76 109 140 177 225 273 327
#     4  10  20  35  54  82 113 137 176 227 280 337
#     4  10  19  32  52  76 106 145 174 216 277 323
#     4  10  22  37  53  76 111 150 190 225 268 325
#
# _framework density 17.476813
#
# number of rings (size 3 to 8) (size 9 to 14) (size 15 to 20)
#    0.000    2.000    2.500    2.250    1.750    6.000 
#    0.000    2.500    0.000    0.000    0.000    0.000 
#    0.000    3.000    0.000    0.000    0.000    0.000 
#
# Total GULP energy -178306.962332 kJ/mol
# GULP energy per Si atom -5572.092573 kJ/mol
# Density = 1.743704 g / cm^3
# Si number density = 17.476813 Si / 1000 Ang^3
#
#
#
# Elastic Constant Matrix: (Units=GPa)
#
#
# Indices 1 2 3 4 5 6 
#
# 1 68.9492 52.1372 -0.4169 0.0000 0.2732 0.0000
# 2 52.1372 120.0744 22.8078 0.0000 6.5331 0.0000
# 3 -0.4169 22.8078 40.5932 0.0000 2.1992 0.0000
# 4 0.0000 0.0000 0.0000 11.0774 0.0000 2.2501
# 5 0.2732 6.5331 2.1992 0.0000 16.8704 0.0000
# 6 0.0000 0.0000 0.0000 2.2501 0.0000 17.4769
#
#
#
# Elastic Compliance Matrix: (Units=1/GPa)
#
#
# Indices 1 2 3 4 5 6 
#
# 1 0.023226 -0.011500 0.006525 0.000000 0.003227 0.000000
# 2 -0.011500 0.015165 -0.008390 0.000000 -0.004593 0.000000
# 3 0.006525 -0.008390 0.029453 0.000000 -0.000696 0.000000
# 4 0.000000 0.000000 0.000000 0.092698 0.000000 -0.011935
# 5 0.003227 -0.004593 -0.000696 0.000000 0.061093 0.000000
# 6 0.000000 0.000000 0.000000 -0.011935 0.000000 0.058755
#
#
# Mechanical properties :
#
#
# Convention : Reuss Voigt Hill
#
# Bulk Modulus (GPa) = 24.32206 42.07475 33.19841
# Shear Modulus (GPa) = 15.58486 19.42418 17.50452
#
# Velocity S-wave (km/s) = 2.98945 3.33742 3.16822
# Velocity P-wave (km/s) = 5.08554 6.24324 5.69389
#
# Compressibility (1/GPa) = 0.04111493
#
# Stress axis : x y z
#
# Youngs Moduli (GPa) = 43.05534 65.94121 33.95191
#
# Poissons Ratio (x) = 0.75831 -0.22154
# Poissons Ratio (y) = 0.49513 0.28485
# Poissons Ratio (z) = -0.28094 0.55324
#
# Static dielectric constant tensor:
#      x y z
#    x 1.640610 0.000000 -0.021030 
#    y 0.000000 1.613520 0.000000 
#    z -0.021030 0.000000 1.600990 
# 
# From -- ./inp_files/160316.got.cif
#   From: 2010.05.17/outbox.cif.g08.bks.cpg/sg12_81_cif.got.tgz:160316.got - 2010.06.03 13:09:07.
