data_PCOD9172668
_publ_section_title
;
Structure prediction by ZEFSAII (Michael W. Deem and Ramdas Pophale) SiO2 
 PCOD9172668
Probable space group: C 2/M
;
_chemical_formula_sum "Si O2"
_cell_formula_units_Z 56
_cell_length_a 33.501608
_cell_length_b 7.315545
_cell_length_c 9.953827
_cell_angle_alpha 90.000000
_cell_angle_beta 90.465335
_cell_angle_gamma 90.000000
_cell_volume 2439.428558
_symmetry_space_group_name_H-M "C 2/M"
_symmetry_group_IT_number 12
_symmetry_cell_setting 'monoclinic'
loop_
_space_group_symop_operation_xyz
x,y,z
-x,y,-z
-x,-y,-z
x,-y,z
1/2+x,1/2+y,z
1/2-x,1/2+y,-z
1/2-x,1/2-y,-z
1/2+x,1/2-y,z
loop_
_atom_site_type_symbol
_atom_site_label
_atom_site_fract_x
_atom_site_fract_y
_atom_site_fract_z
Si Si1 0.923651 0.722767 0.338766
Si Si2 0.001617 0.722828 0.843509
Si Si3 0.706858 0.783135 0.558003
Si Si4 0.659920 0.223159 0.306081
Si Si5 0.571424 0.222629 0.348395
Si Si6 0.794665 0.718037 0.948093
Si Si7 0.840470 0.277125 0.201341
O O1 0.923036 0.500000 0.343050
O O2 0.958854 0.776920 0.238026
O O3 0.930409 0.780332 0.494345
O O4 0.881496 0.780538 0.272615
O O5 0.001294 0.500000 0.846560
O O6 0.964237 0.780982 0.750211
O O7 0.000000 0.781427 0.000000
O O8 0.750000 0.750000 0.500000
O O9 0.674531 0.714335 0.451601
O O10 0.696218 0.716926 0.704846
O O11 0.701992 0.000000 0.564465
O O12 0.614129 0.276723 0.287580
O O13 0.692028 0.286080 0.197316
O O14 0.660357 0.000000 0.306601
O O15 0.570160 0.000000 0.351526
O O16 0.798079 0.500000 0.942424
O O17 0.750000 0.750000 0.000000
O O18 0.828216 0.784589 0.053648
O O19 0.842202 0.500000 0.196051
#
# Coordination Sequence:
#
# PCOD9172668 Si02
#       7
#     8   8   8   8   8   8   8
#     4   9  15  25  38  54  79 112 147 180 216 262
#     4   9  17  23  33  55  81 111 146 181 216 257
#     4  10  18  30  46  65  87 115 151 188 222 262
#     4   9  17  28  43  61  83 114 151 184 220 269
#     4   9  15  25  38  54  79 112 147 180 216 262
#     4  10  20  32  46  65  89 119 153 190 230 268
#     4   9  17  28  43  61  83 114 151 184 220 269
#
# _framework density 22.956195999999998
#
# number of rings (size 3 to 8) (size 9 to 14) (size 15 to 20)
#    0.000    2.714    1.429    1.286    2.000    1.714 
#    0.000    0.000    0.000    0.000    0.000    0.000 
#    0.000    0.000    0.000    7.714    0.000    8.571 
#
# Total GULP energy -156318.384802 kJ/mol
# GULP energy per Si atom -5582.799457 kJ/mol
# Density = 2.290395 g / cm^3
# Si number density = 22.956196 Si / 1000 Ang^3
#
#
#
# Elastic Constant Matrix: (Units=GPa)
#
#
# Indices 1 2 3 4 5 6 
#
# 1 109.2170 -7.5273 23.5034 0.0000 -3.4809 0.0000
# 2 -7.5273 90.3244 2.9532 0.0000 -0.1033 0.0000
# 3 23.5034 2.9532 108.4375 0.0000 -4.8813 0.0000
# 4 0.0000 0.0000 0.0000 -13.2519 0.0000 -6.5131
# 5 -3.4809 -0.1033 -4.8813 0.0000 41.8206 0.0000
# 6 0.0000 0.0000 0.0000 -6.5131 0.0000 -2.3131
#
#
#
# Elastic Compliance Matrix: (Units=1/GPa)
#
#
# Indices 1 2 3 4 5 6 
#
# 1 0.009686 0.000876 -0.002098 0.000000 0.000564 0.000000
# 2 0.000876 0.011160 -0.000492 0.000000 0.000043 0.000000
# 3 -0.002098 -0.000492 0.009733 0.000000 0.000960 0.000000
# 4 0.000000 0.000000 0.000000 0.196561 0.000000 -0.553473
# 5 0.000564 0.000043 0.000960 0.000000 0.024071 0.000000
# 6 0.000000 0.000000 0.000000 -0.553473 0.000000 1.126130
#
#
# Mechanical properties :
#
#
# Convention : Reuss Voigt Hill
#
# Bulk Modulus (GPa) = 36.82879 38.42639 37.62759
# Shear Modulus (GPa) = 3.59759 24.52110 14.05934
#
# Velocity S-wave (km/s) = 1.25322 3.27183 2.47744
# Velocity P-wave (km/s) = 4.26286 5.57212 4.96087
#
# Compressibility (1/GPa) = 0.02715267
#
# Stress axis : x y z
#
# Youngs Moduli (GPa) = 103.24269 89.60269 102.74074
#
# Poissons Ratio (x) = -0.07853 0.21554
# Poissons Ratio (y) = -0.09048 0.05055
# Poissons Ratio (z) = 0.21659 0.04408
#
# Static dielectric constant tensor:
#      x y z
#    x 1.796900 0.000000 0.026880 
#    y 0.000000 2.596670 0.000000 
#    z 0.026880 0.000000 1.793210 
# 
# From -- ./inp_files/110878.got.cif
#   From: 2010.05.17/outbox.cif.g08.bks.cpg/sg12_56_cif.got.tgz:110878.got - 2010.06.03 13:09:07.
