data_PCOD9172758
_publ_section_title
;
Structure prediction by ZEFSAII (Michael W. Deem and Ramdas Pophale) SiO2 
 PCOD9172758
Probable space group: C 2/M
;
_chemical_formula_sum "Si O2"
_cell_formula_units_Z 48
_cell_length_a 15.552276
_cell_length_b 17.296233
_cell_length_c 12.212854
_cell_angle_alpha 90.000000
_cell_angle_beta 120.409015
_cell_angle_gamma 90.000000
_cell_volume 2833.273738
_symmetry_space_group_name_H-M "C 2/M"
_symmetry_group_IT_number 12
_symmetry_cell_setting 'monoclinic'
loop_
_space_group_symop_operation_xyz
x,y,z
-x,y,-z
-x,-y,-z
x,-y,z
1/2+x,1/2+y,z
1/2-x,1/2+y,-z
1/2-x,1/2-y,-z
1/2+x,1/2-y,z
loop_
_atom_site_type_symbol
_atom_site_label
_atom_site_fract_x
_atom_site_fract_y
_atom_site_fract_z
Si Si1 0.956996 0.588551 0.847690
Si Si2 0.275519 0.176464 0.813077
Si Si3 0.666348 0.353035 0.115263
Si Si4 0.667925 0.090213 0.927591
Si Si5 0.075496 0.909905 0.648733
Si Si6 0.502176 0.409148 0.844994
O O1 0.929990 0.500000 0.805173
O O2 0.860751 0.641539 0.789254
O O3 0.052217 0.612941 0.837108
O O4 0.000000 0.590436 0.000000
O O5 0.296554 0.266769 0.838726
O O6 0.168119 0.148284 0.703879
O O7 0.289838 0.138621 0.943064
O O8 0.761273 0.398807 0.130291
O O9 0.606742 0.387350 0.180160
O O10 0.583174 0.359479 0.965047
O O11 0.667524 0.000000 0.959903
O O12 0.019145 0.897972 0.727727
O O13 0.000000 0.900406 0.500000
O O14 0.111497 0.000000 0.671841
O O15 0.521645 0.500000 0.882160
#
# Coordination Sequence:
#
# PCOD9172758 Si02
#       6
#     8   8   8   8   8   8
#     4   8  16  27  43  65  99 137 164 199 254 312
#     4  11  20  30  49  79 110 135 170 223 266 313
#     4  11  21  29  51  80 109 142 165 210 279 322
#     4  10  18  30  47  71 108 142 169 201 256 326
#     4  10  21  38  59  77 100 143 189 224 259 305
#     4  10  21  36  53  77 111 144 178 216 258 324
#
# _framework density 16.941533
#
# number of rings (size 3 to 8) (size 9 to 14) (size 15 to 20)
#    0.000    2.000    1.667    5.000    7.000    0.000 
#    0.000    0.833    0.000    0.000    0.000    0.000 
#    0.000   11.333    0.000    0.000    0.000    0.000 
#
# Total GULP energy -133817.399115 kJ/mol
# GULP energy per Si atom -5575.724963 kJ/mol
# Density = 1.690297 g / cm^3
# Si number density = 16.941533 Si / 1000 Ang^3
#
#
#
# Elastic Constant Matrix: (Units=GPa)
#
#
# Indices 1 2 3 4 5 6 
#
# 1 144.0821 35.6352 33.1110 0.0000 4.8102 0.0000
# 2 35.6352 73.7882 33.2040 0.0000 12.3511 0.0000
# 3 33.1110 33.2040 57.4058 0.0000 -0.3319 0.0000
# 4 0.0000 0.0000 0.0000 14.1106 0.0000 11.5144
# 5 4.8102 12.3511 -0.3319 0.0000 11.4783 0.0000
# 6 0.0000 0.0000 0.0000 11.5144 0.0000 16.7254
#
#
#
# Elastic Compliance Matrix: (Units=1/GPa)
#
#
# Indices 1 2 3 4 5 6 
#
# 1 0.008345 -0.002249 -0.003519 0.000000 -0.001179 0.000000
# 2 -0.002249 0.025072 -0.013357 0.000000 -0.026422 0.000000
# 3 -0.003519 -0.013357 0.027272 0.000000 0.016636 0.000000
# 4 0.000000 0.000000 0.000000 0.161717 0.000000 -0.111332
# 5 -0.001179 -0.026422 0.016636 0.000000 0.116527 0.000000
# 6 0.000000 0.000000 0.000000 -0.111332 0.000000 0.136434
#
#
# Mechanical properties :
#
#
# Convention : Reuss Voigt Hill
#
# Bulk Modulus (GPa) = 44.56842 53.24184 48.90513
# Shear Modulus (GPa) = 9.59514 20.01792 14.80653
#
# Velocity S-wave (km/s) = 2.38243 3.44115 2.95952
# Velocity P-wave (km/s) = 5.82514 6.87632 6.37244
#
# Compressibility (1/GPa) = 0.02243741
#
# Stress axis : x y z
#
# Youngs Moduli (GPa) = 119.83482 39.88532 36.66805
#
# Poissons Ratio (x) = 0.08971 0.12904
# Poissons Ratio (y) = 0.26954 0.48978
# Poissons Ratio (z) = 0.42170 0.53276
#
# Static dielectric constant tensor:
#      x y z
#    x 1.624400 0.000000 -0.000470 
#    y 0.000000 1.592750 0.000000 
#    z -0.000470 0.000000 1.535470 
# 
# From -- ./inp_files/143913.got.cif
#   From: 2010.05.17/outbox.cif.g08.bks.cpg/sg12_72_cif.got.tgz:143913.got - 2010.06.03 13:09:07.
