data_PCOD9172746
_publ_section_title
;
Structure prediction by ZEFSAII (Michael W. Deem and Ramdas Pophale) SiO2 
 PCOD9172746
Probable space group: C 2/M
;
_chemical_formula_sum "Si O2"
_cell_formula_units_Z 64
_cell_length_a 25.865814
_cell_length_b 8.556587
_cell_length_c 18.181817
_cell_angle_alpha 90.000000
_cell_angle_beta 102.567182
_cell_angle_gamma 90.000000
_cell_volume 3927.645741
_symmetry_space_group_name_H-M "C 2/M"
_symmetry_group_IT_number 12
_symmetry_cell_setting 'monoclinic'
loop_
_space_group_symop_operation_xyz
x,y,z
-x,y,-z
-x,-y,-z
x,-y,z
1/2+x,1/2+y,z
1/2-x,1/2+y,-z
1/2-x,1/2-y,-z
1/2+x,1/2-y,z
loop_
_atom_site_type_symbol
_atom_site_label
_atom_site_fract_x
_atom_site_fract_y
_atom_site_fract_z
Si Si1 0.158733 0.686912 0.844530
Si Si2 0.793813 0.811132 0.673180
Si Si3 0.819422 0.188578 0.409366
Si Si4 0.308432 0.687517 0.997660
Si Si5 0.222553 0.810007 0.167021
Si Si6 0.097314 0.187093 0.690720
Si Si7 0.877263 0.189055 0.578571
Si Si8 0.492801 0.812909 0.582661
O O1 0.158459 0.500000 0.844300
O O2 0.216780 0.739212 0.831594
O O3 0.115105 0.750453 0.775339
O O4 0.154436 0.745897 0.926985
O O5 0.738598 0.757233 0.620657
O O6 0.794861 0.755184 0.758068
O O7 0.842855 0.760075 0.638120
O O8 0.794039 0.000000 0.674043
O O9 0.858325 0.238672 0.355235
O O10 0.845710 0.235329 0.494741
O O11 0.815943 0.000000 0.407098
O O12 0.308784 0.500000 0.001738
O O13 0.313982 0.735105 0.913839
O O14 0.250000 0.750000 0.000000
O O15 0.223229 0.000000 0.168558
O O16 0.040928 0.247464 0.645594
O O17 0.096917 0.000000 0.691463
O O18 0.935994 0.256437 0.593334
O O19 0.880670 0.000000 0.579759
O O20 0.500000 0.759324 0.500000
O O21 0.494896 0.000000 0.584064
#
# Coordination Sequence:
#
# PCOD9172746 Si02
#       8
#     8   8   8   8   8   8   8   8
#     4  10  18  30  47  70 101 131 166 206 246 295
#     4  10  19  32  51  73 100 136 171 202 243 295
#     4  10  20  32  47  72 102 132 165 205 249 291
#     4   9  16  27  43  66  98 133 167 201 244 295
#     4   8  15  27  44  68  98 131 163 198 237 288
#     4  11  21  33  52  74 100 132 166 206 253 300
#     4  10  21  36  52  71  98 133 171 210 250 293
#     4  11  23  37  54  73  94 127 170 214 257 297
#
# _framework density 16.294748999999999
#
# number of rings (size 3 to 8) (size 9 to 14) (size 15 to 20)
#    0.000    2.125    2.500    2.625    0.000    2.000 
#    0.000    0.625    0.000    0.000    0.000    0.875 
#    0.000    7.000    0.000    0.000    0.000    0.000 
#
# Total GULP energy -178472.027219 kJ/mol
# GULP energy per Si atom -5577.250851 kJ/mol
# Density = 1.625766 g / cm^3
# Si number density = 16.294749 Si / 1000 Ang^3
#
#
#
# Elastic Constant Matrix: (Units=GPa)
#
#
# Indices 1 2 3 4 5 6 
#
# 1 108.7728 25.3897 69.0468 0.0000 6.2382 0.0000
# 2 25.3897 28.1203 32.4433 0.0000 4.2358 0.0000
# 3 69.0468 32.4433 145.8839 0.0000 23.8937 0.0000
# 4 0.0000 0.0000 0.0000 21.6803 0.0000 6.8813
# 5 6.2382 4.2358 23.8937 0.0000 15.3564 0.0000
# 6 0.0000 0.0000 0.0000 6.8813 0.0000 21.9618
#
#
#
# Elastic Compliance Matrix: (Units=1/GPa)
#
#
# Indices 1 2 3 4 5 6 
#
# 1 0.014398 -0.006614 -0.006286 0.000000 0.005757 0.000000
# 2 -0.006614 0.051107 -0.008544 0.000000 0.001884 0.000000
# 3 -0.006286 -0.008544 0.014663 0.000000 -0.017904 0.000000
# 4 0.000000 0.000000 0.000000 0.051219 0.000000 -0.016048
# 5 0.005757 0.001884 -0.017904 0.000000 0.090119 0.000000
# 6 0.000000 0.000000 0.000000 -0.016048 0.000000 0.050562
#
#
# Mechanical properties :
#
#
# Convention : Reuss Voigt Hill
#
# Bulk Modulus (GPa) = 26.82501 59.61518 43.22010
# Shear Modulus (GPa) = 15.27275 22.19286 18.73280
#
# Velocity S-wave (km/s) = 3.06482 3.69448 3.39429
# Velocity P-wave (km/s) = 5.38724 7.40702 6.47635
#
# Compressibility (1/GPa) = 0.03727864
#
# Stress axis : x y z
#
# Youngs Moduli (GPa) = 69.45605 19.56690 68.20074
#
# Poissons Ratio (x) = 0.12941 0.42874
# Poissons Ratio (y) = 0.45937 0.58270
# Poissons Ratio (z) = 0.43663 0.16718
#
# Static dielectric constant tensor:
#      x y z
#    x 1.501150 0.000000 -0.014900 
#    y 0.000000 1.548960 0.000000 
#    z -0.014900 0.000000 1.574640 
# 
# From -- ./inp_files/287765.got.cif
#   From: 2010.05.17/outbox.cif.g08.bks.cpg/sg12_144_cif.got.tgz:287765.got - 2010.06.03 13:09:07.
