data_PCOD9172052
_publ_section_title
;
Structure prediction by ZEFSAII (Michael W. Deem and Ramdas Pophale) SiO2 
 PCOD9172052
Probable space group: C 2/M
;
_chemical_formula_sum "Si O2"
_cell_formula_units_Z 56
_cell_length_a 28.733932
_cell_length_b 8.616679
_cell_length_c 18.999461
_cell_angle_alpha 90.000000
_cell_angle_beta 48.831436
_cell_angle_gamma 90.000000
_cell_volume 3541.132119
_symmetry_space_group_name_H-M "C 2/M"
_symmetry_group_IT_number 12
_symmetry_cell_setting 'monoclinic'
loop_
_space_group_symop_operation_xyz
x,y,z
-x,y,-z
-x,-y,-z
x,-y,z
1/2+x,1/2+y,z
1/2-x,1/2+y,-z
1/2-x,1/2-y,-z
1/2+x,1/2-y,z
loop_
_atom_site_type_symbol
_atom_site_label
_atom_site_fract_x
_atom_site_fract_y
_atom_site_fract_z
Si Si1 0.500682 0.687617 0.580605
Si Si2 0.623668 0.813127 0.529447
Si Si3 0.124676 0.811418 0.220474
Si Si4 0.752446 0.814213 0.325929
Si Si5 0.810499 0.813702 0.979916
Si Si6 0.752200 0.314001 0.169921
Si Si7 0.310565 0.813970 0.399960
O O1 0.500000 0.739008 0.500000
O O2 0.499924 0.500000 0.581621
O O3 0.562529 0.742727 0.557225
O O4 0.438810 0.743329 0.681835
O O5 0.685228 0.765183 0.424437
O O6 0.634714 0.770487 0.600532
O O7 0.620524 0.000000 0.528805
O O8 0.134884 0.768304 0.128426
O O9 0.185225 0.762532 0.204954
O O10 0.124535 0.000000 0.222917
O O11 0.759751 0.749654 0.240574
O O12 0.804693 0.753933 0.327885
O O13 0.753559 0.000000 0.324332
O O14 0.807987 0.000000 0.986027
O O15 0.750000 0.750000 0.000000
O O16 0.804455 0.745358 0.063756
O O17 0.752610 0.500000 0.170050
O O18 0.250000 0.750000 0.500000
O O19 0.307662 0.000000 0.399541
#
# Coordination Sequence:
#
# PCOD9172052 Si02
#       7
#     8   8   8   8   8   8   8
#     4  10  19  30  45  65  89 121 158 186 211 251
#     4   9  19  32  44  63  91 120 149 183 220 259
#     4   8  16  29  43  62  89 121 154 185 216 257
#     4  10  19  30  45  67  93 118 147 182 225 272
#     4   9  16  28  44  62  88 118 150 187 225 266
#     4  10  18  29  46  67  91 117 148 186 229 270
#     4   9  17  30  46  64  88 116 148 184 223 267
#
# _framework density 15.814151000000001
#
# number of rings (size 3 to 8) (size 9 to 14) (size 15 to 20)
#    0.000    2.714    0.000    4.286    0.000    4.857 
#    0.000    4.286    0.000    0.000    0.000    1.000 
#    0.000    8.000    0.000    0.000    0.000    0.000 
#
# Total GULP energy -155930.001023 kJ/mol
# GULP energy per Si atom -5568.928608 kJ/mol
# Density = 1.577816 g / cm^3
# Si number density = 15.814151 Si / 1000 Ang^3
#
#
#
# Elastic Constant Matrix: (Units=GPa)
#
#
# Indices 1 2 3 4 5 6 
#
# 1 117.4860 29.0274 71.8422 -0.0003 23.8335 0.0000
# 2 29.0274 36.1459 31.7041 0.0015 10.0246 0.0012
# 3 71.8422 31.7041 135.3499 -0.0005 24.2500 0.0003
# 4 -0.0003 0.0015 -0.0005 19.5823 0.0001 3.6889
# 5 23.8335 10.0246 24.2500 0.0001 27.8675 0.0000
# 6 0.0000 0.0012 0.0003 3.6889 0.0000 24.8921
#
#
#
# Elastic Compliance Matrix: (Units=1/GPa)
#
#
# Indices 1 2 3 4 5 6 
#
# 1 0.014177 -0.005167 -0.005302 0.000000 -0.005652 0.000000
# 2 -0.005167 0.037703 -0.005273 -0.000003 -0.004555 -0.000001
# 3 -0.005302 -0.005273 0.012185 0.000001 -0.004172 0.000000
# 4 0.000000 -0.000003 0.000001 0.052533 0.000000 -0.007785
# 5 -0.005652 -0.004555 -0.004172 0.000000 0.045987 0.000000
# 6 0.000000 -0.000001 0.000000 -0.007785 0.000000 0.041327
#
#
# Mechanical properties :
#
#
# Convention : Reuss Voigt Hill
#
# Bulk Modulus (GPa) = 30.69191 61.56993 46.13092
# Shear Modulus (GPa) = 20.30398 24.89560 22.59979
#
# Velocity S-wave (km/s) = 3.58706 3.97200 3.78443
# Velocity P-wave (km/s) = 6.05029 7.74943 6.95197
#
# Compressibility (1/GPa) = 0.03258188
#
# Stress axis : x y z
#
# Youngs Moduli (GPa) = 70.53631 26.52288 82.06752
#
# Poissons Ratio (x) = 0.13704 0.43512
# Poissons Ratio (y) = 0.36446 0.43273
# Poissons Ratio (z) = 0.37399 0.13985
#
# Static dielectric constant tensor:
#      x y z
#    x 1.538430 0.000000 0.009850 
#    y 0.000000 1.536260 0.000000 
#    z 0.009850 0.000000 1.545020 
# 
# From -- ./inp_files/291811.got.cif
#   From: 2010.05.17/outbox.cif.g08.bks.cpg/sg12_146_cif.got.tgz:291811.got - 2010.06.03 13:09:07.
