data_PCOD9172681
_publ_section_title
;
Structure prediction by ZEFSAII (Michael W. Deem and Ramdas Pophale) SiO2 
 PCOD9172681
Probable space group: C 2/M
;
_chemical_formula_sum "Si O2"
_cell_formula_units_Z 64
_cell_length_a 25.143061
_cell_length_b 7.401163
_cell_length_c 16.329848
_cell_angle_alpha 90.000000
_cell_angle_beta 80.514646
_cell_angle_gamma 90.000000
_cell_volume 2997.239975
_symmetry_space_group_name_H-M "C 2/M"
_symmetry_group_IT_number 12
_symmetry_cell_setting 'monoclinic'
loop_
_space_group_symop_operation_xyz
x,y,z
-x,y,-z
-x,-y,-z
x,-y,z
1/2+x,1/2+y,z
1/2-x,1/2+y,-z
1/2-x,1/2-y,-z
1/2+x,1/2-y,z
loop_
_atom_site_type_symbol
_atom_site_label
_atom_site_fract_x
_atom_site_fract_y
_atom_site_fract_z
Si Si1 0.709738 0.221315 0.782762
Si Si2 0.403539 0.211399 0.237705
Si Si3 0.170995 0.788181 0.283829
Si Si4 0.110311 0.718488 0.129503
Si Si5 0.995304 0.278948 0.095843
Si Si6 0.037661 0.217437 0.608312
Si Si7 0.807174 0.715061 0.027868
Si Si8 0.078108 0.220896 0.422023
O O1 0.657706 0.279811 0.744128
O O2 0.768703 0.286816 0.740833
O O3 0.696650 0.281359 0.878657
O O4 0.713372 0.000000 0.782256
O O5 0.441887 0.285687 0.156152
O O6 0.434278 0.226733 0.315444
O O7 0.398056 0.000000 0.219507
O O8 0.139269 0.774342 0.205798
O O9 0.131735 0.713205 0.363779
O O10 0.177247 0.000000 0.300727
O O11 0.110776 0.500000 0.128947
O O12 0.048687 0.776260 0.132431
O O13 0.145779 0.783496 0.043266
O O14 0.994503 0.500000 0.095831
O O15 0.000000 0.223455 0.000000
O O16 0.069064 0.276323 0.518259
O O17 0.975610 0.276896 0.613953
O O18 0.037034 0.000000 0.607439
O O19 0.815392 0.500000 0.031453
O O20 0.750000 0.750000 0.000000
O O21 0.078583 0.000000 0.420994
#
# Coordination Sequence:
#
# PCOD9172681 Si02
#       8
#     8   8   8   8   8   8   8   8
#     4   9  18  31  47  67  94 128 162 193 226 278
#     4  10  19  32  50  71  96 127 162 194 230 279
#     4  10  18  31  50  70  92 123 160 192 232 284
#     4  10  19  29  46  72  97 119 153 201 241 272
#     4   9  17  30  48  69  94 127 161 191 228 278
#     4   9  17  33  53  73  95 121 156 195 239 285
#     4  10  18  30  46  66  93 125 159 193 230 271
#     4   8  16  31  53  74  93 121 156 194 235 288
#
# _framework density 21.352976999999999
#
# number of rings (size 3 to 8) (size 9 to 14) (size 15 to 20)
#    0.000    2.625    1.250    2.250    0.000    3.000 
#    0.000    3.750    0.000    3.000    0.000    0.000 
#    0.000    0.000    0.000    0.000    0.000    0.000 
#
# Total GULP energy -178685.829360 kJ/mol
# GULP energy per Si atom -5583.932167 kJ/mol
# Density = 2.130438 g / cm^3
# Si number density = 21.352977 Si / 1000 Ang^3
#
#
#
# Elastic Constant Matrix: (Units=GPa)
#
#
# Indices 1 2 3 4 5 6 
#
# 1 160.3304 1.5982 81.1591 0.0000 -19.0688 0.0000
# 2 1.5982 69.0656 -3.4740 0.0000 -8.5420 0.0000
# 3 81.1591 -3.4740 114.6849 0.0000 -18.3202 0.0000
# 4 0.0000 0.0000 0.0000 11.9803 0.0000 10.1237
# 5 -19.0688 -8.5420 -18.3202 0.0000 39.2637 0.0000
# 6 0.0000 0.0000 0.0000 10.1237 0.0000 8.8075
#
#
#
# Elastic Compliance Matrix: (Units=1/GPa)
#
#
# Indices 1 2 3 4 5 6 
#
# 1 0.009826 -0.000373 -0.006716 0.000000 0.001557 0.000000
# 2 -0.000373 0.015010 0.001309 0.000000 0.003695 0.000000
# 3 -0.006716 0.001309 0.014086 0.000000 0.003596 0.000000
# 4 0.000000 0.000000 0.000000 2.908649 0.000000 -3.343301
# 5 0.001557 0.003695 0.003596 0.000000 0.028707 0.000000
# 6 0.000000 0.000000 0.000000 -3.343301 0.000000 3.956444
#
#
# Mechanical properties :
#
#
# Convention : Reuss Voigt Hill
#
# Bulk Modulus (GPa) = 36.54606 55.84972 46.19789
# Shear Modulus (GPa) = 0.71907 29.66347 15.19127
#
# Velocity S-wave (km/s) = 0.58094 3.73124 2.67017
# Velocity P-wave (km/s) = 4.19551 6.69142 5.58469
#
# Compressibility (1/GPa) = 0.02736273
#
# Stress axis : x y z
#
# Youngs Moduli (GPa) = 101.77522 66.62025 70.99183
#
# Poissons Ratio (x) = 0.02482 0.47677
# Poissons Ratio (y) = 0.03792 -0.09290
# Poissons Ratio (z) = 0.68350 -0.08718
#
# Static dielectric constant tensor:
#      x y z
#    x 1.765440 0.000000 -0.023260 
#    y 0.000000 1.830010 0.000000 
#    z -0.023260 0.000000 1.736790 
# 
# From -- ./inp_files/287535.got.cif
#   From: 2010.05.17/outbox.cif.g08.bks.cpg/sg12_144_cif.got.tgz:287535.got - 2010.06.03 13:09:07.
