data_PCOD9173091
_publ_section_title
;
Structure prediction by ZEFSAII (Michael W. Deem and Ramdas Pophale) SiO2 
 PCOD9173091
Probable space group: C 2/M
;
_chemical_formula_sum "Si O2"
_cell_formula_units_Z 64
_cell_length_a 24.010696
_cell_length_b 8.695221
_cell_length_c 22.538719
_cell_angle_alpha 90.000000
_cell_angle_beta 124.929419
_cell_angle_gamma 90.000000
_cell_volume 3857.920188
_symmetry_space_group_name_H-M "C 2/M"
_symmetry_group_IT_number 12
_symmetry_cell_setting 'monoclinic'
loop_
_space_group_symop_operation_xyz
x,y,z
-x,y,-z
-x,-y,-z
x,-y,z
1/2+x,1/2+y,z
1/2-x,1/2+y,-z
1/2-x,1/2-y,-z
1/2+x,1/2-y,z
loop_
_atom_site_type_symbol
_atom_site_label
_atom_site_fract_x
_atom_site_fract_y
_atom_site_fract_z
Si Si1 0.062265 0.312876 0.370540
Si Si2 0.209083 0.314455 0.418119
Si Si3 0.714200 0.185072 0.649006
Si Si4 0.568746 0.187283 0.510779
Si Si5 0.281479 0.685167 0.218925
Si Si6 0.793953 0.676870 0.940825
Si Si7 0.645105 0.325313 0.912354
Si Si8 0.085433 0.683000 0.763386
O O1 0.060853 0.500000 0.369771
O O2 0.130041 0.268284 0.376808
O O3 0.070784 0.262373 0.443850
O O4 0.989529 0.262500 0.301058
O O5 0.213470 0.500000 0.421592
O O6 0.250000 0.250000 0.500000
O O7 0.240628 0.249539 0.376995
O O8 0.636528 0.232071 0.586682
O O9 0.732026 0.250250 0.724271
O O10 0.717659 0.000000 0.651566
O O11 0.500000 0.240840 0.500000
O O12 0.567457 0.000000 0.509738
O O13 0.281586 0.500000 0.218966
O O14 0.224963 0.736578 0.136044
O O15 0.354760 0.741457 0.239333
O O16 0.816534 0.500000 0.950708
O O17 0.720536 0.676776 0.929051
O O18 0.844516 0.768006 0.014363
O O19 0.620498 0.500000 0.895618
O O20 0.600565 0.222546 0.841178
O O21 0.089527 0.500000 0.756782
#
# Coordination Sequence:
#
# PCOD9173091 Si02
#       8
#     8   8   8   8   8   8   8   8
#     4   9  18  32  50  72  96 129 169 205 244 293
#     4  11  21  37  56  73  96 126 167 215 256 293
#     4  11  21  34  53  74  97 129 169 207 249 299
#     4   9  16  28  48  71  95 125 162 198 234 286
#     4  10  20  33  48  72 106 135 162 204 252 294
#     4   8  15  27  43  64  94 133 169 196 231 289
#     4   9  16  26  42  67 100 132 162 201 244 286
#     4  10  18  30  50  73  99 134 171 203 241 296
#
# _framework density 16.589248999999999
#
# number of rings (size 3 to 8) (size 9 to 14) (size 15 to 20)
#    0.000    2.375    1.250    3.375    0.000    5.500 
#    0.000    2.500    0.000    1.500    0.000    0.875 
#    0.000    7.000    0.000    0.000    0.000    0.000 
#
# Total GULP energy -178380.959512 kJ/mol
# GULP energy per Si atom -5574.404985 kJ/mol
# Density = 1.655149 g / cm^3
# Si number density = 16.589249 Si / 1000 Ang^3
#
#
#
# Elastic Constant Matrix: (Units=GPa)
#
#
# Indices 1 2 3 4 5 6 
#
# 1 81.0669 16.8432 39.2214 0.0000 -25.0693 0.0000
# 2 16.8432 39.7463 23.3967 0.0000 -9.7307 0.0000
# 3 39.2214 23.3967 112.9199 0.0000 -33.5372 0.0000
# 4 0.0000 0.0000 0.0000 25.9879 0.0000 -4.7748
# 5 -25.0693 -9.7307 -33.5372 0.0000 16.4984 0.0000
# 6 0.0000 0.0000 0.0000 -4.7748 0.0000 17.5758
#
#
#
# Elastic Compliance Matrix: (Units=1/GPa)
#
#
# Indices 1 2 3 4 5 6 
#
# 1 0.025235 -0.002250 0.006802 0.000000 0.050844 0.000000
# 2 -0.002250 0.029861 -0.003004 0.000000 0.008087 0.000000
# 3 0.006802 -0.003004 0.024375 0.000000 0.058111 0.000000
# 4 0.000000 0.000000 0.000000 0.040501 0.000000 0.011003
# 5 0.050844 0.008087 0.058111 0.000000 0.260764 0.000000
# 6 0.000000 0.000000 0.000000 0.011003 0.000000 0.059886
#
#
# Mechanical properties :
#
#
# Convention : Reuss Voigt Hill
#
# Bulk Modulus (GPa) = 12.11143 43.62843 27.86993
# Shear Modulus (GPa) = 10.75156 22.29722 16.52439
#
# Velocity S-wave (km/s) = 2.54855 3.67014 3.15951
# Velocity P-wave (km/s) = 3.99710 6.65704 5.49058
#
# Compressibility (1/GPa) = 0.08256661
#
# Stress axis : x y z
#
# Youngs Moduli (GPa) = 39.62692 33.48841 41.02601
#
# Poissons Ratio (x) = 0.07535 -0.27905
# Poissons Ratio (y) = 0.08917 0.12323
# Poissons Ratio (z) = -0.26953 0.10059
#
# Static dielectric constant tensor:
#      x y z
#    x 1.536100 0.000000 -0.002260 
#    y 0.000000 1.567950 0.000000 
#    z -0.002260 0.000000 1.567860 
# 
# From -- ./inp_files/320055.got.cif
#   From: 2010.05.17/outbox.cif.g08.bks.cpg/sg12_161_cif.got.tgz:320055.got - 2010.06.03 13:09:07.
