data_PCOD9173948
_publ_section_title
;
Structure prediction by ZEFSAII (Michael W. Deem and Ramdas Pophale) SiO2 
 PCOD9173948
Probable space group: C 2/M
;
_chemical_formula_sum "Si O2"
_cell_formula_units_Z 64
_cell_length_a 30.580281
_cell_length_b 7.635183
_cell_length_c 21.740700
_cell_angle_alpha 90.000000
_cell_angle_beta 151.515393
_cell_angle_gamma 90.000000
_cell_volume 2420.930859
_symmetry_space_group_name_H-M "C 2/M"
_symmetry_group_IT_number 12
_symmetry_cell_setting 'monoclinic'
loop_
_space_group_symop_operation_xyz
x,y,z
-x,y,-z
-x,-y,-z
x,-y,z
1/2+x,1/2+y,z
1/2-x,1/2+y,-z
1/2-x,1/2-y,-z
1/2+x,1/2-y,z
loop_
_atom_site_type_symbol
_atom_site_label
_atom_site_fract_x
_atom_site_fract_y
_atom_site_fract_z
Si Si1 0.365519 0.700984 0.050005
Si Si2 0.973624 0.294945 0.608470
Si Si3 0.807916 0.797508 0.489746
Si Si4 0.842733 0.292813 0.882387
Si Si5 0.331261 0.795495 0.175261
Si Si6 0.947127 0.788222 0.754181
Si Si7 0.379682 0.210226 0.797724
Si Si8 0.866145 0.794926 0.358441
O O1 0.368247 0.500000 0.073826
O O2 0.354652 0.699901 0.962080
O O3 0.271111 0.783043 0.958617
O O4 0.466553 0.782080 0.178025
O O5 0.973976 0.500000 0.623682
O O6 0.893219 0.206756 0.547893
O O7 0.941906 0.277671 0.498075
O O8 0.077273 0.222211 0.743568
O O9 0.853310 0.721143 0.607560
O O10 0.717043 0.717307 0.348180
O O11 0.785771 0.000000 0.474212
O O12 0.862154 0.500000 0.916809
O O13 0.893404 0.225503 0.884086
O O14 0.733821 0.278933 0.733442
O O15 0.353978 0.785757 0.276122
O O16 0.325944 0.000000 0.152587
O O17 0.949734 0.742824 0.829094
O O18 0.948578 0.000000 0.751169
O O19 0.373091 0.000000 0.797187
O O20 0.884438 0.000000 0.371804
#
# Coordination Sequence:
#
# PCOD9173948 Si02
#       8
#     8   8   8   8   8   8   8   8
#     4   9  19  37  56  76 107 144 180 218 261 310
#     4  11  21  32  51  79 108 140 178 219 265 316
#     4  10  21  39  57  77 109 141 175 221 269 319
#     4   9  18  33  53  79 109 142 174 211 263 318
#     4   9  19  34  51  75 109 144 178 216 261 314
#     4  10  22  38  58  80 102 138 184 225 265 312
#     4  10  20  36  57  80 109 138 170 218 274 324
#     4  10  18  31  51  77 111 144 176 215 262 318
#
# _framework density 26.436112999999999
#
# number of rings (size 3 to 8) (size 9 to 14) (size 15 to 20)
#    0.000    2.250    1.250    1.500    0.000    5.500 
#    0.000    3.125    0.000    0.000    0.000    0.000 
#    0.000    0.000    0.000    0.000    0.000    0.000 
#
# Total GULP energy -178996.695260 kJ/mol
# GULP energy per Si atom -5593.646727 kJ/mol
# Density = 2.637594 g / cm^3
# Si number density = 26.436113 Si / 1000 Ang^3
#
#
#
# Elastic Constant Matrix: (Units=GPa)
#
#
# Indices 1 2 3 4 5 6 
#
# 1 147.7698 8.8438 30.1415 0.0000 6.0503 0.0000
# 2 8.8438 83.0337 16.9201 0.0000 -5.5402 0.0000
# 3 30.1415 16.9201 112.5897 0.0000 15.7034 0.0000
# 4 0.0000 0.0000 0.0000 12.1660 0.0000 -5.1687
# 5 6.0503 -5.5402 15.7034 0.0000 52.5354 0.0000
# 6 0.0000 0.0000 0.0000 -5.1687 0.0000 28.6548
#
#
#
# Elastic Compliance Matrix: (Units=1/GPa)
#
#
# Indices 1 2 3 4 5 6 
#
# 1 0.007175 -0.000417 -0.001812 0.000000 -0.000329 0.000000
# 2 -0.000417 0.012642 -0.002067 0.000000 0.001999 0.000000
# 3 -0.001812 -0.002067 0.010100 0.000000 -0.003028 0.000000
# 4 0.000000 0.000000 0.000000 0.089018 0.000000 0.016057
# 5 -0.000329 0.001999 -0.003028 0.000000 0.020189 0.000000
# 6 0.000000 0.000000 0.000000 0.016057 0.000000 0.037794
#
#
# Mechanical properties :
#
#
# Convention : Reuss Voigt Hill
#
# Bulk Modulus (GPa) = 46.89358 50.57823 48.73590
# Shear Modulus (GPa) = 25.95783 37.83710 31.89747
#
# Velocity S-wave (km/s) = 3.13694 3.78731 3.47736
# Velocity P-wave (km/s) = 5.55855 6.18860 5.88202
#
# Compressibility (1/GPa) = 0.02132488
#
# Stress axis : x y z
#
# Youngs Moduli (GPa) = 139.36546 79.09946 99.00956
#
# Poissons Ratio (x) = 0.03297 0.17945
# Poissons Ratio (y) = 0.05809 0.20467
# Poissons Ratio (z) = 0.25259 0.16351
#
# Static dielectric constant tensor:
#      x y z
#    x 2.095010 0.000000 0.010860 
#    y 0.000000 1.949980 0.000000 
#    z 0.010860 0.000000 2.137810 
# 
# From -- ./inp_files/243887.got.cif
#   From: 2010.05.17/outbox.cif.g08.bks.cpg/sg12_122_cif.got.tgz:243887.got - 2010.06.03 13:09:07.
