data_PCOD9173652
_publ_section_title
;
Structure prediction by ZEFSAII (Michael W. Deem and Ramdas Pophale) SiO2 
 PCOD9173652
Probable space group: C 2/M
;
_chemical_formula_sum "Si O2"
_cell_formula_units_Z 48
_cell_length_a 19.211310
_cell_length_b 13.541981
_cell_length_c 23.166474
_cell_angle_alpha 90.000000
_cell_angle_beta 153.281854
_cell_angle_gamma 90.000000
_cell_volume 2709.737796
_symmetry_space_group_name_H-M "C 2/M"
_symmetry_group_IT_number 12
_symmetry_cell_setting 'monoclinic'
loop_
_space_group_symop_operation_xyz
x,y,z
-x,y,-z
-x,-y,-z
x,-y,z
1/2+x,1/2+y,z
1/2-x,1/2+y,-z
1/2-x,1/2-y,-z
1/2+x,1/2-y,z
loop_
_atom_site_type_symbol
_atom_site_label
_atom_site_fract_x
_atom_site_fract_y
_atom_site_fract_z
Si Si1 0.142894 0.888302 0.906945
Si Si2 0.886978 0.686808 0.174491
Si Si3 0.735315 0.114438 0.458712
Si Si4 0.808678 0.382097 0.237951
Si Si5 0.662571 0.385002 0.245733
Si Si6 0.646516 0.802187 0.511431
O O1 0.111288 0.803090 0.837324
O O2 0.009075 0.878614 0.856166
O O3 0.139912 0.000000 0.882353
O O4 0.302715 0.864615 0.058164
O O5 0.793754 0.664800 0.163970
O O6 0.059125 0.644062 0.310699
O O7 0.738795 0.136968 0.529902
O O8 0.844050 0.190264 0.504853
O O9 0.764459 0.000000 0.469350
O O10 0.816476 0.500000 0.235643
O O11 0.682274 0.359870 0.193176
O O12 0.973484 0.343820 0.384096
O O13 0.713309 0.500000 0.289559
O O14 0.770214 0.318932 0.366367
#
# Coordination Sequence:
#
# PCOD9173652 Si02
#       6
#     8   8   8   8   8   8
#     4  10  20  33  54  79 101 129 169 211 250 293
#     4  10  19  35  51  76 103 135 166 205 252 296
#     4  10  19  31  50  73 101 135 167 205 249 296
#     4  10  20  33  52  75 104 137 164 201 255 306
#     4  10  19  32  51  78 105 129 162 208 255 298
#     4  10  18  31  48  75 100 131 167 205 245 298
#
# _framework density 17.713891
#
# number of rings (size 3 to 8) (size 9 to 14) (size 15 to 20)
#    0.000    2.000    1.667    4.500    0.000    2.000 
#    0.000    2.500    0.000    3.000    0.000    2.333 
#    0.000    0.000    0.000    0.000    0.000    0.000 
#
# Total GULP energy -133945.917773 kJ/mol
# GULP energy per Si atom -5581.079907 kJ/mol
# Density = 1.767357 g / cm^3
# Si number density = 17.713891 Si / 1000 Ang^3
#
#
#
# Elastic Constant Matrix: (Units=GPa)
#
#
# Indices 1 2 3 4 5 6 
#
# 1 78.9242 52.2528 3.7021 0.0009 -10.2186 -0.0003
# 2 52.2528 125.6660 6.7280 0.0070 -4.1115 0.0006
# 3 3.7021 6.7280 25.5664 0.0071 -6.7466 0.0010
# 4 0.0009 0.0070 0.0071 12.8782 -0.0009 -2.4275
# 5 -10.2186 -4.1115 -6.7466 -0.0009 12.5271 -0.0004
# 6 -0.0003 0.0006 0.0010 -2.4275 -0.0004 24.1815
#
#
#
# Elastic Compliance Matrix: (Units=1/GPa)
#
#
# Indices 1 2 3 4 5 6 
#
# 1 0.019698 -0.007866 0.003236 0.000002 0.015229 0.000001
# 2 -0.007866 0.011245 -0.002960 -0.000004 -0.004320 -0.000001
# 3 0.003236 -0.002960 0.046469 -0.000023 0.026695 -0.000004
# 4 0.000002 -0.000004 -0.000023 0.079148 -0.000006 0.007946
# 5 0.015229 -0.004320 0.026695 -0.000006 0.105209 0.000000
# 6 0.000001 -0.000001 -0.000004 0.007946 0.000000 0.042152
#
#
# Mechanical properties :
#
#
# Convention : Reuss Voigt Hill
#
# Bulk Modulus (GPa) = 16.06863 39.50249 27.78556
# Shear Modulus (GPa) = 14.71266 21.08227 17.89747
#
# Velocity S-wave (km/s) = 2.88509 3.45360 3.18207
# Velocity P-wave (km/s) = 4.49324 6.18481 5.40560
#
# Compressibility (1/GPa) = 0.06223306
#
# Stress axis : x y z
#
# Youngs Moduli (GPa) = 50.76694 88.92601 21.51993
#
# Poissons Ratio (x) = 0.69945 -0.06965
# Poissons Ratio (y) = 0.39931 0.06370
# Poissons Ratio (z) = -0.16430 0.26324
#
# Static dielectric constant tensor:
#      x y z
#    x 1.604860 0.000000 0.004140 
#    y 0.000000 1.600080 0.000000 
#    z 0.004140 0.000000 1.625400 
# 
# From -- ./inp_files/153627.got.cif
#   From: 2010.05.17/outbox.cif.g08.bks.cpg/sg12_77_cif.got.tgz:153627.got - 2010.06.03 13:09:07.
