data_PCOD9173423
_publ_section_title
;
Structure prediction by ZEFSAII (Michael W. Deem and Ramdas Pophale) SiO2 
 PCOD9173423
Probable space group: C 2/M
;
_chemical_formula_sum "Si O2"
_cell_formula_units_Z 64
_cell_length_a 21.292464
_cell_length_b 14.868486
_cell_length_c 11.773905
_cell_angle_alpha 90.000000
_cell_angle_beta 65.772785
_cell_angle_gamma 90.000000
_cell_volume 3399.166700
_symmetry_space_group_name_H-M "C 2/M"
_symmetry_group_IT_number 12
_symmetry_cell_setting 'monoclinic'
loop_
_space_group_symop_operation_xyz
x,y,z
-x,y,-z
-x,-y,-z
x,-y,z
1/2+x,1/2+y,z
1/2-x,1/2+y,-z
1/2-x,1/2-y,-z
1/2+x,1/2-y,z
loop_
_atom_site_type_symbol
_atom_site_label
_atom_site_fract_x
_atom_site_fract_y
_atom_site_fract_z
Si Si1 0.925495 0.298025 0.761990
Si Si2 0.653072 0.797668 0.744479
Si Si3 0.571383 0.830414 0.572831
Si Si4 0.428885 0.346339 0.589133
Si Si5 0.710699 0.600399 0.408189
Si Si6 0.924568 0.604632 0.999400
Si Si7 0.679515 0.398945 0.697564
Si Si8 0.832982 0.403637 0.681129
O O1 0.934902 0.195738 0.711271
O O2 0.855615 0.329266 0.753437
O O3 0.991341 0.349242 0.656639
O O4 0.924319 0.328801 0.891870
O O5 0.609224 0.820494 0.664658
O O6 0.732388 0.824579 0.661054
O O7 0.627257 0.856872 0.868206
O O8 0.643687 0.690766 0.770568
O O9 0.573892 0.738520 0.497075
O O10 0.614898 0.897460 0.463504
O O11 0.500000 0.393937 0.500000
O O12 0.356660 0.393946 0.620853
O O13 0.741907 0.500000 0.376079
O O14 0.685680 0.611241 0.556761
O O15 0.909775 0.500000 0.979971
O O16 0.000000 0.606435 0.000000
O O17 0.651754 0.500000 0.741618
O O18 0.756703 0.395478 0.689826
O O19 0.840603 0.500000 0.732798
#
# Coordination Sequence:
#
# PCOD9173423 Si02
#       8
#     8   8   8   8   8   8   8   8
#     4  10  20  36  52  77 110 155 195 231 278 333
#     4  12  20  36  59  81 116 151 186 237 283 330
#     4  10  18  30  52  82 109 145 184 226 284 341
#     4   9  19  35  57  81 112 145 189 236 288 338
#     4  11  21  34  56  89 121 150 186 230 285 347
#     4  11  24  38  55  82 116 158 198 231 273 336
#     4  10  21  35  58  87 112 144 188 234 288 346
#     4  10  19  31  50  81 115 143 179 231 286 336
#
# _framework density 18.828143000000001
#
# number of rings (size 3 to 8) (size 9 to 14) (size 15 to 20)
#    0.000    1.625    3.750    3.750    0.000    2.250 
#    0.000    2.500    0.000    2.625    0.000    0.000 
#    0.000    0.000    0.000    0.000    0.000    0.000 
#
# Total GULP energy -178369.657408 kJ/mol
# GULP energy per Si atom -5574.051794 kJ/mol
# Density = 1.878529 g / cm^3
# Si number density = 18.828143 Si / 1000 Ang^3
#
#
#
# Elastic Constant Matrix: (Units=GPa)
#
#
# Indices 1 2 3 4 5 6 
#
# 1 65.5286 8.4678 10.8029 0.0000 14.2828 0.0000
# 2 8.4678 76.5604 14.1866 0.0000 3.5786 0.0000
# 3 10.8029 14.1866 62.1640 0.0000 16.6101 0.0000
# 4 0.0000 0.0000 0.0000 7.5867 0.0000 5.5086
# 5 14.2828 3.5786 16.6101 0.0000 21.2041 0.0000
# 6 0.0000 0.0000 0.0000 5.5086 0.0000 21.4331
#
#
#
# Elastic Compliance Matrix: (Units=1/GPa)
#
#
# Indices 1 2 3 4 5 6 
#
# 1 0.018054 -0.001513 0.000492 0.000000 -0.012291 0.000000
# 2 -0.001513 0.013766 -0.003200 0.000000 0.001203 0.000000
# 3 0.000492 -0.003200 0.021090 0.000000 -0.016312 0.000000
# 4 0.000000 0.000000 0.000000 0.162050 0.000000 -0.041649
# 5 -0.012291 0.001203 -0.016312 0.000000 0.068015 0.000000
# 6 0.000000 0.000000 0.000000 -0.041649 0.000000 0.057361
#
#
# Mechanical properties :
#
#
# Convention : Reuss Voigt Hill
#
# Bulk Modulus (GPa) = 22.48871 30.12974 26.30922
# Shear Modulus (GPa) = 13.75139 21.43116 17.59127
#
# Velocity S-wave (km/s) = 2.70546 3.37746 3.05996
# Velocity P-wave (km/s) = 4.66149 5.58989 5.14667
#
# Compressibility (1/GPa) = 0.04446677
#
# Stress axis : x y z
#
# Youngs Moduli (GPa) = 55.38952 72.64441 47.41650
#
# Poissons Ratio (x) = 0.10995 -0.02333
# Poissons Ratio (y) = 0.08383 0.15173
# Poissons Ratio (z) = -0.02726 0.23245
#
# Static dielectric constant tensor:
#      x y z
#    x 1.669030 0.000000 -0.002970 
#    y 0.000000 1.706180 0.000000 
#    z -0.002970 0.000000 1.634630 
# 
# From -- ./inp_files/176096.got.cif
#   From: 2010.05.17/outbox.cif.g08.bks.cpg/sg12_89_cif.got.tgz:176096.got - 2010.06.03 13:09:07.
