data_PCOD9173502
_publ_section_title
;
Structure prediction by ZEFSAII (Michael W. Deem and Ramdas Pophale) SiO2 
 PCOD9173502
Probable space group: C 2/M
;
_chemical_formula_sum "Si O2"
_cell_formula_units_Z 56
_cell_length_a 26.329392
_cell_length_b 8.371271
_cell_length_c 14.151177
_cell_angle_alpha 90.000000
_cell_angle_beta 105.008958
_cell_angle_gamma 90.000000
_cell_volume 3012.661750
_symmetry_space_group_name_H-M "C 2/M"
_symmetry_group_IT_number 12
_symmetry_cell_setting 'monoclinic'
loop_
_space_group_symop_operation_xyz
x,y,z
-x,y,-z
-x,-y,-z
x,-y,z
1/2+x,1/2+y,z
1/2-x,1/2+y,-z
1/2-x,1/2-y,-z
1/2+x,1/2-y,z
loop_
_atom_site_type_symbol
_atom_site_label
_atom_site_fract_x
_atom_site_fract_y
_atom_site_fract_z
Si Si1 0.409767 0.805534 0.492221
Si Si2 0.631662 0.192942 0.230964
Si Si3 0.029805 0.694832 0.290503
Si Si4 0.807607 0.307829 0.552389
Si Si5 0.688402 0.309019 0.869599
Si Si6 0.916861 0.306694 0.280925
Si Si7 0.302235 0.309388 0.909429
O O1 0.448765 0.756523 0.595377
O O2 0.351414 0.756987 0.497183
O O3 0.421607 0.752164 0.392224
O O4 0.411634 0.000000 0.492104
O O5 0.573229 0.246122 0.234747
O O6 0.670724 0.244342 0.334781
O O7 0.654296 0.252951 0.143555
O O8 0.631467 0.000000 0.229201
O O9 0.030336 0.500000 0.289831
O O10 0.969578 0.746347 0.251530
O O11 0.807557 0.500000 0.553006
O O12 0.750000 0.250000 0.500000
O O13 0.688921 0.500000 0.869862
O O14 0.637322 0.250417 0.790040
O O15 0.743888 0.250378 0.854325
O O16 0.686977 0.251481 0.978255
O O17 0.916292 0.500000 0.280879
O O18 0.301321 0.500000 0.910346
#
# Coordination Sequence:
#
# PCOD9173502 Si02
#       7
#     8   8   8   8   8   8   8
#     4   8  15  28  47  73 104 137 172 209 246 288
#     4   9  18  33  53  75 103 139 171 209 261 303
#     4   8  15  30  51  77 108 139 173 210 249 296
#     4   9  18  30  44  69 104 137 169 207 250 299
#     4  10  22  38  54  76 105 132 162 213 271 315
#     4  10  18  30  54  82 104 134 177 216 248 296
#     4  10  21  38  58  76  97 131 174 214 259 316
#
# _framework density 18.588213
#
# number of rings (size 3 to 8) (size 9 to 14) (size 15 to 20)
#    0.000    2.857    0.000    3.000    2.000    4.000 
#    0.000    1.429    0.000    7.714    0.000    0.000 
#    0.000    0.000    0.000    0.000    0.000    0.000 
#
# Total GULP energy -156105.798138 kJ/mol
# GULP energy per Si atom -5575.207076 kJ/mol
# Density = 1.854591 g / cm^3
# Si number density = 18.588213 Si / 1000 Ang^3
#
#
#
# Elastic Constant Matrix: (Units=GPa)
#
#
# Indices 1 2 3 4 5 6 
#
# 1 125.5792 14.8329 55.9068 0.0000 -6.0153 0.0000
# 2 14.8329 9.2886 8.8763 0.0000 -3.1544 0.0000
# 3 55.9068 8.8763 50.5502 0.0000 -11.1250 0.0000
# 4 0.0000 0.0000 0.0000 20.4844 0.0000 3.6469
# 5 -6.0153 -3.1544 -11.1250 0.0000 28.5128 0.0000
# 6 0.0000 0.0000 0.0000 3.6469 0.0000 16.1800
#
#
#
# Elastic Compliance Matrix: (Units=1/GPa)
#
#
# Indices 1 2 3 4 5 6 
#
# 1 0.017076 -0.011805 -0.017839 0.000000 -0.004664 0.000000
# 2 -0.011805 0.138461 -0.009226 0.000000 0.009228 0.000000
# 3 -0.017839 -0.009226 0.043843 0.000000 0.012323 0.000000
# 4 0.000000 0.000000 0.000000 0.050858 0.000000 -0.011463
# 5 -0.004664 0.009228 0.012323 0.000000 0.039917 0.000000
# 6 0.000000 0.000000 0.000000 -0.011463 0.000000 0.064389
#
#
# Mechanical properties :
#
#
# Convention : Reuss Voigt Hill
#
# Bulk Modulus (GPa) = 8.22097 38.29444 23.25771
# Shear Modulus (GPa) = 10.57463 20.08891 15.33177
#
# Velocity S-wave (km/s) = 2.38773 3.29102 2.87507
# Velocity P-wave (km/s) = 3.46900 5.92345 4.85393
#
# Compressibility (1/GPa) = 0.12164012
#
# Stress axis : x y z
#
# Youngs Moduli (GPa) = 58.56280 7.22226 22.80849
#
# Poissons Ratio (x) = 0.08526 0.40687
# Poissons Ratio (y) = 0.69133 0.21044
# Poissons Ratio (z) = 1.04468 0.06663
#
# Static dielectric constant tensor:
#      x y z
#    x 1.647540 0.000000 -0.014970 
#    y 0.000000 1.651310 0.000000 
#    z -0.014970 0.000000 1.635500 
# 
# From -- ./inp_files/243271.got.cif
#   From: 2010.05.17/outbox.cif.g08.bks.cpg/sg12_122_cif.got.tgz:243271.got - 2010.06.03 13:09:07.
