data_PCOD9173232
_publ_section_title
;
Structure prediction by ZEFSAII (Michael W. Deem and Ramdas Pophale) SiO2 
 PCOD9173232
Probable space group: C 2/M
;
_chemical_formula_sum "Si O2"
_cell_formula_units_Z 56
_cell_length_a 30.813194
_cell_length_b 7.373739
_cell_length_c 15.012305
_cell_angle_alpha 90.000000
_cell_angle_beta 133.195429
_cell_angle_gamma 90.000000
_cell_volume 2486.641804
_symmetry_space_group_name_H-M "C 2/M"
_symmetry_group_IT_number 12
_symmetry_cell_setting 'monoclinic'
loop_
_space_group_symop_operation_xyz
x,y,z
-x,y,-z
-x,-y,-z
x,-y,z
1/2+x,1/2+y,z
1/2-x,1/2+y,-z
1/2-x,1/2-y,-z
1/2+x,1/2-y,z
loop_
_atom_site_type_symbol
_atom_site_label
_atom_site_fract_x
_atom_site_fract_y
_atom_site_fract_z
Si Si1 0.910468 0.221969 0.620846
Si Si2 0.950235 0.209911 0.866286
Si Si3 0.175380 0.790804 0.796821
Si Si4 0.274888 0.715876 0.436294
Si Si5 0.811264 0.719793 0.984740
Si Si6 0.162202 0.719710 0.170906
Si Si7 0.441177 0.721702 0.468941
O O1 0.940374 0.286883 0.754119
O O2 0.841824 0.284376 0.521653
O O3 0.941522 0.274033 0.572769
O O4 0.909340 0.000000 0.622746
O O5 0.888583 0.215810 0.833719
O O6 0.967504 0.000000 0.876501
O O7 0.000000 0.293685 0.000000
O O8 0.162724 0.783520 0.884810
O O9 0.120169 0.715173 0.663795
O O10 0.180716 0.000000 0.775441
O O11 0.242318 0.715471 0.881024
O O12 0.278308 0.500000 0.428168
O O13 0.250000 0.750000 0.500000
O O14 0.226175 0.782443 0.297630
O O15 0.810439 0.500000 0.987462
O O16 0.844644 0.774577 0.941503
O O17 0.161240 0.500000 0.172297
O O18 0.500000 0.781505 0.500000
O O19 0.440478 0.500000 0.464392
#
# Coordination Sequence:
#
# PCOD9173232 Si02
#       7
#     8   8   8   8   8   8   8
#     4   9  17  31  49  71 102 135 163 205 259 299
#     4  10  21  35  51  73 103 136 168 206 252 301
#     4   9  17  31  51  75  99 128 169 213 252 295
#     4  10  18  30  51  75 100 131 167 207 250 297
#     4   9  18  32  50  73 103 134 163 203 257 306
#     4  10  20  33  51  75 101 133 172 208 249 307
#     4   9  17  29  49  75 100 129 169 210 249 297
#
# _framework density 22.520333000000001
#
# number of rings (size 3 to 8) (size 9 to 14) (size 15 to 20)
#    0.000    2.571    1.429    0.857    0.000    5.429 
#    0.000    2.857    0.000    3.857    0.000    0.000 
#    0.000    0.000    0.000    0.000    0.000    0.000 
#
# Total GULP energy -156406.696707 kJ/mol
# GULP energy per Si atom -5585.953454 kJ/mol
# Density = 2.246908 g / cm^3
# Si number density = 22.520333 Si / 1000 Ang^3
#
#
#
# Elastic Constant Matrix: (Units=GPa)
#
#
# Indices 1 2 3 4 5 6 
#
# 1 120.5838 -6.8935 72.9721 0.0000 -26.7525 0.0000
# 2 -6.8935 80.1892 0.2932 0.0000 6.4477 0.0000
# 3 72.9721 0.2932 165.8218 0.0000 -13.4761 0.0000
# 4 0.0000 0.0000 0.0000 -27.6748 0.0000 1.1302
# 5 -26.7525 6.4477 -13.4761 0.0000 35.9890 0.0000
# 6 0.0000 0.0000 0.0000 1.1302 0.0000 9.0583
#
#
#
# Elastic Compliance Matrix: (Units=1/GPa)
#
#
# Indices 1 2 3 4 5 6 
#
# 1 0.013172 0.000527 -0.005167 0.000000 0.007762 0.000000
# 2 0.000527 0.012681 -0.000420 0.000000 -0.002037 0.000000
# 3 -0.005167 -0.000420 0.008250 0.000000 -0.000676 0.000000
# 4 0.000000 0.000000 0.000000 -0.035951 0.000000 0.004486
# 5 0.007762 -0.002037 -0.000676 0.000000 0.033668 0.000000
# 6 0.000000 0.000000 0.000000 0.004486 0.000000 0.109837
#
#
# Mechanical properties :
#
#
# Convention : Reuss Voigt Hill
#
# Bulk Modulus (GPa) = 41.69421 55.48204 48.58812
# Shear Modulus (GPa) = 31.29485 23.48935 27.39210
#
# Velocity S-wave (km/s) = 3.73181 3.23310 3.49137
# Velocity P-wave (km/s) = 6.09285 6.21507 6.15426
#
# Compressibility (1/GPa) = 0.02398414
#
# Stress axis : x y z
#
# Youngs Moduli (GPa) = 75.91981 78.85703 121.21262
#
# Poissons Ratio (x) = -0.04156 0.62625
# Poissons Ratio (y) = -0.04002 0.05090
# Poissons Ratio (z) = 0.39224 0.03312
#
# Static dielectric constant tensor:
#      x y z
#    x 1.781950 0.000000 -0.002390 
#    y 0.000000 1.887370 0.000000 
#    z -0.002390 0.000000 1.818820 
# 
# From -- ./inp_files/182591.got.cif
#   From: 2010.05.17/outbox.cif.g08.bks.cpg/sg12_92_cif.got.tgz:182591.got - 2010.06.03 13:09:07.
