data_PCOD9173756
_publ_section_title
;
Structure prediction by ZEFSAII (Michael W. Deem and Ramdas Pophale) SiO2 
 PCOD9173756
Probable space group: C 2/M
;
_chemical_formula_sum "Si O2"
_cell_formula_units_Z 56
_cell_length_a 19.138073
_cell_length_b 23.549062
_cell_length_c 12.375083
_cell_angle_alpha 90.000000
_cell_angle_beta 32.993806
_cell_angle_gamma 90.000000
_cell_volume 3037.081177
_symmetry_space_group_name_H-M "C 2/M"
_symmetry_group_IT_number 12
_symmetry_cell_setting 'monoclinic'
loop_
_space_group_symop_operation_xyz
x,y,z
-x,y,-z
-x,-y,-z
x,-y,z
1/2+x,1/2+y,z
1/2-x,1/2+y,-z
1/2-x,1/2-y,-z
1/2+x,1/2-y,z
loop_
_atom_site_type_symbol
_atom_site_label
_atom_site_fract_x
_atom_site_fract_y
_atom_site_fract_z
Si Si1 0.696183 0.133508 0.390419
Si Si2 0.642872 0.832280 0.845998
Si Si3 0.929926 0.767592 0.803422
Si Si4 0.689245 0.687051 0.562457
Si Si5 0.808612 0.262396 0.749658
Si Si6 0.934933 0.631858 0.834521
Si Si7 0.146038 0.565416 0.262884
O O1 0.805455 0.156762 0.328092
O O2 0.643092 0.187463 0.389465
O O3 0.579150 0.112682 0.617883
O O4 0.729634 0.088707 0.254374
O O5 0.718806 0.847588 0.638861
O O6 0.734484 0.783193 0.773715
O O7 0.500000 0.811004 0.000000
O O8 0.617057 0.876818 0.976536
O O9 0.904635 0.767652 0.708415
O O10 0.940262 0.700574 0.819108
O O11 0.051155 0.801629 0.689486
O O12 0.801925 0.788199 0.029528
O O13 0.750000 0.750000 0.500000
O O14 0.851154 0.603261 0.848898
O O15 0.172313 0.500000 0.204109
O O16 0.000000 0.569557 0.500000
#
# Coordination Sequence:
#
# PCOD9173756 Si02
#       7
#     8   8   8   8   8   8   8
#     4  11  19  30  51  75 105 141 174 214 264 320
#     4  11  20  32  48  72 108 147 174 203 248 320
#     4  10  20  32  45  74 110 144 172 216 246 320
#     4  12  20  31  48  74 108 151 180 199 259 318
#     4  10  20  30  47  71 107 144 179 203 258 309
#     4  10  18  31  50  71 104 140 176 210 265 309
#     4   9  19  34  54  77 101 135 182 233 277 314
#
# _framework density 18.438756999999999
#
# number of rings (size 3 to 8) (size 9 to 14) (size 15 to 20)
#    0.000    1.571    5.714    0.857    0.000    1.714 
#    0.000    0.000    0.000    1.286    0.000    2.000 
#    0.000    1.143    0.000    0.000    0.000    0.000 
#
# Total GULP energy -156045.280242 kJ/mol
# GULP energy per Si atom -5573.045723 kJ/mol
# Density = 1.839679 g / cm^3
# Si number density = 18.438757 Si / 1000 Ang^3
#
#
#
# Elastic Constant Matrix: (Units=GPa)
#
#
# Indices 1 2 3 4 5 6 
#
# 1 151.5033 32.4509 31.2969 0.0000 8.8178 -0.0002
# 2 32.4509 45.5444 7.2381 0.0003 7.6720 -0.0001
# 3 31.2969 7.2381 65.9545 0.0001 19.5057 0.0001
# 4 0.0000 0.0003 0.0001 9.4025 0.0005 1.7935
# 5 8.8178 7.6720 19.5057 0.0005 34.8943 -0.0002
# 6 -0.0002 -0.0001 0.0001 1.7935 -0.0002 14.6730
#
#
#
# Elastic Compliance Matrix: (Units=1/GPa)
#
#
# Indices 1 2 3 4 5 6 
#
# 1 0.008527 -0.005678 -0.003780 0.000000 0.001207 0.000000
# 2 -0.005678 0.026665 0.001291 0.000000 -0.005149 0.000000
# 3 -0.003780 0.001291 0.019906 0.000000 -0.010456 0.000000
# 4 0.000000 0.000000 0.000000 0.108893 -0.000002 -0.013311
# 5 0.001207 -0.005149 -0.010456 -0.000002 0.035330 0.000001
# 6 0.000000 0.000000 0.000000 -0.013311 0.000001 0.069779
#
#
# Mechanical properties :
#
#
# Convention : Reuss Voigt Hill
#
# Bulk Modulus (GPa) = 25.79730 44.99712 35.39721
# Shear Modulus (GPa) = 16.75842 24.59506 20.67674
#
# Velocity S-wave (km/s) = 3.01802 3.65619 3.35233
# Velocity P-wave (km/s) = 5.11525 6.50232 5.85004
#
# Compressibility (1/GPa) = 0.03876375
#
# Stress axis : x y z
#
# Youngs Moduli (GPa) = 117.26837 37.50270 50.23507
#
# Poissons Ratio (x) = 0.21296 0.18990
# Poissons Ratio (y) = 0.66590 -0.06486
# Poissons Ratio (z) = 0.44329 -0.04842
#
# Static dielectric constant tensor:
#      x y z
#    x 1.717410 0.000000 0.029050 
#    y 0.000000 1.614310 0.000000 
#    z 0.029050 0.000000 1.727670 
# 
# From -- ./inp_files/160235.got.cif
#   From: 2010.05.17/outbox.cif.g08.bks.cpg/sg12_81_cif.got.tgz:160235.got - 2010.06.03 13:09:07.
