data_PCOD9173885
_publ_section_title
;
Structure prediction by ZEFSAII (Michael W. Deem and Ramdas Pophale) SiO2 
 PCOD9173885
Probable space group: C 2/M
;
_chemical_formula_sum "Si O2"
_cell_formula_units_Z 56
_cell_length_a 9.694902
_cell_length_b 13.244519
_cell_length_c 21.621004
_cell_angle_alpha 90.000000
_cell_angle_beta 47.190895
_cell_angle_gamma 90.000000
_cell_volume 2036.703215
_symmetry_space_group_name_H-M "C 2/M"
_symmetry_group_IT_number 12
_symmetry_cell_setting 'monoclinic'
loop_
_space_group_symop_operation_xyz
x,y,z
-x,y,-z
-x,-y,-z
x,-y,z
1/2+x,1/2+y,z
1/2-x,1/2+y,-z
1/2-x,1/2-y,-z
1/2+x,1/2-y,z
loop_
_atom_site_type_symbol
_atom_site_label
_atom_site_fract_x
_atom_site_fract_y
_atom_site_fract_z
Si Si1 0.578521 0.385696 0.692064
Si Si2 0.385622 0.113430 0.275343
Si Si3 0.913977 0.613814 0.407294
Si Si4 0.110423 0.887699 0.821106
Si Si5 0.714743 0.877959 0.995910
Si Si6 0.463237 0.677846 0.424963
Si Si7 0.656033 0.181342 0.841950
O O1 0.610797 0.500000 0.663631
O O2 0.667256 0.371181 0.732385
O O3 0.627891 0.323595 0.616438
O O4 0.356848 0.368514 0.771764
O O5 0.469091 0.127764 0.318253
O O6 0.435581 0.177114 0.199532
O O7 0.163080 0.126634 0.355979
O O8 0.421756 0.000000 0.244794
O O9 0.962275 0.500000 0.410906
O O10 0.686993 0.626780 0.484796
O O11 0.990370 0.703242 0.426761
O O12 0.178582 0.800563 0.846326
O O13 0.169449 0.000000 0.821577
O O14 0.882587 0.885316 0.895523
O O15 0.488787 0.870891 0.068078
O O16 0.739213 0.000000 0.015602
O O17 0.750000 0.750000 0.000000
#
# Coordination Sequence:
#
# PCOD9173885 Si02
#       7
#     8   8   8   8   8   8   8
#     4  10  19  32  51  74  97 125 164 204 241 285
#     4  10  19  32  51  73  95 123 161 199 236 282
#     4  10  20  33  51  72  95 125 159 195 237 286
#     4   9  19  33  49  71 100 131 162 199 245 295
#     4   9  17  30  49  73 100 131 166 206 250 296
#     4  10  19  32  51  72  97 124 157 198 241 283
#     4  10  18  31  51  73  98 127 163 204 245 286
#
# _framework density 27.495414
#
# number of rings (size 3 to 8) (size 9 to 14) (size 15 to 20)
#    0.000    2.286    0.000    4.714    0.000    1.714 
#    0.000    5.000    0.000   13.714    0.000   13.000 
#    0.000    0.000    0.000    0.000    0.000    0.000 
#
# Total GULP energy -156081.256212 kJ/mol
# GULP energy per Si atom -5574.330579 kJ/mol
# Density = 2.743283 g / cm^3
# Si number density = 27.495414 Si / 1000 Ang^3
#
#
#
# Elastic Constant Matrix: (Units=GPa)
#
#
# Indices 1 2 3 4 5 6 
#
# 1 93.5737 5.0701 25.1273 0.0000 -11.9416 0.0000
# 2 5.0701 188.4495 17.0700 0.0001 26.3084 -0.0001
# 3 25.1273 17.0700 154.6014 0.0000 -10.6369 0.0000
# 4 0.0000 0.0001 0.0000 38.2381 0.0000 -8.8288
# 5 -11.9416 26.3084 -10.6369 0.0000 35.3655 0.0001
# 6 0.0000 -0.0001 0.0000 -8.8288 0.0001 9.3009
#
#
#
# Elastic Compliance Matrix: (Units=1/GPa)
#
#
# Indices 1 2 3 4 5 6 
#
# 1 0.011652 -0.000736 -0.001536 0.000000 0.004020 0.000000
# 2 -0.000736 0.006116 -0.000905 0.000000 -0.005070 0.000000
# 3 -0.001536 -0.000905 0.006973 0.000000 0.002251 0.000000
# 4 0.000000 0.000000 0.000000 0.033493 0.000000 0.031792
# 5 0.004020 -0.005070 0.002251 0.000000 0.034082 0.000000
# 6 0.000000 0.000000 0.000000 0.031792 0.000000 0.137695
#
#
# Mechanical properties :
#
#
# Convention : Reuss Voigt Hill
#
# Bulk Modulus (GPa) = 54.38187 59.01771 56.69979
# Shear Modulus (GPa) = 20.61923 42.53804 31.57864
#
# Velocity S-wave (km/s) = 2.74143 3.93758 3.39264
# Velocity P-wave (km/s) = 5.46279 6.49491 6.00108
#
# Compressibility (1/GPa) = 0.01838848
#
# Stress axis : x y z
#
# Youngs Moduli (GPa) = 85.82176 163.50553 143.41688
#
# Poissons Ratio (x) = 0.12026 0.22029
# Poissons Ratio (y) = 0.06312 0.12973
# Poissons Ratio (z) = 0.13183 0.14790
#
# Static dielectric constant tensor:
#      x y z
#    x 2.360090 0.000000 -0.004160 
#    y 0.000000 2.160550 0.000000 
#    z -0.004160 0.000000 2.035120 
# 
# From -- ./inp_files/268619.got.cif
#   From: 2010.05.17/outbox.cif.g08.bks.cpg/sg12_135_cif.got.tgz:268619.got - 2010.06.03 13:09:07.
