data_PCOD9173464
_publ_section_title
;
Structure prediction by ZEFSAII (Michael W. Deem and Ramdas Pophale) SiO2 
 PCOD9173464
Probable space group: C 2/M
;
_chemical_formula_sum "Si O2"
_cell_formula_units_Z 52
_cell_length_a 17.115107
_cell_length_b 22.635683
_cell_length_c 11.157962
_cell_angle_alpha 90.000000
_cell_angle_beta 134.822057
_cell_angle_gamma 90.000000
_cell_volume 3066.109822
_symmetry_space_group_name_H-M "C 2/M"
_symmetry_group_IT_number 12
_symmetry_cell_setting 'monoclinic'
loop_
_space_group_symop_operation_xyz
x,y,z
-x,y,-z
-x,-y,-z
x,-y,z
1/2+x,1/2+y,z
1/2-x,1/2+y,-z
1/2-x,1/2-y,-z
1/2+x,1/2-y,z
loop_
_atom_site_type_symbol
_atom_site_label
_atom_site_fract_x
_atom_site_fract_y
_atom_site_fract_z
Si Si1 0.044131 0.121086 0.915565
Si Si2 0.464254 0.850627 0.321859
Si Si3 0.874373 0.929797 0.544099
Si Si4 0.000000 0.155632 0.500000
Si Si5 0.157802 0.431598 0.452913
Si Si6 0.877096 0.771652 0.159804
Si Si7 0.725425 0.933512 0.802042
O O1 0.085006 0.182067 0.900045
O O2 0.950464 0.088880 0.738002
O O3 0.149197 0.078463 0.031544
O O4 0.000000 0.132155 0.000000
O O5 0.500000 0.841750 0.500000
O O6 0.554400 0.888676 0.349148
O O7 0.444957 0.788903 0.237191
O O8 0.352045 0.887700 0.213199
O O9 0.749115 0.918355 0.451352
O O10 0.920255 0.887517 0.489916
O O11 0.885173 0.000000 0.529983
O O12 0.918761 0.194841 0.327265
O O13 0.123662 0.500000 0.402476
O O14 0.211473 0.426369 0.643710
O O15 0.750000 0.750000 0.000000
O O16 0.690452 0.000000 0.793862
#
# Coordination Sequence:
#
# PCOD9173464 Si02
#       7
#     8   8   8   4   8   8   8
#     4  11  21  34  53  85 115 146 189 238 288 334
#     4  10  19  35  55  80 111 149 190 230 277 335
#     4  10  20  36  59  84 114 149 185 234 290 342
#     4  10  23  40  58  86 111 152 200 230 280 344
#     4   9  18  32  54  83 112 143 180 231 291 339
#     4  11  22  40  59  79 113 156 194 237 279 333
#     4  10  18  30  53  82 113 144 181 232 289 340
#
# _framework density 16.959602
#
# number of rings (size 3 to 8) (size 9 to 14) (size 15 to 20)
#    0.000    1.846    3.846    1.154    0.000    2.462 
#    2.769    1.538    0.000    0.000    0.000    2.154 
#    0.000    0.000    0.000    0.000    0.000    0.000 
#
# Total GULP energy -144871.481695 kJ/mol
# GULP energy per Si atom -5571.980065 kJ/mol
# Density = 1.692100 g / cm^3
# Si number density = 16.959602 Si / 1000 Ang^3
#
#
#
# Elastic Constant Matrix: (Units=GPa)
#
#
# Indices 1 2 3 4 5 6 
#
# 1 77.1915 47.3625 33.4629 0.0000 9.6554 0.0000
# 2 47.3625 91.7503 24.5089 0.0000 4.5367 0.0000
# 3 33.4629 24.5089 57.1748 0.0000 7.4737 0.0000
# 4 0.0000 0.0000 0.0000 24.9723 0.0000 5.9780
# 5 9.6554 4.5367 7.4737 0.0000 22.7899 0.0000
# 6 0.0000 0.0000 0.0000 5.9780 0.0000 21.5810
#
#
#
# Elastic Compliance Matrix: (Units=1/GPa)
#
#
# Indices 1 2 3 4 5 6 
#
# 1 0.023171 -0.009334 -0.008901 0.000000 -0.005040 0.000000
# 2 -0.009334 0.016081 -0.001597 0.000000 0.001277 0.000000
# 3 -0.008901 -0.001597 0.023874 0.000000 -0.003740 0.000000
# 4 0.000000 0.000000 0.000000 0.042888 0.000000 -0.011880
# 5 -0.005040 0.001277 -0.003740 0.000000 0.046986 0.000000
# 6 0.000000 0.000000 0.000000 -0.011880 0.000000 0.049628
#
#
# Mechanical properties :
#
#
# Convention : Reuss Voigt Hill
#
# Bulk Modulus (GPa) = 42.62591 48.53168 45.57880
# Shear Modulus (GPa) = 19.99084 21.92077 20.95581
#
# Velocity S-wave (km/s) = 3.43699 3.59908 3.51897
# Velocity P-wave (km/s) = 6.39835 6.77859 6.59121
#
# Compressibility (1/GPa) = 0.02345991
#
# Stress axis : x y z
#
# Youngs Moduli (GPa) = 43.15704 62.18477 41.88733
#
# Poissons Ratio (x) = 0.58045 0.37286
# Poissons Ratio (y) = 0.40284 0.06691
# Poissons Ratio (z) = 0.38416 0.09933
#
# Static dielectric constant tensor:
#      x y z
#    x 1.547250 0.000000 -0.010020 
#    y 0.000000 1.551870 0.000000 
#    z -0.010020 0.000000 1.564300 
# 
# From -- ./inp_files/148855.got.cif
#   From: 2010.05.17/outbox.cif.g08.bks.cpg/sg12_75_cif.got.tgz:148855.got - 2010.06.03 13:09:07.
