data_PCOD9173685
_publ_section_title
;
Structure prediction by ZEFSAII (Michael W. Deem and Ramdas Pophale) SiO2 
 PCOD9173685
Probable space group: C 2/M
;
_chemical_formula_sum "Si O2"
_cell_formula_units_Z 56
_cell_length_a 26.419321
_cell_length_b 8.406337
_cell_length_c 19.222617
_cell_angle_alpha 90.000000
_cell_angle_beta 33.948066
_cell_angle_gamma 90.000000
_cell_volume 2384.066838
_symmetry_space_group_name_H-M "C 2/M"
_symmetry_group_IT_number 12
_symmetry_cell_setting 'monoclinic'
loop_
_space_group_symop_operation_xyz
x,y,z
-x,y,-z
-x,-y,-z
x,-y,z
1/2+x,1/2+y,z
1/2-x,1/2+y,-z
1/2-x,1/2-y,-z
1/2+x,1/2-y,z
loop_
_atom_site_type_symbol
_atom_site_label
_atom_site_fract_x
_atom_site_fract_y
_atom_site_fract_z
Si Si1 0.946978 0.177726 0.491899
Si Si2 0.598982 0.189345 0.153308
Si Si3 0.749995 0.753198 0.246159
Si Si4 0.207733 0.185534 0.643974
Si Si5 0.732451 0.176895 0.113830
Si Si6 0.410599 0.185053 0.387676
Si Si7 0.602605 0.000000 0.943000
Si Si8 0.587872 0.000000 0.791495
O O1 0.841230 0.161806 0.630989
O O2 0.943045 0.294965 0.430911
O O3 0.000000 0.233058 0.500000
O O4 0.980903 0.000000 0.434451
O O5 0.644012 0.244218 0.175425
O O6 0.499310 0.258180 0.249573
O O7 0.585532 0.000000 0.174227
O O8 0.678769 0.226811 0.009067
O O9 0.779817 0.826700 0.285944
O O10 0.721254 0.839021 0.208455
O O11 0.834210 0.651995 0.123385
O O12 0.306848 0.243899 0.502649
O O13 0.138062 0.334494 0.712099
O O14 0.187866 0.000000 0.643910
O O15 0.747650 0.000000 0.067258
O O16 0.401538 0.000000 0.379617
O O17 0.521077 0.000000 0.091465
O O18 0.586557 0.000000 0.877525
#
# Coordination Sequence:
#
# PCOD9173685 Si02
#       8
#     8   8   8   8   8   8   4   4
#     4  10  19  28  43  69  97 130 167 202 243 290
#     4   9  19  34  48  66  97 136 174 211 250 293
#     4  10  18  31  49  70 102 137 167 208 249 300
#     4   9  18  32  53  78 104 133 165 208 258 312
#     4  10  20  32  47  69  99 134 173 213 249 289
#     4   9  18  31  47  68  94 126 167 207 248 299
#     4   9  18  32  49  74 102 136 165 196 254 314
#     4   9  18  34  52  76 108 132 162 204 257 323
#
# _framework density 23.489274999999999
#
# number of rings (size 3 to 8) (size 9 to 14) (size 15 to 20)
#    0.000    2.571    0.714    1.286    4.000    1.429 
#    0.000    6.429    0.000    0.000    0.000    1.000 
#    0.000    0.000    0.000    0.000    0.000    0.000 
#
# Total GULP energy -155877.570789 kJ/mol
# GULP energy per Si atom -5567.056100 kJ/mol
# Density = 2.343581 g / cm^3
# Si number density = 23.489275 Si / 1000 Ang^3
#
#
#
# Elastic Constant Matrix: (Units=GPa)
#
#
# Indices 1 2 3 4 5 6 
#
# 1 91.0643 16.3683 23.0103 -0.0006 -0.0988 0.0003
# 2 16.3683 76.1895 39.3022 -0.0038 -13.7756 -0.0022
# 3 23.0103 39.3022 148.5369 -0.0046 -40.4679 -0.0011
# 4 -0.0006 -0.0038 -0.0046 20.5244 0.0016 7.6843
# 5 -0.0988 -13.7756 -40.4679 0.0016 41.7975 0.0007
# 6 0.0003 -0.0022 -0.0011 7.6843 0.0007 20.5425
#
#
#
# Elastic Compliance Matrix: (Units=1/GPa)
#
#
# Indices 1 2 3 4 5 6 
#
# 1 0.011841 -0.001970 -0.002013 0.000000 -0.002571 0.000000
# 2 -0.001970 0.015599 -0.003291 0.000002 0.001950 0.000001
# 3 -0.002013 -0.003291 0.010348 0.000001 0.008929 0.000000
# 4 0.000000 0.000002 0.000001 0.056658 0.000000 -0.021194
# 5 -0.002571 0.001950 0.008929 0.000000 0.033207 0.000000
# 6 0.000000 0.000001 0.000000 -0.021194 0.000000 0.056608
#
#
# Mechanical properties :
#
#
# Convention : Reuss Voigt Hill
#
# Bulk Modulus (GPa) = 43.03144 52.57247 47.80196
# Shear Modulus (GPa) = 24.20668 32.38021 28.29345
#
# Velocity S-wave (km/s) = 3.21369 3.71686 3.47439
# Velocity P-wave (km/s) = 5.66831 6.39141 6.04069
#
# Compressibility (1/GPa) = 0.02323882
#
# Stress axis : x y z
#
# Youngs Moduli (GPa) = 84.44985 64.10836 96.64025
#
# Poissons Ratio (x) = 0.12630 0.19458
# Poissons Ratio (y) = 0.16638 0.31802
# Poissons Ratio (z) = 0.17004 0.21097
#
# Static dielectric constant tensor:
#      x y z
#    x 1.993270 0.000000 -0.031610 
#    y 0.000000 1.895130 0.000000 
#    z -0.031610 0.000000 1.903420 
# 
# From -- ./inp_files/329573.got.cif
#   From: 2010.05.17/outbox.cif.g08.bks.cpg/sg12_165_cif.got.tgz:329573.got - 2010.06.03 13:09:07.
