data_PCOD9173593
_publ_section_title
;
Structure prediction by ZEFSAII (Michael W. Deem and Ramdas Pophale) SiO2 
 PCOD9173593
Probable space group: C 2/M
;
_chemical_formula_sum "Si O2"
_cell_formula_units_Z 64
_cell_length_a 24.850250
_cell_length_b 22.362637
_cell_length_c 9.193300
_cell_angle_alpha 90.000000
_cell_angle_beta 129.100914
_cell_angle_gamma 90.000000
_cell_volume 3964.672068
_symmetry_space_group_name_H-M "C 2/M"
_symmetry_group_IT_number 12
_symmetry_cell_setting 'monoclinic'
loop_
_space_group_symop_operation_xyz
x,y,z
-x,y,-z
-x,-y,-z
x,-y,z
1/2+x,1/2+y,z
1/2-x,1/2+y,-z
1/2-x,1/2-y,-z
1/2+x,1/2-y,z
loop_
_atom_site_type_symbol
_atom_site_label
_atom_site_fract_x
_atom_site_fract_y
_atom_site_fract_z
Si Si1 0.196700 0.269467 0.203318
Si Si2 0.561278 0.228364 0.779187
Si Si3 0.939772 0.931364 0.997134
Si Si4 0.091043 0.290650 0.498105
Si Si5 0.714593 0.163100 0.539162
Si Si6 0.936474 0.865318 0.293221
Si Si7 0.667785 0.666257 0.643343
Si Si8 0.307084 0.431293 0.563888
O O1 0.224575 0.202138 0.279124
O O2 0.196131 0.300811 0.359952
O O3 0.256326 0.303876 0.212959
O O4 0.123224 0.273930 0.999656
O O5 0.486896 0.200999 0.693504
O O6 0.586179 0.203811 0.664747
O O7 0.545236 0.297725 0.720039
O O8 0.870882 0.930971 0.784128
O O9 0.960750 0.000000 0.062046
O O10 0.928998 0.900904 0.132645
O O11 0.000000 0.902967 0.000000
O O12 0.147485 0.334396 0.525814
O O13 0.119683 0.223037 0.515073
O O14 0.742874 0.099237 0.537977
O O15 0.867381 0.860281 0.272674
O O16 0.000000 0.888781 0.500000
O O17 0.673726 0.614133 0.534008
O O18 0.295007 0.500000 0.497133
#
# Coordination Sequence:
#
# PCOD9173593 Si02
#       8
#     8   8   8   8   8   8   8   8
#     4   9  18  30  49  71 101 125 158 192 244 287
#     4  10  18  31  46  76  98 128 153 195 234 296
#     4  10  22  34  45  65  92 128 173 208 235 269
#     4   9  18  31  49  70 106 123 158 190 237 292
#     4   9  18  33  47  72  95 127 158 201 237 295
#     4  11  19  31  48  68  96 132 163 196 234 285
#     4   9  18  33  50  70  98 128 160 199 239 295
#     4  10  20  35  51  68  93 125 166 208 242 278
#
# _framework density 16.142572000000001
#
# number of rings (size 3 to 8) (size 9 to 14) (size 15 to 20)
#    0.000    2.375    2.500    2.250    0.000    6.750 
#    0.000    0.000    0.000    0.000    0.000    8.750 
#    0.000    0.000    0.000    0.000    0.000    0.000 
#
# Total GULP energy -178318.083515 kJ/mol
# GULP energy per Si atom -5572.440110 kJ/mol
# Density = 1.610583 g / cm^3
# Si number density = 16.142572 Si / 1000 Ang^3
#
#
#
# Elastic Constant Matrix: (Units=GPa)
#
#
# Indices 1 2 3 4 5 6 
#
# 1 92.1755 23.7434 18.7964 0.0000 3.8572 0.0000
# 2 23.7434 44.8301 8.7114 0.0000 -6.0656 0.0000
# 3 18.7964 8.7114 76.3603 0.0000 17.5178 0.0000
# 4 0.0000 0.0000 0.0000 28.7062 0.0000 -7.0699
# 5 3.8572 -6.0656 17.5178 0.0000 24.0515 0.0000
# 6 0.0000 0.0000 0.0000 -7.0699 0.0000 20.3110
#
#
#
# Elastic Compliance Matrix: (Units=1/GPa)
#
#
# Indices 1 2 3 4 5 6 
#
# 1 0.013117 -0.006921 -0.001868 0.000000 -0.002488 0.000000
# 2 -0.006921 0.028288 -0.004100 0.000000 0.011230 0.000000
# 3 -0.001868 -0.004100 0.017039 0.000000 -0.013145 0.000000
# 4 0.000000 0.000000 0.000000 0.038102 0.000000 0.013263
# 5 -0.002488 0.011230 -0.013145 0.000000 0.054383 0.000000
# 6 0.000000 0.000000 0.000000 0.013263 0.000000 0.053851
#
#
# Mechanical properties :
#
#
# Convention : Reuss Voigt Hill
#
# Bulk Modulus (GPa) = 30.61313 35.09648 32.85480
# Shear Modulus (GPa) = 20.70861 25.42138 23.06499
#
# Velocity S-wave (km/s) = 3.58558 3.97268 3.78409
# Velocity P-wave (km/s) = 6.01226 6.54460 6.28407
#
# Compressibility (1/GPa) = 0.03266572
#
# Stress axis : x y z
#
# Youngs Moduli (GPa) = 76.23893 35.35075 58.68900
#
# Poissons Ratio (x) = 0.24465 0.10966
# Poissons Ratio (y) = 0.52762 0.24062
# Poissons Ratio (z) = 0.14245 0.14494
#
# Static dielectric constant tensor:
#      x y z
#    x 1.573530 0.000000 0.001060 
#    y 0.000000 1.538530 0.000000 
#    z 0.001060 0.000000 1.540640 
# 
# From -- ./inp_files/106419.got.cif
#   From: 2010.05.17/outbox.cif.g08.bks.cpg/sg12_54_cif.got.tgz:106419.got - 2010.06.03 13:09:07.
