data_PCOD9173630
_publ_section_title
;
Structure prediction by ZEFSAII (Michael W. Deem and Ramdas Pophale) SiO2 
 PCOD9173630
Probable space group: C 2/M
;
_chemical_formula_sum "Si O2"
_cell_formula_units_Z 48
_cell_length_a 16.265948
_cell_length_b 24.003462
_cell_length_c 8.536439
_cell_angle_alpha 90.000000
_cell_angle_beta 117.800928
_cell_angle_gamma 90.000000
_cell_volume 2948.247175
_symmetry_space_group_name_H-M "C 2/M"
_symmetry_group_IT_number 12
_symmetry_cell_setting 'monoclinic'
loop_
_space_group_symop_operation_xyz
x,y,z
-x,y,-z
-x,-y,-z
x,-y,z
1/2+x,1/2+y,z
1/2-x,1/2+y,-z
1/2-x,1/2-y,-z
1/2+x,1/2-y,z
loop_
_atom_site_type_symbol
_atom_site_label
_atom_site_fract_x
_atom_site_fract_y
_atom_site_fract_z
Si Si1 0.836593 0.764568 0.960342
Si Si2 0.603761 0.063748 0.661839
Si Si3 0.797164 0.327405 0.366125
Si Si4 0.715682 0.835989 0.274676
Si Si5 0.103792 0.565024 0.037437
Si Si6 0.403637 0.719132 0.336165
O O1 0.797608 0.811628 0.809922
O O2 0.850010 0.709586 0.869683
O O3 0.750000 0.750000 0.000000
O O4 0.913631 0.778814 0.156238
O O5 0.500000 0.070442 0.500000
O O6 0.666965 0.111882 0.647185
O O7 0.632712 0.000000 0.651882
O O8 0.605443 0.070887 0.851017
O O9 0.786717 0.325178 0.542863
O O10 0.869599 0.279688 0.371571
O O11 0.677619 0.895480 0.187791
O O12 0.819760 0.822520 0.307289
O O13 0.119133 0.500000 0.089794
O O14 0.000000 0.580017 0.000000
O O15 0.500000 0.704000 0.500000
#
# Coordination Sequence:
#
# PCOD9173630 Si02
#       6
#     8   8   8   8   8   8
#     4   8  16  30  47  65  90 122 159 196 234 277
#     4  10  19  30  45  68  97 127 159 193 236 291
#     4  10  18  31  48  68  97 129 161 199 243 288
#     4  10  19  32  48  71 100 127 162 202 243 289
#     4  10  20  33  50  73  99 128 161 196 238 290
#     4  10  19  32  50  70  95 129 167 203 241 286
#
# _framework density 16.280860000000001
#
# number of rings (size 3 to 8) (size 9 to 14) (size 15 to 20)
#    0.000    2.667    0.000    6.500    0.000    3.333 
#    0.000    2.500    0.000    0.500    0.000    0.000 
#    0.000    5.333    0.000    0.000    0.000    0.000 
#
# Total GULP energy -133735.077129 kJ/mol
# GULP energy per Si atom -5572.294880 kJ/mol
# Density = 1.624380 g / cm^3
# Si number density = 16.280860 Si / 1000 Ang^3
#
#
#
# Elastic Constant Matrix: (Units=GPa)
#
#
# Indices 1 2 3 4 5 6 
#
# 1 36.5872 34.6734 36.8083 0.0000 1.2884 0.0000
# 2 34.6734 86.5106 50.3730 0.0000 3.9133 0.0000
# 3 36.8083 50.3730 147.0812 0.0000 -0.6356 0.0000
# 4 0.0000 0.0000 0.0000 27.4189 0.0000 0.7985
# 5 1.2884 3.9133 -0.6356 0.0000 28.2512 0.0000
# 6 0.0000 0.0000 0.0000 0.7985 0.0000 16.4137
#
#
#
# Elastic Compliance Matrix: (Units=1/GPa)
#
#
# Indices 1 2 3 4 5 6 
#
# 1 0.049155 -0.015648 -0.006943 0.000000 -0.000230 0.000000
# 2 -0.015648 0.019547 -0.002787 0.000000 -0.002057 0.000000
# 3 -0.006943 -0.002787 0.009495 0.000000 0.000916 0.000000
# 4 0.000000 0.000000 0.000000 0.036523 0.000000 -0.001777
# 5 -0.000230 -0.002057 0.000916 0.000000 0.035713 0.000000
# 6 0.000000 0.000000 0.000000 -0.001777 0.000000 0.061011
#
#
# Mechanical properties :
#
#
# Convention : Reuss Voigt Hill
#
# Bulk Modulus (GPa) = 36.44341 57.09870 46.77106
# Shear Modulus (GPa) = 18.42657 24.30504 21.36580
#
# Velocity S-wave (km/s) = 3.36786 3.86795 3.62653
# Velocity P-wave (km/s) = 6.12831 7.42261 6.80630
#
# Compressibility (1/GPa) = 0.02743980
#
# Stress axis : x y z
#
# Youngs Moduli (GPa) = 20.34399 51.15863 105.31675
#
# Poissons Ratio (x) = 0.80052 0.73123
# Poissons Ratio (y) = 0.31834 0.29356
# Poissons Ratio (z) = 0.14125 0.14260
#
# Static dielectric constant tensor:
#      x y z
#    x 1.551560 0.000000 -0.005820 
#    y 0.000000 1.543710 0.000000 
#    z -0.005820 0.000000 1.600990 
# 
# From -- ./inp_files/78514.got.cif
#   From: 2010.05.17/outbox.cif.g08.bks.cpg/sg12_40_cif.got.tgz:78514.got - 2010.06.03 13:09:07.
