data_PCOD9173981
_publ_section_title
;
Structure prediction by ZEFSAII (Michael W. Deem and Ramdas Pophale) SiO2 
 PCOD9173981
Probable space group: C 2/M
;
_chemical_formula_sum "Si O2"
_cell_formula_units_Z 64
_cell_length_a 25.194482
_cell_length_b 21.972603
_cell_length_c 16.579569
_cell_angle_alpha 90.000000
_cell_angle_beta 22.240562
_cell_angle_gamma 90.000000
_cell_volume 3473.934688
_symmetry_space_group_name_H-M "C 2/M"
_symmetry_group_IT_number 12
_symmetry_cell_setting 'monoclinic'
loop_
_space_group_symop_operation_xyz
x,y,z
-x,y,-z
-x,-y,-z
x,-y,z
1/2+x,1/2+y,z
1/2-x,1/2+y,-z
1/2-x,1/2-y,-z
1/2+x,1/2-y,z
loop_
_atom_site_type_symbol
_atom_site_label
_atom_site_fract_x
_atom_site_fract_y
_atom_site_fract_z
Si Si1 0.315560 0.150109 0.908416
Si Si2 0.896249 0.236440 0.218180
Si Si3 0.033430 0.067005 0.747426
Si Si4 0.560929 0.929124 0.575383
Si Si5 0.148351 0.905416 0.748591
Si Si6 0.283556 0.928960 0.798291
Si Si7 0.102838 0.200794 0.607381
Si Si8 0.562967 0.275024 0.322252
O O1 0.444856 0.117448 0.772269
O O2 0.281423 0.101432 0.887738
O O3 0.362126 0.210290 0.795046
O O4 0.179437 0.171827 0.148243
O O5 0.845808 0.167757 0.268836
O O6 0.960275 0.229440 0.219398
O O7 0.764550 0.281627 0.395667
O O8 0.000000 0.253189 0.000000
O O9 0.138675 0.066825 0.673811
O O10 0.072219 0.128631 0.646936
O O11 0.032204 0.000000 0.709156
O O12 0.877402 0.077145 0.003606
O O13 0.710666 0.927003 0.408078
O O14 0.604318 0.906149 0.424421
O O15 0.514431 0.000000 0.639482
O O16 0.000000 0.920291 0.000000
O O17 0.313562 0.000000 0.763456
O O18 0.042375 0.223766 0.607047
O O19 0.500000 0.278796 0.500000
#
# Coordination Sequence:
#
# PCOD9173981 Si02
#       8
#     8   8   8   8   8   8   8   8
#     4  11  23  38  56  81 113 147 189 241 294 343
#     4   9  20  34  60  90 118 151 179 236 295 347
#     4  10  19  32  54  77 106 148 187 231 278 333
#     4  11  21  32  54  86 121 152 182 231 292 354
#     4  10  18  31  51  83 118 147 182 219 280 357
#     4  10  19  33  54  80 112 148 185 227 283 349
#     4  10  20  39  57  84 116 145 198 233 287 348
#     4  11  24  40  59  82 109 156 202 245 289 345
#
# _framework density 18.422913999999999
#
# number of rings (size 3 to 8) (size 9 to 14) (size 15 to 20)
#    0.000    1.750    2.500    2.625    0.000    3.500 
#    0.000    0.000    0.000    3.750    0.000    0.000 
#    0.000    0.000    0.000    0.000    0.000    0.000 
#
# Total GULP energy -178239.144656 kJ/mol
# GULP energy per Si atom -5569.973271 kJ/mol
# Density = 1.838098 g / cm^3
# Si number density = 18.422914 Si / 1000 Ang^3
#
#
#
# Elastic Constant Matrix: (Units=GPa)
#
#
# Indices 1 2 3 4 5 6 
#
# 1 89.4566 -8.1091 36.0158 0.0007 2.1688 -0.0002
# 2 -8.1091 41.7793 24.4022 0.0016 4.4852 -0.0004
# 3 36.0158 24.4022 76.5032 0.0015 3.6754 -0.0002
# 4 0.0007 0.0016 0.0015 9.0322 -0.0009 -9.9434
# 5 2.1688 4.4852 3.6754 -0.0009 32.0542 -0.0002
# 6 -0.0002 -0.0004 -0.0002 -9.9434 -0.0002 9.8587
#
#
#
# Elastic Compliance Matrix: (Units=1/GPa)
#
#
# Indices 1 2 3 4 5 6 
#
# 1 0.016386 0.009564 -0.010706 0.000006 -0.001219 0.000007
# 2 0.009564 0.035299 -0.015580 0.000031 -0.003800 0.000032
# 3 -0.010706 -0.015580 0.023068 0.000006 0.000259 0.000006
# 4 0.000006 0.000031 0.000006 -1.003377 -0.000042 -1.012000
# 5 -0.001219 -0.003800 0.000259 -0.000042 0.031782 -0.000041
# 6 0.000007 0.000032 0.000006 -1.012000 -0.000041 -0.919263
#
#
# Mechanical properties :
#
#
# Convention : Reuss Voigt Hill
#
# Bulk Modulus (GPa) = 24.20673 34.70633 29.45653
# Shear Modulus (GPa) = -2.82663 20.55102 8.86220
#
# Velocity S-wave (km/s) = -1.24001 3.34355 2.19565
# Velocity P-wave (km/s) = 3.33434 5.81252 4.73831
#
# Compressibility (1/GPa) = 0.04131082
#
# Stress axis : x y z
#
# Youngs Moduli (GPa) = 61.02956 28.32920 43.34925
#
# Poissons Ratio (x) = -0.27095 0.46410
# Poissons Ratio (y) = -0.58371 0.67536
# Poissons Ratio (z) = 0.65339 0.44136
#
# Static dielectric constant tensor:
#      x y z
#    x 1.696590 0.000000 -0.026360 
#    y 0.000000 1.663730 0.000000 
#    z -0.026360 0.000000 1.676300 
# 
# From -- ./inp_files/294146.got.cif
#   From: 2010.05.17/outbox.cif.g08.bks.cpg/sg12_148_cif.got.tgz:294146.got - 2010.06.03 13:09:07.
