data_PCOD9173664
_publ_section_title
;
Structure prediction by ZEFSAII (Michael W. Deem and Ramdas Pophale) SiO2 
 PCOD9173664
Probable space group: C 2/M
;
_chemical_formula_sum "Si O2"
_cell_formula_units_Z 64
_cell_length_a 33.972432
_cell_length_b 13.377098
_cell_length_c 20.760097
_cell_angle_alpha 90.000000
_cell_angle_beta 155.102777
_cell_angle_gamma 90.000000
_cell_volume 3971.838800
_symmetry_space_group_name_H-M "C 2/M"
_symmetry_group_IT_number 12
_symmetry_cell_setting 'monoclinic'
loop_
_space_group_symop_operation_xyz
x,y,z
-x,y,-z
-x,-y,-z
x,-y,z
1/2+x,1/2+y,z
1/2-x,1/2+y,-z
1/2-x,1/2-y,-z
1/2+x,1/2-y,z
loop_
_atom_site_type_symbol
_atom_site_label
_atom_site_fract_x
_atom_site_fract_y
_atom_site_fract_z
Si Si1 0.515448 0.116532 0.728503
Si Si2 0.277830 0.112803 0.536056
Si Si3 0.019358 0.618885 0.103896
Si Si4 0.044994 0.378750 0.500359
Si Si5 0.111801 0.113992 0.391230
Si Si6 0.242871 0.119544 0.220469
Si Si7 0.811870 0.693958 0.453045
Si Si8 0.932386 0.242872 0.084890
O O1 0.510464 0.151061 0.646719
O O2 0.408299 0.130749 0.593799
O O3 0.575270 0.184384 0.864826
O O4 0.540464 0.000000 0.768868
O O5 0.371489 0.134394 0.715935
O O6 0.186190 0.112143 0.443531
O O7 0.271031 0.181845 0.463648
O O8 0.290055 0.000000 0.528710
O O9 0.998943 0.500000 0.083565
O O10 0.961150 0.688381 0.066392
O O11 0.000000 0.641215 0.000000
O O12 0.041919 0.500000 0.495928
O O13 0.154190 0.353077 0.654010
O O14 0.000000 0.342680 0.500000
O O15 0.157300 0.190795 0.510038
O O16 0.017489 0.166771 0.226719
O O17 0.097518 0.000000 0.391812
O O18 0.246673 0.151835 0.300921
O O19 0.231026 0.000000 0.197457
O O20 0.160192 0.179891 0.064815
#
# Coordination Sequence:
#
# PCOD9173664 Si02
#       8
#     8   8   8   8   8   8   8   8
#     4   9  16  30  52  76  97 124 164 203 239 282
#     4  10  18  31  49  66  86 123 173 217 252 283
#     4  10  21  33  47  69  97 131 173 220 257 280
#     4   8  15  31  56  80  99 121 155 199 239 281
#     4  10  21  32  46  67  93 127 167 206 245 297
#     4  10  21  34  50  74 102 127 157 197 245 296
#     4  10  18  31  52  68  88 125 167 210 248 281
#     4  11  21  32  48  68 105 136 161 195 251 301
#
# _framework density 16.113443
#
# number of rings (size 3 to 8) (size 9 to 14) (size 15 to 20)
#    0.000    2.250    2.500    3.000    1.750    0.000 
#    0.000    1.250    0.000    3.000    0.000    0.000 
#    0.000   56.000    0.000    0.000    0.000    0.000 
#
# Total GULP energy -178334.253687 kJ/mol
# GULP energy per Si atom -5572.945428 kJ/mol
# Density = 1.607677 g / cm^3
# Si number density = 16.113443 Si / 1000 Ang^3
#
#
#
# Elastic Constant Matrix: (Units=GPa)
#
#
# Indices 1 2 3 4 5 6 
#
# 1 71.2676 34.9118 41.9130 0.0000 -12.3023 0.0000
# 2 34.9118 108.0289 54.2023 0.0000 -11.3097 0.0000
# 3 41.9130 54.2023 99.2761 0.0000 -13.7573 0.0000
# 4 0.0000 0.0000 0.0000 23.4477 0.0000 0.6951
# 5 -12.3023 -11.3097 -13.7573 0.0000 13.8563 0.0000
# 6 0.0000 0.0000 0.0000 0.6951 0.0000 9.9360
#
#
#
# Elastic Compliance Matrix: (Units=1/GPa)
#
#
# Indices 1 2 3 4 5 6 
#
# 1 0.020510 -0.002646 -0.005786 0.000000 0.010305 0.000000
# 2 -0.002646 0.013290 -0.005753 0.000000 0.002786 0.000000
# 3 -0.005786 -0.005753 0.016574 0.000000 0.006623 0.000000
# 4 0.000000 0.000000 0.000000 0.042737 0.000000 -0.002990
# 5 0.010305 0.002786 0.006623 0.000000 0.090169 0.000000
# 6 0.000000 0.000000 0.000000 -0.002990 0.000000 0.100854
#
#
# Mechanical properties :
#
#
# Convention : Reuss Voigt Hill
#
# Bulk Modulus (GPa) = 45.44622 60.06964 52.75793
# Shear Modulus (GPa) = 15.63292 19.28436 17.45864
#
# Velocity S-wave (km/s) = 3.11815 3.46321 3.29520
# Velocity P-wave (km/s) = 6.42098 7.30424 6.87680
#
# Compressibility (1/GPa) = 0.02200403
#
# Stress axis : x y z
#
# Youngs Moduli (GPa) = 48.75768 75.24436 60.33393
#
# Poissons Ratio (x) = 0.19911 0.34910
# Poissons Ratio (y) = 0.12902 0.34708
# Poissons Ratio (z) = 0.28212 0.43286
#
# Static dielectric constant tensor:
#      x y z
#    x 1.543610 0.000000 -0.013420 
#    y 0.000000 1.572640 0.000000 
#    z -0.013420 0.000000 1.533930 
# 
# From -- ./inp_files/296695.got.cif
#   From: 2010.05.17/outbox.cif.g08.bks.cpg/sg12_149_cif.got.tgz:296695.got - 2010.06.03 13:09:07.
