data_PCOD9173040
_publ_section_title
;
Structure prediction by ZEFSAII (Michael W. Deem and Ramdas Pophale) SiO2 
 PCOD9173040
Probable space group: C 2/M
;
_chemical_formula_sum "Si O2"
_cell_formula_units_Z 48
_cell_length_a 14.354064
_cell_length_b 14.536679
_cell_length_c 16.381569
_cell_angle_alpha 90.000000
_cell_angle_beta 31.768164
_cell_angle_gamma 90.000000
_cell_volume 1799.617966
_symmetry_space_group_name_H-M "C 2/M"
_symmetry_group_IT_number 12
_symmetry_cell_setting 'monoclinic'
loop_
_space_group_symop_operation_xyz
x,y,z
-x,y,-z
-x,-y,-z
x,-y,z
1/2+x,1/2+y,z
1/2-x,1/2+y,-z
1/2-x,1/2-y,-z
1/2+x,1/2-y,z
loop_
_atom_site_type_symbol
_atom_site_label
_atom_site_fract_x
_atom_site_fract_y
_atom_site_fract_z
Si Si1 0.202151 0.862141 0.339166
Si Si2 0.239716 0.500000 0.991234
Si Si3 0.000000 0.833899 0.000000
Si Si4 0.114896 0.000000 0.646124
Si Si5 0.601970 0.000000 0.687935
Si Si6 0.224599 0.318979 0.900370
Si Si7 0.703925 0.141929 0.343270
Si Si8 0.604784 0.681594 0.642361
O O1 0.328357 0.914612 0.308412
O O2 0.272873 0.859749 0.193721
O O3 0.196955 0.752173 0.358775
O O4 0.000000 0.893192 0.500000
O O5 0.450220 0.500000 0.836846
O O6 0.191005 0.405819 0.981555
O O7 0.109632 0.500000 0.164063
O O8 0.912754 0.765328 0.998168
O O9 0.832667 0.880650 0.171028
O O10 0.321439 0.000000 0.459471
O O11 0.053867 0.911041 0.633491
O O12 0.412938 0.273456 0.788014
O O13 0.500000 0.109495 0.500000
O O14 0.812219 0.119742 0.344878
O O15 0.750000 0.750000 0.500000
#
# Coordination Sequence:
#
# PCOD9173040 Si02
#       8
#     8   4   4   4   4   8   8   8
#     4  10  18  30  49  79 112 149 191 228 275 344
#     4  10  19  33  49  77 117 152 177 217 279 340
#     4  10  20  35  54  85 114 148 204 244 278 348
#     4  10  24  40  55  88 120 144 195 247 280 341
#     4  12  20  31  56  79 115 162 186 215 281 356
#     4  10  20  32  52  83 120 153 189 232 281 347
#     4  10  21  38  58  80 111 148 196 251 297 341
#     4  11  21  39  63  86 119 158 192 240 301 346
#
# _framework density 26.672326999999999
#
# number of rings (size 3 to 8) (size 9 to 14) (size 15 to 20)
#    0.000    1.667    0.000    8.750    0.000    1.667 
#    0.000    5.417    0.000    0.500    0.000    0.000 
#    0.000    0.000    0.000    0.000    0.000    0.000 
#
# Total GULP energy -133689.826901 kJ/mol
# GULP energy per Si atom -5570.409454 kJ/mol
# Density = 2.661162 g / cm^3
# Si number density = 26.672327 Si / 1000 Ang^3
#
#
#
# Elastic Constant Matrix: (Units=GPa)
#
#
# Indices 1 2 3 4 5 6 
#
# 1 88.6586 9.8601 46.5804 -0.0004 -16.8427 0.0002
# 2 9.8601 64.9674 37.4325 -0.0022 1.4091 0.0008
# 3 46.5804 37.4325 259.4303 -0.0026 -34.3371 0.0012
# 4 -0.0004 -0.0022 -0.0026 -1.0262 0.0021 -6.4638
# 5 -16.8427 1.4091 -34.3371 0.0021 38.4847 -0.0008
# 6 0.0002 0.0008 0.0012 -6.4638 -0.0008 15.6540
#
#
#
# Elastic Compliance Matrix: (Units=1/GPa)
#
#
# Indices 1 2 3 4 5 6 
#
# 1 0.013075 -0.001152 -0.001608 0.000003 0.004329 0.000001
# 2 -0.001152 0.017233 -0.002755 -0.000009 -0.003593 -0.000004
# 3 -0.001608 -0.002755 0.005058 0.000001 0.003910 0.000000
# 4 0.000003 -0.000009 0.000001 -0.270617 0.000015 -0.111742
# 5 0.004329 -0.003593 0.003910 0.000015 0.031500 0.000007
# 6 0.000001 -0.000004 0.000000 -0.111742 0.000007 0.017741
#
#
# Mechanical properties :
#
#
# Convention : Reuss Voigt Hill
#
# Bulk Modulus (GPa) = 41.09244 66.75582 53.92413
# Shear Modulus (GPa) = -29.96367 31.90138 0.96885
#
# Velocity S-wave (km/s) = -3.35535 3.46214 0.60335
# Velocity P-wave (km/s) = 0.65473 6.40815 4.55484
#
# Compressibility (1/GPa) = 0.02433538
#
# Stress axis : x y z
#
# Youngs Moduli (GPa) = 76.48314 58.02973 197.68745
#
# Poissons Ratio (x) = 0.06682 0.31796
# Poissons Ratio (y) = 0.08807 0.54468
# Poissons Ratio (z) = 0.12302 0.15989
#
# Static dielectric constant tensor:
#      x y z
#    x 2.611520 -0.000020 -0.140960 
#    y -0.000020 2.858630 0.000010 
#    z -0.140960 0.000010 2.346830 
# 
# From -- ./inp_files/61808.got.cif
#   From: 2010.05.17/outbox.cif.g08.bks.cpg/sg12_31_cif.got.tgz:61808.got - 2010.06.03 13:09:07.
