data_PCOD9173177
_publ_section_title
;
Structure prediction by ZEFSAII (Michael W. Deem and Ramdas Pophale) SiO2 
 PCOD9173177
Probable space group: C 2/M
;
_chemical_formula_sum "Si O2"
_cell_formula_units_Z 48
_cell_length_a 23.432615
_cell_length_b 8.890998
_cell_length_c 17.307610
_cell_angle_alpha 90.000000
_cell_angle_beta 49.171594
_cell_angle_gamma 90.000000
_cell_volume 2728.446648
_symmetry_space_group_name_H-M "C 2/M"
_symmetry_group_IT_number 12
_symmetry_cell_setting 'monoclinic'
loop_
_space_group_symop_operation_xyz
x,y,z
-x,y,-z
-x,-y,-z
x,-y,z
1/2+x,1/2+y,z
1/2-x,1/2+y,-z
1/2-x,1/2-y,-z
1/2+x,1/2-y,z
loop_
_atom_site_type_symbol
_atom_site_label
_atom_site_fract_x
_atom_site_fract_y
_atom_site_fract_z
Si Si1 0.129309 0.681567 0.103599
Si Si2 0.026100 0.674312 0.701538
Si Si3 0.743725 0.320838 0.882997
Si Si4 0.181968 0.819127 0.511495
Si Si5 0.063081 0.336202 0.379519
Si Si6 0.799142 0.175014 0.684479
O O1 0.127841 0.500000 0.101871
O O2 0.179710 0.719689 0.135640
O O3 0.041757 0.732256 0.183472
O O4 0.175905 0.746909 0.991019
O O5 0.044375 0.500000 0.704944
O O6 0.103087 0.762506 0.617954
O O7 0.980973 0.674620 0.660817
O O8 0.736548 0.500000 0.891679
O O9 0.747519 0.262389 0.791843
O O10 0.250000 0.750000 0.500000
O O11 0.193312 0.772373 0.411204
O O12 0.183352 0.000000 0.512166
O O13 0.104163 0.500000 0.344064
O O14 0.118831 0.203420 0.351067
O O15 0.000000 0.340221 0.500000
O O16 0.778839 0.000000 0.701964
#
# Coordination Sequence:
#
# PCOD9173177 Si02
#       6
#     8   8   8   8   8   8
#     4   9  18  32  50  78 114 149 181 214 259 316
#     4  10  19  34  56  80 111 146 179 218 266 323
#     4  10  19  32  51  78 112 150 185 215 260 319
#     4  11  25  41  57  79 105 140 185 230 278 324
#     4  10  18  30  50  78 110 144 177 210 262 327
#     4  11  22  34  52  79 111 143 179 224 270 320
#
# _framework density 17.592428000000002
#
# number of rings (size 3 to 8) (size 9 to 14) (size 15 to 20)
#    0.000    1.833    3.333    1.500    0.000    4.333 
#    0.000    0.000    0.000    1.000    0.000    7.000 
#    0.000    0.000    0.000    0.000    0.000    0.000 
#
# Total GULP energy -133722.546082 kJ/mol
# GULP energy per Si atom -5571.772753 kJ/mol
# Density = 1.755239 g / cm^3
# Si number density = 17.592428 Si / 1000 Ang^3
#
#
#
# Elastic Constant Matrix: (Units=GPa)
#
#
# Indices 1 2 3 4 5 6 
#
# 1 61.8650 27.2799 51.3201 0.0001 -11.4476 0.0000
# 2 27.2799 41.3422 46.3474 -0.0002 -4.6242 0.0001
# 3 51.3201 46.3474 153.0046 0.0001 -20.4824 0.0000
# 4 0.0001 -0.0002 0.0001 29.5724 0.0000 -1.4947
# 5 -11.4476 -4.6242 -20.4824 0.0000 13.1710 0.0000
# 6 0.0000 0.0001 0.0000 -1.4947 0.0000 18.6036
#
#
#
# Elastic Compliance Matrix: (Units=1/GPa)
#
#
# Indices 1 2 3 4 5 6 
#
# 1 0.027074 -0.012433 -0.003472 0.000000 0.013767 0.000000
# 2 -0.012433 0.042660 -0.010348 0.000000 -0.011921 0.000000
# 3 -0.003472 -0.010348 0.012559 0.000000 0.012880 0.000000
# 4 0.000000 0.000000 0.000000 0.033953 0.000000 0.002728
# 5 0.013767 -0.011921 0.012880 0.000000 0.103734 0.000000
# 6 0.000000 0.000000 0.000000 0.002728 0.000000 0.053972
#
#
# Mechanical properties :
#
#
# Convention : Reuss Voigt Hill
#
# Bulk Modulus (GPa) = 33.57126 56.23405 44.90266
# Shear Modulus (GPa) = 14.86383 21.02038 17.94210
#
# Velocity S-wave (km/s) = 2.90987 3.46042 3.19701
# Velocity P-wave (km/s) = 5.51489 6.92822 6.26156
#
# Compressibility (1/GPa) = 0.02978738
#
# Stress axis : x y z
#
# Youngs Moduli (GPa) = 36.93533 23.44144 79.62372
#
# Poissons Ratio (x) = 0.29144 0.27646
# Poissons Ratio (y) = 0.45921 0.82393
# Poissons Ratio (z) = 0.12824 0.24257
#
# Static dielectric constant tensor:
#      x y z
#    x 1.572580 0.000000 0.001480 
#    y 0.000000 1.630450 0.000000 
#    z 0.001480 0.000000 1.691200 
# 
# From -- ./inp_files/281801.got.cif
#   From: 2010.05.17/outbox.cif.g08.bks.cpg/sg12_141_cif.got.tgz:281801.got - 2010.06.03 13:09:07.
