data_PCOD9173626
_publ_section_title
;
Structure prediction by ZEFSAII (Michael W. Deem and Ramdas Pophale) SiO2 
 PCOD9173626
Probable space group: C 2/M
;
_chemical_formula_sum "Si O2"
_cell_formula_units_Z 48
_cell_length_a 31.262660
_cell_length_b 9.155213
_cell_length_c 20.592581
_cell_angle_alpha 90.000000
_cell_angle_beta 150.251018
_cell_angle_gamma 90.000000
_cell_volume 2924.575696
_symmetry_space_group_name_H-M "C 2/M"
_symmetry_group_IT_number 12
_symmetry_cell_setting 'monoclinic'
loop_
_space_group_symop_operation_xyz
x,y,z
-x,y,-z
-x,-y,-z
x,-y,z
1/2+x,1/2+y,z
1/2-x,1/2+y,-z
1/2-x,1/2-y,-z
1/2+x,1/2-y,z
loop_
_atom_site_type_symbol
_atom_site_label
_atom_site_fract_x
_atom_site_fract_y
_atom_site_fract_z
Si Si1 0.716260 0.667663 0.357606
Si Si2 0.662014 0.674766 0.863748
Si Si3 0.656417 0.175757 0.582659
Si Si4 0.015591 0.175208 0.303876
Si Si5 0.397779 0.674679 0.360470
Si Si6 0.385902 0.167532 0.674548
O O1 0.686363 0.500000 0.315427
O O2 0.755415 0.712268 0.339805
O O3 0.645267 0.767247 0.298213
O O4 0.800527 0.670039 0.515872
O O5 0.672220 0.500000 0.879796
O O6 0.581777 0.712759 0.804621
O O7 0.635006 0.712325 0.754494
O O8 0.750000 0.750000 0.000000
O O9 0.579041 0.250837 0.440217
O O10 0.650782 0.237299 0.647484
O O11 0.646851 0.000000 0.567875
O O12 0.044858 0.236045 0.272735
O O13 0.026155 0.000000 0.320777
O O14 0.500000 0.705739 0.500000
O O15 0.387297 0.500000 0.356804
O O16 0.413726 0.000000 0.716499
#
# Coordination Sequence:
#
# PCOD9173626 Si02
#       6
#     8   8   8   8   8   8
#     4   8  15  26  38  60  96 129 157 194 244 296
#     4  10  22  37  53  73  99 134 170 208 249 296
#     4  10  19  29  46  74 100 127 166 208 247 289
#     4  10  18  31  48  67  96 134 167 200 251 301
#     4  10  19  35  53  72 100 133 169 204 249 305
#     4   9  16  25  40  65  93 124 164 203 242 290
#
# _framework density 16.412637
#
# number of rings (size 3 to 8) (size 9 to 14) (size 15 to 20)
#    0.000    2.500    1.667    2.500    0.000    7.000 
#    0.000    0.000    0.000    0.000    0.000    1.167 
#    0.000    9.333    0.000    0.000    0.000    0.000 
#
# Total GULP energy -133763.222096 kJ/mol
# GULP energy per Si atom -5573.467587 kJ/mol
# Density = 1.637528 g / cm^3
# Si number density = 16.412637 Si / 1000 Ang^3
#
#
#
# Elastic Constant Matrix: (Units=GPa)
#
#
# Indices 1 2 3 4 5 6 
#
# 1 163.6785 72.6471 49.0723 0.0000 19.3186 0.0000
# 2 72.6471 67.4834 33.6882 0.0000 11.5571 0.0000
# 3 49.0723 33.6882 66.0992 0.0000 5.5674 0.0000
# 4 0.0000 0.0000 0.0000 19.7859 0.0000 2.5473
# 5 19.3186 11.5571 5.5674 0.0000 13.6741 0.0000
# 6 0.0000 0.0000 0.0000 2.5473 0.0000 34.5123
#
#
#
# Elastic Compliance Matrix: (Units=1/GPa)
#
#
# Indices 1 2 3 4 5 6 
#
# 1 0.012814 -0.010816 -0.003361 0.000000 -0.007593 0.000000
# 2 -0.010816 0.031574 -0.007353 0.000000 -0.008410 0.000000
# 3 -0.003361 -0.007353 0.021174 0.000000 0.002342 0.000000
# 4 0.000000 0.000000 0.000000 0.051026 0.000000 -0.003766
# 5 -0.007593 -0.008410 0.002342 0.000000 0.090013 0.000000
# 6 0.000000 0.000000 0.000000 -0.003766 0.000000 0.029253
#
#
# Mechanical properties :
#
#
# Convention : Reuss Voigt Hill
#
# Bulk Modulus (GPa) = 44.44292 67.56402 56.00347
# Shear Modulus (GPa) = 17.45708 23.05135 20.25421
#
# Velocity S-wave (km/s) = 3.26488 3.75172 3.51673
# Velocity P-wave (km/s) = 6.43039 7.74741 7.11942
#
# Compressibility (1/GPa) = 0.02250077
#
# Stress axis : x y z
#
# Youngs Moduli (GPa) = 78.03844 31.67193 47.22675
#
# Poissons Ratio (x) = 0.34258 0.15873
# Poissons Ratio (y) = 0.84410 0.34727
# Poissons Ratio (z) = 0.26229 0.23289
#
# Static dielectric constant tensor:
#      x y z
#    x 1.574660 0.000000 0.002460 
#    y 0.000000 1.551110 0.000000 
#    z 0.002460 0.000000 1.516040 
# 
# From -- ./inp_files/172150.got.cif
#   From: 2010.05.17/outbox.cif.g08.bks.cpg/sg12_87_cif.got.tgz:172150.got - 2010.06.03 13:09:07.
