data_PCOD9173192
_publ_section_title
;
Structure prediction by ZEFSAII (Michael W. Deem and Ramdas Pophale) SiO2 
 PCOD9173192
Probable space group: C 2/M
;
_chemical_formula_sum "Si O2"
_cell_formula_units_Z 64
_cell_length_a 17.354731
_cell_length_b 17.041472
_cell_length_c 25.561734
_cell_angle_alpha 90.000000
_cell_angle_beta 26.465933
_cell_angle_gamma 90.000000
_cell_volume 3369.181742
_symmetry_space_group_name_H-M "C 2/M"
_symmetry_group_IT_number 12
_symmetry_cell_setting 'monoclinic'
loop_
_space_group_symop_operation_xyz
x,y,z
-x,y,-z
-x,-y,-z
x,-y,z
1/2+x,1/2+y,z
1/2-x,1/2+y,-z
1/2-x,1/2-y,-z
1/2+x,1/2-y,z
loop_
_atom_site_type_symbol
_atom_site_label
_atom_site_fract_x
_atom_site_fract_y
_atom_site_fract_z
Si Si1 0.631916 0.787995 0.116938
Si Si2 0.489092 0.910630 0.882629
Si Si3 0.697706 0.257906 0.876375
Si Si4 0.719242 0.586519 0.141735
Si Si5 0.699496 0.412488 0.600948
Si Si6 0.808993 0.206825 0.708236
Si Si7 0.259212 0.739525 0.361362
Si Si8 0.690086 0.327691 0.504634
O O1 0.584569 0.874641 0.126101
O O2 0.707818 0.786695 0.129013
O O3 0.458890 0.736532 0.222809
O O4 0.750000 0.750000 0.000000
O O5 0.646045 0.852165 0.802142
O O6 0.548958 0.000000 0.842021
O O7 0.331641 0.908805 0.020127
O O8 0.716230 0.162971 0.867426
O O9 0.769946 0.274418 0.774803
O O10 0.500000 0.280915 0.000000
O O11 0.757608 0.500000 0.141859
O O12 0.510954 0.591981 0.263672
O O13 0.753525 0.500000 0.582998
O O14 0.780901 0.341907 0.585189
O O15 0.738042 0.396019 0.516019
O O16 0.840529 0.241152 0.631205
O O17 0.984300 0.167454 0.621718
O O18 0.255930 0.810250 0.406083
O O19 0.750000 0.250000 0.500000
#
# Coordination Sequence:
#
# PCOD9173192 Si02
#       8
#     8   8   8   8   8   8   8   8
#     4  11  19  36  56  79 116 152 192 229 275 341
#     4  10  21  35  55  83 117 154 187 232 294 347
#     4  12  19  30  49  83 113 149 189 230 276 331
#     4  10  18  30  50  81 120 149 177 225 290 340
#     4  10  19  34  59  85 111 145 188 238 284 330
#     4  11  21  33  54  81 110 145 187 227 276 338
#     4  10  20  36  56  79 111 149 188 231 281 336
#     4  10  20  36  55  77 106 143 183 223 278 337
#
# _framework density 18.995711
#
# number of rings (size 3 to 8) (size 9 to 14) (size 15 to 20)
#    0.000    1.500    5.000    1.875    0.000    1.250 
#    0.000    2.500    0.000   10.875    0.000    0.000 
#    0.000    0.000    0.000    0.000    0.000    2.000 
#
# Total GULP energy -178280.771276 kJ/mol
# GULP energy per Si atom -5571.274102 kJ/mol
# Density = 1.895248 g / cm^3
# Si number density = 18.995711 Si / 1000 Ang^3
#
#
#
# Elastic Constant Matrix: (Units=GPa)
#
#
# Indices 1 2 3 4 5 6 
#
# 1 113.3947 31.1691 10.7693 0.0008 25.7805 -0.0011
# 2 31.1691 67.0165 10.7680 -0.0024 13.5752 -0.0007
# 3 10.7693 10.7680 62.0675 0.0001 22.3527 -0.0019
# 4 0.0008 -0.0024 0.0001 15.2049 -0.0078 3.3787
# 5 25.7805 13.5752 22.3527 -0.0078 34.6410 -0.0006
# 6 -0.0011 -0.0007 -0.0019 3.3787 -0.0006 18.2234
#
#
#
# Elastic Compliance Matrix: (Units=1/GPa)
#
#
# Indices 1 2 3 4 5 6 
#
# 1 0.011613 -0.004017 0.001599 -0.000006 -0.008100 0.000001
# 2 -0.004017 0.017620 -0.001237 0.000001 -0.003117 0.000000
# 3 0.001599 -0.001237 0.021238 -0.000008 -0.014409 0.000003
# 4 -0.000006 0.000001 -0.000008 0.068594 0.000024 -0.012717
# 5 -0.008100 -0.003117 -0.014409 0.000024 0.045415 -0.000005
# 6 0.000001 0.000000 0.000003 -0.012717 -0.000005 0.057232
#
#
# Mechanical properties :
#
#
# Convention : Reuss Voigt Hill
#
# Bulk Modulus (GPa) = 23.16952 38.65461 30.91206
# Shear Modulus (GPa) = 20.54148 26.26536 23.40342
#
# Velocity S-wave (km/s) = 3.29199 3.72250 3.51385
# Velocity P-wave (km/s) = 5.16462 6.23453 5.72463
#
# Compressibility (1/GPa) = 0.04316016
#
# Stress axis : x y z
#
# Youngs Moduli (GPa) = 86.11314 56.75283 47.08535
#
# Poissons Ratio (x) = 0.22798 -0.07529
# Poissons Ratio (y) = 0.34593 0.05826
# Poissons Ratio (z) = -0.13770 0.07022
#
# Static dielectric constant tensor:
#      x y z
#    x 1.699830 0.000010 0.040030 
#    y 0.000010 1.670150 0.000000 
#    z 0.040030 0.000000 1.748990 
# 
# From -- ./inp_files/344353.got.cif
#   From: 2010.05.17/outbox.cif.g08.bks.cpg/sg12_173_cif.got.tgz:344353.got - 2010.06.03 13:09:07.
