data_PCOD9173450
_publ_section_title
;
Structure prediction by ZEFSAII (Michael W. Deem and Ramdas Pophale) SiO2 
 PCOD9173450
Probable space group: C 2/M
;
_chemical_formula_sum "Si O2"
_cell_formula_units_Z 56
_cell_length_a 32.712726
_cell_length_b 7.388513
_cell_length_c 11.992920
_cell_angle_alpha 90.000000
_cell_angle_beta 56.884759
_cell_angle_gamma 90.000000
_cell_volume 2427.848605
_symmetry_space_group_name_H-M "C 2/M"
_symmetry_group_IT_number 12
_symmetry_cell_setting 'monoclinic'
loop_
_space_group_symop_operation_xyz
x,y,z
-x,y,-z
-x,-y,-z
x,-y,z
1/2+x,1/2+y,z
1/2-x,1/2+y,-z
1/2-x,1/2-y,-z
1/2+x,1/2-y,z
loop_
_atom_site_type_symbol
_atom_site_label
_atom_site_fract_x
_atom_site_fract_y
_atom_site_fract_z
Si Si1 0.756917 0.216487 0.359214
Si Si2 0.131540 0.282019 0.173216
Si Si3 0.429574 0.219259 0.337663
Si Si4 0.352230 0.712885 0.095870
Si Si5 0.553499 0.293465 0.935200
Si Si6 0.479968 0.220321 0.651253
Si Si7 0.161176 0.278958 0.372496
O O1 0.750000 0.250000 0.500000
O O2 0.808046 0.287972 0.235075
O O3 0.710413 0.283486 0.358827
O O4 0.757826 0.000000 0.342080
O O5 0.130279 0.500000 0.179079
O O6 0.075346 0.217893 0.250936
O O7 0.155179 0.220035 0.253692
O O8 0.157826 0.230149 0.019994
O O9 0.423533 0.291027 0.222423
O O10 0.481413 0.276653 0.312589
O O11 0.386066 0.274407 0.484847
O O12 0.429230 0.000000 0.332491
O O13 0.356090 0.500000 0.117253
O O14 0.405730 0.790553 0.045325
O O15 0.544633 0.500000 0.986638
O O16 0.500000 0.207687 0.000000
O O17 0.500000 0.274217 0.500000
O O18 0.479510 0.000000 0.652716
O O19 0.161244 0.500000 0.372287
#
# Coordination Sequence:
#
# PCOD9173450 Si02
#       7
#     8   8   8   8   8   8   8
#     4  10  21  38  58  78 103 135 172 215 261 307
#     4  10  19  33  55  80 106 137 173 209 252 309
#     4  10  18  30  53  80 103 129 168 216 257 300
#     4  10  22  38  53  73 106 142 171 210 263 307
#     4  10  21  36  51  69 101 141 174 208 255 308
#     4   9  15  27  49  77 107 135 164 204 255 302
#     4   9  18  33  54  80 105 131 167 213 260 302
#
# _framework density 23.065688000000002
#
# number of rings (size 3 to 8) (size 9 to 14) (size 15 to 20)
#    0.000    2.286    1.429    1.714    0.000    2.000 
#    0.000    1.429    0.000    0.857    0.000    0.000 
#    0.000    0.000    0.000    0.000    0.000    0.000 
#
# Total GULP energy -156548.344346 kJ/mol
# GULP energy per Si atom -5591.012298 kJ/mol
# Density = 2.301319 g / cm^3
# Si number density = 23.065688 Si / 1000 Ang^3
#
#
#
# Elastic Constant Matrix: (Units=GPa)
#
#
# Indices 1 2 3 4 5 6 
#
# 1 168.3802 7.9546 63.4930 0.0000 1.7775 0.0000
# 2 7.9546 83.5708 -8.8104 0.0000 -6.6546 0.0000
# 3 63.4930 -8.8104 147.3150 0.0000 3.8663 0.0000
# 4 0.0000 0.0000 0.0000 18.1858 0.0000 9.7424
# 5 1.7775 -6.6546 3.8663 0.0000 39.8929 0.0000
# 6 0.0000 0.0000 0.0000 9.7424 0.0000 -7.7537
#
#
#
# Elastic Compliance Matrix: (Units=1/GPa)
#
#
# Indices 1 2 3 4 5 6 
#
# 1 0.007177 -0.001030 -0.003150 0.000000 -0.000186 0.000000
# 2 -0.001030 0.012342 0.001130 0.000000 0.001995 0.000000
# 3 -0.003150 0.001130 0.008226 0.000000 -0.000468 0.000000
# 4 0.000000 0.000000 0.000000 0.032866 0.000000 0.041295
# 5 -0.000186 0.001995 -0.000468 0.000000 0.025454 0.000000
# 6 0.000000 0.000000 0.000000 0.041295 0.000000 -0.077084
#
#
# Mechanical properties :
#
#
# Convention : Reuss Voigt Hill
#
# Bulk Modulus (GPa) = 46.20220 58.28226 52.24223
# Shear Modulus (GPa) = 224.25647 32.50694 128.38171
#
# Velocity S-wave (km/s) = 9.87098 3.75816 7.46860
# Velocity P-wave (km/s) = 12.24700 6.64489 9.85250
#
# Compressibility (1/GPa) = 0.02164399
#
# Stress axis : x y z
#
# Youngs Moduli (GPa) = 139.32510 81.02465 121.56899
#
# Poissons Ratio (x) = 0.08347 0.38297
# Poissons Ratio (y) = 0.14352 -0.13734
# Poissons Ratio (z) = 0.43890 -0.09154
#
# Static dielectric constant tensor:
#      x y z
#    x 1.853380 0.000000 -0.018160 
#    y 0.000000 1.902570 0.000000 
#    z -0.018160 0.000000 1.817350 
# 
# From -- ./inp_files/110324.got.cif
#   From: 2010.05.17/outbox.cif.g08.bks.cpg/sg12_56_cif.got.tgz:110324.got - 2010.06.03 13:09:07.
