data_PCOD9173609
_publ_section_title
;
Structure prediction by ZEFSAII (Michael W. Deem and Ramdas Pophale) SiO2 
 PCOD9173609
Probable space group: C 2/M
;
_chemical_formula_sum "Si O2"
_cell_formula_units_Z 40
_cell_length_a 13.995030
_cell_length_b 29.579755
_cell_length_c 5.249993
_cell_angle_alpha 90.000000
_cell_angle_beta 119.185616
_cell_angle_gamma 90.000000
_cell_volume 1897.420220
_symmetry_space_group_name_H-M "C 2/M"
_symmetry_group_IT_number 12
_symmetry_cell_setting 'monoclinic'
loop_
_space_group_symop_operation_xyz
x,y,z
-x,y,-z
-x,-y,-z
x,-y,z
1/2+x,1/2+y,z
1/2-x,1/2+y,-z
1/2-x,1/2-y,-z
1/2+x,1/2-y,z
loop_
_atom_site_type_symbol
_atom_site_label
_atom_site_fract_x
_atom_site_fract_y
_atom_site_fract_z
Si Si1 0.625357 0.552458 0.719943
Si Si2 0.838381 0.700028 0.378478
Si Si3 0.890388 0.248010 0.944720
Si Si4 0.827327 0.402319 0.198816
Si Si5 0.839451 0.449077 0.718388
O O1 0.500000 0.564915 0.500000
O O2 0.625641 0.500000 0.815687
O O3 0.706046 0.552262 0.578761
O O4 0.697427 0.585636 0.991304
O O5 0.876505 0.712920 0.711527
O O6 0.711880 0.714980 0.204873
O O7 0.848832 0.648270 0.314633
O O8 0.892553 0.730285 0.226629
O O9 0.000000 0.223501 0.000000
O O10 0.868837 0.434673 0.475459
O O11 0.877272 0.415411 0.990547
O O12 0.872543 0.500000 0.821853
#
# Coordination Sequence:
#
# PCOD9173609 Si02
#       5
#     8   8   8   8   8
#     4   8  16  29  43  65 102 145 179 212 256 312
#     4  10  21  37  58  84 112 140 183 232 269 327
#     4  10  21  40  60  80 110 146 177 223 290 337
#     4  10  18  31  47  72 103 136 177 221 253 302
#     4   9  17  29  45  66 102 141 175 210 257 311
#
# _framework density 21.081256
#
# number of rings (size 3 to 8) (size 9 to 14) (size 15 to 20)
#    1.200    1.400    0.000    3.000    0.000    0.800 
#    3.600    3.000    0.000    0.000    0.000    0.000 
#    0.000   92.800    0.000    0.000    0.000    0.000 
#
# Total GULP energy -111425.680755 kJ/mol
# GULP energy per Si atom -5571.284038 kJ/mol
# Density = 2.103327 g / cm^3
# Si number density = 21.081256 Si / 1000 Ang^3
#
#
#
# Elastic Constant Matrix: (Units=GPa)
#
#
# Indices 1 2 3 4 5 6 
#
# 1 93.5605 -16.8791 17.9205 0.0000 8.4492 0.0000
# 2 -16.8791 36.5366 -0.8305 0.0000 -6.2677 0.0000
# 3 17.9205 -0.8305 82.2863 0.0000 -12.8860 0.0000
# 4 0.0000 0.0000 0.0000 -8.6263 0.0000 -29.2200
# 5 8.4492 -6.2677 -12.8860 0.0000 33.5502 0.0000
# 6 0.0000 0.0000 0.0000 -29.2200 0.0000 -23.4732
#
#
#
# Elastic Compliance Matrix: (Units=1/GPa)
#
#
# Indices 1 2 3 4 5 6 
#
# 1 0.012540 0.005131 -0.003217 0.000000 -0.003435 0.000000
# 2 0.005131 0.030484 -0.000128 0.000000 0.004354 0.000000
# 3 -0.003217 -0.000128 0.013806 0.000000 0.006089 0.000000
# 4 0.000000 0.000000 0.000000 0.036039 0.000000 -0.044863
# 5 -0.003435 0.004354 0.006089 0.000000 0.033823 0.000000
# 6 0.000000 0.000000 0.000000 -0.044863 0.000000 0.013244
#
#
# Mechanical properties :
#
#
# Convention : Reuss Voigt Hill
#
# Bulk Modulus (GPa) = 16.55587 23.64501 20.10044
# Shear Modulus (GPa) = 31.94905 14.43498 23.19201
#
# Velocity S-wave (km/s) = 3.89719 2.61957 3.32041
# Velocity P-wave (km/s) = 5.30294 4.51553 4.92500
#
# Compressibility (1/GPa) = 0.06040155
#
# Stress axis : x y z
#
# Youngs Moduli (GPa) = 79.74227 32.80391 72.43461
#
# Poissons Ratio (x) = -0.16832 0.23304
# Poissons Ratio (y) = -0.40915 0.00927
# Poissons Ratio (z) = 0.25655 0.00420
#
# Static dielectric constant tensor:
#      x y z
#    x 1.823920 0.000000 0.047130 
#    y 0.000000 1.705760 0.000000 
#    z 0.047130 0.000000 1.774160 
# 
# From -- ./inp_files/17916.got.cif
#   From: 2010.05.17/outbox.cif.g08.bks.cpg/sg12_9_cif.got.tgz:17916.got - 2010.06.03 13:09:07.
