data_PCOD9173255
_publ_section_title
;
Structure prediction by ZEFSAII (Michael W. Deem and Ramdas Pophale) SiO2 
 PCOD9173255
Probable space group: C 2/M
;
_chemical_formula_sum "Si O2"
_cell_formula_units_Z 56
_cell_length_a 22.892073
_cell_length_b 14.515254
_cell_length_c 22.139251
_cell_angle_alpha 90.000000
_cell_angle_beta 153.684637
_cell_angle_gamma 90.000000
_cell_volume 3261.232313
_symmetry_space_group_name_H-M "C 2/M"
_symmetry_group_IT_number 12
_symmetry_cell_setting 'monoclinic'
loop_
_space_group_symop_operation_xyz
x,y,z
-x,y,-z
-x,-y,-z
x,-y,z
1/2+x,1/2+y,z
1/2-x,1/2+y,-z
1/2-x,1/2-y,-z
1/2+x,1/2-y,z
loop_
_atom_site_type_symbol
_atom_site_label
_atom_site_fract_x
_atom_site_fract_y
_atom_site_fract_z
Si Si1 0.894489 0.608734 0.645469
Si Si2 0.582312 0.220610 0.209031
Si Si3 0.133853 0.891774 0.326599
Si Si4 0.334611 0.107571 0.169387
Si Si5 0.276120 0.218672 0.887092
Si Si6 0.651520 0.607951 0.881774
Si Si7 0.654615 0.106210 0.162950
O O1 0.901070 0.500000 0.667215
O O2 0.908111 0.666752 0.718803
O O3 0.758153 0.626395 0.484746
O O4 0.016901 0.626939 0.714464
O O5 0.634429 0.322925 0.270716
O O6 0.658458 0.163910 0.228237
O O7 0.429694 0.225564 0.047842
O O8 0.997971 0.873299 0.236689
O O9 0.134287 0.000000 0.310436
O O10 0.284401 0.179336 0.172319
O O11 0.322989 0.000000 0.175416
O O12 0.243615 0.123035 0.025620
O O13 0.200702 0.168081 0.871794
O O14 0.270196 0.158921 0.820869
O O15 0.663092 0.500000 0.876407
O O16 0.696751 0.000000 0.209227
O O17 0.500000 0.103988 0.000000
#
# Coordination Sequence:
#
# PCOD9173255 Si02
#       7
#     8   8   8   8   8   8   8
#     4  10  20  33  52  78 105 134 169 209 254 305
#     4  11  19  32  52  74 103 139 172 207 252 303
#     4  10  21  34  50  77 108 135 166 207 257 309
#     4  10  19  31  51  77 103 133 168 210 257 303
#     4  11  19  31  51  76 105 135 170 211 254 300
#     4  10  18  30  51  76 103 133 164 209 262 301
#     4   9  20  34  50  75 104 135 171 210 249 295
#
# _framework density 17.171423000000001
#
# number of rings (size 3 to 8) (size 9 to 14) (size 15 to 20)
#    0.000    1.857    2.857    2.571    0.000    1.143 
#    0.000    0.714    0.000    6.000    0.000   10.000 
#    0.000    0.000    0.000    0.000    0.000    0.000 
#
# Total GULP energy -156282.788111 kJ/mol
# GULP energy per Si atom -5581.528147 kJ/mol
# Density = 1.713234 g / cm^3
# Si number density = 17.171423 Si / 1000 Ang^3
#
#
#
# Elastic Constant Matrix: (Units=GPa)
#
#
# Indices 1 2 3 4 5 6 
#
# 1 64.8023 64.7620 15.4658 0.0008 -4.5141 0.0005
# 2 64.7620 111.3623 18.1917 0.0011 -15.9040 0.0008
# 3 15.4658 18.1917 51.0266 0.0012 12.9787 0.0010
# 4 0.0008 0.0011 0.0012 19.8211 0.0003 -0.7539
# 5 -4.5141 -15.9040 12.9787 0.0003 22.2178 0.0003
# 6 0.0005 0.0008 0.0010 -0.7539 0.0003 30.8416
#
#
#
# Elastic Compliance Matrix: (Units=1/GPa)
#
#
# Indices 1 2 3 4 5 6 
#
# 1 0.038496 -0.023341 -0.001275 0.000000 -0.008142 0.000000
# 2 -0.023341 0.026260 -0.006886 0.000000 0.018078 0.000000
# 3 -0.001275 -0.006886 0.027905 -0.000001 -0.021489 -0.000001
# 4 0.000000 0.000000 -0.000001 0.050498 -0.000001 0.001234
# 5 -0.008142 0.018078 -0.021489 -0.000001 0.068848 0.000000
# 6 0.000000 0.000000 -0.000001 0.001234 0.000000 0.032454
#
#
# Mechanical properties :
#
#
# Convention : Reuss Voigt Hill
#
# Bulk Modulus (GPa) = 33.72001 47.11448 40.41724
# Shear Modulus (GPa) = 15.75544 23.16086 19.45815
#
# Velocity S-wave (km/s) = 3.03238 3.67659 3.36991
# Velocity P-wave (km/s) = 5.65158 6.74688 6.22337
#
# Compressibility (1/GPa) = 0.02965598
#
# Stress axis : x y z
#
# Youngs Moduli (GPa) = 25.97701 38.08041 35.83621
#
# Poissons Ratio (x) = 0.88885 0.04570
# Poissons Ratio (y) = 0.60634 0.24676
# Poissons Ratio (z) = 0.03313 0.26221
#
# Static dielectric constant tensor:
#      x y z
#    x 1.555820 0.000000 0.014100 
#    y 0.000000 1.627070 0.000000 
#    z 0.014100 0.000000 1.558120 
# 
# From -- ./inp_files/96760.got.cif
#   From: 2010.05.17/outbox.cif.g08.bks.cpg/sg12_49_cif.got.tgz:96760.got - 2010.06.03 13:09:07.
