data_PCOD9173014
_publ_section_title
;
Structure prediction by ZEFSAII (Michael W. Deem and Ramdas Pophale) SiO2 
 PCOD9173014
Probable space group: C 2/M
;
_chemical_formula_sum "Si O2"
_cell_formula_units_Z 64
_cell_length_a 21.107411
_cell_length_b 7.808395
_cell_length_c 25.059172
_cell_angle_alpha 90.000000
_cell_angle_beta 53.405439
_cell_angle_gamma 90.000000
_cell_volume 3315.972274
_symmetry_space_group_name_H-M "C 2/M"
_symmetry_group_IT_number 12
_symmetry_cell_setting 'monoclinic'
loop_
_space_group_symop_operation_xyz
x,y,z
-x,y,-z
-x,-y,-z
x,-y,z
1/2+x,1/2+y,z
1/2-x,1/2+y,-z
1/2-x,1/2-y,-z
1/2+x,1/2-y,z
loop_
_atom_site_type_symbol
_atom_site_label
_atom_site_fract_x
_atom_site_fract_y
_atom_site_fract_z
Si Si1 0.155224 0.707169 0.289380
Si Si2 0.678187 0.206604 0.496600
Si Si3 0.205678 0.204634 0.146683
Si Si4 0.178097 0.294355 0.996392
Si Si5 0.563038 0.201021 0.140282
Si Si6 0.922189 0.801146 0.281426
Si Si7 0.522043 0.200124 0.631703
Si Si8 0.244672 0.709644 0.350271
O O1 0.152312 0.500000 0.292646
O O2 0.196330 0.753774 0.213112
O O3 0.202582 0.767534 0.317399
O O4 0.065032 0.773634 0.333889
O O5 0.750000 0.250000 0.500000
O O6 0.595647 0.274009 0.561631
O O7 0.699192 0.265358 0.426531
O O8 0.673506 0.000000 0.497520
O O9 0.287547 0.264241 0.077766
O O10 0.131946 0.279494 0.150315
O O11 0.200815 0.000000 0.142277
O O12 0.169487 0.500000 0.998594
O O13 0.250000 0.250000 0.000000
O O14 0.100491 0.229398 0.066148
O O15 0.484774 0.285806 0.202419
O O16 0.546470 0.000000 0.142478
O O17 0.956493 0.711399 0.316660
O O18 0.835738 0.735626 0.309351
O O19 0.913830 0.000000 0.300556
O O20 0.517120 0.000000 0.619512
O O21 0.244347 0.500000 0.349714
#
# Coordination Sequence:
#
# PCOD9173014 Si02
#       8
#     8   8   8   8   8   8   8   8
#     4  10  20  35  52  74 105 139 174 211 255 307
#     4  10  19  34  54  77 102 133 171 214 259 305
#     4  10  18  30  49  75 104 136 170 207 256 305
#     4   8  16  28  44  69 102 133 165 207 252 299
#     4  10  18  30  49  75 104 134 170 212 254 299
#     4  11  20  32  52  76 104 136 171 213 256 303
#     4  10  20  32  53  79 101 130 172 215 256 305
#     4   9  20  36  53  74 103 139 174 210 257 308
#
# _framework density 19.300522000000001
#
# number of rings (size 3 to 8) (size 9 to 14) (size 15 to 20)
#    0.000    2.250    2.500    1.125    0.000    1.500 
#    0.000    4.375    0.000    0.750    0.000    7.875 
#    0.000    0.000    0.000    0.000    0.000    0.000 
#
# Total GULP energy -178455.525030 kJ/mol
# GULP energy per Si atom -5576.735157 kJ/mol
# Density = 1.925659 g / cm^3
# Si number density = 19.300522 Si / 1000 Ang^3
#
#
#
# Elastic Constant Matrix: (Units=GPa)
#
#
# Indices 1 2 3 4 5 6 
#
# 1 94.7838 -4.6028 69.8867 0.0000 -1.5846 -0.0026
# 2 -4.6028 25.5750 -5.2530 -0.0019 -1.1437 -0.0033
# 3 69.8867 -5.2530 185.6420 0.0001 -16.6522 -0.0009
# 4 0.0000 -0.0019 0.0001 13.6825 -0.0001 -1.4728
# 5 -1.5846 -1.1437 -16.6522 -0.0001 26.9400 0.0003
# 6 -0.0026 -0.0033 -0.0009 -1.4728 0.0003 13.9659
#
#
#
# Elastic Compliance Matrix: (Units=1/GPa)
#
#
# Indices 1 2 3 4 5 6 
#
# 1 0.014837 0.001364 -0.005784 0.000001 -0.002645 0.000003
# 2 0.001364 0.039614 0.000810 0.000007 0.002263 0.000010
# 3 -0.005784 0.000810 0.008004 0.000000 0.004641 0.000000
# 4 0.000001 0.000007 0.000000 0.073925 0.000001 0.007796
# 5 -0.002645 0.002263 0.004641 0.000001 0.039929 -0.000001
# 6 0.000003 0.000010 0.000000 0.007796 -0.000001 0.072425
#
#
# Mechanical properties :
#
#
# Convention : Reuss Voigt Hill
#
# Bulk Modulus (GPa) = 18.10453 47.34030 32.72242
# Shear Modulus (GPa) = 18.22392 27.31569 22.76981
#
# Velocity S-wave (km/s) = 3.07615 3.76611 3.43848
# Velocity P-wave (km/s) = 4.69229 6.59489 5.72321
#
# Compressibility (1/GPa) = 0.05523479
#
# Stress axis : x y z
#
# Youngs Moduli (GPa) = 67.39803 25.24374 124.94517
#
# Poissons Ratio (x) = -0.03443 0.72271
# Poissons Ratio (y) = -0.09193 -0.10126
# Poissons Ratio (z) = 0.38985 -0.02046
#
# Static dielectric constant tensor:
#      x y z
#    x 1.636120 0.000000 -0.030230 
#    y 0.000000 1.769320 0.000000 
#    z -0.030230 0.000000 1.707010 
# 
# From -- ./inp_files/319953.got.cif
#   From: 2010.05.17/outbox.cif.g08.bks.cpg/sg12_160_cif.got.tgz:319953.got - 2010.06.03 13:09:07.
