data_PCOD9173387
_publ_section_title
;
Structure prediction by ZEFSAII (Michael W. Deem and Ramdas Pophale) SiO2 
 PCOD9173387
Probable space group: C 2/M
;
_chemical_formula_sum "Si O2"
_cell_formula_units_Z 48
_cell_length_a 14.611057
_cell_length_b 20.307470
_cell_length_c 8.497854
_cell_angle_alpha 90.000000
_cell_angle_beta 65.822670
_cell_angle_gamma 90.000000
_cell_volume 2300.254768
_symmetry_space_group_name_H-M "C 2/M"
_symmetry_group_IT_number 12
_symmetry_cell_setting 'monoclinic'
loop_
_space_group_symop_operation_xyz
x,y,z
-x,y,-z
-x,-y,-z
x,-y,z
1/2+x,1/2+y,z
1/2-x,1/2+y,-z
1/2-x,1/2-y,-z
1/2+x,1/2-y,z
loop_
_atom_site_type_symbol
_atom_site_label
_atom_site_fract_x
_atom_site_fract_y
_atom_site_fract_z
Si Si1 0.605935 0.428415 0.835196
Si Si2 0.271636 0.075218 0.995981
Si Si3 0.113844 0.707533 0.494884
Si Si4 0.384261 0.927489 0.622924
Si Si5 0.694835 0.294883 0.171741
Si Si6 0.470530 0.296386 0.200290
O O1 0.617655 0.500000 0.748430
O O2 0.687879 0.420654 0.915423
O O3 0.594921 0.362998 0.740653
O O4 0.500000 0.430167 0.000000
O O5 0.370081 0.086578 0.819099
O O6 0.271044 0.000000 0.057552
O O7 0.249305 0.134327 0.129988
O O8 0.155640 0.633896 0.448036
O O9 0.183699 0.754879 0.341103
O O10 0.091679 0.737440 0.679668
O O11 0.000000 0.706158 0.500000
O O12 0.500000 0.932004 0.500000
O O13 0.340021 0.000000 0.624012
O O14 0.578331 0.306266 0.206498
O O15 0.750000 0.250000 0.000000
O O16 0.500000 0.283184 0.000000
#
# Coordination Sequence:
#
# PCOD9173387 Si02
#       6
#     8   8   8   8   8   8
#     4   9  16  29  50  74 101 135 177 212 245 308
#     4  10  18  30  52  79 104 137 177 216 259 313
#     4   9  19  31  49  76 106 133 167 220 264 307
#     4   9  17  31  49  72  99 134 179 219 256 303
#     4  11  19  32  50  77 110 135 169 222 271 303
#     4  10  19  34  52  75 106 142 180 208 257 324
#
# _framework density 20.867253999999999
#
# number of rings (size 3 to 8) (size 9 to 14) (size 15 to 20)
#    0.000    2.333    5.000    0.000    0.000    0.000 
#    0.000    4.167    0.000    3.500    0.000    0.000 
#    0.000    0.000    0.000    0.000    0.000    0.000 
#
# Total GULP energy -133743.600631 kJ/mol
# GULP energy per Si atom -5572.650026 kJ/mol
# Density = 2.081976 g / cm^3
# Si number density = 20.867254 Si / 1000 Ang^3
#
#
#
# Elastic Constant Matrix: (Units=GPa)
#
#
# Indices 1 2 3 4 5 6 
#
# 1 37.9326 -8.7312 2.7047 0.0000 -17.1040 0.0000
# 2 -8.7312 207.0555 74.2029 0.0000 4.7577 0.0000
# 3 2.7047 74.2029 101.0339 0.0000 -15.8399 0.0000
# 4 0.0000 0.0000 0.0000 20.1152 0.0000 -9.6282
# 5 -17.1040 4.7577 -15.8399 0.0000 24.0417 0.0000
# 6 0.0000 0.0000 0.0000 -9.6282 0.0000 6.6813
#
#
#
# Elastic Compliance Matrix: (Units=1/GPa)
#
#
# Indices 1 2 3 4 5 6 
#
# 1 0.040117 -0.000562 0.004272 0.000000 0.031466 0.000000
# 2 -0.000562 0.007146 -0.006153 0.000000 -0.005868 0.000000
# 3 0.004272 -0.006153 0.016694 0.000000 0.015256 0.000000
# 4 0.000000 0.000000 0.000000 0.160244 0.000000 0.230920
# 5 0.031466 -0.005868 0.015256 0.000000 0.075193 0.000000
# 6 0.000000 0.000000 0.000000 0.230920 0.000000 0.482437
#
#
# Mechanical properties :
#
#
# Convention : Reuss Voigt Hill
#
# Bulk Modulus (GPa) = 16.92894 53.59719 35.26306
# Shear Modulus (GPa) = 6.20034 28.69069 17.44552
#
# Velocity S-wave (km/s) = 1.72562 3.71201 2.89454
# Velocity P-wave (km/s) = 3.47860 6.64173 5.30157
#
# Compressibility (1/GPa) = 0.05907045
#
# Stress axis : x y z
#
# Youngs Moduli (GPa) = 24.92722 139.94135 59.90109
#
# Poissons Ratio (x) = 0.07871 -0.25592
# Poissons Ratio (y) = 0.01402 0.36858
# Poissons Ratio (z) = -0.10650 0.86108
#
# Static dielectric constant tensor:
#      x y z
#    x 1.799330 0.000000 -0.024500 
#    y 0.000000 1.834080 0.000000 
#    z -0.024500 0.000000 1.768540 
# 
# From -- ./inp_files/77291.got.cif
#   From: 2010.05.17/outbox.cif.g08.bks.cpg/sg12_39_cif.got.tgz:77291.got - 2010.06.03 13:09:07.
