data_PCOD9173552
_publ_section_title
;
Structure prediction by ZEFSAII (Michael W. Deem and Ramdas Pophale) SiO2 
 PCOD9173552
Probable space group: C 2/M
;
_chemical_formula_sum "Si O2"
_cell_formula_units_Z 60
_cell_length_a 29.572733
_cell_length_b 9.354752
_cell_length_c 28.764237
_cell_angle_alpha 90.000000
_cell_angle_beta 154.979376
_cell_angle_gamma 90.000000
_cell_volume 3365.580215
_symmetry_space_group_name_H-M "C 2/M"
_symmetry_group_IT_number 12
_symmetry_cell_setting 'monoclinic'
loop_
_space_group_symop_operation_xyz
x,y,z
-x,y,-z
-x,-y,-z
x,-y,z
1/2+x,1/2+y,z
1/2-x,1/2+y,-z
1/2-x,1/2-y,-z
1/2+x,1/2-y,z
loop_
_atom_site_type_symbol
_atom_site_label
_atom_site_fract_x
_atom_site_fract_y
_atom_site_fract_z
Si Si1 0.997209 0.669753 0.641385
Si Si2 0.000000 0.249022 0.000000
Si Si3 0.444549 0.160088 0.050551
Si Si4 0.306278 0.826885 0.399711
Si Si5 0.907290 0.828874 0.743908
Si Si6 0.258935 0.664291 0.763542
Si Si7 0.701348 0.331757 0.801742
Si Si8 0.363302 0.829757 0.611160
O O1 0.017490 0.500000 0.654690
O O2 0.918016 0.718945 0.526067
O O3 0.932757 0.688833 0.629245
O O4 0.106765 0.755261 0.741043
O O5 0.888436 0.167332 0.887135
O O6 0.021507 0.332431 0.972078
O O7 0.507382 0.276620 0.138717
O O8 0.468422 0.000000 0.090184
O O9 0.317647 0.185700 0.933593
O O10 0.208765 0.789408 0.342955
O O11 0.279081 0.780491 0.322166
O O12 0.307878 0.000000 0.400068
O O13 0.920046 0.743752 0.707958
O O14 0.911047 0.000000 0.740711
O O15 0.223750 0.500000 0.736332
O O16 0.212795 0.758835 0.761968
O O17 0.681324 0.500000 0.778459
O O18 0.250000 0.750000 0.500000
O O19 0.347331 0.000000 0.603138
#
# Coordination Sequence:
#
# PCOD9173552 Si02
#       8
#     8   4   8   8   8   8   8   8
#     4  10  21  40  62  81 111 152 195 236 283 344
#     4  10  18  30  56  86 114 150 194 242 282 338
#     4  10  21  37  56  82 118 155 190 237 295 344
#     4   9  18  34  55  84 117 148 184 235 284 334
#     4  11  21  37  59  89 122 149 189 240 290 346
#     4  10  19  33  55  83 115 153 195 234 283 341
#     4  10  23  40  56  80 117 155 196 241 285 340
#     4  11  22  38  62  91 119 150 189 238 295 350
#
# _framework density 17.827535999999998
#
# number of rings (size 3 to 8) (size 9 to 14) (size 15 to 20)
#    0.000    1.867    2.667    1.600    0.000    4.800 
#    0.000    4.000    0.000    0.000    0.000    0.000 
#    0.000    0.000    0.000    0.000    0.000    0.000 
#
# Total GULP energy -167384.734334 kJ/mol
# GULP energy per Si atom -5579.491144 kJ/mol
# Density = 1.778696 g / cm^3
# Si number density = 17.827536 Si / 1000 Ang^3
#
#
#
# Elastic Constant Matrix: (Units=GPa)
#
#
# Indices 1 2 3 4 5 6 
#
# 1 72.2631 49.6014 43.2775 0.0000 5.5299 0.0000
# 2 49.6014 86.8362 47.2561 0.0000 8.9282 0.0000
# 3 43.2775 47.2561 71.1557 0.0000 3.6783 0.0000
# 4 0.0000 0.0000 0.0000 27.5242 0.0000 -4.1695
# 5 5.5299 8.9282 3.6783 0.0000 33.3412 0.0000
# 6 0.0000 0.0000 0.0000 -4.1695 0.0000 20.9486
#
#
#
# Elastic Compliance Matrix: (Units=1/GPa)
#
#
# Indices 1 2 3 4 5 6 
#
# 1 0.026266 -0.009800 -0.009431 0.000000 -0.000692 0.000000
# 2 -0.009800 0.022112 -0.008552 0.000000 -0.003352 0.000000
# 3 -0.009431 -0.008552 0.025415 0.000000 0.001050 0.000000
# 4 0.000000 0.000000 0.000000 0.037461 0.000000 0.007456
# 5 -0.000692 -0.003352 0.001050 0.000000 0.030889 0.000000
# 6 0.000000 0.000000 0.000000 0.007456 0.000000 0.049220
#
#
# Mechanical properties :
#
#
# Convention : Reuss Voigt Hill
#
# Bulk Modulus (GPa) = 54.86101 56.72501 55.79301
# Shear Modulus (GPa) = 19.76248 22.37079 21.06664
#
# Velocity S-wave (km/s) = 3.33308 3.54622 3.44130
# Velocity P-wave (km/s) = 6.75667 6.97534 6.86688
#
# Compressibility (1/GPa) = 0.01822788
#
# Stress axis : x y z
#
# Youngs Moduli (GPa) = 38.07185 45.22420 39.34708
#
# Poissons Ratio (x) = 0.44319 0.37109
# Poissons Ratio (y) = 0.37310 0.33648
# Poissons Ratio (z) = 0.35907 0.38674
#
# Static dielectric constant tensor:
#      x y z
#    x 1.597060 0.000000 -0.012620 
#    y 0.000000 1.597960 0.000000 
#    z -0.012620 0.000000 1.613120 
# 
# From -- ./inp_files/368892.got.cif
#   From: 2010.05.17/outbox.cif.g08.bks.cpg/sg12_185_cif.got.tgz:368892.got - 2010.06.03 13:09:07.
