data_PCOD9173048
_publ_section_title
;
Structure prediction by ZEFSAII (Michael W. Deem and Ramdas Pophale) SiO2 
 PCOD9173048
Probable space group: C 2/M
;
_chemical_formula_sum "Si O2"
_cell_formula_units_Z 64
_cell_length_a 21.149253
_cell_length_b 7.474116
_cell_length_c 24.335867
_cell_angle_alpha 90.000000
_cell_angle_beta 123.599236
_cell_angle_gamma 90.000000
_cell_volume 3204.125177
_symmetry_space_group_name_H-M "C 2/M"
_symmetry_group_IT_number 12
_symmetry_cell_setting 'monoclinic'
loop_
_space_group_symop_operation_xyz
x,y,z
-x,y,-z
-x,-y,-z
x,-y,z
1/2+x,1/2+y,z
1/2-x,1/2+y,-z
1/2-x,1/2-y,-z
1/2+x,1/2-y,z
loop_
_atom_site_type_symbol
_atom_site_label
_atom_site_fract_x
_atom_site_fract_y
_atom_site_fract_z
Si Si1 0.688813 0.718617 0.679277
Si Si2 0.459029 0.281562 0.324606
Si Si3 0.129255 0.213938 0.426995
Si Si4 0.339504 0.285654 0.041895
Si Si5 0.270549 0.285306 0.422905
Si Si6 0.132131 0.218250 0.824840
Si Si7 0.278570 0.214678 0.827854
Si Si8 0.916027 0.212481 0.968063
O O1 0.688962 0.500000 0.678619
O O2 0.606195 0.771833 0.663189
O O3 0.708479 0.780836 0.627612
O O4 0.750758 0.775759 0.754576
O O5 0.459764 0.500000 0.325281
O O6 0.543783 0.218516 0.378301
O O7 0.429619 0.226536 0.250073
O O8 0.185477 0.247412 0.402939
O O9 0.172785 0.283225 0.502179
O O10 0.123611 0.000000 0.430357
O O11 0.348521 0.500000 0.046112
O O12 0.375501 0.219531 0.116405
O O13 0.250000 0.250000 0.000000
O O14 0.376046 0.213693 0.003641
O O15 0.278302 0.500000 0.425348
O O16 0.214044 0.274861 0.840129
O O17 0.131822 0.000000 0.825109
O O18 0.360525 0.264375 0.889665
O O19 0.275225 0.000000 0.825387
O O20 0.923502 0.000000 0.980030
O O21 0.000000 0.286444 0.000000
#
# Coordination Sequence:
#
# PCOD9173048 Si02
#       8
#     8   8   8   8   8   8   8   8
#     4   8  15  28  48  71  91 117 152 192 232 267
#     4   8  14  26  45  70  94 113 148 196 228 258
#     4   9  17  29  47  71  95 122 154 187 222 266
#     4  10  18  30  50  69  88 118 155 189 224 271
#     4   9  17  30  47  67  96 127 152 182 226 273
#     4   8  14  26  46  69  88 111 147 190 229 262
#     4   9  16  30  51  69  87 117 157 191 225 272
#     4  10  21  34  45  66  99 125 147 184 236 280
#
# _framework density 19.974249
#
# number of rings (size 3 to 8) (size 9 to 14) (size 15 to 20)
#    0.000    3.125    1.250    1.500    0.000    0.750 
#    2.250    3.125    0.000    4.500    0.000    3.500 
#    0.000    0.000    0.000    0.000    0.000    0.000 
#
# Total GULP energy -178442.177876 kJ/mol
# GULP energy per Si atom -5576.318059 kJ/mol
# Density = 1.992879 g / cm^3
# Si number density = 19.974249 Si / 1000 Ang^3
#
#
#
# Elastic Constant Matrix: (Units=GPa)
#
#
# Indices 1 2 3 4 5 6 
#
# 1 164.2753 3.3336 127.7472 0.0000 6.0171 0.0000
# 2 3.3336 56.7714 2.8086 0.0000 -2.0728 0.0000
# 3 127.7472 2.8086 159.3267 0.0000 -1.2377 0.0000
# 4 0.0000 0.0000 0.0000 3.0608 0.0000 -1.0382
# 5 6.0171 -2.0728 -1.2377 0.0000 36.6074 0.0000
# 6 0.0000 0.0000 0.0000 -1.0382 0.0000 10.1774
#
#
#
# Elastic Compliance Matrix: (Units=1/GPa)
#
#
# Indices 1 2 3 4 5 6 
#
# 1 0.016538 -0.000431 -0.013277 0.000000 -0.003192 0.000000
# 2 -0.000431 0.017677 0.000042 0.000000 0.001073 0.000000
# 3 -0.013277 0.000042 0.016943 0.000000 0.002758 0.000000
# 4 0.000000 0.000000 0.000000 0.338428 0.000000 0.034524
# 5 -0.003192 0.001073 0.002758 0.000000 0.027995 0.000000
# 6 0.000000 0.000000 0.000000 0.034524 0.000000 0.101779
#
#
# Mechanical properties :
#
#
# Convention : Reuss Voigt Hill
#
# Bulk Modulus (GPa) = 41.97133 72.01689 56.99411
# Shear Modulus (GPa) = 9.01497 26.40137 17.70817
#
# Velocity S-wave (km/s) = 2.12676 3.63956 2.98073
# Velocity P-wave (km/s) = 5.20472 7.33451 6.35941
#
# Compressibility (1/GPa) = 0.02382579
#
# Stress axis : x y z
#
# Youngs Moduli (GPa) = 60.46733 56.57099 59.02265
#
# Poissons Ratio (x) = 0.02437 0.78365
# Poissons Ratio (y) = 0.02605 -0.00249
# Poissons Ratio (z) = 0.80283 -0.00238
#
# Static dielectric constant tensor:
#      x y z
#    x 1.683620 0.000000 -0.012160 
#    y 0.000000 1.768070 0.000000 
#    z -0.012160 0.000000 1.708230 
# 
# From -- ./inp_files/345572.got.cif
#   From: 2010.05.17/outbox.cif.g08.bks.cpg/sg12_173_cif.got.tgz:345572.got - 2010.06.03 13:09:07.
