data_PCOD9173847
_publ_section_title
;
Structure prediction by ZEFSAII (Michael W. Deem and Ramdas Pophale) SiO2 
 PCOD9173847
Probable space group: C 2/M
;
_chemical_formula_sum "Si O2"
_cell_formula_units_Z 56
_cell_length_a 18.834415
_cell_length_b 16.182590
_cell_length_c 12.652360
_cell_angle_alpha 90.000000
_cell_angle_beta 136.200754
_cell_angle_gamma 90.000000
_cell_volume 2669.080591
_symmetry_space_group_name_H-M "C 2/M"
_symmetry_group_IT_number 12
_symmetry_cell_setting 'monoclinic'
loop_
_space_group_symop_operation_xyz
x,y,z
-x,y,-z
-x,-y,-z
x,-y,z
1/2+x,1/2+y,z
1/2-x,1/2+y,-z
1/2-x,1/2-y,-z
1/2+x,1/2-y,z
loop_
_atom_site_type_symbol
_atom_site_label
_atom_site_fract_x
_atom_site_fract_y
_atom_site_fract_z
Si Si1 0.625660 0.407889 0.359651
Si Si2 0.112654 0.904772 0.108266
Si Si3 0.409887 0.210046 0.468554
Si Si4 0.190195 0.670150 0.046833
Si Si5 0.289469 0.158709 0.159230
Si Si6 0.275162 0.164601 0.683830
Si Si7 0.466860 0.232281 0.757283
O O1 0.580563 0.500000 0.324282
O O2 0.662814 0.402055 0.278110
O O3 0.718175 0.395152 0.540582
O O4 0.549596 0.329570 0.287749
O O5 0.182982 0.866829 0.096117
O O6 0.097329 0.000000 0.062705
O O7 0.000000 0.865885 0.000000
O O8 0.500000 0.256730 0.500000
O O9 0.372786 0.143894 0.340863
O O10 0.308935 0.263088 0.388193
O O11 0.453111 0.186310 0.629450
O O12 0.196648 0.622427 0.942426
O O13 0.077329 0.710957 0.921897
O O14 0.278401 0.741426 0.134716
O O15 0.202463 0.629728 0.175157
O O16 0.375960 0.203026 0.737626
#
# Coordination Sequence:
#
# PCOD9173847 Si02
#       7
#     8   8   8   8   8   8   8
#     4  10  20  35  57  85 118 152 189 237 292 344
#     4  10  20  35  57  83 112 149 191 239 289 347
#     4  10  18  31  50  79 110 141 179 244 297 337
#     4  10  20  32  54  83 111 146 188 243 290 339
#     4  10  19  33  51  81 111 144 182 237 302 337
#     4  10  21  35  55  82 114 152 199 238 286 348
#     4  11  19  34  58  85 110 150 201 248 285 345
#
# _framework density 20.981007999999999
#
# number of rings (size 3 to 8) (size 9 to 14) (size 15 to 20)
#    0.000    1.857    1.429    5.571    0.000    0.000 
#    0.000    0.714    0.000    9.857    0.000    0.000 
#    0.000    0.000    0.000    0.000    0.000    0.143 
#
# Total GULP energy -155994.460916 kJ/mol
# GULP energy per Si atom -5571.230747 kJ/mol
# Density = 2.093325 g / cm^3
# Si number density = 20.981008 Si / 1000 Ang^3
#
#
#
# Elastic Constant Matrix: (Units=GPa)
#
#
# Indices 1 2 3 4 5 6 
#
# 1 126.5666 13.0828 42.5098 0.0000 -15.7053 0.0000
# 2 13.0828 28.1678 17.9754 0.0000 -7.3186 0.0000
# 3 42.5098 17.9754 153.4418 0.0000 -27.8067 0.0000
# 4 0.0000 0.0000 0.0000 14.0716 0.0000 -0.0218
# 5 -15.7053 -7.3186 -27.8067 0.0000 42.0271 0.0000
# 6 0.0000 0.0000 0.0000 -0.0218 0.0000 7.4050
#
#
#
# Elastic Compliance Matrix: (Units=1/GPa)
#
#
# Indices 1 2 3 4 5 6 
#
# 1 0.009007 -0.002540 -0.001895 0.000000 0.001670 0.000000
# 2 -0.002540 0.039754 -0.003262 0.000000 0.003815 0.000000
# 3 -0.001895 -0.003262 0.008173 0.000000 0.004131 0.000000
# 4 0.000000 0.000000 0.000000 0.071066 0.000000 0.000209
# 5 0.001670 0.003815 0.004131 0.000000 0.027816 0.000000
# 6 0.000000 0.000000 0.000000 0.000209 0.000000 0.135044
#
#
# Mechanical properties :
#
#
# Convention : Reuss Voigt Hill
#
# Bulk Modulus (GPa) = 24.07337 50.59024 37.33180
# Shear Modulus (GPa) = 15.62001 28.34127 21.98064
#
# Velocity S-wave (km/s) = 2.73148 3.67932 3.24025
# Velocity P-wave (km/s) = 4.63107 6.49728 5.64187
#
# Compressibility (1/GPa) = 0.04153968
#
# Stress axis : x y z
#
# Youngs Moduli (GPa) = 111.02117 25.15450 122.35431
#
# Poissons Ratio (x) = 0.06390 0.23189
# Poissons Ratio (y) = 0.28202 0.39911
# Poissons Ratio (z) = 0.21041 0.08205
#
# Static dielectric constant tensor:
#      x y z
#    x 1.784510 0.000000 -0.015370 
#    y 0.000000 1.771260 0.000000 
#    z -0.015370 0.000000 1.864200 
# 
# From -- ./inp_files/158339.got.cif
#   From: 2010.05.17/outbox.cif.g08.bks.cpg/sg12_80_cif.got.tgz:158339.got - 2010.06.03 13:09:07.
