data_PCOD9173946
_publ_section_title
;
Structure prediction by ZEFSAII (Michael W. Deem and Ramdas Pophale) SiO2 
 PCOD9173946
Probable space group: C 2/M
;
_chemical_formula_sum "Si O2"
_cell_formula_units_Z 56
_cell_length_a 19.660653
_cell_length_b 23.002100
_cell_length_c 11.848024
_cell_angle_alpha 90.000000
_cell_angle_beta 147.432003
_cell_angle_gamma 90.000000
_cell_volume 2884.269554
_symmetry_space_group_name_H-M "C 2/M"
_symmetry_group_IT_number 12
_symmetry_cell_setting 'monoclinic'
loop_
_space_group_symop_operation_xyz
x,y,z
-x,y,-z
-x,-y,-z
x,-y,z
1/2+x,1/2+y,z
1/2-x,1/2+y,-z
1/2-x,1/2-y,-z
1/2+x,1/2-y,z
loop_
_atom_site_type_symbol
_atom_site_label
_atom_site_fract_x
_atom_site_fract_y
_atom_site_fract_z
Si Si1 0.581631 0.566893 0.373963
Si Si2 0.876307 0.166970 0.405849
Si Si3 0.128496 0.280926 0.464360
Si Si4 0.134196 0.277323 0.955054
Si Si5 0.860082 0.139836 0.766124
Si Si6 0.705859 0.433488 0.103232
Si Si7 0.812944 0.320671 0.213116
O O1 0.622991 0.500000 0.433223
O O2 0.619827 0.603064 0.537131
O O3 0.630754 0.600908 0.332794
O O4 0.429544 0.567376 0.147595
O O5 0.877987 0.213248 0.511303
O O6 0.000000 0.175497 0.500000
O O7 0.746112 0.182903 0.160527
O O8 0.261020 0.307698 0.609978
O O9 0.114420 0.311043 0.568950
O O10 0.009675 0.292209 0.216969
O O11 0.138028 0.285980 0.825593
O O12 0.176771 0.211483 0.042916
O O13 0.813233 0.096681 0.801078
O O14 0.000000 0.159526 0.000000
O O15 0.748102 0.500000 0.171229
O O16 0.796649 0.388330 0.166781
#
# Coordination Sequence:
#
# PCOD9173946 Si02
#       7
#     8   8   8   8   8   8   8
#     4  10  20  35  54  76 106 143 182 222 260 303
#     4  11  22  35  54  82 112 140 174 215 260 318
#     4  10  19  33  56  81 106 137 172 217 270 317
#     4  10  18  31  51  77 109 142 174 209 258 320
#     4   9  19  35  56  81 105 133 176 225 268 310
#     4   9  16  29  53  80 102 130 173 225 273 310
#     4   9  17  30  51  77 108 137 170 214 264 318
#
# _framework density 19.415659999999999
#
# number of rings (size 3 to 8) (size 9 to 14) (size 15 to 20)
#    0.000    2.286    0.000    5.143    0.000    3.714 
#    0.000    1.429    0.000   12.857    0.000    0.000 
#    0.000    0.000    0.000    0.000    0.000    0.000 
#
# Total GULP energy -156131.840499 kJ/mol
# GULP energy per Si atom -5576.137161 kJ/mol
# Density = 1.937147 g / cm^3
# Si number density = 19.415660 Si / 1000 Ang^3
#
#
#
# Elastic Constant Matrix: (Units=GPa)
#
#
# Indices 1 2 3 4 5 6 
#
# 1 37.3920 32.1586 26.3570 0.0000 4.5035 0.0000
# 2 32.1586 132.8703 51.7408 0.0000 10.9249 0.0000
# 3 26.3570 51.7408 125.8499 0.0000 17.4709 0.0000
# 4 0.0000 0.0000 0.0000 20.7401 0.0000 0.4912
# 5 4.5035 10.9249 17.4709 0.0000 21.3453 0.0000
# 6 0.0000 0.0000 0.0000 0.4912 0.0000 23.9929
#
#
#
# Elastic Compliance Matrix: (Units=1/GPa)
#
#
# Indices 1 2 3 4 5 6 
#
# 1 0.035975 -0.006865 -0.004677 0.000000 -0.000248 0.000000
# 2 -0.006865 0.010331 -0.002568 0.000000 -0.001737 0.000000
# 3 -0.004677 -0.002568 0.010901 0.000000 -0.006621 0.000000
# 4 0.000000 0.000000 0.000000 0.048239 0.000000 -0.000987
# 5 -0.000248 -0.001737 -0.006621 0.000000 0.053209 0.000000
# 6 0.000000 0.000000 0.000000 -0.000987 0.000000 0.041699
#
#
# Mechanical properties :
#
#
# Convention : Reuss Voigt Hill
#
# Bulk Modulus (GPa) = 34.50145 57.40278 45.95212
# Shear Modulus (GPa) = 20.98753 25.60604 23.29679
#
# Velocity S-wave (km/s) = 3.29136 3.63552 3.46771
# Velocity P-wave (km/s) = 5.67913 6.87401 6.30494
#
# Compressibility (1/GPa) = 0.02898429
#
# Stress axis : x y z
#
# Youngs Moduli (GPa) = 27.79719 96.79924 91.73817
#
# Poissons Ratio (x) = 0.66454 0.42909
# Poissons Ratio (y) = 0.19083 0.23562
# Poissons Ratio (z) = 0.13002 0.24861
#
# Static dielectric constant tensor:
#      x y z
#    x 1.764310 0.000000 0.034030 
#    y 0.000000 1.673060 0.000000 
#    z 0.034030 0.000000 1.719750 
# 
# From -- ./inp_files/170315.got.cif
#   From: 2010.05.17/outbox.cif.g08.bks.cpg/sg12_86_cif.got.tgz:170315.got - 2010.06.03 13:09:07.
