data_PCOD9173465
_publ_section_title
;
Structure prediction by ZEFSAII (Michael W. Deem and Ramdas Pophale) SiO2 
 PCOD9173465
Probable space group: C 2/M
;
_chemical_formula_sum "Si O2"
_cell_formula_units_Z 64
_cell_length_a 21.066935
_cell_length_b 12.243195
_cell_length_c 24.308475
_cell_angle_alpha 90.000000
_cell_angle_beta 147.792900
_cell_angle_gamma 90.000000
_cell_volume 3341.686237
_symmetry_space_group_name_H-M "C 2/M"
_symmetry_group_IT_number 12
_symmetry_cell_setting 'monoclinic'
loop_
_space_group_symop_operation_xyz
x,y,z
-x,y,-z
-x,-y,-z
x,-y,z
1/2+x,1/2+y,z
1/2-x,1/2+y,-z
1/2-x,1/2-y,-z
1/2+x,1/2-y,z
loop_
_atom_site_type_symbol
_atom_site_label
_atom_site_fract_x
_atom_site_fract_y
_atom_site_fract_z
Si Si1 0.763772 0.878165 0.940180
Si Si2 0.412768 0.302715 0.149706
Si Si3 0.440440 0.318131 0.645517
Si Si4 0.852462 0.133217 0.286728
Si Si5 0.501372 0.880705 0.134873
Si Si6 0.725614 0.624259 0.655813
Si Si7 0.294186 0.124395 0.585736
Si Si8 0.120626 0.276030 0.054229
O O1 0.669648 0.779944 0.875829
O O2 0.847928 0.837982 0.952549
O O3 0.718099 0.000000 0.897847
O O4 0.833372 0.872097 0.049555
O O5 0.494180 0.365159 0.252618
O O6 0.484443 0.218872 0.163767
O O7 0.534437 0.324823 0.664805
O O8 0.395717 0.198546 0.632876
O O9 0.319502 0.374706 0.537528
O O10 0.852541 0.168876 0.351204
O O11 0.732828 0.179371 0.170437
O O12 0.851179 0.000000 0.284350
O O13 0.640181 0.880697 0.220991
O O14 0.474149 0.000000 0.139019
O O15 0.413979 0.859213 0.020200
O O16 0.682848 0.500000 0.614494
O O17 0.746055 0.670664 0.609430
O O18 0.334640 0.000000 0.625069
O O19 0.000000 0.265289 0.000000
#
# Coordination Sequence:
#
# PCOD9173465 Si02
#       8
#     8   8   8   8   8   8   8   8
#     4  10  22  37  53  78 115 154 190 232 280 334
#     4  10  20  36  55  83 111 147 192 233 284 344
#     4  11  22  38  58  88 118 147 189 240 300 347
#     4  11  22  36  56  88 123 151 186 236 295 349
#     4  10  18  30  53  82 113 147 185 233 283 338
#     4   9  18  33  56  82 111 150 186 227 289 345
#     4  10  22  40  62  86 113 147 193 244 296 353
#     4  11  21  34  53  81 115 152 194 229 277 343
#
# _framework density 19.152007999999999
#
# number of rings (size 3 to 8) (size 9 to 14) (size 15 to 20)
#    0.000    1.750    3.750    1.125    0.000    2.750 
#    0.000    1.875    0.000    0.000    0.000    8.750 
#    0.000    0.000    0.000    0.000    0.000    0.000 
#
# Total GULP energy -178361.734398 kJ/mol
# GULP energy per Si atom -5573.804200 kJ/mol
# Density = 1.910842 g / cm^3
# Si number density = 19.152008 Si / 1000 Ang^3
#
#
#
# Elastic Constant Matrix: (Units=GPa)
#
#
# Indices 1 2 3 4 5 6 
#
# 1 116.1190 37.0764 14.7887 0.0000 12.3336 0.0000
# 2 37.0764 66.9008 6.8216 0.0000 -0.2477 0.0000
# 3 14.7887 6.8216 69.6427 0.0000 -5.8844 0.0000
# 4 0.0000 0.0000 0.0000 4.2221 0.0000 1.0235
# 5 12.3336 -0.2477 -5.8844 0.0000 30.5774 0.0000
# 6 0.0000 0.0000 0.0000 1.0235 0.0000 13.9378
#
#
#
# Elastic Compliance Matrix: (Units=1/GPa)
#
#
# Indices 1 2 3 4 5 6 
#
# 1 0.011385 -0.006099 -0.002249 0.000000 -0.005074 0.000000
# 2 -0.006099 0.018366 -0.000288 0.000000 0.002553 0.000000
# 3 -0.002249 -0.000288 0.015188 0.000000 0.003828 0.000000
# 4 0.000000 0.000000 0.000000 0.241144 0.000000 -0.017709
# 5 -0.005074 0.002553 0.003828 0.000000 0.035508 0.000000
# 6 0.000000 0.000000 0.000000 -0.017709 0.000000 0.073048
#
#
# Mechanical properties :
#
#
# Convention : Reuss Voigt Hill
#
# Bulk Modulus (GPa) = 36.14370 41.11508 38.62939
# Shear Modulus (GPa) = 11.87273 22.67916 17.27594
#
# Velocity S-wave (km/s) = 2.49252 3.44490 3.00666
# Velocity P-wave (km/s) = 5.21503 6.11044 5.68041
#
# Compressibility (1/GPa) = 0.02766734
#
# Stress axis : x y z
#
# Youngs Moduli (GPa) = 87.83841 54.44759 65.84058
#
# Poissons Ratio (x) = 0.33206 0.14807
# Poissons Ratio (y) = 0.53571 0.01898
# Poissons Ratio (z) = 0.19754 0.01569
#
# Static dielectric constant tensor:
#      x y z
#    x 1.723000 0.000000 0.000530 
#    y 0.000000 1.646150 0.000000 
#    z 0.000530 0.000000 1.705940 
# 
# From -- ./inp_files/366063.got.cif
#   From: 2010.05.17/outbox.cif.g08.bks.cpg/sg12_184_cif.got.tgz:366063.got - 2010.06.03 13:09:07.
