data_PCOD9173788
_publ_section_title
;
Structure prediction by ZEFSAII (Michael W. Deem and Ramdas Pophale) SiO2 
 PCOD9173788
Probable space group: C 2/M
;
_chemical_formula_sum "Si O2"
_cell_formula_units_Z 48
_cell_length_a 21.809670
_cell_length_b 12.951651
_cell_length_c 15.085639
_cell_angle_alpha 90.000000
_cell_angle_beta 40.104105
_cell_angle_gamma 90.000000
_cell_volume 2745.011183
_symmetry_space_group_name_H-M "C 2/M"
_symmetry_group_IT_number 12
_symmetry_cell_setting 'monoclinic'
loop_
_space_group_symop_operation_xyz
x,y,z
-x,y,-z
-x,-y,-z
x,-y,z
1/2+x,1/2+y,z
1/2-x,1/2+y,-z
1/2-x,1/2-y,-z
1/2+x,1/2-y,z
loop_
_atom_site_type_symbol
_atom_site_label
_atom_site_fract_x
_atom_site_fract_y
_atom_site_fract_z
Si Si1 0.050765 0.688496 0.531870
Si Si2 0.836108 0.208203 0.964238
Si Si3 0.494607 0.117593 0.785351
Si Si4 0.899322 0.378688 0.159384
Si Si5 0.415743 0.381793 0.707570
Si Si6 0.763882 0.754549 0.758433
O O1 0.026674 0.629800 0.648487
O O2 0.161328 0.697086 0.386957
O O3 0.000000 0.644374 0.500000
O O4 0.003516 0.802857 0.596730
O O5 0.886377 0.126695 0.843888
O O6 0.910170 0.301848 0.895886
O O7 0.750000 0.250000 0.000000
O O8 0.789760 0.182742 0.110028
O O9 0.579557 0.139699 0.760225
O O10 0.462583 0.000000 0.838075
O O11 0.879136 0.500000 0.168688
O O12 0.815132 0.313325 0.210643
O O13 0.000000 0.356358 0.000000
O O14 0.434893 0.500000 0.663243
O O15 0.329816 0.334197 0.743041
#
# Coordination Sequence:
#
# PCOD9173788 Si02
#       6
#     8   8   8   8   8   8
#     4   9  20  35  50  74 103 134 170 204 247 304
#     4   9  18  31  48  72  98 127 165 204 244 297
#     4  10  20  35  52  73 105 135 164 207 253 298
#     4  10  19  30  49  78 102 128 169 209 252 299
#     4   9  18  32  50  72 100 132 165 206 253 292
#     4  10  18  31  50  73 103 130 164 208 251 293
#
# _framework density 17.486267999999999
#
# number of rings (size 3 to 8) (size 9 to 14) (size 15 to 20)
#    0.000    2.500    1.667    1.500    0.000    7.333 
#    0.000    0.833    0.000    0.000    0.000    9.333 
#    0.000    0.000    0.000    0.000    0.000    0.000 
#
# Total GULP energy -133717.861655 kJ/mol
# GULP energy per Si atom -5571.577569 kJ/mol
# Density = 1.744647 g / cm^3
# Si number density = 17.486268 Si / 1000 Ang^3
#
#
#
# Elastic Constant Matrix: (Units=GPa)
#
#
# Indices 1 2 3 4 5 6 
#
# 1 73.6041 1.6198 22.0102 0.0000 0.7180 0.0000
# 2 1.6198 25.7541 -6.7035 0.0000 0.1851 0.0000
# 3 22.0102 -6.7035 91.7513 0.0000 4.9035 0.0000
# 4 0.0000 0.0000 0.0000 4.8397 0.0000 2.3382
# 5 0.7180 0.1851 4.9035 0.0000 29.8206 0.0000
# 6 0.0000 0.0000 0.0000 2.3382 0.0000 18.4782
#
#
#
# Elastic Compliance Matrix: (Units=1/GPa)
#
#
# Indices 1 2 3 4 5 6 
#
# 1 0.014727 -0.001887 -0.003685 0.000000 0.000263 0.000000
# 2 -0.001887 0.039839 0.003404 0.000000 -0.000762 0.000000
# 3 -0.003685 0.003404 0.012135 0.000000 -0.001928 0.000000
# 4 0.000000 0.000000 0.000000 0.220078 0.000000 -0.027848
# 5 0.000263 -0.000762 -0.001928 0.000000 0.033849 0.000000
# 6 0.000000 0.000000 0.000000 -0.027848 0.000000 0.057641
#
#
# Mechanical properties :
#
#
# Convention : Reuss Voigt Hill
#
# Bulk Modulus (GPa) = 16.03466 24.99584 20.51525
# Shear Modulus (GPa) = 12.39483 22.23991 17.31737
#
# Velocity S-wave (km/s) = 2.66528 3.57017 3.15038
# Velocity P-wave (km/s) = 4.31988 5.59646 4.99909
#
# Compressibility (1/GPa) = 0.06236490
#
# Stress axis : x y z
#
# Youngs Moduli (GPa) = 67.90220 25.10103 82.40815
#
# Poissons Ratio (x) = 0.04737 0.30366
# Poissons Ratio (y) = 0.12815 -0.28053
# Poissons Ratio (z) = 0.25021 -0.08545
#
# Static dielectric constant tensor:
#      x y z
#    x 1.591930 0.000000 0.035200 
#    y 0.000000 1.568190 0.000000 
#    z 0.035200 0.000000 1.635700 
# 
# From -- ./inp_files/165465.got.cif
#   From: 2010.05.17/outbox.cif.g08.bks.cpg/sg12_83_cif.got.tgz:165465.got - 2010.06.03 13:09:07.
