data_PCOD9173416
_publ_section_title
;
Structure prediction by ZEFSAII (Michael W. Deem and Ramdas Pophale) SiO2 
 PCOD9173416
Probable space group: C 2/M
;
_chemical_formula_sum "Si O2"
_cell_formula_units_Z 64
_cell_length_a 23.872714
_cell_length_b 21.237514
_cell_length_c 13.809381
_cell_angle_alpha 90.000000
_cell_angle_beta 30.354371
_cell_angle_gamma 90.000000
_cell_volume 3538.092109
_symmetry_space_group_name_H-M "C 2/M"
_symmetry_group_IT_number 12
_symmetry_cell_setting 'monoclinic'
loop_
_space_group_symop_operation_xyz
x,y,z
-x,y,-z
-x,-y,-z
x,-y,z
1/2+x,1/2+y,z
1/2-x,1/2+y,-z
1/2-x,1/2-y,-z
1/2+x,1/2-y,z
loop_
_atom_site_type_symbol
_atom_site_label
_atom_site_fract_x
_atom_site_fract_y
_atom_site_fract_z
Si Si1 0.581083 0.805228 0.968478
Si Si2 0.141626 0.070896 0.094805
Si Si3 0.100215 0.596874 0.281301
Si Si4 0.082370 0.569984 0.086360
Si Si5 0.556461 0.703051 0.172076
Si Si6 0.169497 0.190518 0.390613
Si Si7 0.349633 0.431017 0.690343
Si Si8 0.119546 0.745989 0.277231
O O1 0.709300 0.813842 0.743774
O O2 0.500000 0.795620 0.000000
O O3 0.548506 0.869917 0.073536
O O4 0.574321 0.746356 0.052268
O O5 0.276298 0.070844 0.884373
O O6 0.103336 0.000000 0.127031
O O7 0.087691 0.129072 0.117055
O O8 0.121257 0.081418 0.240982
O O9 0.060450 0.582034 0.232118
O O10 0.117472 0.671587 0.268202
O O11 0.000000 0.576608 0.500000
O O12 0.041757 0.500000 0.117917
O O13 0.216202 0.568218 0.883907
O O14 0.429085 0.715871 0.395750
O O15 0.630295 0.724586 0.155141
O O16 0.121130 0.123981 0.425837
O O17 0.192907 0.228337 0.255349
O O18 0.390855 0.500000 0.601609
O O19 0.000000 0.764508 0.500000
#
# Coordination Sequence:
#
# PCOD9173416 Si02
#       8
#     8   8   8   8   8   8   8   8
#     4  11  24  40  58  79 104 144 192 234 274 317
#     4  10  20  31  49  81 117 150 181 215 265 331
#     4  10  18  30  52  81 119 154 178 212 265 332
#     4   9  18  33  52  78 110 141 175 221 271 319
#     4  11  21  36  57  81 112 144 181 229 272 331
#     4  10  20  34  56  82 110 145 175 222 283 329
#     4   8  15  28  48  78 114 143 169 208 265 333
#     4   9  17  29  51  84 110 139 176 212 271 333
#
# _framework density 18.088844000000002
#
# number of rings (size 3 to 8) (size 9 to 14) (size 15 to 20)
#    0.000    2.250    2.500    1.875    0.000    3.250 
#    0.000    1.250    0.000    0.375    0.000    0.000 
#    0.000    0.000    0.000    0.000    0.000    0.000 
#
# Total GULP energy -178404.092673 kJ/mol
# GULP energy per Si atom -5575.127896 kJ/mol
# Density = 1.804767 g / cm^3
# Si number density = 18.088844 Si / 1000 Ang^3
#
#
#
# Elastic Constant Matrix: (Units=GPa)
#
#
# Indices 1 2 3 4 5 6 
#
# 1 89.7115 52.2610 35.3410 0.0000 -5.7997 0.0000
# 2 52.2610 123.0556 10.3325 0.0000 2.8638 0.0000
# 3 35.3410 10.3325 82.7251 0.0000 -8.1584 0.0000
# 4 0.0000 0.0000 0.0000 4.6570 0.0000 -6.4483
# 5 -5.7997 2.8638 -8.1584 0.0000 16.8968 0.0000
# 6 0.0000 0.0000 0.0000 -6.4483 0.0000 9.0493
#
#
#
# Elastic Compliance Matrix: (Units=1/GPa)
#
#
# Indices 1 2 3 4 5 6 
#
# 1 0.018219 -0.007299 -0.006439 0.000006 0.004381 0.000004
# 2 -0.007299 0.011200 0.001349 -0.000005 -0.003752 -0.000004
# 3 -0.006439 0.001349 0.015152 -0.000007 0.004877 -0.000005
# 4 0.000006 -0.000005 -0.000007 16.083637 0.000021 11.460685
# 5 0.004381 -0.003752 0.004877 0.000021 0.063677 0.000015
# 6 0.000004 -0.000004 -0.000005 11.460685 0.000015 8.277023
#
#
# Mechanical properties :
#
#
# Convention : Reuss Voigt Hill
#
# Bulk Modulus (GPa) = 50.52436 54.59569 52.56002
# Shear Modulus (GPa) = 0.20408 19.29115 9.74762
#
# Velocity S-wave (km/s) = 0.33625 3.26922 2.32389
# Velocity P-wave (km/s) = 5.30496 6.67068 6.02663
#
# Compressibility (1/GPa) = 0.01979243
#
# Stress axis : x y z
#
# Youngs Moduli (GPa) = 54.88895 89.28471 65.99925
#
# Poissons Ratio (x) = 0.65165 0.42500
# Poissons Ratio (y) = 0.40061 -0.08904
# Poissons Ratio (z) = 0.35346 -0.12045
#
# Static dielectric constant tensor:
#      x y z
#    x 1.604390 0.000000 -0.021180 
#    y 0.000000 1.676970 0.000000 
#    z -0.021180 0.000000 1.659530 
# 
# From -- ./inp_files/169672.got.cif
#   From: 2010.05.17/outbox.cif.g08.bks.cpg/sg12_85_cif.got.tgz:169672.got - 2010.06.03 13:09:07.
