data_PCOD9174729
_publ_section_title
;
Structure prediction by ZEFSAII (Michael W. Deem and Ramdas Pophale) SiO2 
 PCOD9174729
Probable space group: C 2/M
;
_chemical_formula_sum "Si O2"
_cell_formula_units_Z 56
_cell_length_a 30.976928
_cell_length_b 8.593104
_cell_length_c 12.954493
_cell_angle_alpha 90.000000
_cell_angle_beta 105.219121
_cell_angle_gamma 90.000000
_cell_volume 3327.393529
_symmetry_space_group_name_H-M "C 2/M"
_symmetry_group_IT_number 12
_symmetry_cell_setting 'monoclinic'
loop_
_space_group_symop_operation_xyz
x,y,z
-x,y,-z
-x,-y,-z
x,-y,z
1/2+x,1/2+y,z
1/2-x,1/2+y,-z
1/2-x,1/2-y,-z
1/2+x,1/2-y,z
loop_
_atom_site_type_symbol
_atom_site_label
_atom_site_fract_x
_atom_site_fract_y
_atom_site_fract_z
Si Si1 0.452086 0.810030 0.517011
Si Si2 0.111713 0.689669 0.704413
Si Si3 0.046504 0.311802 0.245243
Si Si4 0.393895 0.315468 0.897985
Si Si5 0.205423 0.687727 0.847199
Si Si6 0.301699 0.814411 0.915648
Si Si7 0.054649 0.311744 0.870311
O O1 0.500000 0.762866 0.500000
O O2 0.412982 0.758541 0.415022
O O3 0.447533 0.760224 0.632513
O O4 0.452068 0.000000 0.517287
O O5 0.111724 0.500000 0.703883
O O6 0.162842 0.738888 0.753514
O O7 0.082440 0.735489 0.785928
O O8 0.047629 0.500000 0.244481
O O9 0.083692 0.249150 0.191515
O O10 0.996989 0.264985 0.175299
O O11 0.395356 0.500000 0.898387
O O12 0.343176 0.259218 0.882379
O O13 0.422482 0.253240 0.013161
O O14 0.208864 0.500000 0.845058
O O15 0.253018 0.759462 0.847908
O O16 0.195679 0.729778 0.960947
O O17 0.305093 0.000000 0.912017
O O18 0.056234 0.500000 0.876755
#
# Coordination Sequence:
#
# PCOD9174729 Si02
#       7
#     8   8   8   8   8   8   8
#     4   9  15  27  51  81 105 130 171 216 250 290
#     4   9  15  27  50  79 109 134 162 207 256 300
#     4  10  20  33  53  77 104 138 177 214 250 298
#     4  12  24  35  49  71 105 142 176 212 256 307
#     4   9  17  30  50  77 107 134 161 202 260 312
#     4  10  19  33  53  75 102 132 169 211 255 309
#     4  10  18  32  52  76 105 138 172 208 252 302
#
# _framework density 16.829991
#
# number of rings (size 3 to 8) (size 9 to 14) (size 15 to 20)
#    0.000    2.143    2.857    2.143    0.000    2.857 
#    0.000    0.000    0.000    3.000    0.000    0.000 
#    0.000    0.000    0.000    0.000    0.000    0.000 
#
# Total GULP energy -156240.747164 kJ/mol
# GULP energy per Si atom -5580.026684 kJ/mol
# Density = 1.679169 g / cm^3
# Si number density = 16.829991 Si / 1000 Ang^3
#
#
#
# Elastic Constant Matrix: (Units=GPa)
#
#
# Indices 1 2 3 4 5 6 
#
# 1 157.4102 31.2195 98.3971 0.0000 5.1085 0.0000
# 2 31.2195 16.6521 23.4512 0.0000 -1.1336 0.0000
# 3 98.3971 23.4512 118.9106 0.0000 0.8087 0.0000
# 4 0.0000 0.0000 0.0000 -0.0601 0.0000 6.3216
# 5 5.1085 -1.1336 0.8087 0.0000 30.5959 0.0000
# 6 0.0000 0.0000 0.0000 6.3216 0.0000 20.4764
#
#
#
# Elastic Compliance Matrix: (Units=1/GPa)
#
#
# Indices 1 2 3 4 5 6 
#
# 1 0.015795 -0.015833 -0.009927 0.000000 -0.002961 0.000000
# 2 -0.015833 0.099396 -0.006545 0.000000 0.006499 0.000000
# 3 -0.009927 -0.006545 0.017909 0.000000 0.000942 0.000000
# 4 0.000000 0.000000 0.000000 -0.497070 0.000000 0.153459
# 5 -0.002961 0.006499 0.000942 0.000000 0.033394 0.000000
# 6 0.000000 0.000000 0.000000 0.153459 0.000000 0.001460
#
#
# Mechanical properties :
#
#
# Convention : Reuss Voigt Hill
#
# Bulk Modulus (GPa) = 14.60094 66.56760 40.58427
# Shear Modulus (GPa) = -20.68881 19.52945 -0.57968
#
# Velocity S-wave (km/s) = -3.50992 3.41015 -0.58752
# Velocity P-wave (km/s) = 2.78058 7.42592 4.86892
#
# Compressibility (1/GPa) = 0.06848872
#
# Stress axis : x y z
#
# Youngs Moduli (GPa) = 63.31290 10.06076 55.83879
#
# Poissons Ratio (x) = 0.15929 0.55432
# Poissons Ratio (y) = 1.00243 0.36548
# Poissons Ratio (z) = 0.62852 0.06585
#
# Static dielectric constant tensor:
#      x y z
#    x 1.555110 0.000000 0.012770 
#    y 0.000000 1.573860 0.000000 
#    z 0.012770 0.000000 1.557620 
# 
# From -- ./inp_files/186807.got.cif
#   From: 2010.05.17/outbox.cif.g08.bks.cpg/sg12_94_cif.got.tgz:186807.got - 2010.06.03 13:09:07.
