data_PCOD9174589
_publ_section_title
;
Structure prediction by ZEFSAII (Michael W. Deem and Ramdas Pophale) SiO2 
 PCOD9174589
Probable space group: C 2/M
;
_chemical_formula_sum "Si O2"
_cell_formula_units_Z 64
_cell_length_a 24.714422
_cell_length_b 7.731124
_cell_length_c 19.759613
_cell_angle_alpha 90.000000
_cell_angle_beta 110.430250
_cell_angle_gamma 90.000000
_cell_volume 3537.988866
_symmetry_space_group_name_H-M "C 2/M"
_symmetry_group_IT_number 12
_symmetry_cell_setting 'monoclinic'
loop_
_space_group_symop_operation_xyz
x,y,z
-x,y,-z
-x,-y,-z
x,-y,z
1/2+x,1/2+y,z
1/2-x,1/2+y,-z
1/2-x,1/2-y,-z
1/2+x,1/2-y,z
loop_
_atom_site_type_symbol
_atom_site_label
_atom_site_fract_x
_atom_site_fract_y
_atom_site_fract_z
Si Si1 0.311796 0.712628 0.372325
Si Si2 0.110946 0.798783 0.712855
Si Si3 0.123655 0.204962 0.464608
Si Si4 0.815875 0.291278 0.644677
Si Si5 0.445956 0.702762 0.182003
Si Si6 0.928794 0.705516 0.770931
Si Si7 0.503065 0.290988 0.077672
Si Si8 0.503186 0.201210 0.578452
O O1 0.312547 0.500000 0.372471
O O2 0.339600 0.774284 0.314234
O O3 0.351872 0.767388 0.452764
O O4 0.246496 0.769413 0.357744
O O5 0.095669 0.719851 0.779446
O O6 0.051925 0.792115 0.643649
O O7 0.125619 0.000000 0.730454
O O8 0.169313 0.242386 0.425635
O O9 0.061523 0.285237 0.421230
O O10 0.115059 0.000000 0.465288
O O11 0.815074 0.500000 0.648162
O O12 0.869642 0.228304 0.713606
O O13 0.432359 0.500000 0.170210
O O14 0.512709 0.718095 0.236232
O O15 0.453292 0.772658 0.108560
O O16 0.931116 0.500000 0.762251
O O17 0.939188 0.744640 0.855029
O O18 0.499474 0.500000 0.074125
O O19 0.500000 0.225959 0.000000
O O20 0.500000 0.269701 0.500000
O O21 0.519957 0.000000 0.582643
#
# Coordination Sequence:
#
# PCOD9174589 Si02
#       8
#     8   8   8   8   8   8   8   8
#     4   9  19  33  48  65  87 121 161 201 238 270
#     4  10  18  32  50  66  88 118 156 196 228 273
#     4  11  21  33  50  67  85 117 162 204 239 276
#     4  10  20  34  48  65  93 123 155 195 238 276
#     4   8  16  28  45  68  91 115 145 179 219 267
#     4   9  17  28  45  68  94 121 147 177 219 272
#     4   8  15  29  47  69  98 121 140 175 221 268
#     4  11  22  33  46  65  91 119 149 191 244 291
#
# _framework density 18.089372000000001
#
# number of rings (size 3 to 8) (size 9 to 14) (size 15 to 20)
#    0.750    1.750    1.250    1.875    0.000    4.250 
#    0.000    1.250    0.000    0.000    0.000    0.875 
#    0.000    0.000    0.000    0.000    0.000    0.000 
#
# Total GULP energy -178192.751310 kJ/mol
# GULP energy per Si atom -5568.523478 kJ/mol
# Density = 1.804820 g / cm^3
# Si number density = 18.089372 Si / 1000 Ang^3
#
#
#
# Elastic Constant Matrix: (Units=GPa)
#
#
# Indices 1 2 3 4 5 6 
#
# 1 91.5997 -2.2585 28.9753 0.0000 -31.6409 0.0000
# 2 -2.2585 30.5465 0.8744 0.0000 -1.9386 0.0000
# 3 28.9753 0.8744 88.1422 0.0000 -35.5637 0.0000
# 4 0.0000 0.0000 0.0000 4.4037 0.0000 -5.8957
# 5 -31.6409 -1.9386 -35.5637 0.0000 28.3273 0.0000
# 6 0.0000 0.0000 0.0000 -5.8957 0.0000 8.5523
#
#
#
# Elastic Compliance Matrix: (Units=1/GPa)
#
#
# Indices 1 2 3 4 5 6 
#
# 1 0.018925 0.002998 0.004784 0.000000 0.027351 0.000000
# 2 0.002998 0.033415 0.001939 0.000000 0.008070 0.000000
# 3 0.004784 0.001939 0.024244 0.000000 0.035914 0.000000
# 4 0.000000 0.000000 0.000000 2.946575 0.000000 2.031286
# 5 0.027351 0.008070 0.035914 0.000000 0.111492 0.000000
# 6 0.000000 0.000000 0.000000 2.031286 0.000000 1.517240
#
#
# Mechanical properties :
#
#
# Convention : Reuss Voigt Hill
#
# Bulk Modulus (GPa) = 10.41368 29.49674 19.95521
# Shear Modulus (GPa) = 1.07194 20.43649 10.75421
#
# Velocity S-wave (km/s) = 0.77063 3.36482 2.44089
# Velocity P-wave (km/s) = 2.56147 5.60692 4.35882
#
# Compressibility (1/GPa) = 0.09602752
#
# Stress axis : x y z
#
# Youngs Moduli (GPa) = 52.83960 29.92636 41.24771
#
# Poissons Ratio (x) = -0.08972 -0.19735
# Poissons Ratio (y) = -0.15842 -0.07998
# Poissons Ratio (z) = -0.25281 -0.05803
#
# Static dielectric constant tensor:
#      x y z
#    x 1.631920 0.000000 -0.038380 
#    y 0.000000 1.659140 0.000000 
#    z -0.038380 0.000000 1.644590 
# 
# From -- ./inp_files/323400.got.cif
#   From: 2010.05.17/outbox.cif.g08.bks.cpg/sg12_162_cif.got.tgz:323400.got - 2010.06.03 13:09:07.
