data_PCOD9174919
_publ_section_title
;
Structure prediction by ZEFSAII (Michael W. Deem and Ramdas Pophale) SiO2 
 PCOD9174919
Probable space group: C 2/M
;
_chemical_formula_sum "Si O2"
_cell_formula_units_Z 48
_cell_length_a 11.342206
_cell_length_b 26.390780
_cell_length_c 14.568676
_cell_angle_alpha 90.000000
_cell_angle_beta 151.909427
_cell_angle_gamma 90.000000
_cell_volume 2053.373031
_symmetry_space_group_name_H-M "C 2/M"
_symmetry_group_IT_number 12
_symmetry_cell_setting 'monoclinic'
loop_
_space_group_symop_operation_xyz
x,y,z
-x,y,-z
-x,-y,-z
x,-y,z
1/2+x,1/2+y,z
1/2-x,1/2+y,-z
1/2-x,1/2-y,-z
1/2+x,1/2-y,z
loop_
_atom_site_type_symbol
_atom_site_label
_atom_site_fract_x
_atom_site_fract_y
_atom_site_fract_z
Si Si1 0.047055 0.941820 0.665744
Si Si2 0.345162 0.222571 0.748526
Si Si3 0.111775 0.443232 0.476445
Si Si4 0.842156 0.747292 0.192473
Si Si5 0.636363 0.107346 0.252450
Si Si6 0.744708 0.872816 0.875559
O O1 0.908751 0.935437 0.668009
O O2 0.812165 0.928261 0.436698
O O3 0.273629 0.907437 0.787165
O O4 0.123233 0.000000 0.707961
O O5 0.155267 0.240593 0.697450
O O6 0.414899 0.254632 0.705266
O O7 0.286713 0.165552 0.679527
O O8 0.613369 0.222664 0.987411
O O9 0.060840 0.500000 0.400690
O O10 0.000000 0.445400 0.500000
O O11 0.972959 0.396124 0.336108
O O12 0.768013 0.687973 0.132495
O O13 0.349772 0.106040 0.090387
O O14 0.000000 0.888277 0.000000
#
# Coordination Sequence:
#
# PCOD9174919 Si02
#       6
#     8   8   8   8   8   8
#     4   9  17  34  56  74  99 139 178 217 264 319
#     4   9  16  29  48  69  99 132 175 218 252 308
#     4   9  19  36  56  78 106 139 175 217 270 323
#     4   9  17  31  48  70 100 142 176 208 265 316
#     4   9  17  28  51  78 100 127 179 223 256 306
#     4  10  18  32  54  79 107 137 179 219 261 321
#
# _framework density 23.376170999999999
#
# number of rings (size 3 to 8) (size 9 to 14) (size 15 to 20)
#    0.000    2.833    1.667    1.000    0.000    1.000 
#    3.000    0.000    3.667    9.000    0.000   12.833 
#    0.000    0.000    0.000    0.000    0.000    0.000 
#
# Total GULP energy -133642.841127 kJ/mol
# GULP energy per Si atom -5568.451714 kJ/mol
# Density = 2.332297 g / cm^3
# Si number density = 23.376171 Si / 1000 Ang^3
#
#
#
# Elastic Constant Matrix: (Units=GPa)
#
#
# Indices 1 2 3 4 5 6 
#
# 1 216.8057 14.0399 26.5766 -0.0001 63.0061 -0.0003
# 2 14.0399 50.0390 11.1636 0.0006 6.9050 -0.0026
# 3 26.5766 11.1636 51.6690 -0.0006 21.5640 0.0014
# 4 -0.0001 0.0006 -0.0006 7.1646 -0.0006 -7.7185
# 5 63.0061 6.9050 21.5640 -0.0006 49.7865 0.0019
# 6 -0.0003 -0.0026 0.0014 -7.7185 0.0019 116.9649
#
#
#
# Elastic Compliance Matrix: (Units=1/GPa)
#
#
# Indices 1 2 3 4 5 6 
#
# 1 0.007329 -0.000839 0.000286 0.000000 -0.009283 0.000000
# 2 -0.000839 0.021147 -0.004097 -0.000002 -0.000096 0.000000
# 3 0.000286 -0.004097 0.024420 0.000001 -0.010370 0.000000
# 4 0.000000 -0.000002 0.000001 0.150256 0.000001 0.009915
# 5 -0.009283 -0.000096 -0.010370 0.000001 0.036339 0.000000
# 6 0.000000 0.000000 0.000000 0.009915 0.000000 0.009204
#
#
# Mechanical properties :
#
#
# Convention : Reuss Voigt Hill
#
# Bulk Modulus (GPa) = 22.93827 46.89712 34.91769
# Shear Modulus (GPa) = 18.34665 52.56545 35.45605
#
# Velocity S-wave (km/s) = 2.80455 4.74717 3.89879
# Velocity P-wave (km/s) = 4.50791 7.08187 5.93608
#
# Compressibility (1/GPa) = 0.04359527
#
# Stress axis : x y z
#
# Youngs Moduli (GPa) = 136.43496 47.28750 40.94935
#
# Poissons Ratio (x) = 0.03968 -0.01169
# Poissons Ratio (y) = 0.11450 0.16778
# Poissons Ratio (z) = -0.03896 0.19375
#
# Static dielectric constant tensor:
#      x y z
#    x 2.114760 0.000000 0.011260 
#    y 0.000000 1.829120 0.000000 
#    z 0.011260 0.000000 1.914000 
# 
# From -- ./inp_files/265718.got.cif
#   From: 2010.05.17/outbox.cif.g08.bks.cpg/sg12_133_cif.got.tgz:265718.got - 2010.06.03 13:09:07.
