data_PCOD9174950
_publ_section_title
;
Structure prediction by ZEFSAII (Michael W. Deem and Ramdas Pophale) SiO2 
 PCOD9174950
Probable space group: C 2/M
;
_chemical_formula_sum "Si O2"
_cell_formula_units_Z 58
_cell_length_a 25.045214
_cell_length_b 7.625279
_cell_length_c 21.346321
_cell_angle_alpha 90.000000
_cell_angle_beta 38.073893
_cell_angle_gamma 90.000000
_cell_volume 2513.977825
_symmetry_space_group_name_H-M "C 2/M"
_symmetry_group_IT_number 12
_symmetry_cell_setting 'monoclinic'
loop_
_space_group_symop_operation_xyz
x,y,z
-x,y,-z
-x,-y,-z
x,-y,z
1/2+x,1/2+y,z
1/2-x,1/2+y,-z
1/2-x,1/2-y,-z
1/2+x,1/2-y,z
loop_
_atom_site_type_symbol
_atom_site_label
_atom_site_fract_x
_atom_site_fract_y
_atom_site_fract_z
Si Si1 0.975822 0.291956 0.285045
Si Si2 0.095120 0.787834 0.836599
Si Si3 0.422709 0.290894 0.924820
Si Si4 0.125708 0.208544 0.508552
Si Si5 0.300952 0.287804 0.139583
Si Si6 0.620725 0.295795 0.369008
Si Si7 0.500000 0.000000 0.500000
Si Si8 0.193574 0.704746 0.626589
O O1 0.971913 0.500000 0.285002
O O2 0.959518 0.242830 0.371868
O O3 0.890037 0.213369 0.329716
O O4 0.056973 0.242383 0.166822
O O5 0.123503 0.739878 0.880179
O O6 0.169805 0.720290 0.721684
O O7 0.005487 0.723572 0.888715
O O8 0.093253 0.000000 0.836335
O O9 0.422865 0.500000 0.932113
O O10 0.335698 0.228746 0.039591
O O11 0.131599 0.269909 0.431585
O O12 0.210222 0.281398 0.467706
O O13 0.136028 0.000000 0.495260
O O14 0.293122 0.500000 0.147732
O O15 0.210181 0.217829 0.248711
O O16 0.593847 0.500000 0.393027
O O17 0.550314 0.155685 0.412816
O O18 0.197224 0.500000 0.606546
#
# Coordination Sequence:
#
# PCOD9174950 Si02
#       8
#     8   8   8   8   8   8   2   8
#     4  10  20  30  46  73 112 157 204 239 277 319
#     4   9  16  26  45  72 108 156 203 243 275 327
#     4   9  18  31  47  73 115 162 206 240 278 322
#     4  10  20  34  53  77 110 147 195 238 288 345
#     4  10  18  32  54  81 114 154 199 240 292 347
#     4  11  24  41  66  95 119 149 187 241 305 375
#     4  12  26  48  68  90 126 140 182 244 322 380
#     4   9  17  29  43  68 107 153 196 241 277 322
#
# _framework density 23.071006000000001
#
# number of rings (size 3 to 8) (size 9 to 14) (size 15 to 20)
#    0.000    2.207    2.069    1.448    0.966    3.310 
#    0.000    0.000    0.000    4.138    0.000    0.966 
#    0.000    0.000    0.000    0.000    0.000    0.000 
#
# Total GULP energy -161514.854085 kJ/mol
# GULP energy per Si atom -5569.477727 kJ/mol
# Density = 2.301850 g / cm^3
# Si number density = 23.071006 Si / 1000 Ang^3
#
#
#
# Elastic Constant Matrix: (Units=GPa)
#
#
# Indices 1 2 3 4 5 6 
#
# 1 32.6733 8.7100 29.8629 0.0200 8.0460 -0.0229
# 2 8.7100 74.6658 10.1984 0.0016 -2.3073 -0.0065
# 3 29.8629 10.1984 204.1477 -0.0034 25.6351 -0.0176
# 4 0.0200 0.0016 -0.0034 24.0618 -0.0003 2.8780
# 5 8.0460 -2.3073 25.6351 -0.0003 27.9774 0.0280
# 6 -0.0229 -0.0065 -0.0176 2.8780 0.0280 -8.0732
#
#
#
# Elastic Compliance Matrix: (Units=1/GPa)
#
#
# Indices 1 2 3 4 5 6 
#
# 1 0.037419 -0.003984 -0.004387 -0.000017 -0.007070 -0.000124
# 2 -0.003984 0.014005 -0.000458 0.000001 0.002721 0.000011
# 3 -0.004387 -0.000458 0.006113 0.000006 -0.004377 -0.000013
# 4 -0.000017 0.000001 0.000006 0.039860 -0.000014 0.014210
# 5 -0.007070 0.002721 -0.004377 -0.000014 0.042011 0.000168
# 6 -0.000124 0.000011 -0.000013 0.014210 0.000168 -0.118801
#
#
# Mechanical properties :
#
#
# Convention : Reuss Voigt Hill
#
# Bulk Modulus (GPa) = 25.07731 45.44771 35.26251
# Shear Modulus (GPa) = 96.97820 26.30758 61.64289
#
# Velocity S-wave (km/s) = 6.49045 3.38048 5.17463
# Velocity P-wave (km/s) = 8.18908 5.91428 7.14282
#
# Compressibility (1/GPa) = 0.03987669
#
# Stress axis : x y z
#
# Youngs Moduli (GPa) = 26.72462 71.40561 163.59509
#
# Poissons Ratio (x) = 0.28450 0.71766
# Poissons Ratio (y) = 0.10648 0.07500
# Poissons Ratio (z) = 0.11724 0.03273
#
# Static dielectric constant tensor:
#      x y z
#    x 1.968050 -0.000010 0.014580 
#    y -0.000010 1.849220 0.000010 
#    z 0.014580 0.000010 1.927930 
# 
# From -- ./inp_files/353057.got.cif
#   From: 2010.05.17/outbox.cif.g08.bks.cpg/sg12_177_cif.got.tgz:353057.got - 2010.06.03 13:09:07.
