data_PCOD9174673
_publ_section_title
;
Structure prediction by ZEFSAII (Michael W. Deem and Ramdas Pophale) SiO2 
 PCOD9174673
Probable space group: C 2/M
;
_chemical_formula_sum "Si O2"
_cell_formula_units_Z 40
_cell_length_a 9.243680
_cell_length_b 28.639704
_cell_length_c 7.089409
_cell_angle_alpha 90.000000
_cell_angle_beta 82.361161
_cell_angle_gamma 90.000000
_cell_volume 1860.168047
_symmetry_space_group_name_H-M "C 2/M"
_symmetry_group_IT_number 12
_symmetry_cell_setting 'monoclinic'
loop_
_space_group_symop_operation_xyz
x,y,z
-x,y,-z
-x,-y,-z
x,-y,z
1/2+x,1/2+y,z
1/2-x,1/2+y,-z
1/2-x,1/2-y,-z
1/2+x,1/2-y,z
loop_
_atom_site_type_symbol
_atom_site_label
_atom_site_fract_x
_atom_site_fract_y
_atom_site_fract_z
Si Si1 0.807840 0.720778 0.713149
Si Si2 0.954429 0.051493 0.784911
Si Si3 0.378525 0.635523 0.178544
Si Si4 0.161009 0.597823 0.916359
Si Si5 0.878433 0.696923 0.266027
O O1 0.673398 0.684727 0.738366
O O2 0.856734 0.713153 0.487310
O O3 0.747649 0.770209 0.796122
O O4 0.951982 0.707267 0.805287
O O5 0.782330 0.063303 0.807481
O O6 0.050919 0.095683 0.700841
O O7 0.986341 0.000000 0.705024
O O8 0.000000 0.049841 0.000000
O O9 0.500000 0.644918 0.000000
O O10 0.237844 0.614383 0.097016
O O11 0.147588 0.643185 0.783467
O O12 0.000000 0.580135 0.000000
#
# Coordination Sequence:
#
# PCOD9174673 Si02
#       5
#     8   8   8   8   8
#     4  10  21  37  49  72 103 143 173 206 251 305
#     4   8  17  33  53  77 103 132 166 208 262 310
#     4   9  19  33  53  75 103 132 167 208 257 299
#     4  10  18  32  51  79 103 126 170 217 252 294
#     4  10  22  34  52  72 103 139 177 205 251 305
#
# _framework density 21.503430999999999
#
# number of rings (size 3 to 8) (size 9 to 14) (size 15 to 20)
#    0.000    3.000    2.000    0.000    5.600    2.000 
#    0.000    0.000    0.000    2.400    0.000    2.800 
#    0.000    0.000    0.000    0.000    0.000    0.000 
#
# Total GULP energy -111344.523054 kJ/mol
# GULP energy per Si atom -5567.226153 kJ/mol
# Density = 2.145449 g / cm^3
# Si number density = 21.503431 Si / 1000 Ang^3
#
#
#
# Elastic Constant Matrix: (Units=GPa)
#
#
# Indices 1 2 3 4 5 6 
#
# 1 143.4210 29.4377 16.0832 0.0000 -13.2805 0.0000
# 2 29.4377 77.9966 1.3608 0.0000 -15.9820 0.0000
# 3 16.0832 1.3608 42.6377 0.0000 4.9003 0.0000
# 4 0.0000 0.0000 0.0000 62.3086 0.0000 -2.4518
# 5 -13.2805 -15.9820 4.9003 0.0000 25.4601 0.0000
# 6 0.0000 0.0000 0.0000 -2.4518 0.0000 24.8296
#
#
#
# Elastic Compliance Matrix: (Units=1/GPa)
#
#
# Indices 1 2 3 4 5 6 
#
# 1 0.008147 -0.002308 -0.003396 0.000000 0.003455 0.000000
# 2 -0.002308 0.015470 -0.000615 0.000000 0.008626 0.000000
# 3 -0.003396 -0.000615 0.025568 0.000000 -0.007078 0.000000
# 4 0.000000 0.000000 0.000000 0.016112 0.000000 0.001591
# 5 0.003455 0.008626 -0.007078 0.000000 0.047856 0.000000
# 6 0.000000 0.000000 0.000000 0.001591 0.000000 0.040432
#
#
# Mechanical properties :
#
#
# Convention : Reuss Voigt Hill
#
# Bulk Modulus (GPa) = 27.36177 39.75762 33.55970
# Shear Modulus (GPa) = 28.02623 36.99790 32.51206
#
# Velocity S-wave (km/s) = 3.61409 4.15246 3.89260
# Velocity P-wave (km/s) = 5.49250 6.44358 5.98695
#
# Compressibility (1/GPa) = 0.03654735
#
# Stress axis : x y z
#
# Youngs Moduli (GPa) = 122.74584 64.64035 39.11186
#
# Poissons Ratio (x) = 0.14917 0.13284
# Poissons Ratio (y) = 0.28326 0.02404
# Poissons Ratio (z) = 0.41690 0.03973
#
# Static dielectric constant tensor:
#      x y z
#    x 1.846990 0.000000 0.092370 
#    y 0.000000 1.823440 0.000000 
#    z 0.092370 0.000000 1.998020 
# 
# From -- ./inp_files/40344.got.cif
#   From: 2010.05.17/outbox.cif.g08.bks.cpg/sg12_21_cif.got.tgz:40344.got - 2010.06.03 13:09:07.
