data_PCOD9174679
_publ_section_title
;
Structure prediction by ZEFSAII (Michael W. Deem and Ramdas Pophale) SiO2 
 PCOD9174679
Probable space group: C 2/M
;
_chemical_formula_sum "Si O2"
_cell_formula_units_Z 50
_cell_length_a 8.082452
_cell_length_b 18.692588
_cell_length_c 17.128924
_cell_angle_alpha 90.000000
_cell_angle_beta 113.792727
_cell_angle_gamma 90.000000
_cell_volume 2367.930280
_symmetry_space_group_name_H-M "C 2/M"
_symmetry_group_IT_number 12
_symmetry_cell_setting 'monoclinic'
loop_
_space_group_symop_operation_xyz
x,y,z
-x,y,-z
-x,-y,-z
x,-y,z
1/2+x,1/2+y,z
1/2-x,1/2+y,-z
1/2-x,1/2-y,-z
1/2+x,1/2-y,z
loop_
_atom_site_type_symbol
_atom_site_label
_atom_site_fract_x
_atom_site_fract_y
_atom_site_fract_z
Si Si1 0.629097 0.224872 0.619626
Si Si2 0.640160 0.416509 0.753219
Si Si3 0.610146 0.637464 0.417594
Si Si4 0.740765 0.679476 0.101522
Si Si5 0.422110 0.170576 0.721046
Si Si6 0.332911 0.340788 0.080004
Si Si7 0.000000 0.000000 0.500000
O O1 0.526543 0.299127 0.582952
O O2 0.504564 0.176268 0.650755
O O3 0.703897 0.179870 0.561402
O O4 0.799064 0.257375 0.702724
O O5 0.621508 0.500000 0.752905
O O6 0.458054 0.383619 0.682684
O O7 0.692673 0.387196 0.847754
O O8 0.790463 0.393966 0.717983
O O9 0.596162 0.565364 0.465257
O O10 0.911924 0.666483 0.188226
O O11 0.548087 0.664215 0.104387
O O12 0.749085 0.763713 0.083954
O O13 0.749768 0.638540 0.019946
#
# Coordination Sequence:
#
# PCOD9174679 Si02
#       7
#     8   8   8   8   8   8   2
#     4   9  19  37  64  92 113 159 206 247 277 353
#     4  11  22  38  54  79 114 160 190 244 299 368
#     4  10  21  40  66  90 123 155 201 240 297 356
#     4  10  18  32  51  83 106 143 191 258 284 334
#     4  10  18  32  57  82 113 145 203 246 287 328
#     4  10  20  31  53  77 114 144 192 240 303 333
#     4  12  24  40  64  98 128 162 180 238 312 370
#
# _framework density 21.115485
#
# number of rings (size 3 to 8) (size 9 to 14) (size 15 to 20)
#    0.000    1.920    0.800    5.760    0.000    2.560 
#    1.440    4.000    0.000    8.640    0.000    0.000 
#    0.000    0.000    0.000    0.000    0.000    0.000 
#
# Total GULP energy -139246.920894 kJ/mol
# GULP energy per Si atom -5569.876836 kJ/mol
# Density = 2.106742 g / cm^3
# Si number density = 21.115485 Si / 1000 Ang^3
#
#
#
# Elastic Constant Matrix: (Units=GPa)
#
#
# Indices 1 2 3 4 5 6 
#
# 1 77.8719 35.4672 24.2616 0.0000 -5.3675 0.0000
# 2 35.4672 131.3339 35.5062 0.0000 -19.2661 0.0000
# 3 24.2616 35.5062 89.5603 0.0000 -13.1708 0.0000
# 4 0.0000 0.0000 0.0000 -63.1551 0.0000 14.9090
# 5 -5.3675 -19.2661 -13.1708 0.0000 21.6094 0.0000
# 6 0.0000 0.0000 0.0000 14.9090 0.0000 8.3209
#
#
#
# Elastic Compliance Matrix: (Units=1/GPa)
#
#
# Indices 1 2 3 4 5 6 
#
# 1 0.015265 -0.003497 -0.002911 0.000000 -0.001100 0.000000
# 2 -0.003497 0.010127 -0.002051 0.000000 0.006910 0.000000
# 3 -0.002911 -0.002051 0.013612 0.000000 0.005745 0.000000
# 4 0.000000 0.000000 0.000000 -0.011127 0.000000 0.019937
# 5 -0.001100 0.006910 0.005745 0.000000 0.055665 0.000000
# 6 0.000000 0.000000 0.000000 0.019937 0.000000 0.084456
#
#
# Mechanical properties :
#
#
# Convention : Reuss Voigt Hill
#
# Bulk Modulus (GPa) = 45.27672 54.35956 49.81814
# Shear Modulus (GPa) = 26.00408 6.92378 16.46393
#
# Velocity S-wave (km/s) = 3.51310 1.81277 2.79536
# Velocity P-wave (km/s) = 6.15994 5.49375 5.83636
#
# Compressibility (1/GPa) = 0.02208640
#
# Stress axis : x y z
#
# Youngs Moduli (GPa) = 65.50789 98.74851 73.46327
#
# Poissons Ratio (x) = 0.34531 0.21383
# Poissons Ratio (y) = 0.22908 0.15069
# Poissons Ratio (z) = 0.19068 0.20256
#
# Static dielectric constant tensor:
#      x y z
#    x 1.807070 0.000000 0.030300 
#    y 0.000000 1.696650 0.000000 
#    z 0.030300 0.000000 1.870150 
# 
# From -- ./inp_files/256685.got.cif
#   From: 2010.05.17/outbox.cif.g08.bks.cpg/sg12_129_cif.got.tgz:256685.got - 2010.06.03 13:09:07.
