data_PCOD9174432
_publ_section_title
;
Structure prediction by ZEFSAII (Michael W. Deem and Ramdas Pophale) SiO2 
 PCOD9174432
Probable space group: C 2/M
;
_chemical_formula_sum "Si O2"
_cell_formula_units_Z 64
_cell_length_a 17.500828
_cell_length_b 15.421954
_cell_length_c 11.736854
_cell_angle_alpha 90.000000
_cell_angle_beta 90.503526
_cell_angle_gamma 90.000000
_cell_volume 3167.618941
_symmetry_space_group_name_H-M "C 2/M"
_symmetry_group_IT_number 12
_symmetry_cell_setting 'monoclinic'
loop_
_space_group_symop_operation_xyz
x,y,z
-x,y,-z
-x,-y,-z
x,-y,z
1/2+x,1/2+y,z
1/2-x,1/2+y,-z
1/2-x,1/2-y,-z
1/2+x,1/2-y,z
loop_
_atom_site_type_symbol
_atom_site_label
_atom_site_fract_x
_atom_site_fract_y
_atom_site_fract_z
Si Si1 0.310329 0.893933 0.262526
Si Si2 0.657713 0.602035 0.380652
Si Si3 0.897776 0.399746 0.052559
Si Si4 0.547925 0.150250 0.174688
Si Si5 0.151293 0.897531 0.650865
Si Si6 0.089022 0.604103 0.530291
Si Si7 0.496194 0.704461 0.639614
Si Si8 0.813721 0.600353 0.673776
O O1 0.230128 0.862816 0.312091
O O2 0.329475 0.870870 0.133649
O O3 0.377675 0.864911 0.349526
O O4 0.310315 0.000000 0.265078
O O5 0.653633 0.500000 0.357745
O O6 0.669428 0.611563 0.516177
O O7 0.577491 0.643558 0.349181
O O8 0.886586 0.500000 0.012738
O O9 0.972291 0.401239 0.135873
O O10 0.915596 0.333749 0.950342
O O11 0.521452 0.221122 0.267006
O O12 0.617711 0.101864 0.236355
O O13 0.075372 0.842846 0.672036
O O14 0.230691 0.865857 0.709021
O O15 0.136204 0.000000 0.674406
O O16 0.097734 0.500000 0.529103
O O17 0.146187 0.642316 0.436294
O O18 0.000000 0.615446 0.500000
O O19 0.500000 0.719672 0.500000
O O20 0.796975 0.500000 0.644837
#
# Coordination Sequence:
#
# PCOD9174432 Si02
#       8
#     8   8   8   8   8   8   8   8
#     4   9  16  29  52  84 109 135 182 234 279 321
#     4   9  16  33  59  86 114 144 190 241 275 327
#     4  10  21  39  63  82 104 149 200 238 274 327
#     4  11  22  37  54  81 115 149 184 233 286 342
#     4   9  17  34  60  88 116 150 193 236 278 333
#     4   9  15  23  42  78 117 140 164 217 282 336
#     4  10  22  38  55  84 117 156 191 226 288 347
#     4  10  18  31  55  85 115 146 184 232 287 338
#
# _framework density 20.204450999999999
#
# number of rings (size 3 to 8) (size 9 to 14) (size 15 to 20)
#    0.000    2.375    1.250    2.625    0.000    5.000 
#    2.250    1.875    2.750    2.250    0.000    3.500 
#    0.000    0.000    0.000    0.000    0.000    0.000 
#
# Total GULP energy -178242.239117 kJ/mol
# GULP energy per Si atom -5570.069972 kJ/mol
# Density = 2.015846 g / cm^3
# Si number density = 20.204451 Si / 1000 Ang^3
#
#
#
# Elastic Constant Matrix: (Units=GPa)
#
#
# Indices 1 2 3 4 5 6 
#
# 1 147.0100 39.5987 49.2339 0.0000 -22.8183 0.0000
# 2 39.5987 44.5188 27.0439 0.0000 -7.8588 0.0000
# 3 49.2339 27.0439 97.1121 0.0000 -25.3621 0.0000
# 4 0.0000 0.0000 0.0000 15.6324 0.0000 -9.9377
# 5 -22.8183 -7.8588 -25.3621 0.0000 27.0249 0.0000
# 6 0.0000 0.0000 0.0000 -9.9377 0.0000 -6.7240
#
#
#
# Elastic Compliance Matrix: (Units=1/GPa)
#
#
# Indices 1 2 3 4 5 6 
#
# 1 0.010041 -0.006928 -0.001952 0.000000 0.004632 0.000000
# 2 -0.006928 0.031839 -0.005913 0.000000 -0.002140 0.000000
# 3 -0.001952 -0.005913 0.015968 0.000000 0.011618 0.000000
# 4 0.000000 0.000000 0.000000 0.032982 0.000000 -0.048745
# 5 0.004632 -0.002140 0.011618 0.000000 0.051194 0.000000
# 6 0.000000 0.000000 0.000000 -0.048745 0.000000 -0.076679
#
#
# Mechanical properties :
#
#
# Convention : Reuss Voigt Hill
#
# Bulk Modulus (GPa) = 35.38303 57.82155 46.60229
# Shear Modulus (GPa) = 47.91494 18.70428 33.30961
#
# Velocity S-wave (km/s) = 4.87509 3.04592 4.06473
# Velocity P-wave (km/s) = 7.01707 6.40707 6.71899
#
# Compressibility (1/GPa) = 0.02826213
#
# Stress axis : x y z
#
# Youngs Moduli (GPa) = 99.59251 31.40789 62.62663
#
# Poissons Ratio (x) = 0.21760 0.12222
# Poissons Ratio (y) = 0.68999 0.37032
# Poissons Ratio (z) = 0.19436 0.18572
#
# Static dielectric constant tensor:
#      x y z
#    x 1.744560 0.000000 -0.012530 
#    y 0.000000 1.750250 0.000000 
#    z -0.012530 0.000000 1.755250 
# 
# From -- ./inp_files/156660.got.cif
#   From: 2010.05.17/outbox.cif.g08.bks.cpg/sg12_79_cif.got.tgz:156660.got - 2010.06.03 13:09:07.
