data_PCOD9174500
_publ_section_title
;
Structure prediction by ZEFSAII (Michael W. Deem and Ramdas Pophale) SiO2 
 PCOD9174500
Probable space group: C 2/M
;
_chemical_formula_sum "Si O2"
_cell_formula_units_Z 56
_cell_length_a 16.542888
_cell_length_b 21.751491
_cell_length_c 8.970686
_cell_angle_alpha 90.000000
_cell_angle_beta 57.498949
_cell_angle_gamma 90.000000
_cell_volume 2722.388699
_symmetry_space_group_name_H-M "C 2/M"
_symmetry_group_IT_number 12
_symmetry_cell_setting 'monoclinic'
loop_
_space_group_symop_operation_xyz
x,y,z
-x,y,-z
-x,-y,-z
x,-y,z
1/2+x,1/2+y,z
1/2-x,1/2+y,-z
1/2-x,1/2-y,-z
1/2+x,1/2-y,z
loop_
_atom_site_type_symbol
_atom_site_label
_atom_site_fract_x
_atom_site_fract_y
_atom_site_fract_z
Si Si1 0.971290 0.198030 0.752606
Si Si2 0.825169 0.376549 0.972479
Si Si3 0.846925 0.870378 0.433735
Si Si4 0.024772 0.328779 0.798836
Si Si5 0.705787 0.722460 0.278561
Si Si6 0.327767 0.067309 0.281631
Si Si7 0.689095 0.348896 0.865016
O O1 0.032681 0.258752 0.735260
O O2 0.897900 0.215657 0.694729
O O3 0.041770 0.142080 0.644410
O O4 0.903514 0.177427 0.956922
O O5 0.777673 0.317222 0.102737
O O6 0.837350 0.424664 0.093874
O O7 0.930201 0.356994 0.815322
O O8 0.750878 0.391251 0.915384
O O9 0.797699 0.810171 0.558535
O O10 0.784210 0.923504 0.570074
O O11 0.837700 0.876255 0.266487
O O12 0.111223 0.377422 0.703551
O O13 0.000000 0.325076 0.000000
O O14 0.742594 0.791028 0.238769
O O15 0.361799 0.000000 0.293801
#
# Coordination Sequence:
#
# PCOD9174500 Si02
#       7
#     8   8   8   8   8   8   8
#     4  11  20  34  57  89 126 151 185 231 288 368
#     4   9  18  35  59  82 112 153 191 233 290 347
#     4  11  24  34  56  87 122 158 194 229 300 350
#     4  10  18  31  57  87 112 149 189 235 294 346
#     4  10  19  34  53  86 127 157 175 222 292 364
#     4  10  24  42  58  78 113 158 213 254 281 330
#     4  11  19  35  56  89 123 151 180 232 296 361
#
# _framework density 20.570170000000001
#
# number of rings (size 3 to 8) (size 9 to 14) (size 15 to 20)
#    0.000    1.714    2.857    3.000    6.000    2.571 
#    0.000    1.429    0.000   18.000    0.000    0.000 
#    0.000    0.000    0.000    0.000    0.000    0.000 
#
# Total GULP energy -156251.138707 kJ/mol
# GULP energy per Si atom -5580.397811 kJ/mol
# Density = 2.052335 g / cm^3
# Si number density = 20.570170 Si / 1000 Ang^3
#
#
#
# Elastic Constant Matrix: (Units=GPa)
#
#
# Indices 1 2 3 4 5 6 
#
# 1 89.9625 25.8138 14.9080 0.0000 -14.7957 0.0000
# 2 25.8138 48.8504 8.2239 0.0000 -8.6038 0.0000
# 3 14.9080 8.2239 55.6000 0.0000 -0.2479 0.0000
# 4 0.0000 0.0000 0.0000 6.4397 0.0000 4.3357
# 5 -14.7957 -8.6038 -0.2479 0.0000 30.3122 0.0000
# 6 0.0000 0.0000 0.0000 4.3357 0.0000 6.2123
#
#
#
# Elastic Compliance Matrix: (Units=1/GPa)
#
#
# Indices 1 2 3 4 5 6 
#
# 1 0.014196 -0.006105 -0.002880 0.000000 0.005173 0.000000
# 2 -0.006105 0.024744 -0.002005 0.000000 0.004027 0.000000
# 3 -0.002880 -0.002005 0.019046 0.000000 -0.001819 0.000000
# 4 0.000000 0.000000 0.000000 0.292939 0.000000 -0.204449
# 5 0.005173 0.004027 -0.001819 0.000000 0.036643 0.000000
# 6 0.000000 0.000000 0.000000 -0.204449 0.000000 0.303660
#
#
# Mechanical properties :
#
#
# Convention : Reuss Voigt Hill
#
# Bulk Modulus (GPa) = 27.77422 32.47828 30.12625
# Shear Modulus (GPa) = 6.89456 18.29064 12.59260
#
# Velocity S-wave (km/s) = 1.83276 2.98515 2.47691
# Velocity P-wave (km/s) = 4.24384 5.26353 4.78095
#
# Compressibility (1/GPa) = 0.03600462
#
# Stress axis : x y z
#
# Youngs Moduli (GPa) = 70.44429 40.41444 52.50368
#
# Poissons Ratio (x) = 0.24675 0.15122
# Poissons Ratio (y) = 0.43009 0.10526
# Poissons Ratio (z) = 0.20289 0.08103
#
# Static dielectric constant tensor:
#      x y z
#    x 1.793180 0.000000 -0.007450 
#    y 0.000000 1.728900 0.000000 
#    z -0.007450 0.000000 1.776140 
# 
# From -- ./inp_files/77339.got.cif
#   From: 2010.05.17/outbox.cif.g08.bks.cpg/sg12_39_cif.got.tgz:77339.got - 2010.06.03 13:09:07.
