data_PCOD9174513
_publ_section_title
;
Structure prediction by ZEFSAII (Michael W. Deem and Ramdas Pophale) SiO2 
 PCOD9174513
Probable space group: C 2/M
;
_chemical_formula_sum "Si O2"
_cell_formula_units_Z 64
_cell_length_a 15.415150
_cell_length_b 28.428992
_cell_length_c 12.290341
_cell_angle_alpha 90.000000
_cell_angle_beta 145.127181
_cell_angle_gamma 90.000000
_cell_volume 3079.529969
_symmetry_space_group_name_H-M "C 2/M"
_symmetry_group_IT_number 12
_symmetry_cell_setting 'monoclinic'
loop_
_space_group_symop_operation_xyz
x,y,z
-x,y,-z
-x,-y,-z
x,-y,z
1/2+x,1/2+y,z
1/2-x,1/2+y,-z
1/2-x,1/2-y,-z
1/2+x,1/2-y,z
loop_
_atom_site_type_symbol
_atom_site_label
_atom_site_fract_x
_atom_site_fract_y
_atom_site_fract_z
Si Si1 0.332447 0.820330 0.376511
Si Si2 0.657052 0.366124 0.010672
Si Si3 0.352888 0.844117 0.639874
Si Si4 0.112437 0.551037 0.714416
Si Si5 0.689704 0.201492 0.995815
Si Si6 0.165745 0.790469 0.625698
Si Si7 0.356362 0.948866 0.621552
Si Si8 0.551948 0.447888 0.179566
O O1 0.500000 0.832482 0.500000
O O2 0.194648 0.831863 0.151626
O O3 0.311123 0.845086 0.469507
O O4 0.340650 0.764800 0.407119
O O5 0.771750 0.407860 0.156403
O O6 0.708567 0.337989 0.958173
O O7 0.508293 0.397401 0.839808
O O8 0.514434 0.815601 0.804665
O O9 0.232010 0.817474 0.590527
O O10 0.356928 0.898721 0.682471
O O11 0.183132 0.500000 0.767704
O O12 0.000000 0.559265 0.500000
O O13 0.015662 0.549938 0.724007
O O14 0.750000 0.250000 0.000000
O O15 0.723455 0.204312 0.157634
O O16 0.000000 0.805029 0.500000
O O17 0.227825 0.948097 0.394605
O O18 0.336021 0.000000 0.658061
O O19 0.499411 0.500000 0.168154
O O20 0.500000 0.446947 0.000000
#
# Coordination Sequence:
#
# PCOD9174513 Si02
#       8
#     8   8   8   8   8   8   8   8
#     4  11  20  40  62  96 132 171 211 264 322 391
#     4  12  21  36  64  91 135 166 216 258 328 390
#     4  12  23  43  71  95 131 176 220 270 334 387
#     4  10  18  31  57  90 124 165 208 253 315 391
#     4  12  24  45  65  94 134 172 212 279 324 388
#     4  11  26  45  66  94 129 174 229 275 324 389
#     4  10  21  38  59  89 127 167 216 271 325 388
#     4  10  21  36  54  89 136 173 209 261 324 395
#
# _framework density 20.782392000000002
#
# number of rings (size 3 to 8) (size 9 to 14) (size 15 to 20)
#    0.000    1.000    3.750    4.500    1.750    2.000 
#    2.250    0.000    0.000    3.375    0.000    0.000 
#    0.000    0.000    0.000    0.000    0.000    0.000 
#
# Total GULP energy -178487.572277 kJ/mol
# GULP energy per Si atom -5577.736634 kJ/mol
# Density = 2.073509 g / cm^3
# Si number density = 20.782392 Si / 1000 Ang^3
#
#
#
# Elastic Constant Matrix: (Units=GPa)
#
#
# Indices 1 2 3 4 5 6 
#
# 1 91.7574 58.6587 7.9768 0.0000 8.9596 0.0000
# 2 58.6587 158.3048 4.5672 0.0000 12.1636 0.0000
# 3 7.9768 4.5672 40.5779 0.0000 10.2264 0.0000
# 4 0.0000 0.0000 0.0000 142.9747 0.0000 267.1820
# 5 8.9596 12.1636 10.2264 0.0000 27.7354 0.0000
# 6 0.0000 0.0000 0.0000 267.1820 0.0000 648.4880
#
#
#
# Elastic Compliance Matrix: (Units=1/GPa)
#
#
# Indices 1 2 3 4 5 6 
#
# 1 0.014557 -0.005207 -0.001837 0.000000 -0.001742 0.000000
# 2 -0.005207 0.008400 0.000642 0.000000 -0.002239 0.000000
# 3 -0.001837 0.000642 0.027400 0.000000 -0.009791 0.000000
# 4 0.000000 0.000000 0.000000 0.030401 0.000000 -0.012525
# 5 -0.001742 -0.002239 -0.009791 0.000000 0.041209 0.000000
# 6 0.000000 0.000000 0.000000 -0.012525 0.000000 0.006703
#
#
# Mechanical properties :
#
#
# Convention : Reuss Voigt Hill
#
# Bulk Modulus (GPa) = 26.62814 48.11616 37.37215
# Shear Modulus (GPa) = 32.46946 178.46879 105.46913
#
# Velocity S-wave (km/s) = 3.95695 9.27693 7.13158
# Velocity P-wave (km/s) = 5.80666 11.74526 9.26468
#
# Compressibility (1/GPa) = 0.03755425
#
# Stress axis : x y z
#
# Youngs Moduli (GPa) = 68.69628 119.04961 36.49597
#
# Poissons Ratio (x) = 0.61991 0.06703
# Poissons Ratio (y) = 0.35771 -0.02344
# Poissons Ratio (z) = 0.12617 -0.07647
#
# Static dielectric constant tensor:
#      x y z
#    x 1.749220 0.000000 0.060650 
#    y 0.000000 1.829780 0.000000 
#    z 0.060650 0.000000 1.891730 
# 
# From -- ./inp_files/149779.got.cif
#   From: 2010.05.17/outbox.cif.g08.bks.cpg/sg12_75_cif.got.tgz:149779.got - 2010.06.03 13:09:07.
