data_PCOD9174777
_publ_section_title
;
Structure prediction by ZEFSAII (Michael W. Deem and Ramdas Pophale) SiO2 
 PCOD9174777
Probable space group: C 2/M
;
_chemical_formula_sum "Si O2"
_cell_formula_units_Z 64
_cell_length_a 20.367937
_cell_length_b 19.482793
_cell_length_c 9.909586
_cell_angle_alpha 90.000000
_cell_angle_beta 95.088872
_cell_angle_gamma 90.000000
_cell_volume 3916.864377
_symmetry_space_group_name_H-M "C 2/M"
_symmetry_group_IT_number 12
_symmetry_cell_setting 'monoclinic'
loop_
_space_group_symop_operation_xyz
x,y,z
-x,y,-z
-x,-y,-z
x,-y,z
1/2+x,1/2+y,z
1/2-x,1/2+y,-z
1/2-x,1/2-y,-z
1/2+x,1/2-y,z
loop_
_atom_site_type_symbol
_atom_site_label
_atom_site_fract_x
_atom_site_fract_y
_atom_site_fract_z
Si Si1 0.717095 0.778731 0.856696
Si Si2 0.636710 0.576489 0.271488
Si Si3 0.755745 0.923469 0.938553
Si Si4 0.816415 0.272082 0.639141
Si Si5 0.565447 0.715467 0.194916
Si Si6 0.082491 0.205719 0.876552
Si Si7 0.708106 0.640588 0.529152
Si Si8 0.845249 0.919713 0.204699
O O1 0.713532 0.860451 0.876418
O O2 0.765439 0.758064 0.742961
O O3 0.645361 0.745882 0.830111
O O4 0.750000 0.750000 0.000000
O O5 0.608488 0.500000 0.284947
O O6 0.678420 0.577176 0.141216
O O7 0.586466 0.640032 0.254145
O O8 0.689181 0.592882 0.399751
O O9 0.726869 0.000000 0.924366
O O10 0.782055 0.910618 0.094478
O O11 0.887328 0.269923 0.722433
O O12 0.784121 0.342109 0.579111
O O13 0.818144 0.215864 0.519963
O O14 0.487860 0.726876 0.195342
O O15 0.580807 0.715719 0.037712
O O16 0.096753 0.126237 0.846210
O O17 0.673385 0.609183 0.652853
O O18 0.860843 0.000000 0.211481
#
# Coordination Sequence:
#
# PCOD9174777 Si02
#       8
#     8   8   8   8   8   8   8   8
#     4  12  16  32  56  77  98 134 172 226 263 302
#     4  10  18  33  51  72 105 143 173 206 256 316
#     4  10  19  31  51  78 102 128 171 218 264 306
#     4  10  18  32  53  72 102 135 175 219 272 300
#     4  10  20  34  48  79 106 139 173 222 260 318
#     4  11  21  31  53  78 107 137 184 216 264 312
#     4  10  19  31  51  76  98 137 178 220 255 306
#     4  11  20  32  48  76 108 138 174 216 256 306
#
# _framework density 16.339600999999998
#
# number of rings (size 3 to 8) (size 9 to 14) (size 15 to 20)
#    0.000    1.500    7.500    0.375    0.000    0.500 
#    0.000    3.750    0.000    3.750    0.000    3.500 
#    0.000    2.000    0.000    0.000    0.000    0.000 
#
# Total GULP energy -178331.109403 kJ/mol
# GULP energy per Si atom -5572.847169 kJ/mol
# Density = 1.630241 g / cm^3
# Si number density = 16.339601 Si / 1000 Ang^3
#
#
#
# Elastic Constant Matrix: (Units=GPa)
#
#
# Indices 1 2 3 4 5 6 
#
# 1 95.5546 26.6014 17.8098 0.0000 18.7528 0.0000
# 2 26.6014 44.7306 7.5713 0.0000 5.2800 0.0000
# 3 17.8098 7.5713 73.8474 0.0000 9.6068 0.0000
# 4 0.0000 0.0000 0.0000 21.0175 0.0000 2.3403
# 5 18.7528 5.2800 9.6068 0.0000 21.1554 0.0000
# 6 0.0000 0.0000 0.0000 2.3403 0.0000 17.7381
#
#
#
# Elastic Compliance Matrix: (Units=1/GPa)
#
#
# Indices 1 2 3 4 5 6 
#
# 1 0.014878 -0.007340 -0.001443 0.000000 -0.010701 0.000000
# 2 -0.007340 0.026863 -0.001018 0.000000 0.000265 0.000000
# 3 -0.001443 -0.001018 0.014661 0.000000 -0.005124 0.000000
# 4 0.000000 0.000000 0.000000 0.048289 0.000000 -0.006371
# 5 -0.010701 0.000265 -0.005124 0.000000 0.059015 0.000000
# 6 0.000000 0.000000 0.000000 -0.006371 0.000000 0.057216
#
#
# Mechanical properties :
#
#
# Convention : Reuss Voigt Hill
#
# Bulk Modulus (GPa) = 27.17648 35.34417 31.26033
# Shear Modulus (GPa) = 19.77919 22.79222 21.28571
#
# Velocity S-wave (km/s) = 3.48301 3.73890 3.61322
# Velocity P-wave (km/s) = 5.73093 6.34957 6.04816
#
# Compressibility (1/GPa) = 0.03679652
#
# Stress axis : x y z
#
# Youngs Moduli (GPa) = 67.21433 37.22657 68.21047
#
# Poissons Ratio (x) = 0.27326 0.09846
# Poissons Ratio (y) = 0.49338 0.06946
# Poissons Ratio (z) = 0.09702 0.03791
#
# Static dielectric constant tensor:
#      x y z
#    x 1.539140 0.000000 0.017770 
#    y 0.000000 1.574330 0.000000 
#    z 0.017770 0.000000 1.580620 
# 
# From -- ./inp_files/89179.got.cif
#   From: 2010.05.17/outbox.cif.g08.bks.cpg/sg12_45_cif.got.tgz:89179.got - 2010.06.03 13:09:07.
