data_PCOD9174039
_publ_section_title
;
Structure prediction by ZEFSAII (Michael W. Deem and Ramdas Pophale) SiO2 
 PCOD9174039
Probable space group: C 2/M
;
_chemical_formula_sum "Si O2"
_cell_formula_units_Z 64
_cell_length_a 14.749741
_cell_length_b 8.704943
_cell_length_c 30.784188
_cell_angle_alpha 90.000000
_cell_angle_beta 127.504640
_cell_angle_gamma 90.000000
_cell_volume 3135.578614
_symmetry_space_group_name_H-M "C 2/M"
_symmetry_group_IT_number 12
_symmetry_cell_setting 'monoclinic'
loop_
_space_group_symop_operation_xyz
x,y,z
-x,y,-z
-x,-y,-z
x,-y,z
1/2+x,1/2+y,z
1/2-x,1/2+y,-z
1/2-x,1/2-y,-z
1/2+x,1/2-y,z
loop_
_atom_site_type_symbol
_atom_site_label
_atom_site_fract_x
_atom_site_fract_y
_atom_site_fract_z
Si Si1 0.176861 0.683241 0.299308
Si Si2 0.054746 0.184052 0.752655
Si Si3 0.643662 0.185084 0.495568
Si Si4 0.522639 0.318322 0.099307
Si Si5 0.845954 0.815342 0.126967
Si Si6 0.113472 0.685216 0.587560
Si Si7 0.293082 0.183597 0.788156
Si Si8 0.837850 0.684914 0.989310
O O1 0.180891 0.500000 0.299572
O O2 0.292912 0.745795 0.353385
O O3 0.161993 0.739548 0.245184
O O4 0.065478 0.739589 0.292363
O O5 0.104256 0.243398 0.813383
O O6 0.158086 0.214320 0.750126
O O7 0.037958 0.000000 0.750504
O O8 0.750000 0.250000 0.500000
O O9 0.644879 0.228112 0.546976
O O10 0.517687 0.233431 0.441988
O O11 0.647701 0.000000 0.494783
O O12 0.527076 0.500000 0.094069
O O13 0.436707 0.285825 0.115003
O O14 0.641808 0.255549 0.152019
O O15 0.462075 0.241681 0.040176
O O16 0.722174 0.762626 0.073109
O O17 0.837064 0.000000 0.129402
O O18 0.117118 0.500000 0.591076
O O19 0.309214 0.000000 0.796160
O O20 0.836579 0.500000 0.990214
O O21 0.750000 0.750000 0.000000
#
# Coordination Sequence:
#
# PCOD9174039 Si02
#       8
#     8   8   8   8   8   8   8   8
#     4  11  23  38  56  85 117 146 187 240 284 320
#     4  10  20  38  59  78 105 147 189 228 281 345
#     4   9  19  37  62  91 122 155 194 231 273 321
#     4  10  18  31  52  76 102 137 181 224 278 344
#     4   8  15  29  51  75  97 132 180 221 266 336
#     4   9  20  39  60  84 117 160 196 224 268 334
#     4  10  22  37  55  79 108 142 184 233 285 334
#     4   9  16  27  46  75 104 132 174 225 279 339
#
# _framework density 20.410905
#
# number of rings (size 3 to 8) (size 9 to 14) (size 15 to 20)
#    0.000    2.500    1.250    2.625    0.000    3.000 
#    0.000    6.250    0.000    3.750    0.000    0.000 
#    0.000    0.000    0.000    0.000    0.000    0.000 
#
# Total GULP energy -178554.696540 kJ/mol
# GULP energy per Si atom -5579.834267 kJ/mol
# Density = 2.036445 g / cm^3
# Si number density = 20.410905 Si / 1000 Ang^3
#
#
#
# Elastic Constant Matrix: (Units=GPa)
#
#
# Indices 1 2 3 4 5 6 
#
# 1 83.7681 30.6950 43.8143 0.0000 26.6426 0.0000
# 2 30.6950 26.0723 20.5436 0.0000 10.0853 0.0000
# 3 43.8143 20.5436 102.3979 0.0000 34.3216 0.0000
# 4 0.0000 0.0000 0.0000 31.0390 0.0000 8.1614
# 5 26.6426 10.0853 34.3216 0.0000 26.6746 0.0000
# 6 0.0000 0.0000 0.0000 8.1614 0.0000 22.1096
#
#
#
# Elastic Compliance Matrix: (Units=1/GPa)
#
#
# Indices 1 2 3 4 5 6 
#
# 1 0.026359 -0.024014 -0.001195 0.000000 -0.015710 0.000000
# 2 -0.024014 0.068879 -0.005019 0.000000 0.004400 0.000000
# 3 -0.001195 -0.005019 0.018019 0.000000 -0.020094 0.000000
# 4 0.000000 0.000000 0.000000 0.035681 0.000000 -0.013171
# 5 -0.015710 0.004400 -0.020094 0.000000 0.077371 0.000000
# 6 0.000000 0.000000 0.000000 -0.013171 0.000000 0.050091
#
#
# Mechanical properties :
#
#
# Convention : Reuss Voigt Hill
#
# Bulk Modulus (GPa) = 18.93870 44.70490 31.82180
# Shear Modulus (GPa) = 14.10620 23.77699 18.94159
#
# Velocity S-wave (km/s) = 2.63175 3.41679 3.04964
# Velocity P-wave (km/s) = 4.30508 6.12503 5.29385
#
# Compressibility (1/GPa) = 0.05280193
#
# Stress axis : x y z
#
# Youngs Moduli (GPa) = 37.93809 14.51827 55.49714
#
# Poissons Ratio (x) = 0.34864 0.06631
# Poissons Ratio (y) = 0.91103 0.27852
# Poissons Ratio (z) = 0.04533 0.07286
#
# Static dielectric constant tensor:
#      x y z
#    x 1.762180 0.000000 -0.000100 
#    y 0.000000 1.685420 0.000000 
#    z -0.000100 0.000000 1.736510 
# 
# From -- ./inp_files/375676.got.cif
#   From: 2010.05.17/outbox.cif.g08.bks.cpg/sg12_188_cif.got.tgz:375676.got - 2010.06.03 13:09:07.
