data_PCOD9174806
_publ_section_title
;
Structure prediction by ZEFSAII (Michael W. Deem and Ramdas Pophale) SiO2 
 PCOD9174806
Probable space group: C 2/M
;
_chemical_formula_sum "Si O2"
_cell_formula_units_Z 48
_cell_length_a 16.081815
_cell_length_b 8.650217
_cell_length_c 14.123634
_cell_angle_alpha 90.000000
_cell_angle_beta 90.887231
_cell_angle_gamma 90.000000
_cell_volume 1964.519968
_symmetry_space_group_name_H-M "C 2/M"
_symmetry_group_IT_number 12
_symmetry_cell_setting 'monoclinic'
loop_
_space_group_symop_operation_xyz
x,y,z
-x,y,-z
-x,-y,-z
x,-y,z
1/2+x,1/2+y,z
1/2-x,1/2+y,-z
1/2-x,1/2-y,-z
1/2+x,1/2-y,z
loop_
_atom_site_type_symbol
_atom_site_label
_atom_site_fract_x
_atom_site_fract_y
_atom_site_fract_z
Si Si1 0.321286 0.318983 0.103876
Si Si2 0.329395 0.684600 0.443046
Si Si3 0.919168 0.680736 0.610568
Si Si4 0.085369 0.324796 0.063510
Si Si5 0.008623 0.176339 0.772778
Si Si6 0.236354 0.183977 0.276122
O O1 0.305227 0.500000 0.087105
O O2 0.406154 0.307967 0.167967
O O3 0.253335 0.242336 0.170649
O O4 0.344119 0.233231 0.007092
O O5 0.325233 0.500000 0.432536
O O6 0.250000 0.750000 0.500000
O O7 0.405906 0.730960 0.511461
O O8 0.315122 0.764467 0.342004
O O9 0.915450 0.500000 0.590590
O O10 0.995956 0.720889 0.679785
O O11 0.841216 0.732728 0.675152
O O12 0.101038 0.500000 0.096563
O O13 0.062163 0.216936 0.151002
O O14 0.000000 0.327962 0.000000
O O15 0.999893 0.000000 0.740943
O O16 0.226007 0.000000 0.279734
#
# Coordination Sequence:
#
# PCOD9174806 Si02
#       6
#     8   8   8   8   8   8
#     4  10  20  35  55  79 107 139 175 215 260 309
#     4  10  18  32  53  76 103 136 175 213 255 309
#     4  11  21  35  55  79 107 138 175 216 260 309
#     4   9  17  31  52  77 104 137 176 213 253 307
#     4  10  20  35  55  79 107 139 175 215 260 309
#     4  11  21  35  55  79 107 138 175 216 260 309
#
# _framework density 24.433451999999999
#
# number of rings (size 3 to 8) (size 9 to 14) (size 15 to 20)
#    0.000    1.833    0.000    8.000    0.000    4.000 
#    0.000    1.667    0.000    5.000    0.000    0.000 
#    0.000    0.000    0.000    0.000    0.000    0.000 
#
# Total GULP energy -134410.711217 kJ/mol
# GULP energy per Si atom -5600.446301 kJ/mol
# Density = 2.437784 g / cm^3
# Si number density = 24.433452 Si / 1000 Ang^3
#
#
#
# Elastic Constant Matrix: (Units=GPa)
#
#
# Indices 1 2 3 4 5 6 
#
# 1 88.6889 -2.3671 8.1817 0.0000 -1.2778 0.0000
# 2 -2.3671 117.2032 5.6125 0.0000 4.7372 0.0000
# 3 8.1817 5.6125 110.6198 0.0000 -0.7713 0.0000
# 4 0.0000 0.0000 0.0000 37.0425 0.0000 9.8334
# 5 -1.2778 4.7372 -0.7713 0.0000 45.6153 0.0000
# 6 0.0000 0.0000 0.0000 9.8334 0.0000 12.4139
#
#
#
# Elastic Compliance Matrix: (Units=1/GPa)
#
#
# Indices 1 2 3 4 5 6 
#
# 1 0.011365 0.000259 -0.000852 0.000000 0.000277 0.000000
# 2 0.000259 0.008596 -0.000462 0.000000 -0.000893 0.000000
# 3 -0.000852 -0.000462 0.009128 0.000000 0.000178 0.000000
# 4 0.000000 0.000000 0.000000 0.034184 0.000000 -0.027078
# 5 0.000277 -0.000893 0.000178 0.000000 0.022026 0.000000
# 6 0.000000 0.000000 0.000000 -0.027078 0.000000 0.102004
#
#
# Mechanical properties :
#
#
# Convention : Reuss Voigt Hill
#
# Bulk Modulus (GPa) = 37.06481 37.70735 37.38608
# Shear Modulus (GPa) = 25.20110 39.35335 32.27723
#
# Velocity S-wave (km/s) = 3.21505 4.01762 3.63854
# Velocity P-wave (km/s) = 5.38375 6.08177 5.74337
#
# Compressibility (1/GPa) = 0.02697977
#
# Stress axis : x y z
#
# Youngs Moduli (GPa) = 87.99060 116.33826 109.55748
#
# Poissons Ratio (x) = -0.03015 0.09332
# Poissons Ratio (y) = -0.02280 0.05056
# Poissons Ratio (z) = 0.07495 0.05369
#
# Static dielectric constant tensor:
#      x y z
#    x 2.028970 0.000000 0.158630 
#    y 0.000000 1.821300 0.000000 
#    z 0.158630 0.000000 1.742600 
# 
# From -- ./inp_files/221612.got.cif
#   From: 2010.05.17/outbox.cif.g08.bks.cpg/sg12_111_cif.got.tgz:221612.got - 2010.06.03 13:09:07.
