data_PCOD9174453
_publ_section_title
;
Structure prediction by ZEFSAII (Michael W. Deem and Ramdas Pophale) SiO2 
 PCOD9174453
Probable space group: C 2/M
;
_chemical_formula_sum "Si O2"
_cell_formula_units_Z 56
_cell_length_a 28.591537
_cell_length_b 18.769939
_cell_length_c 9.242230
_cell_angle_alpha 90.000000
_cell_angle_beta 146.708256
_cell_angle_gamma 90.000000
_cell_volume 2722.527325
_symmetry_space_group_name_H-M "C 2/M"
_symmetry_group_IT_number 12
_symmetry_cell_setting 'monoclinic'
loop_
_space_group_symop_operation_xyz
x,y,z
-x,y,-z
-x,-y,-z
x,-y,z
1/2+x,1/2+y,z
1/2-x,1/2+y,-z
1/2-x,1/2-y,-z
1/2+x,1/2-y,z
loop_
_atom_site_type_symbol
_atom_site_label
_atom_site_fract_x
_atom_site_fract_y
_atom_site_fract_z
Si Si1 0.689091 0.578300 0.051316
Si Si2 0.872941 0.626039 0.606242
Si Si3 0.968184 0.416935 0.141216
Si Si4 0.846014 0.920683 0.705473
Si Si5 0.093604 0.221546 0.288200
Si Si6 0.190322 0.417593 0.091892
Si Si7 0.804977 0.818745 0.182845
O O1 0.668698 0.500000 0.939611
O O2 0.790456 0.586670 0.335781
O O3 0.653250 0.583938 0.120217
O O4 0.663260 0.639626 0.875223
O O5 0.850429 0.707317 0.592955
O O6 0.945123 0.625270 0.667449
O O7 0.914583 0.589023 0.853157
O O8 0.989181 0.500000 0.219881
O O9 0.903552 0.393079 0.100524
O O10 0.890074 0.850775 0.756940
O O11 0.750918 0.917509 0.391476
O O12 0.879360 0.000000 0.749754
O O13 0.116464 0.201419 0.511043
O O14 0.000000 0.245467 0.000000
O O15 0.184319 0.500000 0.027879
O O16 0.240830 0.370192 0.107340
O O17 0.750000 0.750000 0.000000
#
# Coordination Sequence:
#
# PCOD9174453 Si02
#       7
#     8   8   8   8   8   8   8
#     4  11  21  38  62  89 121 155 198 251 302 357
#     4  11  19  32  56  90 124 155 189 236 300 356
#     4  10  18  31  55  89 122 155 195 239 288 356
#     4   9  20  37  61  89 112 153 210 254 297 353
#     4  11  23  41  62  86 123 157 201 247 302 355
#     4   9  18  35  58  86 119 156 201 244 290 356
#     4  11  23  39  59  87 120 160 199 246 298 354
#
# _framework density 20.569123999999999
#
# number of rings (size 3 to 8) (size 9 to 14) (size 15 to 20)
#    0.000    1.714    4.286    2.143    0.000    2.571 
#    0.000    1.429    0.000    4.286    0.000    0.000 
#    0.000    0.000    0.000    0.000    0.000    0.000 
#
# Total GULP energy -156207.107419 kJ/mol
# GULP energy per Si atom -5578.825265 kJ/mol
# Density = 2.052231 g / cm^3
# Si number density = 20.569124 Si / 1000 Ang^3
#
#
#
# Elastic Constant Matrix: (Units=GPa)
#
#
# Indices 1 2 3 4 5 6 
#
# 1 32.3296 19.8735 -1.3221 0.0000 -12.4025 0.0000
# 2 19.8735 113.9951 6.6718 0.0000 -19.9377 0.0000
# 3 -1.3221 6.6718 45.9463 0.0000 -15.3708 0.0000
# 4 0.0000 0.0000 0.0000 24.0188 0.0000 -14.8760
# 5 -12.4025 -19.9377 -15.3708 0.0000 20.1406 0.0000
# 6 0.0000 0.0000 0.0000 -14.8760 0.0000 -57.8647
#
#
#
# Elastic Compliance Matrix: (Units=1/GPa)
#
#
# Indices 1 2 3 4 5 6 
#
# 1 0.047550 -0.002530 0.014360 0.000000 0.037735 0.000000
# 2 -0.002530 0.010990 0.001947 0.000000 0.010806 0.000000
# 3 0.014360 0.001947 0.034240 0.000000 0.036900 0.000000
# 4 0.000000 0.000000 0.000000 0.035915 0.000000 -0.009233
# 5 0.037735 0.010806 0.036900 0.000000 0.111747 0.000000
# 6 0.000000 0.000000 0.000000 -0.009233 0.000000 -0.014908
#
#
# Mechanical properties :
#
#
# Convention : Reuss Voigt Hill
#
# Bulk Modulus (GPa) = 8.31039 26.96859 17.63949
# Shear Modulus (GPa) = 21.00022 8.39546 14.69784
#
# Velocity S-wave (km/s) = 3.19871 2.02248 2.67602
# Velocity P-wave (km/s) = 4.20611 4.31203 4.25940
#
# Compressibility (1/GPa) = 0.12033128
#
# Stress axis : x y z
#
# Youngs Moduli (GPa) = 21.03031 90.99588 29.20594
#
# Poissons Ratio (x) = 0.23024 -0.41939
# Poissons Ratio (y) = 0.05321 -0.05685
# Poissons Ratio (z) = -0.30199 -0.17713
#
# Static dielectric constant tensor:
#      x y z
#    x 1.758710 0.000000 0.004030 
#    y 0.000000 1.749380 0.000000 
#    z 0.004030 0.000000 1.725450 
# 
# From -- ./inp_files/98059.got.cif
#   From: 2010.05.17/outbox.cif.g08.bks.cpg/sg12_50_cif.got.tgz:98059.got - 2010.06.03 13:09:07.
