data_PCOD9174867
_publ_section_title
;
Structure prediction by ZEFSAII (Michael W. Deem and Ramdas Pophale) SiO2 
 PCOD9174867
Probable space group: C 2/M
;
_chemical_formula_sum "Si O2"
_cell_formula_units_Z 64
_cell_length_a 16.397345
_cell_length_b 22.654231
_cell_length_c 15.875767
_cell_angle_alpha 90.000000
_cell_angle_beta 143.475008
_cell_angle_gamma 90.000000
_cell_volume 3509.951084
_symmetry_space_group_name_H-M "C 2/M"
_symmetry_group_IT_number 12
_symmetry_cell_setting 'monoclinic'
loop_
_space_group_symop_operation_xyz
x,y,z
-x,y,-z
-x,-y,-z
x,-y,z
1/2+x,1/2+y,z
1/2-x,1/2+y,-z
1/2-x,1/2-y,-z
1/2+x,1/2-y,z
loop_
_atom_site_type_symbol
_atom_site_label
_atom_site_fract_x
_atom_site_fract_y
_atom_site_fract_z
Si Si1 0.509255 0.637786 0.415368
Si Si2 0.090846 0.066921 0.323139
Si Si3 0.068876 0.106190 0.967632
Si Si4 0.236850 0.763732 0.588134
Si Si5 0.657035 0.866340 0.545660
Si Si6 0.181063 0.766212 0.814354
Si Si7 0.960396 0.760200 0.119176
Si Si8 0.352614 0.130985 0.268775
O O1 0.500000 0.610337 0.500000
O O2 0.520030 0.592858 0.347290
O O3 0.643070 0.679887 0.523642
O O4 0.383034 0.682598 0.294844
O O5 0.218414 0.108640 0.404587
O O6 0.136654 0.000000 0.373739
O O7 0.990093 0.070422 0.159383
O O8 0.232624 0.102627 0.113989
O O9 0.031577 0.174553 0.914690
O O10 0.000000 0.091147 0.000000
O O11 0.250000 0.750000 0.500000
O O12 0.164569 0.704373 0.560822
O O13 0.388943 0.767289 0.752918
O O14 0.670086 0.887266 0.652900
O O15 0.511414 0.882836 0.384378
O O16 0.095449 0.766345 0.831259
O O17 0.164854 0.701536 0.759929
O O18 0.340665 0.773780 0.970212
#
# Coordination Sequence:
#
# PCOD9174867 Si02
#       8
#     8   8   8   8   8   8   8   8
#     4  12  24  40  61  88 118 154 205 249 299 357
#     4  12  26  44  61  79 112 159 210 256 292 341
#     4  11  19  37  58  85 119 160 197 235 288 357
#     4  12  17  32  58  89 122 153 185 229 297 361
#     4  11  19  36  54  90 123 153 190 236 293 358
#     4  10  18  32  53  91 126 154 182 225 289 360
#     4  10  19  30  55  88 129 156 179 224 289 359
#     4  10  20  30  59  90 123 155 183 230 297 358
#
# _framework density 18.233872000000002
#
# number of rings (size 3 to 8) (size 9 to 14) (size 15 to 20)
#    0.000    1.000    7.500    0.750    0.000    1.500 
#    0.000    1.875    0.000    0.000    0.000    0.000 
#    0.000    4.000    0.000    0.000    0.000    0.000 
#
# Total GULP energy -178703.320258 kJ/mol
# GULP energy per Si atom -5584.478758 kJ/mol
# Density = 1.819237 g / cm^3
# Si number density = 18.233872 Si / 1000 Ang^3
#
#
#
# Elastic Constant Matrix: (Units=GPa)
#
#
# Indices 1 2 3 4 5 6 
#
# 1 72.1483 10.6754 35.1622 0.0000 -17.1636 0.0000
# 2 10.6754 33.5370 10.3623 0.0000 -5.8909 0.0000
# 3 35.1622 10.3623 131.4633 0.0000 12.4101 0.0000
# 4 0.0000 0.0000 0.0000 4.0187 0.0000 3.5113
# 5 -17.1636 -5.8909 12.4101 0.0000 33.0750 0.0000
# 6 0.0000 0.0000 0.0000 3.5113 0.0000 -4.5665
#
#
#
# Elastic Compliance Matrix: (Units=1/GPa)
#
#
# Indices 1 2 3 4 5 6 
#
# 1 0.020324 -0.002273 -0.006443 0.000000 0.012559 0.000000
# 2 -0.002273 0.032263 -0.002453 0.000000 0.005487 0.000000
# 3 -0.006443 -0.002453 0.010243 0.000000 -0.007623 0.000000
# 4 0.000000 0.000000 0.000000 0.148839 0.000000 0.114446
# 5 0.012559 0.005487 -0.007623 0.000000 0.040589 0.000000
# 6 0.000000 0.000000 0.000000 0.114446 0.000000 -0.130986
#
#
# Mechanical properties :
#
#
# Convention : Reuss Voigt Hill
#
# Bulk Modulus (GPa) = 24.69551 38.83873 31.76712
# Shear Modulus (GPa) = 31.82516 18.56869 25.19693
#
# Velocity S-wave (km/s) = 4.18232 3.19464 3.72139
# Velocity P-wave (km/s) = 6.07417 5.91221 5.99373
#
# Compressibility (1/GPa) = 0.04049319
#
# Stress axis : x y z
#
# Youngs Moduli (GPa) = 49.20222 30.99511 97.62894
#
# Poissons Ratio (x) = 0.07045 0.62898
# Poissons Ratio (y) = 0.11183 0.23950
# Poissons Ratio (z) = 0.31699 0.07604
#
# Static dielectric constant tensor:
#      x y z
#    x 1.660580 0.000000 -0.009580 
#    y 0.000000 1.599840 0.000000 
#    z -0.009580 0.000000 1.658650 
# 
# From -- ./inp_files/218522.got.cif
#   From: 2010.05.17/outbox.cif.g08.bks.cpg/sg12_110_cif.got.tgz:218522.got - 2010.06.03 13:09:07.
