data_PCOD9174025
_publ_section_title
;
Structure prediction by ZEFSAII (Michael W. Deem and Ramdas Pophale) SiO2 
 PCOD9174025
Probable space group: C 2/M
;
_chemical_formula_sum "Si O2"
_cell_formula_units_Z 40
_cell_length_a 25.978215
_cell_length_b 9.134913
_cell_length_c 30.358956
_cell_angle_alpha 90.000000
_cell_angle_beta 160.816168
_cell_angle_gamma 90.000000
_cell_volume 2367.381807
_symmetry_space_group_name_H-M "C 2/M"
_symmetry_group_IT_number 12
_symmetry_cell_setting 'monoclinic'
loop_
_space_group_symop_operation_xyz
x,y,z
-x,y,-z
-x,-y,-z
x,-y,z
1/2+x,1/2+y,z
1/2-x,1/2+y,-z
1/2-x,1/2-y,-z
1/2+x,1/2-y,z
loop_
_atom_site_type_symbol
_atom_site_label
_atom_site_fract_x
_atom_site_fract_y
_atom_site_fract_z
Si Si1 0.418998 0.675433 0.633679
Si Si2 0.417286 0.324622 0.141367
Si Si3 0.820231 0.672974 0.704904
Si Si4 0.668307 0.831743 0.661149
Si Si5 0.513541 0.673121 0.614013
O O1 0.396253 0.500000 0.612817
O O2 0.250000 0.750000 0.500000
O O3 0.516700 0.708130 0.756412
O O4 0.504624 0.719681 0.657620
O O5 0.407149 0.500000 0.128387
O O6 0.540808 0.258499 0.206618
O O7 0.250000 0.250000 0.000000
O O8 0.852950 0.500000 0.733486
O O9 0.782107 0.737900 0.722142
O O10 0.661243 0.692527 0.547546
O O11 0.500000 0.829729 0.500000
O O12 0.632756 0.761378 0.679708
O O13 0.719090 0.000000 0.705334
O O14 0.549277 0.500000 0.640165
#
# Coordination Sequence:
#
# PCOD9174025 Si02
#       5
#     8   8   8   8   8
#     4  10  20  34  54  79 107 139 175 219 266 313
#     4  11  23  37  54  77 108 144 181 218 262 315
#     4  10  18  31  52  75 104 139 175 216 263 312
#     4   9  17  28  45  73 106 137 171 212 259 310
#     4   9  17  30  49  76 106 135 170 213 263 314
#
# _framework density 16.896303
#
# number of rings (size 3 to 8) (size 9 to 14) (size 15 to 20)
#    0.000    2.200    2.000    1.800    0.000    4.800 
#    0.000    0.000    0.000    1.200    0.000    8.400 
#    0.000    0.000    0.000    0.000    0.000    0.000 
#
# Total GULP energy -111579.107259 kJ/mol
# GULP energy per Si atom -5578.955363 kJ/mol
# Density = 1.685785 g / cm^3
# Si number density = 16.896303 Si / 1000 Ang^3
#
#
#
# Elastic Constant Matrix: (Units=GPa)
#
#
# Indices 1 2 3 4 5 6 
#
# 1 182.6171 79.2563 63.1500 -0.0001 17.6558 -0.0002
# 2 79.2563 90.9412 58.7182 -0.0055 8.2083 -0.0009
# 3 63.1500 58.7182 66.7536 0.0114 2.0969 -0.0007
# 4 -0.0001 -0.0055 0.0114 23.1513 0.0010 8.2669
# 5 17.6558 8.2083 2.0969 0.0010 16.1133 -0.0004
# 6 -0.0002 -0.0009 -0.0007 8.2669 -0.0004 33.0029
#
#
#
# Elastic Compliance Matrix: (Units=1/GPa)
#
#
# Indices 1 2 3 4 5 6 
#
# 1 0.010076 -0.004794 -0.005066 0.000002 -0.007939 -0.000001
# 2 -0.004794 0.029479 -0.021175 0.000019 -0.007008 -0.000005
# 3 -0.005066 -0.021175 0.038041 -0.000027 0.011387 0.000007
# 4 0.000002 0.000019 -0.000027 0.047437 -0.000012 -0.011883
# 5 -0.007939 -0.007008 0.011387 -0.000012 0.072848 0.000004
# 6 -0.000001 -0.000005 0.000007 -0.011883 0.000004 0.033277
#
#
# Mechanical properties :
#
#
# Convention : Reuss Voigt Hill
#
# Bulk Modulus (GPa) = 64.40607 82.50677 73.45642
# Shear Modulus (GPa) = 16.75591 23.73266 20.24428
#
# Velocity S-wave (km/s) = 3.15253 3.75187 3.46518
# Velocity P-wave (km/s) = 7.17304 8.22837 7.71876
#
# Compressibility (1/GPa) = 0.01552649
#
# Stress axis : x y z
#
# Youngs Moduli (GPa) = 99.24784 33.92288 26.28732
#
# Poissons Ratio (x) = 0.16262 0.13316
# Poissons Ratio (y) = 0.47577 0.55663
# Poissons Ratio (z) = 0.50276 0.71832
#
# Static dielectric constant tensor:
#      x y z
#    x 1.572710 0.000000 -0.007360 
#    y 0.000000 1.564100 0.000000 
#    z -0.007360 0.000000 1.537080 
# 
# From -- ./inp_files/92938.got.cif
#   From: 2010.05.17/outbox.cif.g08.bks.cpg/sg12_47_cif.got.tgz:92938.got - 2010.06.03 13:09:07.
