data_PCOD9174368
_publ_section_title
;
Structure prediction by ZEFSAII (Michael W. Deem and Ramdas Pophale) SiO2 
 PCOD9174368
Probable space group: C 2/M
;
_chemical_formula_sum "Si O2"
_cell_formula_units_Z 60
_cell_length_a 24.117935
_cell_length_b 15.260327
_cell_length_c 17.476813
_cell_angle_alpha 90.000000
_cell_angle_beta 30.824746
_cell_angle_gamma 90.000000
_cell_volume 3295.998595
_symmetry_space_group_name_H-M "C 2/M"
_symmetry_group_IT_number 12
_symmetry_cell_setting 'monoclinic'
loop_
_space_group_symop_operation_xyz
x,y,z
-x,y,-z
-x,-y,-z
x,-y,z
1/2+x,1/2+y,z
1/2-x,1/2+y,-z
1/2-x,1/2-y,-z
1/2+x,1/2-y,z
loop_
_atom_site_type_symbol
_atom_site_label
_atom_site_fract_x
_atom_site_fract_y
_atom_site_fract_z
Si Si1 0.163772 0.786721 0.386817
Si Si2 0.090833 0.738097 0.955487
Si Si3 0.884212 0.397097 0.937376
Si Si4 0.634082 0.399978 0.274888
Si Si5 0.542778 0.604440 0.636044
Si Si6 0.346524 0.101957 0.817122
Si Si7 0.500000 0.844107 0.500000
Si Si8 0.388607 0.603912 0.961163
O O1 0.289842 0.768515 0.223335
O O2 0.133654 0.857135 0.357335
O O3 0.139852 0.831778 0.496741
O O4 0.084569 0.708542 0.454316
O O5 0.077657 0.667114 0.040155
O O6 0.085301 0.834457 0.998910
O O7 0.000000 0.723778 0.000000
O O8 0.918623 0.500000 0.906358
O O9 0.902296 0.363393 0.828946
O O10 0.754017 0.394925 0.099256
O O11 0.605435 0.500000 0.318527
O O12 0.549993 0.364299 0.313653
O O13 0.567389 0.500000 0.596579
O O14 0.485364 0.612794 0.785585
O O15 0.422688 0.108829 0.652995
O O16 0.327868 0.000000 0.857899
O O17 0.226758 0.136853 0.937796
O O18 0.376385 0.500000 0.993157
#
# Coordination Sequence:
#
# PCOD9174368 Si02
#       8
#     8   8   8   8   8   8   4   8
#     4  11  21  32  50  85 118 147 191 236 298 349
#     4  11  25  42  59  83 115 165 210 244 285 344
#     4   9  19  35  59  86 115 151 192 238 294 360
#     4   9  15  27  48  79 117 145 170 217 286 358
#     4  10  18  31  54  85 118 148 183 239 303 354
#     4  10  20  36  56  86 122 153 189 237 304 369
#     4  12  21  30  53  90 122 150 182 238 313 358
#     4  10  21  38  62  88 116 156 201 247 296 351
#
# _framework density 18.203890999999999
#
# number of rings (size 3 to 8) (size 9 to 14) (size 15 to 20)
#    0.000    1.867    4.000    0.600    1.867    2.667 
#    0.000    0.667    0.000    0.000    0.000    0.000 
#    0.000    0.000    0.000    0.000    0.000    0.000 
#
# Total GULP energy -167150.638252 kJ/mol
# GULP energy per Si atom -5571.687942 kJ/mol
# Density = 1.816246 g / cm^3
# Si number density = 18.203891 Si / 1000 Ang^3
#
#
#
# Elastic Constant Matrix: (Units=GPa)
#
#
# Indices 1 2 3 4 5 6 
#
# 1 68.2557 35.0557 22.1174 0.0000 6.3459 0.0000
# 2 35.0557 51.2511 27.9944 0.0000 7.9442 0.0000
# 3 22.1174 27.9944 77.2869 0.0000 19.4502 0.0000
# 4 0.0000 0.0000 0.0000 28.1678 0.0000 8.9243
# 5 6.3459 7.9442 19.4502 0.0000 17.7045 0.0000
# 6 0.0000 0.0000 0.0000 8.9243 0.0000 18.3343
#
#
#
# Elastic Compliance Matrix: (Units=1/GPa)
#
#
# Indices 1 2 3 4 5 6 
#
# 1 0.022659 -0.014899 -0.001004 0.000000 -0.000334 0.000000
# 2 -0.014899 0.034158 -0.007734 0.000000 -0.001491 0.000000
# 3 -0.001004 -0.007734 0.020820 0.000000 -0.019042 0.000000
# 4 0.000000 0.000000 0.000000 0.041975 0.000000 -0.020432
# 5 -0.000334 -0.001491 -0.019042 0.000000 0.078191 0.000000
# 6 0.000000 0.000000 0.000000 -0.020432 0.000000 0.064488
#
#
# Mechanical properties :
#
#
# Convention : Reuss Voigt Hill
#
# Bulk Modulus (GPa) = 32.93394 40.79209 36.86302
# Shear Modulus (GPa) = 15.64043 20.28306 17.96175
#
# Velocity S-wave (km/s) = 2.93436 3.34161 3.14458
# Velocity P-wave (km/s) = 5.44165 6.11110 5.78607
#
# Compressibility (1/GPa) = 0.03036381
#
# Stress axis : x y z
#
# Youngs Moduli (GPa) = 44.13267 29.27587 48.03149
#
# Poissons Ratio (x) = 0.43617 0.04822
# Poissons Ratio (y) = 0.65752 0.37146
# Poissons Ratio (z) = 0.04431 0.22641
#
# Static dielectric constant tensor:
#      x y z
#    x 1.580570 0.000000 0.026900 
#    y 0.000000 1.664110 0.000000 
#    z 0.026900 0.000000 1.677290 
# 
# From -- ./inp_files/233876.got.cif
#   From: 2010.05.17/outbox.cif.g08.bks.cpg/sg12_117_cif.got.tgz:233876.got - 2010.06.03 13:09:07.
