data_PCOD9174241
_publ_section_title
;
Structure prediction by ZEFSAII (Michael W. Deem and Ramdas Pophale) SiO2 
 PCOD9174241
Probable space group: C 2/M
;
_chemical_formula_sum "Si O2"
_cell_formula_units_Z 44
_cell_length_a 8.628870
_cell_length_b 28.431029
_cell_length_c 11.786193
_cell_angle_alpha 90.000000
_cell_angle_beta 144.309636
_cell_angle_gamma 90.000000
_cell_volume 1686.902268
_symmetry_space_group_name_H-M "C 2/M"
_symmetry_group_IT_number 12
_symmetry_cell_setting 'monoclinic'
loop_
_space_group_symop_operation_xyz
x,y,z
-x,y,-z
-x,-y,-z
x,-y,z
1/2+x,1/2+y,z
1/2-x,1/2+y,-z
1/2-x,1/2-y,-z
1/2+x,1/2-y,z
loop_
_atom_site_type_symbol
_atom_site_label
_atom_site_fract_x
_atom_site_fract_y
_atom_site_fract_z
Si Si1 0.755169 0.927550 0.780081
Si Si2 0.634113 0.553796 0.821976
Si Si3 0.110380 0.583521 0.253063
Si Si4 0.966560 0.767852 0.285026
Si Si5 0.750571 0.317589 0.263967
Si Si6 0.500000 0.663198 0.500000
O O1 0.498065 0.942504 0.699402
O O2 0.766003 0.870726 0.786959
O O3 0.843461 0.940115 0.704895
O O4 0.000000 0.946153 0.000000
O O5 0.717572 0.500000 0.891816
O O6 0.681802 0.563433 0.716977
O O7 0.840959 0.586658 0.015684
O O8 0.252469 0.630238 0.384166
O O9 0.250000 0.750000 0.500000
O O10 0.012805 0.797004 0.199333
O O11 0.883342 0.804758 0.331416
O O12 0.799920 0.720474 0.195110
O O13 0.000000 0.317227 0.500000
#
# Coordination Sequence:
#
# PCOD9174241 Si02
#       6
#     8   8   8   8   8   4
#     4  10  22  38  60  88 119 155 201 248 297 352
#     4  10  22  43  64  86 115 158 201 242 303 372
#     4  10  21  36  63  89 119 153 194 246 296 355
#     4  10  18  31  53  80 113 157 199 235 275 344
#     4  10  19  34  55  82 113 154 201 237 284 341
#     4  12  20  34  61  92 122 156 199 246 298 340
#
# _framework density 26.083314000000001
#
# number of rings (size 3 to 8) (size 9 to 14) (size 15 to 20)
#    0.000    1.818    2.727    4.364    0.000    4.000 
#    0.000    2.727    4.000    3.818    0.000    0.000 
#    0.000    0.000    0.000    0.000    0.000    0.000 
#
# Total GULP energy -122834.860675 kJ/mol
# GULP energy per Si atom -5583.402758 kJ/mol
# Density = 2.602395 g / cm^3
# Si number density = 26.083314 Si / 1000 Ang^3
#
#
#
# Elastic Constant Matrix: (Units=GPa)
#
#
# Indices 1 2 3 4 5 6 
#
# 1 232.4755 30.9275 17.0058 0.0000 -18.2045 0.0000
# 2 30.9275 131.0091 10.8474 0.0000 1.2456 0.0000
# 3 17.0058 10.8474 110.0626 0.0000 -23.9894 0.0000
# 4 0.0000 0.0000 0.0000 -6.7674 0.0000 9.2077
# 5 -18.2045 1.2456 -23.9894 0.0000 21.9964 0.0000
# 6 0.0000 0.0000 0.0000 9.2077 0.0000 17.4081
#
#
#
# Elastic Compliance Matrix: (Units=1/GPa)
#
#
# Indices 1 2 3 4 5 6 
#
# 1 0.004780 -0.001198 0.000337 0.000000 0.004391 0.000000
# 2 -0.001198 0.008042 -0.001211 0.000000 -0.002767 0.000000
# 3 0.000337 -0.001211 0.012107 0.000000 0.013551 0.000000
# 4 0.000000 0.000000 0.000000 -0.085928 0.000000 0.045450
# 5 0.004391 -0.002767 0.013551 0.000000 0.064031 0.000000
# 6 0.000000 0.000000 0.000000 0.045450 0.000000 0.033404
#
#
# Mechanical properties :
#
#
# Convention : Reuss Voigt Hill
#
# Bulk Modulus (GPa) = 48.11221 65.67874 56.89547
# Shear Modulus (GPa) = 105.24209 34.17853 69.71031
#
# Velocity S-wave (km/s) = 6.35893 3.62382 5.17533
# Velocity P-wave (km/s) = 8.50884 6.53792 7.58765
#
# Compressibility (1/GPa) = 0.02078474
#
# Stress axis : x y z
#
# Youngs Moduli (GPa) = 209.19874 124.34033 82.59980
#
# Poissons Ratio (x) = 0.14897 -0.02780
# Poissons Ratio (y) = 0.25064 0.10000
# Poissons Ratio (z) = -0.07041 0.15054
#
# Static dielectric constant tensor:
#      x y z
#    x 2.098340 0.000000 0.034630 
#    y 0.000000 2.065940 0.000000 
#    z 0.034630 0.000000 2.021270 
# 
# From -- ./inp_files/124484.got.cif
#   From: 2010.05.17/outbox.cif.g08.bks.cpg/sg12_63_cif.got.tgz:124484.got - 2010.06.03 13:09:07.
