data_PCOD9174684
_publ_section_title
;
Structure prediction by ZEFSAII (Michael W. Deem and Ramdas Pophale) SiO2 
 PCOD9174684
Probable space group: C 2/M
;
_chemical_formula_sum "Si O2"
_cell_formula_units_Z 64
_cell_length_a 25.135128
_cell_length_b 7.661234
_cell_length_c 17.459832
_cell_angle_alpha 90.000000
_cell_angle_beta 86.619663
_cell_angle_gamma 90.000000
_cell_volume 3356.321938
_symmetry_space_group_name_H-M "C 2/M"
_symmetry_group_IT_number 12
_symmetry_cell_setting 'monoclinic'
loop_
_space_group_symop_operation_xyz
x,y,z
-x,y,-z
-x,-y,-z
x,-y,z
1/2+x,1/2+y,z
1/2-x,1/2+y,-z
1/2-x,1/2-y,-z
1/2+x,1/2-y,z
loop_
_atom_site_type_symbol
_atom_site_label
_atom_site_fract_x
_atom_site_fract_y
_atom_site_fract_z
Si Si1 0.451854 0.206184 0.823427
Si Si2 0.658249 0.715021 0.877801
Si Si3 0.137829 0.209210 0.052870
Si Si4 0.568068 0.703429 0.770669
Si Si5 0.364682 0.208528 0.710342
Si Si6 0.458654 0.713894 0.394671
Si Si7 0.775670 0.705770 0.827052
Si Si8 0.424510 0.709337 0.560499
O O1 0.417437 0.235995 0.902660
O O2 0.510216 0.286096 0.815112
O O3 0.414180 0.276227 0.757686
O O4 0.458891 0.000000 0.811893
O O5 0.657973 0.500000 0.879026
O O6 0.613724 0.776214 0.821593
O O7 0.717129 0.776384 0.848768
O O8 0.644733 0.770171 0.965436
O O9 0.185809 0.274496 0.102804
O O10 0.139978 0.000000 0.053708
O O11 0.581542 0.500000 0.759024
O O12 0.561423 0.778151 0.685631
O O13 0.310314 0.277453 0.752900
O O14 0.376997 0.241702 0.621042
O O15 0.364245 0.000000 0.721857
O O16 0.459402 0.500000 0.392425
O O17 0.424806 0.767727 0.472182
O O18 0.519523 0.769996 0.406613
O O19 0.768015 0.500000 0.813705
O O20 0.426909 0.500000 0.558545
#
# Coordination Sequence:
#
# PCOD9174684 Si02
#       8
#     8   8   8   8   8   8   8   8
#     4  10  20  33  47  69 100 130 156 190 241 289
#     4   9  19  33  51  72  93 123 163 201 237 277
#     4  10  19  32  51  74  94 118 159 205 240 278
#     4  10  18  32  52  70  93 128 164 195 229 281
#     4   9  17  28  45  68  94 122 153 188 233 281
#     4   8  15  26  44  70  96 121 150 189 232 274
#     4   9  18  34  51  70  97 124 155 200 243 281
#     4   9  15  26  45  70  96 119 150 191 232 274
#
# _framework density 19.068493
#
# number of rings (size 3 to 8) (size 9 to 14) (size 15 to 20)
#    0.000    2.750    1.250    2.625    0.000    2.500 
#    0.000    6.875    0.000    0.750    0.000    0.000 
#    0.000    0.000    0.000    0.000    0.000    0.250 
#
# Total GULP energy -178423.972670 kJ/mol
# GULP energy per Si atom -5575.749146 kJ/mol
# Density = 1.902509 g / cm^3
# Si number density = 19.068493 Si / 1000 Ang^3
#
#
#
# Elastic Constant Matrix: (Units=GPa)
#
#
# Indices 1 2 3 4 5 6 
#
# 1 103.4633 -6.6261 105.4632 0.0000 0.9883 0.0000
# 2 -6.6261 26.1099 -10.2735 0.0000 -6.5858 0.0000
# 3 105.4632 -10.2735 160.5015 0.0000 -34.6122 0.0000
# 4 0.0000 0.0000 0.0000 6.2160 0.0000 -5.5949
# 5 0.9883 -6.5858 -34.6122 0.0000 -2.7957 0.0000
# 6 0.0000 0.0000 0.0000 -5.5949 0.0000 12.8322
#
#
#
# Elastic Compliance Matrix: (Units=1/GPa)
#
#
# Indices 1 2 3 4 5 6 
#
# 1 0.013046 0.007998 -0.003033 0.000000 0.023315 0.000000
# 2 0.007998 0.035205 -0.005525 0.000000 -0.011699 0.000000
# 3 -0.003033 -0.005525 0.002846 0.000000 -0.023294 0.000000
# 4 0.000000 0.000000 0.000000 0.264789 0.000000 0.115450
# 5 0.023315 -0.011699 -0.023294 0.000000 -0.033504 0.000000
# 6 0.000000 0.000000 0.000000 0.115450 0.000000 0.128266
#
#
# Mechanical properties :
#
#
# Convention : Reuss Voigt Hill
#
# Bulk Modulus (GPa) = 20.00887 51.91133 35.96010
# Shear Modulus (GPa) = 11.67063 16.68459 14.17761
#
# Velocity S-wave (km/s) = 2.47662 2.96122 2.72970
# Velocity P-wave (km/s) = 4.32367 6.24295 5.36976
#
# Compressibility (1/GPa) = 0.04997785
#
# Stress axis : x y z
#
# Youngs Moduli (GPa) = 76.65230 28.40545 351.35161
#
# Poissons Ratio (x) = -0.22719 1.06548
# Poissons Ratio (y) = -0.61308 1.94126
# Poissons Ratio (z) = 0.23245 0.15694
#
# Static dielectric constant tensor:
#      x y z
#    x 1.644380 0.000000 -0.018540 
#    y 0.000000 1.707650 0.000000 
#    z -0.018540 0.000000 1.682040 
# 
# From -- ./inp_files/287609.got.cif
#   From: 2010.05.17/outbox.cif.g08.bks.cpg/sg12_144_cif.got.tgz:287609.got - 2010.06.03 13:09:07.
