data_PCOD9174167
_publ_section_title
;
Structure prediction by ZEFSAII (Michael W. Deem and Ramdas Pophale) SiO2 
 PCOD9174167
Probable space group: C 2/M
;
_chemical_formula_sum "Si O2"
_cell_formula_units_Z 64
_cell_length_a 20.174469
_cell_length_b 7.363874
_cell_length_c 25.075580
_cell_angle_alpha 90.000000
_cell_angle_beta 129.342215
_cell_angle_gamma 90.000000
_cell_volume 2881.035703
_symmetry_space_group_name_H-M "C 2/M"
_symmetry_group_IT_number 12
_symmetry_cell_setting 'monoclinic'
loop_
_space_group_symop_operation_xyz
x,y,z
-x,y,-z
-x,-y,-z
x,-y,z
1/2+x,1/2+y,z
1/2-x,1/2+y,-z
1/2-x,1/2-y,-z
1/2+x,1/2-y,z
loop_
_atom_site_type_symbol
_atom_site_label
_atom_site_fract_x
_atom_site_fract_y
_atom_site_fract_z
Si Si1 0.658132 0.783354 0.980261
Si Si2 0.290077 0.221982 0.879004
Si Si3 0.485122 0.722155 0.389881
Si Si4 0.509539 0.219490 0.825788
Si Si5 0.678299 0.716898 0.508113
Si Si6 0.675688 0.721244 0.626357
Si Si7 0.901697 0.788323 0.237924
Si Si8 0.829616 0.721297 0.780839
O O1 0.582328 0.713698 0.903971
O O2 0.646174 0.000000 0.977069
O O3 0.750000 0.750000 0.000000
O O4 0.663448 0.714909 0.043629
O O5 0.190897 0.283880 0.827126
O O6 0.328786 0.276851 0.842102
O O7 0.291143 0.000000 0.881644
O O8 0.487430 0.500000 0.390653
O O9 0.582961 0.783956 0.444892
O O10 0.419707 0.774104 0.403632
O O11 0.442552 0.785389 0.312793
O O12 0.534745 0.273208 0.779134
O O13 0.415869 0.280244 0.795684
O O14 0.510048 0.000000 0.827381
O O15 0.671801 0.500000 0.508690
O O16 0.750000 0.750000 0.500000
O O17 0.698866 0.782051 0.578545
O O18 0.677173 0.500000 0.627477
O O19 0.745328 0.779919 0.705658
O O20 0.885653 0.000000 0.241416
O O21 0.828300 0.500000 0.780167
#
# Coordination Sequence:
#
# PCOD9174167 Si02
#       8
#     8   8   8   8   8   8   8   8
#     4  10  19  31  48  72  99 130 165 203 247 293
#     4   9  16  29  50  72  95 126 167 207 241 284
#     4   9  17  31  52  77  99 127 172 213 238 278
#     4  10  21  32  47  75 106 130 158 204 256 299
#     4  10  21  34  51  78 107 132 162 203 249 293
#     4   9  16  30  52  74  98 130 168 207 243 283
#     4  10  18  31  53  75  96 129 170 206 242 289
#     4   9  17  30  48  74 102 127 162 208 251 289
#
# _framework density 22.214234999999999
#
# number of rings (size 3 to 8) (size 9 to 14) (size 15 to 20)
#    0.000    2.500    2.500    0.375    1.750    2.000 
#    0.000    2.500    0.000    3.750    0.000    1.750 
#    0.000    0.000    0.000    0.000    0.000    0.000 
#
# Total GULP energy -178762.791383 kJ/mol
# GULP energy per Si atom -5586.337231 kJ/mol
# Density = 2.216367 g / cm^3
# Si number density = 22.214235 Si / 1000 Ang^3
#
#
#
# Elastic Constant Matrix: (Units=GPa)
#
#
# Indices 1 2 3 4 5 6 
#
# 1 138.0429 -16.3858 43.7889 0.0000 -13.8687 0.0000
# 2 -16.3858 78.3200 -0.7539 0.0000 1.1654 0.0000
# 3 43.7889 -0.7539 106.8188 0.0000 -20.5301 0.0000
# 4 0.0000 0.0000 0.0000 -8.1177 0.0000 -2.7178
# 5 -13.8687 1.1654 -20.5301 0.0000 43.9368 0.0000
# 6 0.0000 0.0000 0.0000 -2.7178 0.0000 19.7913
#
#
#
# Elastic Compliance Matrix: (Units=1/GPa)
#
#
# Indices 1 2 3 4 5 6 
#
# 1 0.008613 0.001753 -0.003301 0.000000 0.001130 0.000000
# 2 0.001753 0.013130 -0.000645 0.000000 -0.000096 0.000000
# 3 -0.003301 -0.000645 0.011551 0.000000 0.004372 0.000000
# 4 0.000000 0.000000 0.000000 -0.117773 0.000000 -0.016173
# 5 0.001130 -0.000096 0.004372 0.000000 0.025162 0.000000
# 6 0.000000 0.000000 0.000000 -0.016173 0.000000 0.048306
#
#
# Mechanical properties :
#
#
# Convention : Reuss Voigt Hill
#
# Bulk Modulus (GPa) = 34.59131 41.83111 38.21121
# Shear Modulus (GPa) = 1660.94351 30.89091 845.91721
#
# Velocity S-wave (km/s) = 27.37365 3.73311 19.53526
# Velocity P-wave (km/s) = 31.85426 6.11989 22.93630
#
# Compressibility (1/GPa) = 0.02890899
#
# Stress axis : x y z
#
# Youngs Moduli (GPa) = 116.10434 76.16035 86.57447
#
# Poissons Ratio (x) = -0.13354 0.28581
# Poissons Ratio (y) = -0.20357 0.05580
# Poissons Ratio (z) = 0.38329 0.04909
#
# Static dielectric constant tensor:
#      x y z
#    x 1.769110 0.000000 -0.002480 
#    y 0.000000 1.876100 0.000000 
#    z -0.002480 0.000000 1.766970 
# 
# From -- ./inp_files/315715.got.cif
#   From: 2010.05.17/outbox.cif.g08.bks.cpg/sg12_158_cif.got.tgz:315715.got - 2010.06.03 13:09:07.
