data_PCOD9175932
_publ_section_title
;
Structure prediction by ZEFSAII (Michael W. Deem and Ramdas Pophale) SiO2 
 PCOD9175932
Probable space group: C 2/M
;
_chemical_formula_sum "Si O2"
_cell_formula_units_Z 64
_cell_length_a 17.587907
_cell_length_b 30.439490
_cell_length_c 8.789568
_cell_angle_alpha 90.000000
_cell_angle_beta 43.430041
_cell_angle_gamma 90.000000
_cell_volume 3234.981370
_symmetry_space_group_name_H-M "C 2/M"
_symmetry_group_IT_number 12
_symmetry_cell_setting 'monoclinic'
loop_
_space_group_symop_operation_xyz
x,y,z
-x,y,-z
-x,-y,-z
x,-y,z
1/2+x,1/2+y,z
1/2-x,1/2+y,-z
1/2-x,1/2-y,-z
1/2+x,1/2-y,z
loop_
_atom_site_type_symbol
_atom_site_label
_atom_site_fract_x
_atom_site_fract_y
_atom_site_fract_z
Si Si1 0.330126 0.831088 0.903680
Si Si2 0.424829 0.673605 0.235546
Si Si3 0.301847 0.818518 0.586262
Si Si4 0.748675 0.950250 0.784094
Si Si5 0.601785 0.898363 0.751702
Si Si6 0.446599 0.074587 0.737290
Si Si7 0.620230 0.631515 0.386876
Si Si8 0.505890 0.234237 0.171826
O O1 0.301471 0.824225 0.768361
O O2 0.412032 0.873518 0.788632
O O3 0.393409 0.790440 0.890978
O O4 0.220223 0.843234 0.157588
O O5 0.317783 0.693350 0.306123
O O6 0.382556 0.643969 0.432528
O O7 0.499578 0.713207 0.191812
O O8 0.500000 0.649892 0.000000
O O9 0.340045 0.862463 0.439649
O O10 0.394386 0.783209 0.411356
O O11 0.683314 0.923465 0.746930
O O12 0.852555 0.919877 0.671896
O O13 0.773199 0.000000 0.705397
O O14 0.664346 0.949331 0.049306
O O15 0.538949 0.931809 0.731824
O O16 0.500000 0.878546 0.000000
O O17 0.500000 0.063073 0.500000
O O18 0.500000 0.642867 0.500000
O O19 0.500000 0.224099 0.000000
#
# Coordination Sequence:
#
# PCOD9175932 Si02
#       8
#     8   8   8   8   8   8   8   8
#     4  11  22  37  65  95 125 164 218 258 312 377
#     4  11  25  43  60  89 124 167 212 262 312 365
#     4  12  20  37  62  92 123 171 209 257 301 375
#     4  10  23  40  62  93 125 166 211 257 318 381
#     4  10  19  33  62  91 124 161 204 251 312 375
#     4  10  18  33  59  95 132 165 202 249 315 378
#     4  11  24  44  67  90 121 167 210 264 319 376
#     4  11  23  38  61  93 130 165 210 256 310 373
#
# _framework density 19.783732000000001
#
# number of rings (size 3 to 8) (size 9 to 14) (size 15 to 20)
#    0.000    1.250    3.750    2.625    1.750    4.750 
#    0.000    3.750    0.000    0.375    0.000    0.000 
#    0.000    0.000    0.000    0.000    0.000    0.000 
#
# Total GULP energy -178748.601799 kJ/mol
# GULP energy per Si atom -5585.893806 kJ/mol
# Density = 1.973870 g / cm^3
# Si number density = 19.783732 Si / 1000 Ang^3
#
#
#
# Elastic Constant Matrix: (Units=GPa)
#
#
# Indices 1 2 3 4 5 6 
#
# 1 88.2165 12.2578 45.3042 0.0000 1.8664 0.0000
# 2 12.2578 69.5090 34.0687 0.0000 3.5185 0.0000
# 3 45.3042 34.0687 153.5940 0.0000 16.5821 0.0000
# 4 0.0000 0.0000 0.0000 5.9822 0.0000 2.4804
# 5 1.8664 3.5185 16.5821 0.0000 40.8612 0.0000
# 6 0.0000 0.0000 0.0000 2.4804 0.0000 -7.5814
#
#
#
# Elastic Compliance Matrix: (Units=1/GPa)
#
#
# Indices 1 2 3 4 5 6 
#
# 1 0.013415 -0.000476 -0.003963 0.000000 0.001037 0.000000
# 2 -0.000476 0.016159 -0.003447 0.000000 0.000029 0.000000
# 3 -0.003963 -0.003447 0.008777 0.000000 -0.003084 0.000000
# 4 0.000000 0.000000 0.000000 0.147195 0.000000 0.048157
# 5 0.001037 0.000029 -0.003084 0.000000 0.025675 0.000000
# 6 0.000000 0.000000 0.000000 0.048157 0.000000 -0.116146
#
#
# Mechanical properties :
#
#
# Convention : Reuss Voigt Hill
#
# Bulk Modulus (GPa) = 44.28886 54.95343 49.62114
# Shear Modulus (GPa) = 42.23938 22.49832 32.36885
#
# Velocity S-wave (km/s) = 4.62568 3.37592 4.04930
# Velocity P-wave (km/s) = 7.13893 6.55997 6.85556
#
# Compressibility (1/GPa) = 0.02257904
#
# Stress axis : x y z
#
# Youngs Moduli (GPa) = 74.54157 61.88692 113.93087
#
# Poissons Ratio (x) = 0.02944 0.45155
# Poissons Ratio (y) = 0.03546 0.39272
# Poissons Ratio (z) = 0.29544 0.21332
#
# Static dielectric constant tensor:
#      x y z
#    x 1.716630 0.000000 0.009940 
#    y 0.000000 1.696770 0.000000 
#    z 0.009940 0.000000 1.698390 
# 
# From -- ./inp_files/80722.got.cif
#   From: 2010.05.17/outbox.cif.g08.bks.cpg/sg12_41_cif.got.tgz:80722.got - 2010.06.03 13:09:07.
