data_PCOD9175570
_publ_section_title
;
Structure prediction by ZEFSAII (Michael W. Deem and Ramdas Pophale) SiO2 
 PCOD9175570
Probable space group: C 2/M
;
_chemical_formula_sum "Si O2"
_cell_formula_units_Z 56
_cell_length_a 19.039050
_cell_length_b 19.394286
_cell_length_c 12.092833
_cell_angle_alpha 90.000000
_cell_angle_beta 45.232510
_cell_angle_gamma 90.000000
_cell_volume 3170.205319
_symmetry_space_group_name_H-M "C 2/M"
_symmetry_group_IT_number 12
_symmetry_cell_setting 'monoclinic'
loop_
_space_group_symop_operation_xyz
x,y,z
-x,y,-z
-x,-y,-z
x,-y,z
1/2+x,1/2+y,z
1/2-x,1/2+y,-z
1/2-x,1/2-y,-z
1/2+x,1/2-y,z
loop_
_atom_site_type_symbol
_atom_site_label
_atom_site_fract_x
_atom_site_fract_y
_atom_site_fract_z
Si Si1 0.271207 0.184411 0.051024
Si Si2 0.666876 0.129646 0.239509
Si Si3 0.116145 0.216596 0.390727
Si Si4 0.979008 0.421641 0.328646
Si Si5 0.246370 0.078561 0.646091
Si Si6 0.987764 0.697131 0.886070
Si Si7 0.846542 0.201678 0.392279
O O1 0.291672 0.129674 0.932142
O O2 0.370961 0.207176 0.001631
O O3 0.250000 0.250000 0.000000
O O4 0.184172 0.171189 0.233739
O O5 0.646817 0.204823 0.319741
O O6 0.558968 0.096524 0.335204
O O7 0.746975 0.094629 0.230605
O O8 0.132733 0.196091 0.499593
O O9 0.000000 0.210777 0.500000
O O10 0.714442 0.500000 0.660454
O O11 0.864223 0.416423 0.489671
O O12 0.989836 0.366441 0.219454
O O13 0.184957 0.133536 0.641642
O O14 0.502141 0.000000 0.727808
O O15 0.060078 0.759118 0.767576
O O16 0.000000 0.680759 0.000000
O O17 0.750000 0.250000 0.500000
#
# Coordination Sequence:
#
# PCOD9175570 Si02
#       7
#     8   8   8   8   8   8   8
#     4   9  20  33  53  84 115 147 187 242 289 338
#     4  10  18  33  54  84 122 150 190 231 297 357
#     4  11  20  35  60  89 114 145 194 249 291 342
#     4  10  20  34  53  84 125 160 189 233 296 364
#     4  11  22  35  57  86 119 158 196 241 295 348
#     4  11  22  35  54  85 118 157 198 239 290 341
#     4  12  21  36  58  86 119 154 197 240 285 339
#
# _framework density 17.664470999999999
#
# number of rings (size 3 to 8) (size 9 to 14) (size 15 to 20)
#    0.000    1.429    2.857    5.143    2.000    1.429 
#    0.000    0.000    0.000    1.714    0.000    0.000 
#    0.000    0.000    0.000    0.000    0.000    0.000 
#
# Total GULP energy -155913.339510 kJ/mol
# GULP energy per Si atom -5568.333554 kJ/mol
# Density = 1.762427 g / cm^3
# Si number density = 17.664471 Si / 1000 Ang^3
#
#
#
# Elastic Constant Matrix: (Units=GPa)
#
#
# Indices 1 2 3 4 5 6 
#
# 1 123.9408 50.1542 28.9541 0.0000 21.8864 0.0000
# 2 50.1542 95.6692 23.1156 0.0000 4.0132 0.0000
# 3 28.9541 23.1156 75.6737 0.0000 -0.7926 0.0000
# 4 0.0000 0.0000 0.0000 -1.0224 0.0000 -4.6718
# 5 21.8864 4.0132 -0.7926 0.0000 25.1076 0.0000
# 6 0.0000 0.0000 0.0000 -4.6718 0.0000 21.0916
#
#
#
# Elastic Compliance Matrix: (Units=1/GPa)
#
#
# Indices 1 2 3 4 5 6 
#
# 1 0.012953 -0.005534 -0.003376 0.000000 -0.010513 0.000000
# 2 -0.005534 0.013742 -0.002054 0.000000 0.002562 0.000000
# 3 -0.003376 -0.002054 0.015173 0.000000 0.003750 0.000000
# 4 0.000000 0.000000 0.000000 -0.486084 0.000000 -0.107668
# 5 -0.010513 0.002562 0.003750 0.000000 0.048702 0.000000
# 6 0.000000 0.000000 0.000000 -0.107668 0.000000 0.023564
#
#
# Mechanical properties :
#
#
# Convention : Reuss Voigt Hill
#
# Bulk Modulus (GPa) = 50.14600 55.52570 52.83585
# Shear Modulus (GPa) = -14.56124 21.90602 3.67239
#
# Velocity S-wave (km/s) = -2.87422 3.52535 1.44343
# Velocity P-wave (km/s) = 4.17550 6.93344 5.72309
#
# Compressibility (1/GPa) = 0.01994177
#
# Stress axis : x y z
#
# Youngs Moduli (GPa) = 77.20359 72.76716 65.90727
#
# Poissons Ratio (x) = 0.40268 0.22248
# Poissons Ratio (y) = 0.42723 0.13535
# Poissons Ratio (z) = 0.26062 0.14944
#
# Static dielectric constant tensor:
#      x y z
#    x 1.615510 0.000000 0.033830 
#    y 0.000000 1.644890 0.000000 
#    z 0.033830 0.000000 1.655220 
# 
# From -- ./inp_files/158235.got.cif
#   From: 2010.05.17/outbox.cif.g08.bks.cpg/sg12_80_cif.got.tgz:158235.got - 2010.06.03 13:09:07.
