data_PCOD9175340
_publ_section_title
;
Structure prediction by ZEFSAII (Michael W. Deem and Ramdas Pophale) SiO2 
 PCOD9175340
Probable space group: C 2/M
;
_chemical_formula_sum "Si O2"
_cell_formula_units_Z 58
_cell_length_a 20.195114
_cell_length_b 7.846313
_cell_length_c 20.424770
_cell_angle_alpha 90.000000
_cell_angle_beta 60.149055
_cell_angle_gamma 90.000000
_cell_volume 2807.049603
_symmetry_space_group_name_H-M "C 2/M"
_symmetry_group_IT_number 12
_symmetry_cell_setting 'monoclinic'
loop_
_space_group_symop_operation_xyz
x,y,z
-x,y,-z
-x,-y,-z
x,-y,z
1/2+x,1/2+y,z
1/2-x,1/2+y,-z
1/2-x,1/2-y,-z
1/2+x,1/2-y,z
loop_
_atom_site_type_symbol
_atom_site_label
_atom_site_fract_x
_atom_site_fract_y
_atom_site_fract_z
Si Si1 0.415978 0.807277 0.174725
Si Si2 0.037407 0.799634 0.706207
Si Si3 0.941660 0.812752 0.957259
Si Si4 0.751570 0.794650 0.702536
Si Si5 0.802104 0.295802 0.413091
Si Si6 0.867571 0.209324 0.751993
Si Si7 0.500000 0.000000 0.000000
Si Si8 0.185723 0.799979 0.083417
O O1 0.441269 0.800411 0.238105
O O2 0.471194 0.683194 0.109915
O O3 0.326850 0.767474 0.218443
O O4 0.432576 0.000000 0.139681
O O5 0.112079 0.776706 0.624559
O O6 0.956703 0.744117 0.715563
O O7 0.030099 0.000000 0.727055
O O8 0.939520 0.652457 0.005406
O O9 0.893052 0.773164 0.916426
O O10 0.918253 0.000000 0.993183
O O11 0.735747 0.731358 0.636659
O O12 0.823361 0.731470 0.708841
O O13 0.758976 0.000000 0.693455
O O14 0.808606 0.500000 0.405385
O O15 0.750000 0.250000 0.500000
O O16 0.823231 0.272090 0.839154
O O17 0.865754 0.000000 0.752038
O O18 0.196013 0.000000 0.088295
O O19 0.250000 0.750000 0.000000
#
# Coordination Sequence:
#
# PCOD9175340 Si02
#       8
#     8   8   8   8   8   8   2   8
#     4  10  18  33  57  85 112 151 198 246 299 354
#     4  10  18  32  59  86 112 154 192 234 293 352
#     4  11  23  41  59  85 116 153 206 259 312 381
#     4   8  17  32  55  87 116 147 197 247 288 350
#     4  10  20  36  58  87 119 153 193 239 291 356
#     4   9  17  34  57  83 114 149 196 248 296 356
#     4  12  26  40  60  82 112 160 194 256 326 366
#     4  10  22  38  59  87 119 160 203 257 317 378
#
# _framework density 20.662264
#
# number of rings (size 3 to 8) (size 9 to 14) (size 15 to 20)
#    0.000    2.207    2.069    2.276    0.966    1.103 
#    2.483    0.690    0.000   18.207    0.000    0.000 
#    0.000    0.000    0.000    0.000    0.000    0.000 
#
# Total GULP energy -161538.744268 kJ/mol
# GULP energy per Si atom -5570.301526 kJ/mol
# Density = 2.061524 g / cm^3
# Si number density = 20.662264 Si / 1000 Ang^3
#
#
#
# Elastic Constant Matrix: (Units=GPa)
#
#
# Indices 1 2 3 4 5 6 
#
# 1 135.3319 16.1736 53.1278 0.0002 1.5143 -0.0003
# 2 16.1736 64.8908 6.3469 0.0002 8.0628 -0.0019
# 3 53.1278 6.3469 83.1958 0.0000 -1.8646 -0.0005
# 4 0.0002 0.0002 0.0000 27.3583 0.0001 -0.4017
# 5 1.5143 8.0628 -1.8646 0.0001 20.0998 0.0004
# 6 -0.0003 -0.0019 -0.0005 -0.4017 0.0004 19.2111
#
#
#
# Elastic Compliance Matrix: (Units=1/GPa)
#
#
# Indices 1 2 3 4 5 6 
#
# 1 0.010096 -0.001821 -0.006322 0.000000 -0.000616 0.000000
# 2 -0.001821 0.016709 -0.000259 0.000000 -0.006589 0.000002
# 3 -0.006322 -0.000259 0.016123 0.000000 0.002076 0.000000
# 4 0.000000 0.000000 0.000000 0.036563 0.000000 0.000765
# 5 -0.000616 -0.006589 0.002076 0.000000 0.052634 -0.000002
# 6 0.000000 0.000002 0.000000 0.000765 -0.000002 0.052069
#
#
# Mechanical properties :
#
#
# Convention : Reuss Voigt Hill
#
# Bulk Modulus (GPa) = 38.28116 48.30168 43.29142
# Shear Modulus (GPa) = 23.84289 27.18518 25.51403
#
# Velocity S-wave (km/s) = 3.40065 3.63118 3.51780
# Velocity P-wave (km/s) = 5.82979 6.40376 6.12351
#
# Compressibility (1/GPa) = 0.02612251
#
# Stress axis : x y z
#
# Youngs Moduli (GPa) = 99.05341 59.84958 62.02263
#
# Poissons Ratio (x) = 0.10901 0.39209
# Poissons Ratio (y) = 0.18041 0.01608
# Poissons Ratio (z) = 0.62619 0.01552
#
# Static dielectric constant tensor:
#      x y z
#    x 1.641940 0.000000 -0.062690 
#    y 0.000000 1.792800 0.000000 
#    z -0.062690 0.000000 1.658840 
# 
# From -- ./inp_files/313931.got.cif
#   From: 2010.05.17/outbox.cif.g08.bks.cpg/sg12_157_cif.got.tgz:313931.got - 2010.06.03 13:09:07.
