data_PCOD9175559
_publ_section_title
;
Structure prediction by ZEFSAII (Michael W. Deem and Ramdas Pophale) SiO2 
 PCOD9175559
Probable space group: C 2/M
;
_chemical_formula_sum "Si O2"
_cell_formula_units_Z 58
_cell_length_a 19.728633
_cell_length_b 7.870341
_cell_length_c 14.315978
_cell_angle_alpha 90.000000
_cell_angle_beta 93.497761
_cell_angle_gamma 90.000000
_cell_volume 2218.716435
_symmetry_space_group_name_H-M "C 2/M"
_symmetry_group_IT_number 12
_symmetry_cell_setting 'monoclinic'
loop_
_space_group_symop_operation_xyz
x,y,z
-x,y,-z
-x,-y,-z
x,-y,z
1/2+x,1/2+y,z
1/2-x,1/2+y,-z
1/2-x,1/2-y,-z
1/2+x,1/2-y,z
loop_
_atom_site_type_symbol
_atom_site_label
_atom_site_fract_x
_atom_site_fract_y
_atom_site_fract_z
Si Si1 0.745483 0.706062 0.362760
Si Si2 0.099798 0.192764 0.313440
Si Si3 0.229361 0.295951 0.851499
Si Si4 0.111207 0.293553 0.562996
Si Si5 0.538159 0.813372 0.746105
Si Si6 0.372969 0.812698 0.882540
Si Si7 0.587641 0.688760 0.929828
Si Si8 0.500000 0.500000 0.500000
O O1 0.742600 0.500000 0.365126
O O2 0.667115 0.761767 0.369152
O O3 0.762522 0.753729 0.256823
O O4 0.808718 0.756888 0.432328
O O5 0.116137 0.190880 0.204060
O O6 0.032294 0.300913 0.314531
O O7 0.082468 0.000000 0.339777
O O8 0.231032 0.500000 0.858155
O O9 0.295332 0.218139 0.906955
O O10 0.159226 0.230737 0.886810
O O11 0.102537 0.500000 0.540703
O O12 0.093564 0.279299 0.672633
O O13 0.059786 0.154575 0.515663
O O14 0.537063 0.700752 0.838291
O O15 0.550675 0.000000 0.785619
O O16 0.380935 0.000000 0.842724
O O17 0.418903 0.798196 0.977728
O O18 0.588395 0.500000 0.967900
#
# Coordination Sequence:
#
# PCOD9175559 Si02
#       8
#     8   8   8   8   8   8   8   2
#     4   8  16  35  62  89 120 161 204 254 305 360
#     4  10  21  38  61  89 122 164 215 261 308 364
#     4  10  18  33  54  80 115 156 208 263 319 365
#     4  10  22  43  69 101 135 163 202 254 307 377
#     4  11  23  40  62  91 125 164 206 254 315 371
#     4  11  22  36  51  77 118 164 214 266 319 365
#     4  12  23  34  53  80 116 162 215 269 316 364
#     4  12  26  40  72 110 132 162 198 244 324 378
#
# _framework density 26.141242999999999
#
# number of rings (size 3 to 8) (size 9 to 14) (size 15 to 20)
#    0.000    1.655    1.379    5.172    1.931    0.552 
#    6.207    2.759    0.000    0.828    0.000    0.000 
#    0.000    0.000    0.000    0.000    0.000    0.000 
#
# Total GULP energy -161989.742015 kJ/mol
# GULP energy per Si atom -5585.853173 kJ/mol
# Density = 2.608174 g / cm^3
# Si number density = 26.141243 Si / 1000 Ang^3
#
#
#
# Elastic Constant Matrix: (Units=GPa)
#
#
# Indices 1 2 3 4 5 6 
#
# 1 124.3371 0.4271 18.1074 0.0000 51.5386 0.0000
# 2 0.4271 106.4659 26.4423 0.0000 18.6807 0.0000
# 3 18.1074 26.4423 123.4785 0.0000 26.2806 0.0000
# 4 0.0000 0.0000 0.0000 28.3822 0.0000 4.9041
# 5 51.5386 18.6807 26.2806 0.0000 41.5607 0.0000
# 6 0.0000 0.0000 0.0000 4.9041 0.0000 28.8153
#
#
#
# Elastic Compliance Matrix: (Units=1/GPa)
#
#
# Indices 1 2 3 4 5 6 
#
# 1 0.018526 0.004003 0.001963 0.000000 -0.026014 0.000000
# 2 0.004003 0.011274 -0.001001 0.000000 -0.009398 0.000000
# 3 0.001963 -0.001001 0.009761 0.000000 -0.008156 0.000000
# 4 0.000000 0.000000 0.000000 0.036301 0.000000 -0.006178
# 5 -0.026014 -0.009398 -0.008156 0.000000 0.065703 0.000000
# 6 0.000000 0.000000 0.000000 -0.006178 0.000000 0.035755
#
#
# Mechanical properties :
#
#
# Convention : Reuss Voigt Hill
#
# Bulk Modulus (GPa) = 20.20598 49.35945 34.78271
# Shear Modulus (GPa) = 27.19047 40.37196 33.78122
#
# Velocity S-wave (km/s) = 3.22861 3.93412 3.59870
# Velocity P-wave (km/s) = 4.65241 6.28961 5.53191
#
# Compressibility (1/GPa) = 0.04949030
#
# Stress axis : x y z
#
# Youngs Moduli (GPa) = 53.97800 88.69772 102.44753
#
# Poissons Ratio (x) = -0.35503 -0.20109
# Poissons Ratio (y) = -0.21605 0.10255
# Poissons Ratio (z) = -0.10595 0.08879
#
# Static dielectric constant tensor:
#      x y z
#    x 2.105780 0.000000 0.026240 
#    y 0.000000 1.930230 0.000000 
#    z 0.026240 0.000000 2.107970 
# 
# From -- ./inp_files/281557.got.cif
#   From: 2010.05.17/outbox.cif.g08.bks.cpg/sg12_141_cif.got.tgz:281557.got - 2010.06.03 13:09:07.
