data_PCOD9175602
_publ_section_title
;
Structure prediction by ZEFSAII (Michael W. Deem and Ramdas Pophale) SiO2 
 PCOD9175602
Probable space group: C 2/M
;
_chemical_formula_sum "Si O2"
_cell_formula_units_Z 56
_cell_length_a 13.530287
_cell_length_b 19.072279
_cell_length_c 14.559791
_cell_angle_alpha 90.000000
_cell_angle_beta 59.218863
_cell_angle_gamma 90.000000
_cell_volume 3227.920497
_symmetry_space_group_name_H-M "C 2/M"
_symmetry_group_IT_number 12
_symmetry_cell_setting 'monoclinic'
loop_
_space_group_symop_operation_xyz
x,y,z
-x,y,-z
-x,-y,-z
x,-y,z
1/2+x,1/2+y,z
1/2-x,1/2+y,-z
1/2-x,1/2-y,-z
1/2+x,1/2-y,z
loop_
_atom_site_type_symbol
_atom_site_label
_atom_site_fract_x
_atom_site_fract_y
_atom_site_fract_z
Si Si1 0.955369 0.225706 0.620980
Si Si2 0.632672 0.578219 0.770473
Si Si3 0.682273 0.345585 0.576595
Si Si4 0.061141 0.180166 0.068140
Si Si5 0.261726 0.081977 0.899531
Si Si6 0.219478 0.695226 0.653603
Si Si7 0.460532 0.813179 0.801466
O O1 0.829724 0.192667 0.666734
O O2 0.951795 0.284803 0.700760
O O3 0.000000 0.251977 0.500000
O O4 0.051704 0.169661 0.605863
O O5 0.584040 0.500000 0.800865
O O6 0.688581 0.592014 0.645397
O O7 0.533099 0.635255 0.831312
O O8 0.721194 0.586504 0.812289
O O9 0.757331 0.350063 0.449061
O O10 0.716408 0.275234 0.616524
O O11 0.086478 0.250517 0.111879
O O12 0.169396 0.130072 0.997145
O O13 0.000000 0.196996 0.000000
O O14 0.385363 0.117884 0.850302
O O15 0.257848 0.000000 0.927630
O O16 0.096553 0.678905 0.755417
#
# Coordination Sequence:
#
# PCOD9175602 Si02
#       7
#     8   8   8   8   8   8   8
#     4   9  17  29  52  81 108 135 174 220 261 308
#     4  10  18  33  55  79 110 139 173 221 271 318
#     4   9  16  30  48  78 106 135 176 207 262 311
#     4  10  20  35  54  82 103 132 182 230 267 304
#     4  10  22  36  52  76 110 143 175 219 272 323
#     4   9  17  29  50  76 107 134 169 222 255 308
#     4  11  20  33  56  81 105 143 174 224 267 314
#
# _framework density 17.34863
#
# number of rings (size 3 to 8) (size 9 to 14) (size 15 to 20)
#    0.000    2.286    2.857    2.571    2.000    1.714 
#    0.000    0.714    0.000    7.286    0.000    0.000 
#    0.000    0.000    0.000    0.000    0.000    0.000 
#
# Total GULP energy -156071.716046 kJ/mol
# GULP energy per Si atom -5573.989859 kJ/mol
# Density = 1.730914 g / cm^3
# Si number density = 17.348630 Si / 1000 Ang^3
#
#
#
# Elastic Constant Matrix: (Units=GPa)
#
#
# Indices 1 2 3 4 5 6 
#
# 1 67.3240 33.4236 26.0184 0.0000 -17.3034 0.0000
# 2 33.4236 62.4665 28.9555 0.0000 -4.0308 0.0000
# 3 26.0184 28.9555 64.2764 0.0000 -3.4146 0.0000
# 4 0.0000 0.0000 0.0000 18.6724 0.0000 3.0897
# 5 -17.3034 -4.0308 -3.4146 0.0000 24.5436 0.0000
# 6 0.0000 0.0000 0.0000 3.0897 0.0000 12.6681
#
#
#
# Elastic Compliance Matrix: (Units=1/GPa)
#
#
# Indices 1 2 3 4 5 6 
#
# 1 0.026184 -0.010690 -0.004932 0.000000 0.016018 0.000000
# 2 -0.010690 0.024703 -0.007038 0.000000 -0.004459 0.000000
# 3 -0.004932 -0.007038 0.020631 0.000000 -0.001763 0.000000
# 4 0.000000 0.000000 0.000000 0.055807 0.000000 -0.013611
# 5 0.016018 -0.004459 -0.001763 0.000000 0.051059 0.000000
# 6 0.000000 0.000000 0.000000 -0.013611 0.000000 0.082258
#
#
# Mechanical properties :
#
#
# Convention : Reuss Voigt Hill
#
# Bulk Modulus (GPa) = 38.17177 41.20687 39.68932
# Shear Modulus (GPa) = 15.88837 18.22145 17.05491
#
# Velocity S-wave (km/s) = 3.02955 3.24437 3.13880
# Velocity P-wave (km/s) = 5.85560 6.15129 6.00527
#
# Compressibility (1/GPa) = 0.02619737
#
# Stress axis : x y z
#
# Youngs Moduli (GPa) = 38.19166 40.48066 48.47041
#
# Poissons Ratio (x) = 0.43274 0.23907
# Poissons Ratio (y) = 0.40827 0.34113
# Poissons Ratio (z) = 0.18837 0.28490
#
# Static dielectric constant tensor:
#      x y z
#    x 1.604220 0.000000 -0.006390 
#    y 0.000000 1.570750 0.000000 
#    z -0.006390 0.000000 1.623850 
# 
# From -- ./inp_files/206089.got.cif
#   From: 2010.05.17/outbox.cif.g08.bks.cpg/sg12_104_cif.got.tgz:206089.got - 2010.06.03 13:09:07.
