data_PCOD9175687
_publ_section_title
;
Structure prediction by ZEFSAII (Michael W. Deem and Ramdas Pophale) SiO2 
 PCOD9175687
Probable space group: C 2/M
;
_chemical_formula_sum "Si O2"
_cell_formula_units_Z 56
_cell_length_a 12.392918
_cell_length_b 17.212302
_cell_length_c 12.647615
_cell_angle_alpha 90.000000
_cell_angle_beta 115.161554
_cell_angle_gamma 90.000000
_cell_volume 2441.876850
_symmetry_space_group_name_H-M "C 2/M"
_symmetry_group_IT_number 12
_symmetry_cell_setting 'monoclinic'
loop_
_space_group_symop_operation_xyz
x,y,z
-x,y,-z
-x,-y,-z
x,-y,z
1/2+x,1/2+y,z
1/2-x,1/2+y,-z
1/2-x,1/2-y,-z
1/2+x,1/2-y,z
loop_
_atom_site_type_symbol
_atom_site_label
_atom_site_fract_x
_atom_site_fract_y
_atom_site_fract_z
Si Si1 0.430953 0.387812 0.869495
Si Si2 0.094333 0.709248 0.828280
Si Si3 0.744886 0.842519 0.514218
Si Si4 0.856188 0.283633 0.910509
Si Si5 0.011689 0.857243 0.687905
Si Si6 0.766350 0.408209 0.712835
Si Si7 0.836556 0.413816 0.305115
O O1 0.407464 0.295757 0.880645
O O2 0.512761 0.399751 0.801703
O O3 0.300839 0.419071 0.791397
O O4 0.500000 0.416246 0.000000
O O5 0.219845 0.755966 0.874173
O O6 0.013124 0.766963 0.724559
O O7 0.100183 0.630960 0.763694
O O8 0.085913 0.696012 0.951370
O O9 0.750000 0.750000 0.500000
O O10 0.697301 0.884431 0.390248
O O11 0.672847 0.864641 0.590303
O O12 0.881882 0.871776 0.585522
O O13 0.841915 0.355700 0.825526
O O14 0.127306 0.881821 0.670913
O O15 0.776829 0.500000 0.734885
O O16 0.883055 0.500000 0.344206
#
# Coordination Sequence:
#
# PCOD9175687 Si02
#       7
#     8   8   8   8   8   8   8
#     4  10  18  33  56  82 110 148 191 230 269 326
#     4   9  17  34  56  79 109 146 191 235 274 331
#     4  11  22  40  61  82 108 150 200 238 277 338
#     4   9  18  34  55  80 111 150 194 229 268 333
#     4  10  20  34  58  86 109 142 195 239 277 330
#     4  11  23  36  55  86 122 154 183 232 296 347
#     4  10  22  35  53  82 115 147 178 231 299 343
#
# _framework density 22.933178999999999
#
# number of rings (size 3 to 8) (size 9 to 14) (size 15 to 20)
#    0.000    2.000    1.429    4.286    2.000    4.286 
#    0.000    0.000    0.000    5.571    0.000    0.000 
#    0.000    0.000    0.000    0.000    0.000    0.000 
#
# Total GULP energy -156412.903483 kJ/mol
# GULP energy per Si atom -5586.175124 kJ/mol
# Density = 2.288098 g / cm^3
# Si number density = 22.933179 Si / 1000 Ang^3
#
#
#
# Elastic Constant Matrix: (Units=GPa)
#
#
# Indices 1 2 3 4 5 6 
#
# 1 39.3624 5.4762 27.6013 0.0000 -5.3481 0.0000
# 2 5.4762 171.6593 69.7208 0.0000 -20.9026 0.0000
# 3 27.6013 69.7208 146.8762 0.0000 -29.4533 0.0000
# 4 0.0000 0.0000 0.0000 4.5763 0.0000 4.3229
# 5 -5.3481 -20.9026 -29.4533 0.0000 34.8474 0.0000
# 6 0.0000 0.0000 0.0000 4.3229 0.0000 1.4756
#
#
#
# Elastic Compliance Matrix: (Units=1/GPa)
#
#
# Indices 1 2 3 4 5 6 
#
# 1 0.029626 0.001641 -0.006306 0.000000 0.000201 0.000000
# 2 0.001641 0.007395 -0.003466 0.000000 0.001758 0.000000
# 3 -0.006306 -0.003466 0.010870 0.000000 0.006141 0.000000
# 4 0.000000 0.000000 0.000000 -0.123644 0.000000 0.362218
# 5 0.000201 0.001758 0.006141 0.000000 0.034972 0.000000
# 6 0.000000 0.000000 0.000000 0.362218 0.000000 -0.383448
#
#
# Mechanical properties :
#
#
# Convention : Reuss Voigt Hill
#
# Bulk Modulus (GPa) = 31.61734 62.61050 47.11392
# Shear Modulus (GPa) = -12.58101 25.18649 6.30274
#
# Velocity S-wave (km/s) = -2.34475 3.31759 1.65960
# Velocity P-wave (km/s) = 2.54680 6.48350 4.92554
#
# Compressibility (1/GPa) = 0.03162822
#
# Stress axis : x y z
#
# Youngs Moduli (GPa) = 33.75450 135.22628 91.99482
#
# Poissons Ratio (x) = -0.22184 0.58009
# Poissons Ratio (y) = -0.05537 0.31886
# Poissons Ratio (z) = 0.21285 0.46871
#
# Static dielectric constant tensor:
#      x y z
#    x 1.948970 0.000000 -0.009390 
#    y 0.000000 1.852260 0.000000 
#    z -0.009390 0.000000 1.851570 
# 
# From -- ./inp_files/145633.got.cif
#   From: 2010.05.17/outbox.cif.g08.bks.cpg/sg12_73_cif.got.tgz:145633.got - 2010.06.03 13:09:07.
