data_PCOD9175886
_publ_section_title
;
Structure prediction by ZEFSAII (Michael W. Deem and Ramdas Pophale) SiO2 
 PCOD9175886
Probable space group: C 2/M
;
_chemical_formula_sum "Si O2"
_cell_formula_units_Z 56
_cell_length_a 19.830096
_cell_length_b 8.756483
_cell_length_c 21.592127
_cell_angle_alpha 90.000000
_cell_angle_beta 124.405020
_cell_angle_gamma 90.000000
_cell_volume 3093.410725
_symmetry_space_group_name_H-M "C 2/M"
_symmetry_group_IT_number 12
_symmetry_cell_setting 'monoclinic'
loop_
_space_group_symop_operation_xyz
x,y,z
-x,y,-z
-x,-y,-z
x,-y,z
1/2+x,1/2+y,z
1/2-x,1/2+y,-z
1/2-x,1/2-y,-z
1/2+x,1/2-y,z
loop_
_atom_site_type_symbol
_atom_site_label
_atom_site_fract_x
_atom_site_fract_y
_atom_site_fract_z
Si Si1 0.578322 0.184816 0.500272
Si Si2 0.135558 0.814132 0.194874
Si Si3 0.257070 0.685891 0.635776
Si Si4 0.402870 0.322357 0.960031
Si Si5 0.339244 0.179131 0.050609
Si Si6 0.590642 0.684342 0.369884
Si Si7 0.018668 0.816368 0.802333
O O1 0.500000 0.234540 0.500000
O O2 0.665213 0.236177 0.574197
O O3 0.576250 0.243714 0.429011
O O4 0.578248 0.000000 0.499471
O O5 0.206592 0.765044 0.278907
O O6 0.138527 0.766321 0.125202
O O7 0.049945 0.769475 0.182629
O O8 0.135418 0.000000 0.193665
O O9 0.257468 0.500000 0.636253
O O10 0.323087 0.731446 0.617368
O O11 0.379107 0.500000 0.959393
O O12 0.500000 0.321856 0.000000
O O13 0.381704 0.223308 0.008058
O O14 0.395307 0.246971 0.134218
O O15 0.333492 0.000000 0.055528
O O16 0.250000 0.250000 0.000000
O O17 0.592056 0.500000 0.375676
O O18 0.519681 0.725395 0.283889
O O19 0.024337 0.000000 0.807852
#
# Coordination Sequence:
#
# PCOD9175886 Si02
#       7
#     8   8   8   8   8   8   8
#     4  10  20  33  49  74 112 146 175 217 266 319
#     4   8  14  28  54  81 104 136 180 224 266 322
#     4   8  15  30  52  77 103 138 181 218 259 313
#     4  10  18  33  59  84 107 141 184 226 275 330
#     4  12  25  39  55  78 112 149 185 226 271 325
#     4   9  18  33  58  81  99 133 180 226 268 316
#     4   9  17  35  58  80 105 136 179 227 275 326
#
# _framework density 18.102995
#
# number of rings (size 3 to 8) (size 9 to 14) (size 15 to 20)
#    0.000    2.571    1.429    3.429    0.000    1.143 
#    2.571    0.000    0.000    1.714    0.000    0.000 
#    0.000    0.000    0.000    0.000    0.000    0.000 
#
# Total GULP energy -156135.435282 kJ/mol
# GULP energy per Si atom -5576.265546 kJ/mol
# Density = 1.806179 g / cm^3
# Si number density = 18.102995 Si / 1000 Ang^3
#
#
#
# Elastic Constant Matrix: (Units=GPa)
#
#
# Indices 1 2 3 4 5 6 
#
# 1 85.8190 21.1153 75.3309 0.0000 19.0504 0.0000
# 2 21.1153 22.2231 30.7934 0.0000 10.6733 0.0000
# 3 75.3309 30.7934 157.4468 0.0000 17.9970 0.0000
# 4 0.0000 0.0000 0.0000 25.8238 0.0000 -4.2051
# 5 19.0504 10.6733 17.9970 0.0000 29.4283 0.0000
# 6 0.0000 0.0000 0.0000 -4.2051 0.0000 10.9772
#
#
#
# Elastic Compliance Matrix: (Units=1/GPa)
#
#
# Indices 1 2 3 4 5 6 
#
# 1 0.022290 -0.005683 -0.008751 0.000000 -0.007016 0.000000
# 2 -0.005683 0.071228 -0.009332 0.000000 -0.016448 0.000000
# 3 -0.008751 -0.009332 0.012181 0.000000 0.001601 0.000000
# 4 0.000000 0.000000 0.000000 0.041300 0.000000 0.015821
# 5 -0.007016 -0.016448 0.001601 0.000000 0.043510 0.000000
# 6 0.000000 0.000000 0.000000 0.015821 0.000000 0.097159
#
#
# Mechanical properties :
#
#
# Convention : Reuss Voigt Hill
#
# Bulk Modulus (GPa) = 17.19192 57.77422 37.48307
# Shear Modulus (GPa) = 14.10091 22.46247 18.28169
#
# Velocity S-wave (km/s) = 2.79395 3.52634 3.18129
# Velocity P-wave (km/s) = 4.46381 6.96876 5.85189
#
# Compressibility (1/GPa) = 0.05816685
#
# Stress axis : x y z
#
# Youngs Moduli (GPa) = 44.86336 14.03945 82.09819
#
# Poissons Ratio (x) = 0.07978 0.71846
# Poissons Ratio (y) = 0.25495 0.76611
# Poissons Ratio (z) = 0.39261 0.13101
#
# Static dielectric constant tensor:
#      x y z
#    x 1.613900 0.000000 0.009260 
#    y 0.000000 1.612670 0.000000 
#    z 0.009260 0.000000 1.639500 
# 
# From -- ./inp_files/314368.got.cif
#   From: 2010.05.17/outbox.cif.g08.bks.cpg/sg12_158_cif.got.tgz:314368.got - 2010.06.03 13:09:07.
