data_PCOD9175917
_publ_section_title
;
Structure prediction by ZEFSAII (Michael W. Deem and Ramdas Pophale) SiO2 
 PCOD9175917
Probable space group: C 2/M
;
_chemical_formula_sum "Si O2"
_cell_formula_units_Z 56
_cell_length_a 25.990694
_cell_length_b 13.718756
_cell_length_c 25.740767
_cell_angle_alpha 90.000000
_cell_angle_beta 16.826303
_cell_angle_gamma 90.000000
_cell_volume 2656.804042
_symmetry_space_group_name_H-M "C 2/M"
_symmetry_group_IT_number 12
_symmetry_cell_setting 'monoclinic'
loop_
_space_group_symop_operation_xyz
x,y,z
-x,y,-z
-x,-y,-z
x,-y,z
1/2+x,1/2+y,z
1/2-x,1/2+y,-z
1/2-x,1/2-y,-z
1/2+x,1/2-y,z
loop_
_atom_site_type_symbol
_atom_site_label
_atom_site_fract_x
_atom_site_fract_y
_atom_site_fract_z
Si Si1 0.422393 0.696303 0.900320
Si Si2 0.694444 0.683121 0.796531
Si Si3 0.299415 0.189722 0.578148
Si Si4 0.304938 0.392277 0.714887
Si Si5 0.989421 0.889629 0.380951
Si Si6 0.324621 0.113189 0.776100
Si Si7 0.247417 0.889444 0.036662
O O1 0.628936 0.672530 0.707283
O O2 0.323944 0.632594 0.951857
O O3 0.322067 0.675112 0.051334
O O4 0.389639 0.807909 0.915156
O O5 0.747865 0.658838 0.686511
O O6 0.698447 0.800555 0.797321
O O7 0.824340 0.644606 0.716003
O O8 0.500000 0.645873 0.000000
O O9 0.350915 0.304415 0.526604
O O10 0.481699 0.135766 0.387757
O O11 0.500000 0.388273 0.500000
O O12 0.230050 0.500000 0.777240
O O13 0.351214 0.381396 0.730968
O O14 0.080234 0.877253 0.237299
O O15 0.917954 0.000000 0.455196
O O16 0.281701 0.000000 0.821949
O O17 0.312090 0.000000 0.978943
#
# Coordination Sequence:
#
# PCOD9175917 Si02
#       7
#     8   8   8   8   8   8   8
#     4  11  24  45  71  99 134 169 219 276 327 389
#     4  12  23  40  63  93 132 173 217 269 323 386
#     4  12  24  42  69  97 130 172 221 269 328 387
#     4  10  18  33  59  88 125 169 209 257 316 382
#     4  10  20  38  66  96 132 173 215 264 324 388
#     4  12  26  46  67  94 132 176 223 271 330 384
#     4  10  22  44  71  98 135 174 214 270 331 390
#
# _framework density 21.077956
#
# number of rings (size 3 to 8) (size 9 to 14) (size 15 to 20)
#    0.000    1.000    5.714    0.857    0.000    4.000 
#    0.000    0.000    0.000    0.000    0.000    0.000 
#    0.000    0.000    0.000    0.000    0.000    0.000 
#
# Total GULP energy -156514.622957 kJ/mol
# GULP energy per Si atom -5589.807963 kJ/mol
# Density = 2.102998 g / cm^3
# Si number density = 21.077956 Si / 1000 Ang^3
#
#
#
# Elastic Constant Matrix: (Units=GPa)
#
#
# Indices 1 2 3 4 5 6 
#
# 1 58.1736 -5.3238 -7.2799 -0.0185 1.2512 -0.0172
# 2 -5.3238 65.7368 -13.3137 0.3790 -8.3649 0.6308
# 3 -7.2799 -13.3137 47.3949 0.2617 -15.4065 0.5064
# 4 -0.0185 0.3790 0.2617 -62.3963 -0.2367 -108.2754
# 5 1.2512 -8.3649 -15.4065 -0.2367 34.3057 -0.3994
# 6 -0.0172 0.6308 0.5064 -108.2754 -0.3994 -177.9460
#
#
#
# Elastic Compliance Matrix: (Units=1/GPa)
#
#
# Indices 1 2 3 4 5 6 
#
# 1 0.017882 0.002485 0.004016 0.000095 0.001757 -0.000043
# 2 0.002485 0.018044 0.008022 0.000123 0.007913 -0.000006
# 3 0.004016 0.008022 0.028756 0.000376 0.014724 -0.000152
# 4 0.000095 0.000123 0.000376 0.286835 0.000142 -0.174530
# 5 0.001757 0.007913 0.014724 0.000142 0.037627 -0.000101
# 6 -0.000043 -0.000006 -0.000152 -0.174530 -0.000101 0.100577
#
#
# Mechanical properties :
#
#
# Convention : Reuss Voigt Hill
#
# Bulk Modulus (GPa) = 10.66913 13.27452 11.97182
# Shear Modulus (GPa) = 10.16430 -28.05912 -8.94741
#
# Velocity S-wave (km/s) = 2.19834 -3.65253 -2.06255
# Velocity P-wave (km/s) = 3.39357 3.38769 0.14121
#
# Compressibility (1/GPa) = 0.09372836
#
# Stress axis : x y z
#
# Youngs Moduli (GPa) = 55.92175 55.41896 34.77584
#
# Poissons Ratio (x) = -0.13772 -0.13966
# Poissons Ratio (y) = -0.13897 -0.27897
# Poissons Ratio (z) = -0.22458 -0.44458
#
# Static dielectric constant tensor:
#      x y z
#    x 1.775750 0.000000 0.012140 
#    y 0.000000 1.768070 0.000030 
#    z 0.012140 0.000030 1.733540 
# 
# From -- ./inp_files/349719.got.cif
#   From: 2010.05.17/outbox.cif.g08.bks.cpg/sg12_175_cif.got.tgz:349719.got - 2010.06.03 13:09:07.
