data_PCOD9175261
_publ_section_title
;
Structure prediction by ZEFSAII (Michael W. Deem and Ramdas Pophale) SiO2 
 PCOD9175261
Probable space group: C 2/M
;
_chemical_formula_sum "Si O2"
_cell_formula_units_Z 56
_cell_length_a 14.490381
_cell_length_b 23.725819
_cell_length_c 8.261613
_cell_angle_alpha 90.000000
_cell_angle_beta 71.799606
_cell_angle_gamma 90.000000
_cell_volume 2698.209776
_symmetry_space_group_name_H-M "C 2/M"
_symmetry_group_IT_number 12
_symmetry_cell_setting 'monoclinic'
loop_
_space_group_symop_operation_xyz
x,y,z
-x,y,-z
-x,-y,-z
x,-y,z
1/2+x,1/2+y,z
1/2-x,1/2+y,-z
1/2-x,1/2-y,-z
1/2+x,1/2-y,z
loop_
_atom_site_type_symbol
_atom_site_label
_atom_site_fract_x
_atom_site_fract_y
_atom_site_fract_z
Si Si1 0.624995 0.324319 0.097847
Si Si2 0.614654 0.208651 0.608238
Si Si3 0.884123 0.360024 0.070115
Si Si4 0.122440 0.708352 0.248767
Si Si5 0.780483 0.938068 0.829767
Si Si6 0.902495 0.936739 0.448674
Si Si7 0.108590 0.826320 0.741448
O O1 0.649827 0.314651 0.896683
O O2 0.656041 0.272200 0.193254
O O3 0.661766 0.385885 0.124972
O O4 0.508302 0.323375 0.176163
O O5 0.644841 0.173885 0.750831
O O6 0.650726 0.187972 0.413030
O O7 0.496242 0.207331 0.679037
O O8 0.639552 0.274777 0.610884
O O9 0.830965 0.419723 0.101005
O O10 0.852475 0.327631 0.923920
O O11 0.000000 0.364034 0.000000
O O12 0.817097 0.939498 0.625935
O O13 0.799339 0.000000 0.890439
O O14 0.876192 0.888323 0.337205
O O15 0.000000 0.922237 0.500000
O O16 0.918698 0.000000 0.372008
#
# Coordination Sequence:
#
# PCOD9175261 Si02
#       7
#     8   8   8   8   8   8   8
#     4  10  19  33  55  87 124 152 190 235 286 353
#     4   9  17  32  59  89 117 150 189 232 294 352
#     4  10  21  41  62  85 116 151 196 245 296 346
#     4   9  17  33  59  88 119 149 182 239 295 350
#     4  11  24  40  58  83 114 152 202 247 284 340
#     4  10  20  36  55  78 113 157 201 239 281 336
#     4  10  18  32  57  86 120 159 189 230 288 350
#
# _framework density 20.754501000000001
#
# number of rings (size 3 to 8) (size 9 to 14) (size 15 to 20)
#    0.000    2.143    2.857    0.857    2.000    1.429 
#    2.571    2.857    0.000    0.000    0.000    4.000 
#    0.000    0.000    0.000    0.000    0.000    0.000 
#
# Total GULP energy -156335.851541 kJ/mol
# GULP energy per Si atom -5583.423269 kJ/mol
# Density = 2.070726 g / cm^3
# Si number density = 20.754501 Si / 1000 Ang^3
#
#
#
# Elastic Constant Matrix: (Units=GPa)
#
#
# Indices 1 2 3 4 5 6 
#
# 1 60.0386 3.7847 15.2762 0.0000 -5.9720 0.0000
# 2 3.7847 79.5450 37.9240 0.0000 -1.6883 0.0000
# 3 15.2762 37.9240 123.2884 0.0000 17.0668 0.0000
# 4 0.0000 0.0000 0.0000 22.8539 0.0000 3.5730
# 5 -5.9720 -1.6883 17.0668 0.0000 20.0067 0.0000
# 6 0.0000 0.0000 0.0000 3.5730 0.0000 21.7753
#
#
#
# Elastic Compliance Matrix: (Units=1/GPa)
#
#
# Indices 1 2 3 4 5 6 
#
# 1 0.018456 0.001160 -0.003878 0.000000 0.008915 0.000000
# 2 0.001160 0.015422 -0.005801 0.000000 0.006596 0.000000
# 3 -0.003878 -0.005801 0.012024 0.000000 -0.011904 0.000000
# 4 0.000000 0.000000 0.000000 0.044908 0.000000 -0.007369
# 5 0.008915 0.006596 -0.011904 0.000000 0.063356 0.000000
# 6 0.000000 0.000000 0.000000 -0.007369 0.000000 0.047133
#
#
# Mechanical properties :
#
#
# Convention : Reuss Voigt Hill
#
# Bulk Modulus (GPa) = 34.64429 41.87132 38.25780
# Shear Modulus (GPa) = 21.93399 26.65299 24.29349
#
# Velocity S-wave (km/s) = 3.25442 3.58747 3.42499
# Velocity P-wave (km/s) = 5.55431 6.11378 5.84074
#
# Compressibility (1/GPa) = 0.02886479
#
# Stress axis : x y z
#
# Youngs Moduli (GPa) = 54.18220 64.84328 83.16928
#
# Poissons Ratio (x) = -0.07521 0.32251
# Poissons Ratio (y) = -0.06284 0.48243
# Poissons Ratio (z) = 0.21010 0.37613
#
# Static dielectric constant tensor:
#      x y z
#    x 1.811390 0.000000 -0.018890 
#    y 0.000000 1.709910 0.000000 
#    z -0.018890 0.000000 1.750560 
# 
# From -- ./inp_files/77357.got.cif
#   From: 2010.05.17/outbox.cif.g08.bks.cpg/sg12_39_cif.got.tgz:77357.got - 2010.06.03 13:09:07.
