data_PCOD9175118
_publ_section_title
;
Structure prediction by ZEFSAII (Michael W. Deem and Ramdas Pophale) SiO2 
 PCOD9175118
Probable space group: C 2/M
;
_chemical_formula_sum "Si O2"
_cell_formula_units_Z 64
_cell_length_a 20.481843
_cell_length_b 7.855971
_cell_length_c 22.198772
_cell_angle_alpha 90.000000
_cell_angle_beta 61.947019
_cell_angle_gamma 90.000000
_cell_volume 3152.238108
_symmetry_space_group_name_H-M "C 2/M"
_symmetry_group_IT_number 12
_symmetry_cell_setting 'monoclinic'
loop_
_space_group_symop_operation_xyz
x,y,z
-x,y,-z
-x,-y,-z
x,-y,z
1/2+x,1/2+y,z
1/2-x,1/2+y,-z
1/2-x,1/2-y,-z
1/2+x,1/2-y,z
loop_
_atom_site_type_symbol
_atom_site_label
_atom_site_fract_x
_atom_site_fract_y
_atom_site_fract_z
Si Si1 0.225849 0.703145 0.943622
Si Si2 0.692123 0.707771 0.208154
Si Si3 0.577177 0.701372 0.940047
Si Si4 0.371307 0.302497 0.566900
Si Si5 0.339394 0.200538 0.213815
Si Si6 0.388318 0.708402 0.423977
Si Si7 0.054491 0.208495 0.344797
Si Si8 0.291050 0.301431 0.356879
O O1 0.221979 0.500000 0.940948
O O2 0.286842 0.762763 0.868291
O O3 0.145983 0.767322 0.955413
O O4 0.250000 0.750000 0.000000
O O5 0.691405 0.500000 0.209226
O O6 0.761716 0.762650 0.218742
O O7 0.615450 0.765748 0.270166
O O8 0.568881 0.500000 0.936253
O O9 0.600329 0.770269 0.864333
O O10 0.500000 0.770500 0.000000
O O11 0.393639 0.500000 0.551583
O O12 0.376886 0.229952 0.497245
O O13 0.420691 0.230818 0.599475
O O14 0.285813 0.291623 0.623244
O O15 0.346000 0.283529 0.276333
O O16 0.333482 0.000000 0.226431
O O17 0.384434 0.500000 0.425645
O O18 0.470706 0.757455 0.368239
O O19 0.327986 0.766455 0.401915
O O20 0.056907 0.000000 0.344838
O O21 0.273331 0.500000 0.372413
#
# Coordination Sequence:
#
# PCOD9175118 Si02
#       8
#     8   8   8   8   8   8   8   8
#     4  10  20  35  56  83 116 151 190 231 275 328
#     4   8  15  29  52  79 100 130 176 221 263 313
#     4  10  21  38  60  87 116 146 183 227 279 336
#     4  10  18  32  56  78  97 133 184 225 266 321
#     4  10  19  35  58  82 106 140 186 226 264 317
#     4   9  19  31  47  77 109 135 170 224 277 322
#     4   9  15  29  53  78 101 128 174 228 269 311
#     4  11  21  33  49  76 111 142 175 216 272 328
#
# _framework density 20.303035000000001
#
# number of rings (size 3 to 8) (size 9 to 14) (size 15 to 20)
#    0.000    2.375    1.250    3.000    0.000    2.500 
#    2.250    0.625    0.000    3.000    0.000    0.000 
#    0.000    0.000    0.000    0.000    0.000    0.000 
#
# Total GULP energy -178559.417683 kJ/mol
# GULP energy per Si atom -5579.981803 kJ/mol
# Density = 2.025682 g / cm^3
# Si number density = 20.303035 Si / 1000 Ang^3
#
#
#
# Elastic Constant Matrix: (Units=GPa)
#
#
# Indices 1 2 3 4 5 6 
#
# 1 26.7808 -6.9167 -2.7494 0.0000 2.9036 -0.0003
# 2 -6.9167 26.4968 -7.2949 -0.0001 -0.0447 -0.0014
# 3 -2.7494 -7.2949 95.9594 0.0000 -0.5969 0.0008
# 4 0.0000 -0.0001 0.0000 16.1170 0.0003 0.6496
# 5 2.9036 -0.0447 -0.5969 0.0003 33.5970 0.0003
# 6 -0.0003 -0.0014 0.0008 0.6496 0.0003 12.0262
#
#
#
# Elastic Compliance Matrix: (Units=1/GPa)
#
#
# Indices 1 2 3 4 5 6 
#
# 1 0.040815 0.011199 0.001999 0.000000 -0.003477 0.000002
# 2 0.011199 0.041620 0.003480 0.000000 -0.000851 0.000005
# 3 0.001999 0.003480 0.010743 0.000000 0.000023 0.000000
# 4 0.000000 0.000000 0.000000 0.062182 0.000000 -0.003359
# 5 -0.003477 -0.000851 0.000023 0.000000 0.030064 -0.000001
# 6 0.000002 0.000005 0.000000 -0.003359 -0.000001 0.083334
#
#
# Mechanical properties :
#
#
# Convention : Reuss Voigt Hill
#
# Bulk Modulus (GPa) = 7.90309 12.81278 10.35794
# Shear Modulus (GPa) = 18.01280 23.42789 20.72034
#
# Velocity S-wave (km/s) = 2.98182 3.40061 3.19808
# Velocity P-wave (km/s) = 3.96938 4.66298 4.33009
#
# Compressibility (1/GPa) = 0.12653275
#
# Stress axis : x y z
#
# Youngs Moduli (GPa) = 24.50100 24.02675 93.08374
#
# Poissons Ratio (x) = -0.26907 -0.18609
# Poissons Ratio (y) = -0.27438 -0.32389
# Poissons Ratio (z) = -0.04898 -0.08360
#
# Static dielectric constant tensor:
#      x y z
#    x 9.955570 -0.000050 10.157190 
#    y -0.000050 1.753420 -0.000060 
#    z 10.157190 -0.000060 14.240050 
# 
# From -- ./inp_files/319978.got.cif
#   From: 2010.05.17/outbox.cif.g08.bks.cpg/sg12_160_cif.got.tgz:319978.got - 2010.06.03 13:09:07.
