data_PCOD9175930
_publ_section_title
;
Structure prediction by ZEFSAII (Michael W. Deem and Ramdas Pophale) SiO2 
 PCOD9175930
Probable space group: C 2/M
;
_chemical_formula_sum "Si O2"
_cell_formula_units_Z 48
_cell_length_a 9.120422
_cell_length_b 28.504387
_cell_length_c 8.422745
_cell_angle_alpha 90.000000
_cell_angle_beta 94.219720
_cell_angle_gamma 90.000000
_cell_volume 2183.742430
_symmetry_space_group_name_H-M "C 2/M"
_symmetry_group_IT_number 12
_symmetry_cell_setting 'monoclinic'
loop_
_space_group_symop_operation_xyz
x,y,z
-x,y,-z
-x,-y,-z
x,-y,z
1/2+x,1/2+y,z
1/2-x,1/2+y,-z
1/2-x,1/2-y,-z
1/2+x,1/2-y,z
loop_
_atom_site_type_symbol
_atom_site_label
_atom_site_fract_x
_atom_site_fract_y
_atom_site_fract_z
Si Si1 0.000000 0.667683 0.000000
Si Si2 0.331713 0.770453 0.721583
Si Si3 0.000000 0.330155 0.500000
Si Si4 0.967742 0.195804 0.183067
Si Si5 0.019044 0.900454 0.310828
Si Si6 0.601384 0.000000 0.669869
Si Si7 0.356773 0.103558 0.228231
Si Si8 0.457909 0.500000 0.679905
O O1 0.923052 0.701412 0.865376
O O2 0.118542 0.632316 0.931551
O O3 0.373363 0.797261 0.564045
O O4 0.165989 0.772864 0.766314
O O5 0.389948 0.717574 0.721126
O O6 0.942736 0.364729 0.360900
O O7 0.934377 0.142998 0.231022
O O8 0.000000 0.197728 0.000000
O O9 0.188154 0.896041 0.270568
O O10 0.977241 0.952130 0.246121
O O11 0.000000 0.898809 0.500000
O O12 0.500000 0.000000 0.500000
O O13 0.580942 0.949944 0.758236
O O14 0.779702 0.000000 0.659850
O O15 0.500000 0.500000 0.500000
#
# Coordination Sequence:
#
# PCOD9175930 Si02
#       8
#     4   8   4   8   8   4   8   4
#     4  10  22  41  58  80 124 161 198 234 302 354
#     4  11  25  40  60  86 119 160 199 245 295 355
#     4  10  22  37  58  84 124 151 202 244 294 346
#     4  12  25  40  61  87 122 158 203 242 301 356
#     4  10  21  38  64  87 117 154 202 244 299 350
#     4  10  18  33  59  93 118 148 199 249 299 346
#     4  10  20  37  60  86 120 158 195 248 297 353
#     4   8  18  38  60  85 118 156 190 240 302 350
#
# _framework density 21.980613000000002
#
# number of rings (size 3 to 8) (size 9 to 14) (size 15 to 20)
#    0.000    1.667    1.667    2.500    5.833    1.000 
#    0.000    0.417    0.000    1.000    0.000    0.000 
#    0.000    0.000    0.000    0.000    0.000    0.000 
#
# Total GULP energy -134053.262056 kJ/mol
# GULP energy per Si atom -5585.552586 kJ/mol
# Density = 2.193058 g / cm^3
# Si number density = 21.980613 Si / 1000 Ang^3
#
#
#
# Elastic Constant Matrix: (Units=GPa)
#
#
# Indices 1 2 3 4 5 6 
#
# 1 55.5301 8.0213 16.7000 0.0000 -19.2523 0.0000
# 2 8.0213 133.3672 27.0990 0.0000 -6.3364 0.0000
# 3 16.7000 27.0990 49.7844 0.0000 -18.6976 0.0000
# 4 0.0000 0.0000 0.0000 19.8035 0.0000 -0.4548
# 5 -19.2523 -6.3364 -18.6976 0.0000 33.3174 0.0000
# 6 0.0000 0.0000 0.0000 -0.4548 0.0000 26.0995
#
#
#
# Elastic Compliance Matrix: (Units=1/GPa)
#
#
# Indices 1 2 3 4 5 6 
#
# 1 0.022981 -0.000161 -0.003352 0.000000 0.011368 0.000000
# 2 -0.000161 0.008472 -0.005052 0.000000 -0.001317 0.000000
# 3 -0.003352 -0.005052 0.028981 0.000000 0.013366 0.000000
# 4 0.000000 0.000000 0.000000 0.050516 0.000000 0.000880
# 5 0.011368 -0.001317 0.013366 0.000000 0.043834 0.000000
# 6 0.000000 0.000000 0.000000 0.000880 0.000000 0.038330
#
#
# Mechanical properties :
#
#
# Convention : Reuss Voigt Hill
#
# Bulk Modulus (GPa) = 23.09270 38.03581 30.56425
# Shear Modulus (GPa) = 22.25407 28.30150 25.27778
#
# Velocity S-wave (km/s) = 3.18534 3.59216 3.39485
# Velocity P-wave (km/s) = 4.90482 5.87764 5.41313
#
# Compressibility (1/GPa) = 0.04330373
#
# Stress axis : x y z
#
# Youngs Moduli (GPa) = 43.51486 118.03959 34.50542
#
# Poissons Ratio (x) = 0.01901 0.11565
# Poissons Ratio (y) = 0.00701 0.17432
# Poissons Ratio (z) = 0.14585 0.59634
#
# Static dielectric constant tensor:
#      x y z
#    x 1.789600 0.000000 0.006690 
#    y 0.000000 1.854170 0.000000 
#    z 0.006690 0.000000 1.787990 
# 
# From -- ./inp_files/42329.got.cif
#   From: 2010.05.17/outbox.cif.g08.bks.cpg/sg12_22_cif.got.tgz:42329.got - 2010.06.03 13:09:07.
