data_PCOD9175899
_publ_section_title
;
Structure prediction by ZEFSAII (Michael W. Deem and Ramdas Pophale) SiO2 
 PCOD9175899
Probable space group: C 2/M
;
_chemical_formula_sum "Si O2"
_cell_formula_units_Z 40
_cell_length_a 14.006119
_cell_length_b 13.369651
_cell_length_c 24.549667
_cell_angle_alpha 90.000000
_cell_angle_beta 154.710449
_cell_angle_gamma 90.000000
_cell_volume 1963.846752
_symmetry_space_group_name_H-M "C 2/M"
_symmetry_group_IT_number 12
_symmetry_cell_setting 'monoclinic'
loop_
_space_group_symop_operation_xyz
x,y,z
-x,y,-z
-x,-y,-z
x,-y,z
1/2+x,1/2+y,z
1/2-x,1/2+y,-z
1/2-x,1/2-y,-z
1/2+x,1/2-y,z
loop_
_atom_site_type_symbol
_atom_site_label
_atom_site_fract_x
_atom_site_fract_y
_atom_site_fract_z
Si Si1 0.637965 0.394309 0.931141
Si Si2 0.506481 0.620799 0.367662
Si Si3 0.155152 0.710429 0.370211
Si Si4 0.819938 0.111685 0.868480
Si Si5 0.073418 0.308751 0.205495
O O1 0.643432 0.500000 0.903406
O O2 0.440945 0.397261 0.873711
O O3 0.566788 0.295440 0.862746
O O4 0.870305 0.381605 0.083629
O O5 0.491340 0.500000 0.355299
O O6 0.666587 0.654422 0.500074
O O7 0.620020 0.675669 0.373809
O O8 0.265101 0.669277 0.259382
O O9 0.191911 0.688578 0.325389
O O10 0.913719 0.663129 0.256332
O O11 0.780805 0.000000 0.871219
O O12 0.000000 0.165122 0.000000
#
# Coordination Sequence:
#
# PCOD9175899 Si02
#       5
#     8   8   8   8   8
#     4  10  21  36  59  89 120 154 195 244 297 354
#     4  11  25  42  61  88 121 159 202 248 298 354
#     4  11  23  40  61  86 120 157 199 245 297 353
#     4  10  18  33  59  86 112 148 196 245 293 345
#     4  11  22  39  62  88 123 157 199 245 297 356
#
# _framework density 20.368188
#
# number of rings (size 3 to 8) (size 9 to 14) (size 15 to 20)
#    0.000    1.400    4.000    1.800    0.000    4.000 
#    0.000    0.000    0.000    7.800    0.000    0.000 
#    0.000    0.000    0.000    0.000    0.000    0.000 
#
# Total GULP energy -111352.227942 kJ/mol
# GULP energy per Si atom -5567.611397 kJ/mol
# Density = 2.032183 g / cm^3
# Si number density = 20.368188 Si / 1000 Ang^3
#
#
#
# Elastic Constant Matrix: (Units=GPa)
#
#
# Indices 1 2 3 4 5 6 
#
# 1 26.5258 -13.7151 -5.0426 0.0027 10.1389 0.0030
# 2 -13.7151 111.8432 33.2441 0.0014 8.3929 0.0016
# 3 -5.0426 33.2441 74.1904 0.0036 4.0257 0.0010
# 4 0.0027 0.0014 0.0036 11.4093 0.0019 15.0081
# 5 10.1389 8.3929 4.0257 0.0019 23.8688 0.0029
# 6 0.0030 0.0016 0.0010 15.0081 0.0029 31.3271
#
#
#
# Elastic Compliance Matrix: (Units=1/GPa)
#
#
# Indices 1 2 3 4 5 6 
#
# 1 0.051462 0.007768 0.001364 -0.000015 -0.024821 0.000004
# 2 0.007768 0.011687 -0.004346 0.000000 -0.006676 -0.000001
# 3 0.001364 -0.004346 0.015610 -0.000011 -0.001684 0.000005
# 4 -0.000015 0.000000 -0.000011 0.237009 0.000003 -0.113546
# 5 -0.024821 -0.006676 -0.001684 0.000003 0.055071 -0.000004
# 6 0.000004 -0.000001 0.000005 -0.113546 -0.000004 0.086319
#
#
# Mechanical properties :
#
#
# Convention : Reuss Voigt Hill
#
# Bulk Modulus (GPa) = 11.32121 26.83693 19.07907
# Shear Modulus (GPa) = 10.48153 26.52592 18.50372
#
# Velocity S-wave (km/s) = 2.27095 3.61268 3.01734
# Velocity P-wave (km/s) = 3.52798 5.53231 4.63967
#
# Compressibility (1/GPa) = 0.08832974
#
# Stress axis : x y z
#
# Youngs Moduli (GPa) = 19.43181 85.56860 64.05949
#
# Poissons Ratio (x) = -0.66469 -0.08737
# Poissons Ratio (y) = -0.15094 0.27843
# Poissons Ratio (z) = -0.02650 0.37192
#
# Static dielectric constant tensor:
#      x y z
#    x 1.755880 0.000000 -0.023010 
#    y 0.000000 1.868920 0.000000 
#    z -0.023010 0.000000 1.708370 
# 
# From -- ./inp_files/153314.got.cif
#   From: 2010.05.17/outbox.cif.g08.bks.cpg/sg12_77_cif.got.tgz:153314.got - 2010.06.03 13:09:07.
