data_PCOD9175050
_publ_section_title
;
Structure prediction by ZEFSAII (Michael W. Deem and Ramdas Pophale) SiO2 
 PCOD9175050
Probable space group: C 2/M
;
_chemical_formula_sum "Si O2"
_cell_formula_units_Z 56
_cell_length_a 19.926786
_cell_length_b 18.904482
_cell_length_c 14.550358
_cell_angle_alpha 90.000000
_cell_angle_beta 31.638561
_cell_angle_gamma 90.000000
_cell_volume 2875.213318
_symmetry_space_group_name_H-M "C 2/M"
_symmetry_group_IT_number 12
_symmetry_cell_setting 'monoclinic'
loop_
_space_group_symop_operation_xyz
x,y,z
-x,y,-z
-x,-y,-z
x,-y,z
1/2+x,1/2+y,z
1/2-x,1/2+y,-z
1/2-x,1/2-y,-z
1/2+x,1/2-y,z
loop_
_atom_site_type_symbol
_atom_site_label
_atom_site_fract_x
_atom_site_fract_y
_atom_site_fract_z
Si Si1 0.022367 0.584020 0.724387
Si Si2 0.508629 0.423578 0.599243
Si Si3 0.263036 0.644897 0.947240
Si Si4 0.106684 0.349373 0.444511
Si Si5 0.418180 0.217443 0.229156
Si Si6 0.809021 0.224022 0.083693
Si Si7 0.640429 0.284212 0.505938
O O1 0.023752 0.500000 0.740548
O O2 0.108728 0.603042 0.533786
O O3 0.065852 0.635790 0.756659
O O4 0.877958 0.612518 0.872933
O O5 0.500000 0.417409 0.500000
O O6 0.561465 0.500000 0.562365
O O7 0.365479 0.413981 0.803109
O O8 0.593386 0.361550 0.540561
O O9 0.258285 0.702035 0.869081
O O10 0.312691 0.684155 0.980801
O O11 0.232415 0.328747 0.240117
O O12 0.065287 0.272200 0.531290
O O13 0.000000 0.378055 0.500000
O O14 0.386213 0.260870 0.359302
O O15 0.292577 0.222665 0.313400
O O16 0.551834 0.251617 0.043412
#
# Coordination Sequence:
#
# PCOD9175050 Si02
#       7
#     8   8   8   8   8   8   8
#     4  10  21  36  55  82 117 151 185 225 279 338
#     4  11  22  34  53  82 114 145 179 228 284 335
#     4  10  18  34  54  79 109 145 186 226 277 326
#     4  11  20  33  55  85 112 143 180 234 282 322
#     4   9  20  35  56  79 103 145 192 230 268 322
#     4  10  18  32  55  80 108 140 185 233 273 324
#     4  10  19  35  55  78 104 141 190 231 273 323
#
# _framework density 19.476815999999999
#
# number of rings (size 3 to 8) (size 9 to 14) (size 15 to 20)
#    0.000    1.857    2.857    2.571    0.000    1.429 
#    0.000    0.000    0.000    0.000    0.000   11.000 
#    0.000    0.000    0.000    0.000    0.000    0.000 
#
# Total GULP energy -156152.623395 kJ/mol
# GULP energy per Si atom -5576.879407 kJ/mol
# Density = 1.943249 g / cm^3
# Si number density = 19.476816 Si / 1000 Ang^3
#
#
#
# Elastic Constant Matrix: (Units=GPa)
#
#
# Indices 1 2 3 4 5 6 
#
# 1 25.6044 6.0853 4.6479 0.0002 -7.3770 -0.0001
# 2 6.0853 108.5508 5.7844 0.0003 -2.2053 -0.0002
# 3 4.6479 5.7844 91.6692 0.0004 -2.8212 -0.0003
# 4 0.0002 0.0003 0.0004 -9.9746 -0.0003 -4.8195
# 5 -7.3770 -2.2053 -2.8212 -0.0003 21.1557 0.0002
# 6 -0.0001 -0.0002 -0.0003 -4.8195 0.0002 7.4628
#
#
#
# Elastic Compliance Matrix: (Units=1/GPa)
#
#
# Indices 1 2 3 4 5 6 
#
# 1 0.044161 -0.002084 -0.001647 0.000000 0.014962 0.000000
# 2 -0.002084 0.009358 -0.000479 0.000000 0.000185 0.000000
# 3 -0.001647 -0.000479 0.011049 0.000000 0.000849 0.000001
# 4 0.000000 0.000000 0.000000 -0.076412 0.000000 -0.049347
# 5 0.014962 0.000185 0.000849 0.000000 0.052618 -0.000001
# 6 0.000000 0.000000 0.000001 -0.049347 -0.000001 0.102129
#
#
# Mechanical properties :
#
#
# Convention : Reuss Voigt Hill
#
# Bulk Modulus (GPa) = 17.81023 28.76218 23.28621
# Shear Modulus (GPa) = 29.40479 17.68257 23.54368
#
# Velocity S-wave (km/s) = 3.88974 3.01637 3.48056
# Velocity P-wave (km/s) = 5.41642 5.18949 5.30417
#
# Compressibility (1/GPa) = 0.05614750
#
# Stress axis : x y z
#
# Youngs Moduli (GPa) = 22.64452 106.85597 90.50862
#
# Poissons Ratio (x) = 0.22267 0.14908
# Poissons Ratio (y) = 0.04719 0.04337
# Poissons Ratio (z) = 0.03730 0.05120
#
# Static dielectric constant tensor:
#      x y z
#    x 1.682870 0.000000 0.018970 
#    y 0.000000 1.656110 0.000000 
#    z 0.018970 0.000000 1.755050 
# 
# From -- ./inp_files/145460.got.cif
#   From: 2010.05.17/outbox.cif.g08.bks.cpg/sg12_73_cif.got.tgz:145460.got - 2010.06.03 13:09:07.
