data_PCOD9175534
_publ_section_title
;
Structure prediction by ZEFSAII (Michael W. Deem and Ramdas Pophale) SiO2 
 PCOD9175534
Probable space group: C 2/M
;
_chemical_formula_sum "Si O2"
_cell_formula_units_Z 40
_cell_length_a 10.207901
_cell_length_b 16.720930
_cell_length_c 19.785758
_cell_angle_alpha 90.000000
_cell_angle_beta 135.868949
_cell_angle_gamma 90.000000
_cell_volume 2351.511664
_symmetry_space_group_name_H-M "C 2/M"
_symmetry_group_IT_number 12
_symmetry_cell_setting 'monoclinic'
loop_
_space_group_symop_operation_xyz
x,y,z
-x,y,-z
-x,-y,-z
x,-y,z
1/2+x,1/2+y,z
1/2-x,1/2+y,-z
1/2-x,1/2-y,-z
1/2+x,1/2-y,z
loop_
_atom_site_type_symbol
_atom_site_label
_atom_site_fract_x
_atom_site_fract_y
_atom_site_fract_z
Si Si1 0.224725 0.905375 0.590005
Si Si2 0.922262 0.591593 0.897385
Si Si3 0.133352 0.705006 0.235707
Si Si4 0.454646 0.671144 0.264365
Si Si5 0.812442 0.596417 0.470577
O O1 0.305530 0.852609 0.680209
O O2 0.315533 0.884466 0.551306
O O3 0.000000 0.893017 0.500000
O O4 0.253715 0.000000 0.614291
O O5 0.970870 0.500000 0.900170
O O6 0.984663 0.652976 0.862144
O O7 0.695588 0.603216 0.812016
O O8 0.000000 0.611952 0.000000
O O9 0.324993 0.725325 0.265938
O O10 0.026802 0.779342 0.227535
O O11 0.630693 0.636295 0.369749
O O12 0.794010 0.500000 0.458661
O O13 0.000000 0.620954 0.500000
#
# Coordination Sequence:
#
# PCOD9175534 Si02
#       5
#     8   8   8   8   8
#     4  10  18  33  54  75 105 149 193 231 262 312
#     4   9  19  38  64  84 103 141 187 227 271 330
#     4  10  22  34  54  82 111 144 178 224 281 322
#     4  10  22  36  53  80 116 140 181 227 272 325
#     4  10  21  34  52  77 109 151 189 223 269 318
#
# _framework density 17.010334
#
# number of rings (size 3 to 8) (size 9 to 14) (size 15 to 20)
#    1.200    1.000    2.000    1.200    2.800    2.400 
#    0.000    0.000    0.000    0.000    0.000    2.800 
#    0.000    0.000    0.000    0.000    0.000    0.000 
#
# Total GULP energy -111383.433740 kJ/mol
# GULP energy per Si atom -5569.171687 kJ/mol
# Density = 1.697162 g / cm^3
# Si number density = 17.010334 Si / 1000 Ang^3
#
#
#
# Elastic Constant Matrix: (Units=GPa)
#
#
# Indices 1 2 3 4 5 6 
#
# 1 94.9928 0.7619 1.2316 -0.0001 -11.8800 -0.0001
# 2 0.7619 13.7473 3.9960 0.0000 -9.5060 0.0000
# 3 1.2316 3.9960 47.6240 -0.0001 -14.5833 -0.0001
# 4 -0.0001 0.0000 -0.0001 -59.3351 -0.0001 -104.1107
# 5 -11.8800 -9.5060 -14.5833 -0.0001 18.3066 -0.0001
# 6 -0.0001 0.0000 -0.0001 -104.1107 -0.0001 -99.5787
#
#
#
# Elastic Compliance Matrix: (Units=1/GPa)
#
#
# Indices 1 2 3 4 5 6 
#
# 1 0.012373 0.009109 0.003734 0.000000 0.015734 0.000000
# 2 0.009109 0.124966 0.014496 0.000000 0.082349 0.000000
# 3 0.003734 0.014496 0.030066 0.000000 0.033901 0.000000
# 4 0.000000 0.000000 0.000000 0.020196 0.000000 -0.021116
# 5 0.015734 0.082349 0.033901 0.000000 0.134603 0.000000
# 6 0.000000 0.000000 0.000000 -0.021116 0.000000 0.012034
#
#
# Mechanical properties :
#
#
# Convention : Reuss Voigt Hill
#
# Bulk Modulus (GPa) = 4.50285 18.70478 11.60382
# Shear Modulus (GPa) = 14.14065 -18.09647 -1.97791
#
# Velocity S-wave (km/s) = 2.88635 -3.26521 -1.07949
# Velocity P-wave (km/s) = 3.70957 1.78759 2.29841
#
# Compressibility (1/GPa) = 0.22208136
#
# Stress axis : x y z
#
# Youngs Moduli (GPa) = 80.81885 8.00217 33.26003
#
# Poissons Ratio (x) = -0.07289 -0.12418
# Poissons Ratio (y) = -0.73614 -0.48212
# Poissons Ratio (z) = -0.30175 -0.11600
#
# Static dielectric constant tensor:
#      x y z
#    x 1.579620 0.000000 -0.010670 
#    y 0.000000 1.571190 0.000000 
#    z -0.010670 0.000000 1.552750 
# 
# From -- ./inp_files/195057.got.cif
#   From: 2010.05.17/outbox.cif.g08.bks.cpg/sg12_98_cif.got.tgz:195057.got - 2010.06.03 13:09:07.
