data_PCOD9175353
_publ_section_title
;
Structure prediction by ZEFSAII (Michael W. Deem and Ramdas Pophale) SiO2 
 PCOD9175353
Probable space group: C 2/M
;
_chemical_formula_sum "Si O2"
_cell_formula_units_Z 48
_cell_length_a 28.340543
_cell_length_b 14.701705
_cell_length_c 8.319292
_cell_angle_alpha 90.000000
_cell_angle_beta 136.275509
_cell_angle_gamma 90.000000
_cell_volume 2395.855118
_symmetry_space_group_name_H-M "C 2/M"
_symmetry_group_IT_number 12
_symmetry_cell_setting 'monoclinic'
loop_
_space_group_symop_operation_xyz
x,y,z
-x,y,-z
-x,-y,-z
x,-y,z
1/2+x,1/2+y,z
1/2-x,1/2+y,-z
1/2-x,1/2-y,-z
1/2+x,1/2-y,z
loop_
_atom_site_type_symbol
_atom_site_label
_atom_site_fract_x
_atom_site_fract_y
_atom_site_fract_z
Si Si1 0.480984 0.601613 0.641184
Si Si2 0.472990 0.105448 0.247883
Si Si3 0.134599 0.101764 0.088323
Si Si4 0.341959 0.210392 0.028160
Si Si5 0.707930 0.699686 0.533829
Si Si6 0.901366 0.280646 0.524520
O O1 0.500000 0.615755 0.500000
O O2 0.452948 0.500000 0.589270
O O3 0.431733 0.680073 0.574838
O O4 0.553133 0.607996 0.908638
O O5 0.500000 0.109954 0.500000
O O6 0.401688 0.160138 0.073106
O O7 0.533673 0.153248 0.297477
O O8 0.463731 0.000000 0.182548
O O9 0.170057 0.119655 0.346270
O O10 0.149786 0.000000 0.064817
O O11 0.154910 0.183086 0.016402
O O12 0.362179 0.196771 0.262661
O O13 0.266027 0.174424 0.805280
O O14 0.750000 0.750000 0.500000
O O15 0.653124 0.770145 0.469550
#
# Coordination Sequence:
#
# PCOD9175353 Si02
#       6
#     8   8   8   8   8   8
#     4  10  18  32  59  92 116 143 190 247 299 353
#     4   9  18  34  61  91 114 142 193 255 301 341
#     4  10  20  37  58  84 121 154 186 235 301 359
#     4  10  19  38  61  88 115 156 197 246 297 356
#     4  10  24  39  53  79 121 163 197 240 294 353
#     4  11  19  36  62  87 115 154 203 246 293 349
#
# _framework density 20.034600000000001
#
# number of rings (size 3 to 8) (size 9 to 14) (size 15 to 20)
#    0.000    2.000    3.333    1.000    0.000    2.000 
#    0.000    5.000    0.000   11.000    0.000    0.000 
#    0.000    0.000    0.000    0.000    0.000    0.000 
#
# Total GULP energy -133910.632784 kJ/mol
# GULP energy per Si atom -5579.609699 kJ/mol
# Density = 1.998900 g / cm^3
# Si number density = 20.034600 Si / 1000 Ang^3
#
#
#
# Elastic Constant Matrix: (Units=GPa)
#
#
# Indices 1 2 3 4 5 6 
#
# 1 90.7203 39.8923 9.3955 0.0000 16.7527 0.0000
# 2 39.8923 92.6133 22.9175 0.0000 6.9978 0.0000
# 3 9.3955 22.9175 77.3289 0.0000 16.1604 0.0000
# 4 0.0000 0.0000 0.0000 21.4227 0.0000 -6.6807
# 5 16.7527 6.9978 16.1604 0.0000 16.8482 0.0000
# 6 0.0000 0.0000 0.0000 -6.6807 0.0000 -4.7858
#
#
#
# Elastic Compliance Matrix: (Units=1/GPa)
#
#
# Indices 1 2 3 4 5 6 
#
# 1 0.016873 -0.006848 0.003616 0.000000 -0.017401 0.000000
# 2 -0.006848 0.014481 -0.004535 0.000000 0.005144 0.000000
# 3 0.003616 -0.004535 0.017753 0.000000 -0.018740 0.000000
# 4 0.000000 0.000000 0.000000 0.032522 0.000000 -0.045399
# 5 -0.017401 0.005144 -0.018740 0.000000 0.092495 0.000000
# 6 0.000000 0.000000 0.000000 -0.045399 0.000000 -0.145578
#
#
# Mechanical properties :
#
#
# Convention : Reuss Voigt Hill
#
# Bulk Modulus (GPa) = 29.78540 45.00814 37.39677
# Shear Modulus (GPa) = 90.46723 19.26084 54.86403
#
# Velocity S-wave (km/s) = 6.72707 3.10397 5.23871
# Velocity P-wave (km/s) = 8.67394 5.94644 7.43631
#
# Compressibility (1/GPa) = 0.03357349
#
# Stress axis : x y z
#
# Youngs Moduli (GPa) = 59.26630 69.05777 56.32974
#
# Poissons Ratio (x) = 0.47290 -0.20369
# Poissons Ratio (y) = 0.40585 0.25543
# Poissons Ratio (z) = -0.21430 0.31314
#
# Static dielectric constant tensor:
#      x y z
#    x 1.719150 0.000000 -0.017300 
#    y 0.000000 1.697490 0.000000 
#    z -0.017300 0.000000 1.799540 
# 
# From -- ./inp_files/111761.got.cif
#   From: 2010.05.17/outbox.cif.g08.bks.cpg/sg12_56_cif.got.tgz:111761.got - 2010.06.03 13:09:07.
