data_PCOD9175830
_publ_section_title
;
Structure prediction by ZEFSAII (Michael W. Deem and Ramdas Pophale) SiO2 
 PCOD9175830
Probable space group: C 2/M
;
_chemical_formula_sum "Si O2"
_cell_formula_units_Z 64
_cell_length_a 10.342448
_cell_length_b 15.025940
_cell_length_c 28.342897
_cell_angle_alpha 90.000000
_cell_angle_beta 44.395982
_cell_angle_gamma 90.000000
_cell_volume 3081.536040
_symmetry_space_group_name_H-M "C 2/M"
_symmetry_group_IT_number 12
_symmetry_cell_setting 'monoclinic'
loop_
_space_group_symop_operation_xyz
x,y,z
-x,y,-z
-x,-y,-z
x,-y,z
1/2+x,1/2+y,z
1/2-x,1/2+y,-z
1/2-x,1/2-y,-z
1/2+x,1/2-y,z
loop_
_atom_site_type_symbol
_atom_site_label
_atom_site_fract_x
_atom_site_fract_y
_atom_site_fract_z
Si Si1 0.782681 0.761372 0.221148
Si Si2 0.045681 0.401759 0.380965
Si Si3 0.489646 0.898374 0.723440
Si Si4 0.140250 0.209745 0.352440
Si Si5 0.830362 0.330722 0.009321
Si Si6 0.576765 0.094659 0.867039
Si Si7 0.386136 0.603508 0.482147
Si Si8 0.928903 0.902049 0.842141
O O1 0.665024 0.827710 0.218323
O O2 0.645164 0.717315 0.294535
O O3 0.907312 0.684082 0.166825
O O4 0.923410 0.828513 0.209704
O O5 0.112798 0.500000 0.379297
O O6 0.040696 0.403267 0.325186
O O7 0.832342 0.391030 0.452381
O O8 0.151473 0.311872 0.367849
O O9 0.687279 0.852761 0.679701
O O10 0.479952 0.000000 0.743951
O O11 0.959495 0.165470 0.421488
O O12 0.920434 0.396439 0.947632
O O13 0.750000 0.250000 0.000000
O O14 0.673237 0.374346 0.082791
O O15 0.000000 0.303939 0.000000
O O16 0.769996 0.094099 0.844727
O O17 0.556572 0.000000 0.846744
O O18 0.500000 0.627509 0.500000
O O19 0.431601 0.500000 0.460242
O O20 0.014543 0.000000 0.824512
#
# Coordination Sequence:
#
# PCOD9175830 Si02
#       8
#     8   8   8   8   8   8   8   8
#     4  11  22  36  54  82 116 151 187 238 290 337
#     4   9  19  35  56  81 105 136 178 231 283 332
#     4  10  20  36  55  79 108 142 188 232 274 333
#     4  11  21  33  56  83 110 145 186 229 287 342
#     4  10  19  36  64  91 118 153 201 255 298 353
#     4  10  21  37  57  84 119 155 193 237 292 355
#     4  10  18  33  58  83 106 138 186 237 283 339
#     4  10  20  37  62  85 110 154 203 238 282 349
#
# _framework density 20.768863
#
# number of rings (size 3 to 8) (size 9 to 14) (size 15 to 20)
#    0.000    1.875    2.500    2.250    0.000    3.000 
#    0.000    0.625    0.000    4.875    0.000    0.000 
#    0.000    0.000    0.000    0.000    0.000    0.000 
#
# Total GULP energy -178506.246136 kJ/mol
# GULP energy per Si atom -5578.320192 kJ/mol
# Density = 2.072159 g / cm^3
# Si number density = 20.768863 Si / 1000 Ang^3
#
#
#
# Elastic Constant Matrix: (Units=GPa)
#
#
# Indices 1 2 3 4 5 6 
#
# 1 18.6102 32.6192 5.5571 0.0000 -4.2571 0.0000
# 2 32.6192 141.4738 22.4935 -0.0002 0.2879 0.0002
# 3 5.5571 22.4935 61.5788 -0.0002 1.9015 0.0000
# 4 0.0000 -0.0002 -0.0002 30.1594 0.0001 -13.1276
# 5 -4.2571 0.2879 1.9015 0.0001 19.4285 -0.0001
# 6 0.0000 0.0002 0.0000 -13.1276 -0.0001 34.2459
#
#
#
# Elastic Compliance Matrix: (Units=1/GPa)
#
#
# Indices 1 2 3 4 5 6 
#
# 1 0.098848 -0.022623 -0.001340 0.000000 0.022125 0.000000
# 2 -0.022623 0.012682 -0.002440 0.000000 -0.004906 0.000000
# 3 -0.001340 -0.002440 0.017312 0.000000 -0.001952 0.000000
# 4 0.000000 0.000000 0.000000 0.039798 0.000000 0.015256
# 5 0.022125 -0.004906 -0.001952 0.000000 0.056583 0.000000
# 6 0.000000 0.000000 0.000000 0.015256 0.000000 0.035049
#
#
# Mechanical properties :
#
#
# Convention : Reuss Voigt Hill
#
# Bulk Modulus (GPa) = 13.15148 38.11139 25.63144
# Shear Modulus (GPa) = 14.77447 27.49963 21.13705
#
# Velocity S-wave (km/s) = 2.67006 3.64274 3.19365
# Velocity P-wave (km/s) = 3.98141 6.00690 5.09581
#
# Compressibility (1/GPa) = 0.07603704
#
# Stress axis : x y z
#
# Youngs Moduli (GPa) = 10.11654 78.84905 57.76458
#
# Poissons Ratio (x) = 1.78381 0.07740
# Poissons Ratio (y) = 0.22887 0.14092
# Poissons Ratio (z) = 0.01355 0.19236
#
# Static dielectric constant tensor:
#      x y z
#    x 1.745550 0.000000 -0.001550 
#    y 0.000000 1.793550 0.000000 
#    z -0.001550 0.000000 1.756070 
# 
# From -- ./inp_files/374088.got.cif
#   From: 2010.05.17/outbox.cif.g08.bks.cpg/sg12_188_cif.got.tgz:374088.got - 2010.06.03 13:09:07.
