data_PCOD9175363
_publ_section_title
;
Structure prediction by ZEFSAII (Michael W. Deem and Ramdas Pophale) SiO2 
 PCOD9175363
Probable space group: C 2/M
;
_chemical_formula_sum "Si O2"
_cell_formula_units_Z 40
_cell_length_a 13.642519
_cell_length_b 15.581595
_cell_length_c 12.685970
_cell_angle_alpha 90.000000
_cell_angle_beta 138.476015
_cell_angle_gamma 90.000000
_cell_volume 1787.722620
_symmetry_space_group_name_H-M "C 2/M"
_symmetry_group_IT_number 12
_symmetry_cell_setting 'monoclinic'
loop_
_space_group_symop_operation_xyz
x,y,z
-x,y,-z
-x,-y,-z
x,-y,z
1/2+x,1/2+y,z
1/2-x,1/2+y,-z
1/2-x,1/2-y,-z
1/2+x,1/2-y,z
loop_
_atom_site_type_symbol
_atom_site_label
_atom_site_fract_x
_atom_site_fract_y
_atom_site_fract_z
Si Si1 0.362860 0.277175 0.268131
Si Si2 0.298543 0.907834 0.150251
Si Si3 0.937268 0.357780 0.054255
Si Si4 0.788501 0.244329 0.652523
Si Si5 0.008076 0.899091 0.209628
O O1 0.379341 0.175594 0.261464
O O2 0.340751 0.280703 0.376648
O O3 0.458936 0.342847 0.273997
O O4 0.197582 0.297746 0.091251
O O5 0.371358 0.913653 0.093112
O O6 0.315413 0.000000 0.218547
O O7 0.125338 0.893078 0.982745
O O8 0.068544 0.301091 0.206637
O O9 0.000000 0.401477 0.000000
O O10 0.750000 0.250000 0.500000
O O11 0.845366 0.147026 0.717678
O O12 0.027224 0.000000 0.249895
#
# Coordination Sequence:
#
# PCOD9175363 Si02
#       5
#     8   8   8   8   8
#     4  10  19  37  61  83 116 148 193 247 293 334
#     4  10  18  32  60  90 112 144 192 244 293 339
#     4   9  17  34  56  79 111 148 187 238 286 339
#     4  11  22  36  57  83 116 159 189 231 295 352
#     4  10  20  38  63  89 115 149 199 246 287 346
#
# _framework density 22.374835000000001
#
# number of rings (size 3 to 8) (size 9 to 14) (size 15 to 20)
#    0.000    2.000    4.000    1.200    0.000    2.000 
#    0.000    8.000    0.000    1.200    0.000    0.000 
#    0.000    0.000    0.000    0.000    0.000    0.000 
#
# Total GULP energy -111504.153097 kJ/mol
# GULP energy per Si atom -5575.207655 kJ/mol
# Density = 2.232391 g / cm^3
# Si number density = 22.374835 Si / 1000 Ang^3
#
#
#
# Elastic Constant Matrix: (Units=GPa)
#
#
# Indices 1 2 3 4 5 6 
#
# 1 55.2568 -2.2021 12.5634 0.0000 7.1982 0.0000
# 2 -2.2021 134.0507 6.4411 0.0000 1.6577 0.0000
# 3 12.5634 6.4411 37.7788 0.0000 -5.6107 0.0000
# 4 0.0000 0.0000 0.0000 6.9313 0.0000 -9.2588
# 5 7.1982 1.6577 -5.6107 0.0000 37.5537 0.0000
# 6 0.0000 0.0000 0.0000 -9.2588 0.0000 -23.9402
#
#
#
# Elastic Compliance Matrix: (Units=1/GPa)
#
#
# Indices 1 2 3 4 5 6 
#
# 1 0.020553 0.000772 -0.007728 0.000000 -0.005128 0.000000
# 2 0.000772 0.007561 -0.001654 0.000000 -0.000729 0.000000
# 3 -0.007728 -0.001654 0.030224 0.000000 0.006070 0.000000
# 4 0.000000 0.000000 0.000000 0.095128 0.000000 -0.036791
# 5 -0.005128 -0.000729 0.006070 0.000000 0.028551 0.000000
# 6 0.000000 0.000000 0.000000 -0.036791 0.000000 -0.027542
#
#
# Mechanical properties :
#
#
# Convention : Reuss Voigt Hill
#
# Bulk Modulus (GPa) = 24.32060 28.96568 26.64314
# Shear Modulus (GPa) = 26.96855 18.12788 22.54822
#
# Velocity S-wave (km/s) = 3.47552 2.84947 3.17795
# Velocity P-wave (km/s) = 5.19604 4.87850 5.03977
#
# Compressibility (1/GPa) = 0.04111740
#
# Stress axis : x y z
#
# Youngs Moduli (GPa) = 48.65392 132.25666 33.08683
#
# Poissons Ratio (x) = -0.10216 0.25571
# Poissons Ratio (y) = -0.03758 0.05473
# Poissons Ratio (z) = 0.37602 0.21879
#
# Static dielectric constant tensor:
#      x y z
#    x 1.918700 0.000000 -0.003470 
#    y 0.000000 1.822020 0.000000 
#    z -0.003470 0.000000 1.850960 
# 
# From -- ./inp_files/58952.got.cif
#   From: 2010.05.17/outbox.cif.g08.bks.cpg/sg12_30_cif.got.tgz:58952.got - 2010.06.03 13:09:07.
