data_PCOD9175343
_publ_section_title
;
Structure prediction by ZEFSAII (Michael W. Deem and Ramdas Pophale) SiO2 
 PCOD9175343
Probable space group: C 2/M
;
_chemical_formula_sum "Si O2"
_cell_formula_units_Z 48
_cell_length_a 32.156923
_cell_length_b 15.083594
_cell_length_c 9.808311
_cell_angle_alpha 90.000000
_cell_angle_beta 156.092552
_cell_angle_gamma 90.000000
_cell_volume 1928.003188
_symmetry_space_group_name_H-M "C 2/M"
_symmetry_group_IT_number 12
_symmetry_cell_setting 'monoclinic'
loop_
_space_group_symop_operation_xyz
x,y,z
-x,y,-z
-x,-y,-z
x,-y,z
1/2+x,1/2+y,z
1/2-x,1/2+y,-z
1/2-x,1/2-y,-z
1/2+x,1/2-y,z
loop_
_atom_site_type_symbol
_atom_site_label
_atom_site_fract_x
_atom_site_fract_y
_atom_site_fract_z
Si Si1 0.327182 0.831773 0.255819
Si Si2 0.765396 0.892292 0.469920
Si Si3 0.972798 0.601232 0.260729
Si Si4 0.045666 0.898823 0.502660
Si Si5 0.248010 0.401031 0.713881
Si Si6 0.349213 0.601713 0.443291
O O1 0.443002 0.835365 0.552851
O O2 0.330681 0.848625 0.428502
O O3 0.250000 0.750000 0.000000
O O4 0.263776 0.899405 0.967158
O O5 0.793177 0.865265 0.707346
O O6 0.829847 0.857590 0.534502
O O7 0.773000 0.000000 0.483046
O O8 0.645082 0.869690 0.101937
O O9 0.982343 0.500000 0.233039
O O10 0.000000 0.596660 0.500000
O O11 0.066365 0.862791 0.412734
O O12 0.000000 0.851181 0.500000
O O13 0.999630 0.000000 0.354084
O O14 0.160189 0.909162 0.903659
O O15 0.207839 0.500000 0.565135
O O16 0.381756 0.500000 0.558523
#
# Coordination Sequence:
#
# PCOD9175343 Si02
#       6
#     8   8   8   8   8   8
#     4  11  21  33  49  77 111 153 190 223 276 348
#     4   9  17  30  55  89 112 136 177 239 312 348
#     4  10  18  32  59  88 112 142 193 244 284 343
#     4   8  14  26  47  74 104 142 182 218 261 324
#     4   9  18  33  53  81 115 142 180 241 300 344
#     4   9  16  31  54  76 104 141 184 235 285 337
#
# _framework density 24.896225999999999
#
# number of rings (size 3 to 8) (size 9 to 14) (size 15 to 20)
#    0.000    2.667    1.667    2.500    0.000    0.667 
#    0.000    7.500    0.000    5.000    8.667    0.000 
#    0.000    0.000    0.000    0.333    0.000    0.000 
#
# Total GULP energy -133642.695073 kJ/mol
# GULP energy per Si atom -5568.445628 kJ/mol
# Density = 2.483956 g / cm^3
# Si number density = 24.896226 Si / 1000 Ang^3
#
#
#
# Elastic Constant Matrix: (Units=GPa)
#
#
# Indices 1 2 3 4 5 6 
#
# 1 279.3457 41.4536 18.0098 0.0000 -8.3124 0.0000
# 2 41.4536 68.3995 6.4240 0.0000 6.1346 0.0000
# 3 18.0098 6.4240 43.7467 0.0000 -8.0127 0.0000
# 4 0.0000 0.0000 0.0000 10.0611 0.0000 4.0028
# 5 -8.3124 6.1346 -8.0127 0.0000 36.5240 0.0000
# 6 0.0000 0.0000 0.0000 4.0028 0.0000 1.9470
#
#
#
# Elastic Compliance Matrix: (Units=1/GPa)
#
#
# Indices 1 2 3 4 5 6 
#
# 1 0.004047 -0.002446 -0.001107 0.000000 0.001089 0.000000
# 2 -0.002446 0.016646 -0.002137 0.000000 -0.003821 0.000000
# 3 -0.001107 -0.002137 0.024638 0.000000 0.005512 0.000000
# 4 0.000000 0.000000 0.000000 0.545902 0.000000 -1.122320
# 5 0.001089 -0.003821 0.005512 0.000000 0.029478 0.000000
# 6 0.000000 0.000000 0.000000 -1.122320 0.000000 2.820995
#
#
# Mechanical properties :
#
#
# Convention : Reuss Voigt Hill
#
# Bulk Modulus (GPa) = 29.45565 58.14073 43.79819
# Shear Modulus (GPa) = 1.44325 31.41341 16.42833
#
# Velocity S-wave (km/s) = 0.76221 3.55600 2.57158
# Velocity P-wave (km/s) = 3.55411 6.34540 5.14275
#
# Compressibility (1/GPa) = 0.03394935
#
# Stress axis : x y z
#
# Youngs Moduli (GPa) = 247.12284 60.07486 40.58746
#
# Poissons Ratio (x) = 0.14695 0.04494
# Poissons Ratio (y) = 0.60448 0.08675
# Poissons Ratio (z) = 0.27363 0.12840
#
# Static dielectric constant tensor:
#      x y z
#    x 2.078030 0.000000 0.019770 
#    y 0.000000 2.156380 0.000000 
#    z 0.019770 0.000000 2.022060 
# 
# From -- ./inp_files/112927.got.cif
#   From: 2010.05.17/outbox.cif.g08.bks.cpg/sg12_57_cif.got.tgz:112927.got - 2010.06.03 13:09:07.
