data_PCOD9175535
_publ_section_title
;
Structure prediction by ZEFSAII (Michael W. Deem and Ramdas Pophale) SiO2 
 PCOD9175535
Probable space group: C 2/M
;
_chemical_formula_sum "Si O2"
_cell_formula_units_Z 64
_cell_length_a 10.274930
_cell_length_b 14.658544
_cell_length_c 27.941276
_cell_angle_alpha 90.000000
_cell_angle_beta 44.585829
_cell_angle_gamma 90.000000
_cell_volume 2954.192416
_symmetry_space_group_name_H-M "C 2/M"
_symmetry_group_IT_number 12
_symmetry_cell_setting 'monoclinic'
loop_
_space_group_symop_operation_xyz
x,y,z
-x,y,-z
-x,-y,-z
x,-y,z
1/2+x,1/2+y,z
1/2-x,1/2+y,-z
1/2-x,1/2-y,-z
1/2+x,1/2-y,z
loop_
_atom_site_type_symbol
_atom_site_label
_atom_site_fract_x
_atom_site_fract_y
_atom_site_fract_z
Si Si1 0.597943 0.388776 0.696858
Si Si2 0.294619 0.110064 0.226895
Si Si3 0.502398 0.888582 0.444364
Si Si4 0.701768 0.342916 0.064371
Si Si5 0.474085 0.824540 0.080947
Si Si6 0.785643 0.111512 0.560750
Si Si7 0.461683 0.888101 0.282871
Si Si8 0.359583 0.602810 0.209315
O O1 0.595316 0.500000 0.694484
O O2 0.418565 0.358232 0.714969
O O3 0.799288 0.359306 0.627731
O O4 0.575636 0.357943 0.757335
O O5 0.384494 0.137346 0.152736
O O6 0.399910 0.142320 0.246509
O O7 0.295797 0.000000 0.227261
O O8 0.500000 0.860142 0.500000
O O9 0.336861 0.858631 0.452858
O O10 0.496832 0.000000 0.445204
O O11 0.584008 0.265666 0.067937
O O12 0.534586 0.401484 0.129020
O O13 0.821091 0.309727 0.079467
O O14 0.858990 0.382256 0.987745
O O15 0.677745 0.138638 0.637721
O O16 0.000000 0.140110 0.500000
O O17 0.786096 0.000000 0.560738
O O18 0.671628 0.855339 0.237958
O O19 0.458876 0.000000 0.282454
O O20 0.301742 0.500000 0.236651
#
# Coordination Sequence:
#
# PCOD9175535 Si02
#       8
#     8   8   8   8   8   8   8   8
#     4   9  16  28  45  67  99 131 168 214 255 295
#     4  10  20  33  52  77 104 134 171 217 258 299
#     4   9  16  24  37  60  93 134 173 206 245 298
#     4  10  22  38  57  76 103 136 166 209 257 306
#     4  10  22  39  55  77 104 134 169 207 257 308
#     4   9  16  25  37  58  94 137 172 201 245 304
#     4   9  18  30  45  69 103 137 169 209 258 303
#     4  10  18  33  54  76 100 136 175 210 255 304
#
# _framework density 21.664128000000002
#
# number of rings (size 3 to 8) (size 9 to 14) (size 15 to 20)
#    0.000    2.500    2.500    0.000    3.500    0.500 
#    0.000    1.250    0.000    2.250    0.000    0.000 
#    0.000    6.000    0.000    0.000    0.000    0.000 
#
# Total GULP energy -178435.080836 kJ/mol
# GULP energy per Si atom -5576.096276 kJ/mol
# Density = 2.161482 g / cm^3
# Si number density = 21.664128 Si / 1000 Ang^3
#
#
#
# Elastic Constant Matrix: (Units=GPa)
#
#
# Indices 1 2 3 4 5 6 
#
# 1 159.9556 5.4791 59.5496 -0.0001 -11.3689 0.0001
# 2 5.4791 44.9453 -6.8658 0.0001 -3.4126 0.0001
# 3 59.5496 -6.8658 133.5543 0.0005 -10.4298 -0.0001
# 4 -0.0001 0.0001 0.0005 49.7015 -0.0002 -7.3544
# 5 -11.3689 -3.4126 -10.4298 -0.0002 40.5359 0.0000
# 6 0.0001 0.0001 -0.0001 -7.3544 0.0000 0.4393
#
#
#
# Elastic Compliance Matrix: (Units=1/GPa)
#
#
# Indices 1 2 3 4 5 6 
#
# 1 0.007641 -0.001361 -0.003387 0.000000 0.001157 0.000001
# 2 -0.001361 0.022867 0.001942 0.000000 0.002043 0.000002
# 3 -0.003387 0.001942 0.009221 0.000000 0.001586 -0.000001
# 4 0.000000 0.000000 0.000000 -0.013623 0.000000 -0.228040
# 5 0.001157 0.002043 0.001586 0.000000 0.025574 -0.000002
# 6 0.000001 0.000002 -0.000001 -0.228040 -0.000002 -1.541117
#
#
# Mechanical properties :
#
#
# Convention : Reuss Voigt Hill
#
# Bulk Modulus (GPa) = 29.30993 50.53122 39.92057
# Shear Modulus (GPa) = -3.39570 36.82149 16.71289
#
# Velocity S-wave (km/s) = -1.25333 4.12716 2.78052
# Velocity P-wave (km/s) = 3.38588 6.78872 5.36427
#
# Compressibility (1/GPa) = 0.03411813
#
# Stress axis : x y z
#
# Youngs Moduli (GPa) = 130.86480 43.73115 108.44313
#
# Poissons Ratio (x) = 0.05952 0.36728
# Poissons Ratio (y) = 0.17811 -0.21059
# Poissons Ratio (z) = 0.44321 -0.08493
#
# Static dielectric constant tensor:
#      x y z
#    x 1.789660 0.000000 0.022790 
#    y 0.000000 1.865670 0.000000 
#    z 0.022790 0.000000 1.832840 
# 
# From -- ./inp_files/333728.got.cif
#   From: 2010.05.17/outbox.cif.g08.bks.cpg/sg12_167_cif.got.tgz:333728.got - 2010.06.03 13:09:07.
