data_PCOD9175233
_publ_section_title
;
Structure prediction by ZEFSAII (Michael W. Deem and Ramdas Pophale) SiO2 
 PCOD9175233
Probable space group: C 2/M
;
_chemical_formula_sum "Si O2"
_cell_formula_units_Z 60
_cell_length_a 25.754117
_cell_length_b 18.812987
_cell_length_c 15.152556
_cell_angle_alpha 90.000000
_cell_angle_beta 151.970012
_cell_angle_gamma 90.000000
_cell_volume 3450.061505
_symmetry_space_group_name_H-M "C 2/M"
_symmetry_group_IT_number 12
_symmetry_cell_setting 'monoclinic'
loop_
_space_group_symop_operation_xyz
x,y,z
-x,y,-z
-x,-y,-z
x,-y,z
1/2+x,1/2+y,z
1/2-x,1/2+y,-z
1/2-x,1/2-y,-z
1/2+x,1/2-y,z
loop_
_atom_site_type_symbol
_atom_site_label
_atom_site_fract_x
_atom_site_fract_y
_atom_site_fract_z
Si Si1 0.746529 0.418708 0.435691
Si Si2 0.660456 0.579589 0.505359
Si Si3 0.000000 0.748633 0.500000
Si Si4 0.943022 0.679448 0.730138
Si Si5 0.979704 0.195637 0.274320
Si Si6 0.185577 0.669941 0.156658
Si Si7 0.742509 0.771483 0.886580
Si Si8 0.127536 0.224580 0.218822
O O1 0.729492 0.500000 0.379740
O O2 0.722294 0.417643 0.504205
O O3 0.868419 0.388517 0.599177
O O4 0.669185 0.355872 0.283352
O O5 0.619163 0.500000 0.456725
O O6 0.561593 0.635676 0.362289
O O7 0.748002 0.602535 0.710651
O O8 0.010908 0.795847 0.605640
O O9 0.883176 0.705517 0.324519
O O10 0.979770 0.728488 0.703784
O O11 0.873809 0.731751 0.691383
O O12 0.056174 0.656924 0.947617
O O13 0.855775 0.182818 0.049854
O O14 0.236353 0.704353 0.145327
O O15 0.193573 0.729508 0.245713
O O16 0.750000 0.750000 0.000000
O O17 0.000000 0.223160 0.000000
#
# Coordination Sequence:
#
# PCOD9175233 Si02
#       8
#     8   8   4   8   8   8   8   8
#     4  11  22  33  48  76 114 147 176 214 258 313
#     4  11  21  33  51  77 114 149 172 208 266 327
#     4  10  18  32  57  84 103 124 174 236 270 312
#     4  10  19  33  53  77 105 139 178 221 266 306
#     4  10  19  34  54  80 109 137 178 223 267 319
#     4  10  19  33  54  78 103 137 179 221 263 317
#     4   9  19  32  54  81 107 128 167 231 275 311
#     4  10  19  32  53  75  99 138 180 219 260 308
#
# _framework density 17.390995
#
# number of rings (size 3 to 8) (size 9 to 14) (size 15 to 20)
#    0.000    1.867    4.000    1.200    0.000    0.800 
#    0.000    1.667    0.000    0.000    0.000    0.933 
#    0.000    0.000    0.000    0.000    0.000    0.000 
#
# Total GULP energy -167108.191622 kJ/mol
# GULP energy per Si atom -5570.273054 kJ/mol
# Density = 1.735141 g / cm^3
# Si number density = 17.390995 Si / 1000 Ang^3
#
#
#
# Elastic Constant Matrix: (Units=GPa)
#
#
# Indices 1 2 3 4 5 6 
#
# 1 56.6830 3.6791 7.0227 0.0000 0.8023 0.0000
# 2 3.6791 62.7840 7.6323 0.0000 7.0954 0.0000
# 3 7.0227 7.6323 82.9782 0.0000 25.4431 0.0000
# 4 0.0000 0.0000 0.0000 10.2594 0.0000 -6.3691
# 5 0.8023 7.0954 25.4431 0.0000 34.0783 0.0000
# 6 0.0000 0.0000 0.0000 -6.3691 0.0000 5.5269
#
#
#
# Elastic Compliance Matrix: (Units=1/GPa)
#
#
# Indices 1 2 3 4 5 6 
#
# 1 0.017907 -0.000959 -0.001763 0.000000 0.001094 0.000000
# 2 -0.000959 0.016385 -0.000502 0.000000 -0.003014 0.000000
# 3 -0.001763 -0.000502 0.015825 0.000000 -0.011669 0.000000
# 4 0.000000 0.000000 0.000000 0.342489 0.000000 0.394679
# 5 0.001094 -0.003014 -0.011669 0.000000 0.038658 0.000000
# 6 0.000000 0.000000 0.000000 0.394679 0.000000 0.635757
#
#
# Mechanical properties :
#
#
# Convention : Reuss Voigt Hill
#
# Bulk Modulus (GPa) = 22.89862 26.56816 24.73339
# Shear Modulus (GPa) = 4.59548 22.24699 13.42124
#
# Velocity S-wave (km/s) = 1.62732 3.58051 2.78103
# Velocity P-wave (km/s) = 4.08980 5.69241 4.95631
#
# Compressibility (1/GPa) = 0.04367075
#
# Stress axis : x y z
#
# Youngs Moduli (GPa) = 55.84372 61.02973 63.19253
#
# Poissons Ratio (x) = 0.05851 0.11140
# Poissons Ratio (y) = 0.05354 0.03170
# Poissons Ratio (z) = 0.09844 0.03062
#
# Static dielectric constant tensor:
#      x y z
#    x 1.632660 0.000000 0.018490 
#    y 0.000000 1.547720 0.000000 
#    z 0.018490 0.000000 1.652160 
# 
# From -- ./inp_files/246739.got.cif
#   From: 2010.05.17/outbox.cif.g08.bks.cpg/sg12_124_cif.got.tgz:246739.got - 2010.06.03 13:09:07.
