data_PCOD9175171
_publ_section_title
;
Structure prediction by ZEFSAII (Michael W. Deem and Ramdas Pophale) SiO2 
 PCOD9175171
Probable space group: C 2/M
;
_chemical_formula_sum "Si O2"
_cell_formula_units_Z 56
_cell_length_a 21.114842
_cell_length_b 7.960460
_cell_length_c 18.263889
_cell_angle_alpha 90.000000
_cell_angle_beta 109.308006
_cell_angle_gamma 90.000000
_cell_volume 2897.199584
_symmetry_space_group_name_H-M "C 2/M"
_symmetry_group_IT_number 12
_symmetry_cell_setting 'monoclinic'
loop_
_space_group_symop_operation_xyz
x,y,z
-x,y,-z
-x,-y,-z
x,-y,z
1/2+x,1/2+y,z
1/2-x,1/2+y,-z
1/2-x,1/2-y,-z
1/2+x,1/2-y,z
loop_
_atom_site_type_symbol
_atom_site_label
_atom_site_fract_x
_atom_site_fract_y
_atom_site_fract_z
Si Si1 0.068223 0.794288 0.768545
Si Si2 0.079973 0.205116 0.341316
Si Si3 0.936239 0.193128 0.070630
Si Si4 0.419006 0.809764 0.905269
Si Si5 0.819549 0.200224 0.746485
Si Si6 0.834793 0.797080 0.324776
Si Si7 0.924725 0.205266 0.494266
O O1 0.082178 0.737563 0.856701
O O2 0.122211 0.740084 0.729091
O O3 0.993660 0.743145 0.714853
O O4 0.067903 0.000000 0.770088
O O5 0.136698 0.261425 0.306232
O O6 0.090329 0.260611 0.428849
O O7 0.080277 0.000000 0.341985
O O8 0.017563 0.198929 0.095647
O O9 0.914513 0.000000 0.057849
O O10 0.909450 0.283555 0.988097
O O11 0.354185 0.771542 0.832555
O O12 0.440744 0.000000 0.900574
O O13 0.742069 0.244892 0.709103
O O14 0.826341 0.000000 0.752179
O O15 0.871915 0.738408 0.412919
O O16 0.837539 0.000000 0.326052
O O17 0.000000 0.255426 0.500000
O O18 0.924268 0.000000 0.494150
#
# Coordination Sequence:
#
# PCOD9175171 Si02
#       7
#     8   8   8   8   8   8   8
#     4   9  16  30  54  82 108 139 181 223 261 313
#     4   9  16  29  52  80 105 139 184 223 259 314
#     4  10  18  32  56  84 110 142 180 217 267 327
#     4  11  21  34  53  81 112 140 177 229 274 311
#     4  11  22  37  54  75 110 151 184 217 271 334
#     4  10  20  34  55  83 112 140 179 228 273 315
#     4   9  15  27  52  83 109 135 177 228 270 311
#
# _framework density 19.329011000000001
#
# number of rings (size 3 to 8) (size 9 to 14) (size 15 to 20)
#    0.000    2.143    2.857    3.000    0.000    0.571 
#    0.000    2.143    0.000    1.286    0.000    0.000 
#    0.000    0.000    0.000    0.000    0.000    0.000 
#
# Total GULP energy -156304.334141 kJ/mol
# GULP energy per Si atom -5582.297648 kJ/mol
# Density = 1.928502 g / cm^3
# Si number density = 19.329011 Si / 1000 Ang^3
#
#
#
# Elastic Constant Matrix: (Units=GPa)
#
#
# Indices 1 2 3 4 5 6 
#
# 1 145.1141 3.4628 98.5253 0.0000 -5.9680 0.0000
# 2 3.4628 25.4842 9.6686 0.0000 -3.6359 0.0000
# 3 98.5253 9.6686 191.7325 0.0000 -10.5429 0.0000
# 4 0.0000 0.0000 0.0000 5.8454 0.0000 15.4876
# 5 -5.9680 -3.6359 -10.5429 0.0000 32.3917 0.0000
# 6 0.0000 0.0000 0.0000 15.4876 0.0000 9.4178
#
#
#
# Elastic Compliance Matrix: (Units=1/GPa)
#
#
# Indices 1 2 3 4 5 6 
#
# 1 0.010596 0.000669 -0.005465 0.000000 0.000249 0.000000
# 2 0.000669 0.040538 -0.002170 0.000000 0.003967 0.000000
# 3 -0.005465 -0.002170 0.008211 0.000000 0.001422 0.000000
# 4 0.000000 0.000000 0.000000 -0.050959 0.000000 0.083801
# 5 0.000249 0.003967 0.001422 0.000000 0.031826 0.000000
# 6 0.000000 0.000000 0.000000 0.083801 0.000000 -0.031628
#
#
# Mechanical properties :
#
#
# Convention : Reuss Voigt Hill
#
# Bulk Modulus (GPa) = 22.01957 65.07159 43.54558
# Shear Modulus (GPa) = 132.78643 26.24259 79.51451
#
# Velocity S-wave (km/s) = 8.29742 3.68867 6.42080
# Velocity P-wave (km/s) = 10.15937 7.20278 8.80605
#
# Compressibility (1/GPa) = 0.04541414
#
# Stress axis : x y z
#
# Youngs Moduli (GPa) = 94.37707 24.66798 121.78072
#
# Poissons Ratio (x) = -0.01650 0.66552
# Poissons Ratio (y) = -0.06315 0.26425
# Poissons Ratio (z) = 0.51576 0.05353
#
# Static dielectric constant tensor:
#      x y z
#    x 1.639600 0.000000 -0.023280 
#    y 0.000000 1.687060 0.000000 
#    z -0.023280 0.000000 1.672640 
# 
# From -- ./inp_files/281679.got.cif
#   From: 2010.05.17/outbox.cif.g08.bks.cpg/sg12_141_cif.got.tgz:281679.got - 2010.06.03 13:09:07.
