data_PCOD9176231
_publ_section_title
;
Structure prediction by ZEFSAII (Michael W. Deem and Ramdas Pophale) SiO2 
 PCOD9176231
Probable space group: C 2/M
;
_chemical_formula_sum "Si O2"
_cell_formula_units_Z 48
_cell_length_a 8.952849
_cell_length_b 31.002067
_cell_length_c 7.760306
_cell_angle_alpha 90.000000
_cell_angle_beta 91.455436
_cell_angle_gamma 90.000000
_cell_volume 2153.230997
_symmetry_space_group_name_H-M "C 2/M"
_symmetry_group_IT_number 12
_symmetry_cell_setting 'monoclinic'
loop_
_space_group_symop_operation_xyz
x,y,z
-x,y,-z
-x,-y,-z
x,-y,z
1/2+x,1/2+y,z
1/2-x,1/2+y,-z
1/2-x,1/2-y,-z
1/2+x,1/2-y,z
loop_
_atom_site_type_symbol
_atom_site_label
_atom_site_fract_x
_atom_site_fract_y
_atom_site_fract_z
Si Si1 0.273102 0.843039 0.149231
Si Si2 0.235069 0.500000 0.895152
Si Si3 0.416575 0.421430 0.764480
Si Si4 0.895571 0.335751 0.760092
Si Si5 0.128685 0.759202 0.140462
Si Si6 0.766983 0.917327 0.384704
Si Si7 0.413269 0.000000 0.732818
O O1 0.145756 0.878330 0.153219
O O2 0.432543 0.851426 0.243722
O O3 0.196518 0.800990 0.232178
O O4 0.327573 0.839309 0.951954
O O5 0.341499 0.459800 0.865822
O O6 0.092039 0.500000 0.761616
O O7 0.161001 0.500000 0.079828
O O8 0.340088 0.421990 0.573621
O O9 0.593576 0.423431 0.742459
O O10 0.898920 0.283166 0.743819
O O11 0.801099 0.369488 0.645198
O O12 0.250000 0.750000 0.000000
O O13 0.000000 0.770923 0.000000
O O14 0.647933 0.955805 0.353590
#
# Coordination Sequence:
#
# PCOD9176231 Si02
#       7
#     8   4   8   8   8   8   4
#     4  10  21  35  60  90 119 153 203 247 297 353
#     4  11  24  43  66  92 120 147 202 243 295 355
#     4  11  25  41  59  89 121 161 199 243 293 358
#     4  10  20  37  58  90 120 153 200 251 295 353
#     4  10  18  34  57  90 121 154 197 251 300 348
#     4  11  25  41  60  86 125 159 199 242 297 351
#     4  11  24  43  66  92 118 153 192 251 292 352
#
# _framework density 22.292082000000001
#
# number of rings (size 3 to 8) (size 9 to 14) (size 15 to 20)
#    0.000    1.500    3.333    3.000    4.667   10.000 
#    0.000    0.833    0.000    0.000    0.000    0.000 
#    0.000    0.000    0.000    0.000    0.000    0.000 
#
# Total GULP energy -133905.247291 kJ/mol
# GULP energy per Si atom -5579.385304 kJ/mol
# Density = 2.224134 g / cm^3
# Si number density = 22.292082 Si / 1000 Ang^3
#
#
#
# Elastic Constant Matrix: (Units=GPa)
#
#
# Indices 1 2 3 4 5 6 
#
# 1 84.5470 3.5302 12.7079 0.0000 1.0635 0.0000
# 2 3.5302 106.1961 12.1175 0.0000 0.4509 0.0000
# 3 12.7079 12.1175 50.7132 0.0000 3.9476 0.0000
# 4 0.0000 0.0000 0.0000 -32.2589 0.0000 -76.2430
# 5 1.0635 0.4509 3.9476 0.0000 30.6108 0.0000
# 6 0.0000 0.0000 0.0000 -76.2430 0.0000 282.0961
#
#
#
# Elastic Compliance Matrix: (Units=1/GPa)
#
#
# Indices 1 2 3 4 5 6 
#
# 1 0.012291 -0.000059 -0.003063 0.000000 -0.000031 0.000000
# 2 -0.000059 0.009682 -0.002311 0.000000 0.000157 0.000000
# 3 -0.003063 -0.002311 0.021241 0.000000 -0.002599 0.000000
# 4 0.000000 0.000000 0.000000 -0.018916 0.000000 -0.005112
# 5 -0.000031 0.000157 -0.002599 0.000000 0.033002 0.000000
# 6 0.000000 0.000000 0.000000 -0.005112 0.000000 0.002163
#
#
# Mechanical properties :
#
#
# Convention : Reuss Voigt Hill
#
# Bulk Modulus (GPa) = 30.91471 33.12972 32.02221
# Shear Modulus (GPa) = 61.64376 70.29633 65.97005
#
# Velocity S-wave (km/s) = 5.26429 5.62163 5.44589
# Velocity P-wave (km/s) = 7.13081 7.55187 7.34436
#
# Compressibility (1/GPa) = 0.03234707
#
# Stress axis : x y z
#
# Youngs Moduli (GPa) = 81.36008 103.28976 47.07919
#
# Poissons Ratio (x) = 0.00608 0.14422
# Poissons Ratio (y) = 0.00479 0.10879
# Poissons Ratio (z) = 0.24924 0.23868
#
# Static dielectric constant tensor:
#      x y z
#    x 1.755930 0.000000 0.018920 
#    y 0.000000 1.793140 0.000000 
#    z 0.018920 0.000000 1.848590 
# 
# From -- ./inp_files/42264.got.cif
#   From: 2010.05.17/outbox.cif.g08.bks.cpg/sg12_22_cif.got.tgz:42264.got - 2010.06.03 13:09:07.
