data_PCOD9176429
_publ_section_title
;
Structure prediction by ZEFSAII (Michael W. Deem and Ramdas Pophale) SiO2 
 PCOD9176429
Probable space group: C 2/M
;
_chemical_formula_sum "Si O2"
_cell_formula_units_Z 64
_cell_length_a 19.171103
_cell_length_b 19.702104
_cell_length_c 25.678651
_cell_angle_alpha 90.000000
_cell_angle_beta 161.139227
_cell_angle_gamma 90.000000
_cell_volume 3135.427748
_symmetry_space_group_name_H-M "C 2/M"
_symmetry_group_IT_number 12
_symmetry_cell_setting 'monoclinic'
loop_
_space_group_symop_operation_xyz
x,y,z
-x,y,-z
-x,-y,-z
x,-y,z
1/2+x,1/2+y,z
1/2-x,1/2+y,-z
1/2-x,1/2-y,-z
1/2+x,1/2-y,z
loop_
_atom_site_type_symbol
_atom_site_label
_atom_site_fract_x
_atom_site_fract_y
_atom_site_fract_z
Si Si1 0.206829 0.797608 0.525816
Si Si2 0.706075 0.422386 0.681020
Si Si3 0.264839 0.837991 0.827170
Si Si4 0.411121 0.419920 0.200387
Si Si5 0.841042 0.656290 0.511205
Si Si6 0.655998 0.080418 0.660830
Si Si7 0.583319 0.077601 0.274512
Si Si8 0.107353 0.918010 0.931540
O O1 0.251330 0.724316 0.582672
O O2 0.348406 0.814020 0.574735
O O3 0.255183 0.864659 0.592784
O O4 0.952844 0.794957 0.332520
O O5 0.500000 0.400885 0.500000
O O6 0.660362 0.500000 0.664469
O O7 0.761206 0.380961 0.771133
O O8 0.900756 0.422735 0.777019
O O9 0.222383 0.883561 0.848513
O O10 0.500000 0.804955 0.000000
O O11 0.370761 0.500000 0.173868
O O12 0.662568 0.402604 0.388185
O O13 0.383477 0.394065 0.121734
O O14 0.048208 0.625466 0.629678
O O15 0.500000 0.085392 0.500000
O O16 0.894337 0.104170 0.811800
O O17 0.663216 0.000000 0.680304
O O18 0.635798 0.000000 0.328252
O O19 0.341284 0.095445 0.121036
O O20 0.087318 0.000000 0.914281
#
# Coordination Sequence:
#
# PCOD9176429 Si02
#       8
#     8   8   8   8   8   8   8   8
#     4  10  23  41  57  80 115 158 199 238 293 355
#     4  10  19  33  52  81 119 154 189 241 299 345
#     4  11  22  36  56  84 116 155 204 246 286 348
#     4  10  19  34  59  86 114 150 194 241 297 351
#     4  10  21  39  59  82 115 152 188 245 293 352
#     4  10  18  34  61  91 118 143 187 250 308 357
#     4  10  20  37  58  80 119 160 194 239 297 359
#     4   9  18  33  56  90 120 149 189 244 305 354
#
# _framework density 20.411888000000001
#
# number of rings (size 3 to 8) (size 9 to 14) (size 15 to 20)
#    0.000    2.000    2.500    1.500    0.000    4.500 
#    2.250    5.000    0.000    2.250    0.000    0.000 
#    0.000    0.000    0.000    0.000    0.000    0.000 
#
# Total GULP energy -178236.771902 kJ/mol
# GULP energy per Si atom -5569.899122 kJ/mol
# Density = 2.036543 g / cm^3
# Si number density = 20.411888 Si / 1000 Ang^3
#
#
#
# Elastic Constant Matrix: (Units=GPa)
#
#
# Indices 1 2 3 4 5 6 
#
# 1 91.5975 29.4994 36.2649 0.0194 23.1105 -0.1178
# 2 29.4994 51.4271 11.1564 0.0619 2.7985 -0.1846
# 3 36.2649 11.1564 76.9607 -0.0458 29.6905 -0.4479
# 4 0.0194 0.0619 -0.0458 6.8419 -0.0247 -1.2104
# 5 23.1105 2.7985 29.6905 -0.0247 30.9415 0.0190
# 6 -0.1178 -0.1846 -0.4479 -1.2104 0.0190 84.9868
#
#
#
# Elastic Compliance Matrix: (Units=1/GPa)
#
#
# Indices 1 2 3 4 5 6 
#
# 1 0.017326 -0.008698 -0.003516 -0.000028 -0.008780 -0.000012
# 2 -0.008698 0.024490 -0.001752 -0.000182 0.005962 0.000028
# 3 -0.003516 -0.001752 0.021960 0.000127 -0.018288 0.000113
# 4 -0.000028 -0.000182 0.000127 0.146531 0.000031 0.002087
# 5 -0.008780 0.005962 -0.018288 0.000031 0.055886 -0.000108
# 6 -0.000012 0.000028 0.000113 0.002087 -0.000108 0.011797
#
#
# Mechanical properties :
#
#
# Convention : Reuss Voigt Hill
#
# Bulk Modulus (GPa) = 27.89782 41.53630 34.71706
# Shear Modulus (GPa) = 15.72971 34.09168 24.91069
#
# Velocity S-wave (km/s) = 2.77901 4.09123 3.49721
# Velocity P-wave (km/s) = 4.89840 6.53535 5.77516
#
# Compressibility (1/GPa) = 0.03584510
#
# Stress axis : x y z
#
# Youngs Moduli (GPa) = 57.71712 40.83281 45.53656
#
# Poissons Ratio (x) = 0.35516 0.16011
# Poissons Ratio (y) = 0.50202 0.07977
# Poissons Ratio (z) = 0.20294 0.07153
#
# Static dielectric constant tensor:
#      x y z
#    x 1.774890 -0.000010 0.013490 
#    y -0.000010 1.760250 -0.000050 
#    z 0.013490 -0.000050 1.788550 
# 
# From -- ./inp_files/344928.got.cif
#   From: 2010.05.17/outbox.cif.g08.bks.cpg/sg12_173_cif.got.tgz:344928.got - 2010.06.03 13:09:07.
