data_PCOD9176210
_publ_section_title
;
Structure prediction by ZEFSAII (Michael W. Deem and Ramdas Pophale) SiO2 
 PCOD9176210
Probable space group: C 2/M
;
_chemical_formula_sum "Si O2"
_cell_formula_units_Z 40
_cell_length_a 15.104453
_cell_length_b 13.539777
_cell_length_c 9.934263
_cell_angle_alpha 90.000000
_cell_angle_beta 57.212111
_cell_angle_gamma 90.000000
_cell_volume 1707.982613
_symmetry_space_group_name_H-M "C 2/M"
_symmetry_group_IT_number 12
_symmetry_cell_setting 'monoclinic'
loop_
_space_group_symop_operation_xyz
x,y,z
-x,y,-z
-x,-y,-z
x,-y,z
1/2+x,1/2+y,z
1/2-x,1/2+y,-z
1/2-x,1/2-y,-z
1/2+x,1/2-y,z
loop_
_atom_site_type_symbol
_atom_site_label
_atom_site_fract_x
_atom_site_fract_y
_atom_site_fract_z
Si Si1 0.848067 0.673823 0.546443
Si Si2 0.559293 0.112296 0.242958
Si Si3 0.125598 0.890250 0.368040
Si Si4 0.602297 0.311963 0.094711
Si Si5 0.372307 0.614990 0.217509
O O1 0.889170 0.624353 0.651763
O O2 0.839813 0.790400 0.585361
O O3 0.732701 0.633812 0.613065
O O4 0.937260 0.644175 0.366221
O O5 0.613333 0.195010 0.106616
O O6 0.567774 0.000000 0.189995
O O7 0.140012 0.868301 0.197048
O O8 0.000000 0.892854 0.500000
O O9 0.166957 0.000000 0.368703
O O10 0.477342 0.333731 0.183836
O O11 0.649883 0.348071 0.915883
O O12 0.396448 0.500000 0.193518
#
# Coordination Sequence:
#
# PCOD9176210 Si02
#       5
#     8   8   8   8   8
#     4  10  19  36  56  86 110 141 188 227 267 333
#     4  10  19  36  57  80 110 145 181 228 277 323
#     4  10  18  34  57  82 113 145 176 225 277 318
#     4  10  21  38  55  81 110 147 189 227 269 330
#     4  11  22  37  58  81 111 147 184 229 274 325
#
# _framework density 23.419440999999999
#
# number of rings (size 3 to 8) (size 9 to 14) (size 15 to 20)
#    0.000    1.800    4.000    4.800    0.000    4.000 
#    0.000    6.000    0.000    0.000    0.000    0.000 
#    0.000    0.000    0.000    0.000    0.000    0.000 
#
# Total GULP energy -111919.930759 kJ/mol
# GULP energy per Si atom -5595.996538 kJ/mol
# Density = 2.336614 g / cm^3
# Si number density = 23.419441 Si / 1000 Ang^3
#
#
#
# Elastic Constant Matrix: (Units=GPa)
#
#
# Indices 1 2 3 4 5 6 
#
# 1 33.8308 8.9178 24.9198 0.0000 -4.8489 0.0000
# 2 8.9178 203.2991 2.5425 0.0000 13.7136 0.0000
# 3 24.9198 2.5425 35.4761 0.0000 -2.1762 0.0000
# 4 0.0000 0.0000 0.0000 18.6714 0.0000 -4.3832
# 5 -4.8489 13.7136 -2.1762 0.0000 35.0904 0.0000
# 6 0.0000 0.0000 0.0000 -4.3832 0.0000 6.4801
#
#
#
# Elastic Compliance Matrix: (Units=1/GPa)
#
#
# Indices 1 2 3 4 5 6 
#
# 1 0.063900 -0.002732 -0.044251 0.000000 0.007153 0.000000
# 2 -0.002732 0.005177 0.001406 0.000000 -0.002314 0.000000
# 3 -0.044251 0.001406 0.058986 0.000000 -0.003006 0.000000
# 4 0.000000 0.000000 0.000000 0.063668 0.000000 0.043066
# 5 0.007153 -0.002314 -0.003006 0.000000 0.030204 0.000000
# 6 0.000000 0.000000 0.000000 0.043066 0.000000 0.183449
#
#
# Mechanical properties :
#
#
# Convention : Reuss Voigt Hill
#
# Bulk Modulus (GPa) = 27.09340 38.37404 32.73372
# Shear Modulus (GPa) = 9.82623 27.79677 18.81150
#
# Velocity S-wave (km/s) = 2.05058 3.44889 2.83723
# Velocity P-wave (km/s) = 4.14733 5.68163 4.97400
#
# Compressibility (1/GPa) = 0.03690936
#
# Stress axis : x y z
#
# Youngs Moduli (GPa) = 15.64953 193.15512 16.95303
#
# Poissons Ratio (x) = 0.52772 0.75019
# Poissons Ratio (y) = 0.04276 -0.02384
# Poissons Ratio (z) = 0.69251 -0.27161
#
# Static dielectric constant tensor:
#      x y z
#    x 1.901470 0.000000 -0.008900 
#    y 0.000000 1.864940 0.000000 
#    z -0.008900 0.000000 1.947150 
# 
# From -- ./inp_files/155090.got.cif
#   From: 2010.05.17/outbox.cif.g08.bks.cpg/sg12_78_cif.got.tgz:155090.got - 2010.06.03 13:09:07.
