data_PCOD9176899
_publ_section_title
;
Structure prediction by ZEFSAII (Michael W. Deem and Ramdas Pophale) SiO2 
 PCOD9176899
Probable space group: C 2/M
;
_chemical_formula_sum "Si O2"
_cell_formula_units_Z 48
_cell_length_a 14.925903
_cell_length_b 30.689459
_cell_length_c 5.065440
_cell_angle_alpha 90.000000
_cell_angle_beta 61.967646
_cell_angle_gamma 90.000000
_cell_volume 2048.101451
_symmetry_space_group_name_H-M "C 2/M"
_symmetry_group_IT_number 12
_symmetry_cell_setting 'monoclinic'
loop_
_space_group_symop_operation_xyz
x,y,z
-x,y,-z
-x,-y,-z
x,-y,z
1/2+x,1/2+y,z
1/2-x,1/2+y,-z
1/2-x,1/2-y,-z
1/2+x,1/2-y,z
loop_
_atom_site_type_symbol
_atom_site_label
_atom_site_fract_x
_atom_site_fract_y
_atom_site_fract_z
Si Si1 0.122127 0.328511 0.968963
Si Si2 0.107757 0.577866 0.242011
Si Si3 0.871412 0.719365 0.543823
Si Si4 0.327007 0.689291 0.425828
Si Si5 0.728766 0.050031 0.575132
Si Si6 0.433826 0.399117 0.327021
O O1 0.094346 0.373848 0.139658
O O2 0.098004 0.290121 0.204174
O O3 0.912987 0.316126 0.276335
O O4 0.244793 0.327643 0.755454
O O5 0.182192 0.576438 0.391363
O O6 0.000000 0.561557 0.500000
O O7 0.154380 0.552281 0.930212
O O8 0.749637 0.709111 0.687837
O O9 0.887979 0.768747 0.438598
O O10 0.394644 0.647786 0.275005
O O11 0.834581 0.071677 0.511507
O O12 0.741059 0.000000 0.475401
O O13 0.500000 0.394045 0.500000
O O14 0.500000 0.419246 0.000000
#
# Coordination Sequence:
#
# PCOD9176899 Si02
#       6
#     8   8   8   8   8   8
#     4  10  18  36  60  93 132 175 212 267 328 394
#     4  12  25  44  74 108 140 178 226 282 357 439
#     4   9  19  31  65  89 127 183 224 265 335 380
#     4   9  20  36  62  90 130 178 223 278 331 382
#     4  12  27  50  74  99 139 179 224 297 363 425
#     4  12  27  43  70 101 136 184 239 288 344 416
#
# _framework density 23.436340000000001
#
# number of rings (size 3 to 8) (size 9 to 14) (size 15 to 20)
#    1.000    0.333    1.667    4.500    2.333    2.667 
#    0.000    2.500    0.000    0.000    0.000    0.000 
#    0.000    0.000    0.000    0.000    0.000    0.000 
#
# Total GULP energy -134193.776450 kJ/mol
# GULP energy per Si atom -5591.407352 kJ/mol
# Density = 2.338300 g / cm^3
# Si number density = 23.436340 Si / 1000 Ang^3
#
#
#
# Elastic Constant Matrix: (Units=GPa)
#
#
# Indices 1 2 3 4 5 6 
#
# 1 110.2543 37.0399 19.0316 0.0000 9.0624 0.0000
# 2 37.0399 85.9100 18.0025 0.0000 -15.4593 0.0000
# 3 19.0316 18.0025 101.7351 0.0000 -2.0109 0.0000
# 4 0.0000 0.0000 0.0000 196.7198 0.0000-1184.5490
# 5 9.0624 -15.4593 -2.0109 0.0000 32.0029 0.0000
# 6 0.0000 0.0000 0.0000-1184.5490 0.0000 8248.9713
#
#
#
# Elastic Compliance Matrix: (Units=1/GPa)
#
#
# Indices 1 2 3 4 5 6 
#
# 1 0.011811 -0.005958 -0.001280 0.000000 -0.006303 0.000000
# 2 -0.005958 0.016235 -0.001572 0.000000 0.009431 0.000000
# 3 -0.001280 -0.001572 0.010352 0.000000 0.000253 0.000000
# 4 0.000000 0.000000 0.000000 0.037567 0.000000 0.005395
# 5 -0.006303 0.009431 0.000253 0.000000 0.037604 0.000000
# 6 0.000000 0.000000 0.000000 0.005395 0.000000 0.000896
#
#
# Mechanical properties :
#
#
# Convention : Reuss Voigt Hill
#
# Bulk Modulus (GPa) = 48.12664 49.56081 48.84372
# Shear Modulus (GPa) = 35.96854 1710.46051 873.21452
#
# Velocity S-wave (km/s) = 3.92182 27.04472 19.32353
# Velocity P-wave (km/s) = 6.40993 31.56605 22.77611
#
# Compressibility (1/GPa) = 0.02077851
#
# Stress axis : x y z
#
# Youngs Moduli (GPa) = 84.67000 61.59359 96.59962
#
# Poissons Ratio (x) = 0.36698 0.12361
# Poissons Ratio (y) = 0.50448 0.15185
# Poissons Ratio (z) = 0.10835 0.09682
#
# Static dielectric constant tensor:
#      x y z
#    x 2.004200 0.000000 -0.095570 
#    y 0.000000 1.828420 0.000000 
#    z -0.095570 0.000000 1.915760 
# 
# From -- ./inp_files/13052.got.cif
#   From: 2010.05.17/outbox.cif.g08.bks.cpg/sg12_7_cif.got.tgz:13052.got - 2010.06.03 13:09:07.
