data_PCOD9176765
_publ_section_title
;
Structure prediction by ZEFSAII (Michael W. Deem and Ramdas Pophale) SiO2 
 PCOD9176765
Probable space group: C 2/M
;
_chemical_formula_sum "Si O2"
_cell_formula_units_Z 56
_cell_length_a 10.822434
_cell_length_b 15.501712
_cell_length_c 27.684009
_cell_angle_alpha 90.000000
_cell_angle_beta 29.838841
_cell_angle_gamma 90.000000
_cell_volume 2310.898607
_symmetry_space_group_name_H-M "C 2/M"
_symmetry_group_IT_number 12
_symmetry_cell_setting 'monoclinic'
loop_
_space_group_symop_operation_xyz
x,y,z
-x,y,-z
-x,-y,-z
x,-y,z
1/2+x,1/2+y,z
1/2-x,1/2+y,-z
1/2-x,1/2-y,-z
1/2+x,1/2-y,z
loop_
_atom_site_type_symbol
_atom_site_label
_atom_site_fract_x
_atom_site_fract_y
_atom_site_fract_z
Si Si1 0.881536 0.600666 0.767979
Si Si2 0.039148 0.906727 0.215134
Si Si3 0.237156 0.602052 0.448554
Si Si4 0.064232 0.730264 0.882966
Si Si5 0.473632 0.853558 0.626714
Si Si6 0.273513 0.093455 0.038580
Si Si7 0.245294 0.671810 0.723383
O O1 0.808581 0.500000 0.795662
O O2 0.988317 0.620944 0.678013
O O3 0.097030 0.618311 0.734124
O O4 0.664342 0.671237 0.854504
O O5 0.748894 0.905668 0.323713
O O6 0.198153 0.826308 0.178536
O O7 0.050723 0.902886 0.152437
O O8 0.144804 0.000000 0.194352
O O9 0.216514 0.500000 0.455009
O O10 0.210980 0.632438 0.513153
O O11 0.512512 0.624511 0.337022
O O12 0.000000 0.640371 0.500000
O O13 0.059112 0.703597 0.828502
O O14 0.839421 0.679512 0.986695
O O15 0.367748 0.757566 0.660448
O O16 0.266728 0.000000 0.014909
O O17 0.500000 0.088954 0.000000
#
# Coordination Sequence:
#
# PCOD9176765 Si02
#       7
#     8   8   8   8   8   8   8
#     4  11  24  41  62  88 127 177 218 248 305 385
#     4  10  18  35  67  98 123 158 214 272 318 372
#     4  11  24  40  64  97 125 154 203 267 322 370
#     4  10  20  38  63  93 126 162 210 265 318 367
#     4  11  23  42  63  90 125 169 210 258 317 374
#     4   8  16  31  60  98 125 156 207 265 322 377
#     4  11  24  41  61  90 126 168 211 255 309 379
#
# _framework density 24.232997000000001
#
# number of rings (size 3 to 8) (size 9 to 14) (size 15 to 20)
#    0.000    1.714    1.429    4.286    2.000    4.000 
#    0.000    4.286    0.000    3.857    0.000    0.000 
#    0.000    0.000    0.000    0.000    0.000    0.000 
#
# Total GULP energy -156387.198348 kJ/mol
# GULP energy per Si atom -5585.257084 kJ/mol
# Density = 2.417784 g / cm^3
# Si number density = 24.232997 Si / 1000 Ang^3
#
#
#
# Elastic Constant Matrix: (Units=GPa)
#
#
# Indices 1 2 3 4 5 6 
#
# 1 84.5141 29.2564 4.2208 -0.0823 -7.3284 0.0667
# 2 29.2564 185.8402 8.0653 -0.0247 18.6556 0.0333
# 3 4.2208 8.0653 101.5039 0.0135 19.7552 -0.0198
# 4 -0.0823 -0.0247 0.0135 -28.7585 0.0706 40.7720
# 5 -7.3284 18.6556 19.7552 0.0706 26.7612 -0.0464
# 6 0.0667 0.0333 -0.0198 40.7720 -0.0464 7.8504
#
#
#
# Elastic Compliance Matrix: (Units=1/GPa)
#
#
# Indices 1 2 3 4 5 6 
#
# 1 0.013452 -0.002730 -0.001670 -0.000014 0.006819 0.000005
# 2 -0.002730 0.006352 0.000719 -0.000007 -0.005707 0.000003
# 3 -0.001670 0.000719 0.011737 -0.000004 -0.009623 0.000007
# 4 -0.000014 -0.000007 -0.000004 -0.004158 0.000053 0.021594
# 5 0.006819 -0.005707 -0.009623 0.000053 0.050317 -0.000036
# 6 0.000005 0.000003 0.000007 0.021594 -0.000036 0.015231
#
#
# Mechanical properties :
#
#
# Convention : Reuss Voigt Hill
#
# Bulk Modulus (GPa) = 41.35414 50.54923 45.95169
# Shear Modulus (GPa) = 46.14568 23.19167 34.66867
#
# Velocity S-wave (km/s) = 4.36851 3.09694 3.78648
# Velocity P-wave (km/s) = 6.52284 5.80457 6.17416
#
# Compressibility (1/GPa) = 0.02418137
#
# Stress axis : x y z
#
# Youngs Moduli (GPa) = 74.33823 157.42118 85.20073
#
# Poissons Ratio (x) = 0.42973 0.14226
# Poissons Ratio (y) = 0.20293 -0.06130
# Poissons Ratio (z) = 0.12412 -0.11326
#
# Static dielectric constant tensor:
#      x y z
#    x 1.984040 0.000000 -0.042900 
#    y 0.000000 1.989430 0.000000 
#    z -0.042900 0.000000 1.990350 
# 
# From -- ./inp_files/374186.got.cif
#   From: 2010.05.17/outbox.cif.g08.bks.cpg/sg12_188_cif.got.tgz:374186.got - 2010.06.03 13:09:07.
