data_PCOD9176708
_publ_section_title
;
Structure prediction by ZEFSAII (Michael W. Deem and Ramdas Pophale) SiO2 
 PCOD9176708
Probable space group: C 2/M
;
_chemical_formula_sum "Si O2"
_cell_formula_units_Z 44
_cell_length_a 7.527617
_cell_length_b 29.563335
_cell_length_c 8.122568
_cell_angle_alpha 90.000000
_cell_angle_beta 90.935070
_cell_angle_gamma 90.000000
_cell_volume 1807.367450
_symmetry_space_group_name_H-M "C 2/M"
_symmetry_group_IT_number 12
_symmetry_cell_setting 'monoclinic'
loop_
_space_group_symop_operation_xyz
x,y,z
-x,y,-z
-x,-y,-z
x,-y,z
1/2+x,1/2+y,z
1/2-x,1/2+y,-z
1/2-x,1/2-y,-z
1/2+x,1/2-y,z
loop_
_atom_site_type_symbol
_atom_site_label
_atom_site_fract_x
_atom_site_fract_y
_atom_site_fract_z
Si Si1 0.394043 0.267211 0.825549
Si Si2 0.217079 0.610305 0.511835
Si Si3 0.000000 0.811162 0.500000
Si Si4 0.189516 0.448550 0.816620
Si Si5 0.807801 0.673579 0.961264
Si Si6 0.227675 0.420132 0.165404
O O1 0.486946 0.279566 0.659895
O O2 0.329570 0.215911 0.838892
O O3 0.500000 0.273155 0.000000
O O4 0.246932 0.304790 0.865072
O O5 0.327466 0.656512 0.497382
O O6 0.264351 0.586193 0.684035
O O7 0.275254 0.578267 0.358909
O O8 0.000000 0.617026 0.500000
O O9 0.197536 0.500000 0.757475
O O10 0.982134 0.433900 0.827727
O O11 0.279011 0.445674 0.998288
O O12 0.711828 0.631382 0.880970
O O13 0.000000 0.653604 0.000000
#
# Coordination Sequence:
#
# PCOD9176708 Si02
#       6
#     8   8   4   8   8   8
#     4  10  23  40  58  91 127 170 214 273 317 376
#     4  10  24  40  64  95 128 172 212 268 322 384
#     4  12  24  44  65  96 132 176 223 262 322 386
#     4  10  20  36  62  96 127 162 212 268 323 389
#     4  10  19  38  63  86 127 165 215 269 322 371
#     4  10  18  35  61  91 118 168 210 260 321 389
#
# _framework density 24.344798999999998
#
# number of rings (size 3 to 8) (size 9 to 14) (size 15 to 20)
#    0.000    1.818    1.818    3.273    2.545    4.000 
#    4.909    9.545    0.000    1.091    0.000    0.000 
#    0.000    0.000    0.000    0.000    0.000    0.000 
#
# Total GULP energy -122665.178632 kJ/mol
# GULP energy per Si atom -5575.689938 kJ/mol
# Density = 2.428939 g / cm^3
# Si number density = 24.344799 Si / 1000 Ang^3
#
#
#
# Elastic Constant Matrix: (Units=GPa)
#
#
# Indices 1 2 3 4 5 6 
#
# 1 52.6035 1.5695 17.8479 0.0000 -6.7577 0.0000
# 2 1.5695 120.6773 38.9592 0.0000 -19.0800 0.0000
# 3 17.8479 38.9592 178.0531 0.0000 -11.9256 0.0000
# 4 0.0000 0.0000 0.0000 45.4456 0.0000 -25.1764
# 5 -6.7577 -19.0800 -11.9256 0.0000 20.2042 0.0000
# 6 0.0000 0.0000 0.0000 -25.1764 0.0000 36.6771
#
#
#
# Elastic Compliance Matrix: (Units=1/GPa)
#
#
# Indices 1 2 3 4 5 6 
#
# 1 0.020528 0.001476 -0.001903 0.000000 0.007137 0.000000
# 2 0.001476 0.010292 -0.001786 0.000000 0.009159 0.000000
# 3 -0.001903 -0.001786 0.006291 0.000000 0.001390 0.000000
# 4 0.000000 0.000000 0.000000 0.035507 0.000000 0.024373
# 5 0.007137 0.009159 0.001390 0.000000 0.061351 0.000000
# 6 0.000000 0.000000 0.000000 0.024373 0.000000 0.043996
#
#
# Mechanical properties :
#
#
# Convention : Reuss Voigt Hill
#
# Bulk Modulus (GPa) = 30.59546 52.00968 41.30257
# Shear Modulus (GPa) = 25.86829 39.99584 32.93207
#
# Velocity S-wave (km/s) = 3.26326 4.05766 3.68194
# Velocity P-wave (km/s) = 5.17623 6.58505 5.92268
#
# Compressibility (1/GPa) = 0.03268459
#
# Stress axis : x y z
#
# Youngs Moduli (GPa) = 48.71287 97.16139 158.95717
#
# Poissons Ratio (x) = -0.14337 0.30244
# Poissons Ratio (y) = -0.07188 0.28397
# Poissons Ratio (z) = 0.09268 0.17358
#
# Static dielectric constant tensor:
#      x y z
#    x 2.163300 0.000000 -0.022630 
#    y 0.000000 1.895000 0.000000 
#    z -0.022630 0.000000 1.960730 
# 
# From -- ./inp_files/41604.got.cif
#   From: 2010.05.17/outbox.cif.g08.bks.cpg/sg12_21_cif.got.tgz:41604.got - 2010.06.03 13:09:07.
