data_PCOD9176288
_publ_section_title
;
Structure prediction by ZEFSAII (Michael W. Deem and Ramdas Pophale) SiO2 
 PCOD9176288
Probable space group: C 2/M
;
_chemical_formula_sum "Si O2"
_cell_formula_units_Z 48
_cell_length_a 11.144231
_cell_length_b 30.069485
_cell_length_c 14.070997
_cell_angle_alpha 90.000000
_cell_angle_beta 30.407053
_cell_angle_gamma 90.000000
_cell_volume 2386.555675
_symmetry_space_group_name_H-M "C 2/M"
_symmetry_group_IT_number 12
_symmetry_cell_setting 'monoclinic'
loop_
_space_group_symop_operation_xyz
x,y,z
-x,y,-z
-x,-y,-z
x,-y,z
1/2+x,1/2+y,z
1/2-x,1/2+y,-z
1/2-x,1/2-y,-z
1/2+x,1/2-y,z
loop_
_atom_site_type_symbol
_atom_site_label
_atom_site_fract_x
_atom_site_fract_y
_atom_site_fract_z
Si Si1 0.807656 0.106252 0.910563
Si Si2 0.833847 0.315654 0.699611
Si Si3 0.776592 0.419398 0.709836
Si Si4 0.503545 0.448358 0.383930
Si Si5 0.795330 0.201342 0.008253
Si Si6 0.464218 0.950316 0.766158
O O1 0.778083 0.159079 0.948368
O O2 0.039375 0.087468 0.810560
O O3 0.845996 0.087002 0.779111
O O4 0.590208 0.083413 0.112769
O O5 0.845794 0.369018 0.690841
O O6 0.567818 0.301800 0.855397
O O7 0.000000 0.299317 0.500000
O O8 0.869821 0.303400 0.785117
O O9 0.775662 0.444696 0.810177
O O10 0.000000 0.438644 0.500000
O O11 0.500000 0.442233 0.500000
O O12 0.574105 0.500000 0.315999
O O13 0.226619 0.443200 0.545605
O O14 0.750000 0.250000 0.000000
O O15 0.454379 0.000000 0.811854
#
# Coordination Sequence:
#
# PCOD9176288 Si02
#       6
#     8   8   8   8   8   8
#     4  11  21  37  61  85 118 157 192 245 304 352
#     4   9  19  37  60  83 116 158 187 228 304 361
#     4  10  18  34  58  87 120 151 186 232 297 363
#     4  10  23  42  59  81 118 163 207 245 288 349
#     4  10  21  37  59  87 117 150 198 248 291 352
#     4  11  22  35  58  90 120 154 195 240 291 354
#
# _framework density 20.112666999999998
#
# number of rings (size 3 to 8) (size 9 to 14) (size 15 to 20)
#    0.000    1.833    3.333    1.000    0.000    3.667 
#    0.000    6.667    0.000    0.000    0.000    0.000 
#    0.000    0.000    0.000    0.000    0.000    0.000 
#
# Total GULP energy -133792.546944 kJ/mol
# GULP energy per Si atom -5574.689456 kJ/mol
# Density = 2.006689 g / cm^3
# Si number density = 20.112667 Si / 1000 Ang^3
#
#
#
# Elastic Constant Matrix: (Units=GPa)
#
#
# Indices 1 2 3 4 5 6 
#
# 1 57.3737 31.2763 19.9108 0.0000 25.1017 0.0000
# 2 31.2763 125.8721 50.9879 0.0000 26.5684 0.0000
# 3 19.9108 50.9879 87.7175 0.0000 34.4999 0.0000
# 4 0.0000 0.0000 0.0000 44.3789 0.0000 -36.6380
# 5 25.1017 26.5684 34.4999 0.0000 35.1801 0.0000
# 6 0.0000 0.0000 0.0000 -36.6380 0.0000 71.1068
#
#
#
# Elastic Compliance Matrix: (Units=1/GPa)
#
#
# Indices 1 2 3 4 5 6 
#
# 1 0.027157 -0.004176 0.004304 0.000000 -0.020444 0.000000
# 2 -0.004176 0.011250 -0.005570 0.000000 -0.000054 0.000000
# 3 0.004304 -0.005570 0.021511 0.000000 -0.019960 0.000000
# 4 0.000000 0.000000 0.000000 0.039214 0.000000 0.020205
# 5 -0.020444 -0.000054 -0.019960 0.000000 0.062627 0.000000
# 6 0.000000 0.000000 0.000000 0.020205 0.000000 0.024474
#
#
# Mechanical properties :
#
#
# Convention : Reuss Voigt Hill
#
# Bulk Modulus (GPa) = 20.39426 52.81259 36.60343
# Shear Modulus (GPa) = 23.42333 41.38572 32.40452
#
# Velocity S-wave (km/s) = 3.41633 4.54110 4.01827
# Velocity P-wave (km/s) = 5.07186 7.33559 6.30613
#
# Compressibility (1/GPa) = 0.04903340
#
# Stress axis : x y z
#
# Youngs Moduli (GPa) = 36.82302 88.88923 46.48704
#
# Poissons Ratio (x) = 0.37121 -0.20007
# Poissons Ratio (y) = 0.15378 0.25894
# Poissons Ratio (z) = -0.15848 0.49513
#
# Static dielectric constant tensor:
#      x y z
#    x 1.810590 0.000000 -0.001120 
#    y 0.000000 1.717430 0.000000 
#    z -0.001120 0.000000 1.769800 
# 
# From -- ./inp_files/209268.got.cif
#   From: 2010.05.17/outbox.cif.g08.bks.cpg/sg12_105_cif.got.tgz:209268.got - 2010.06.03 13:09:07.
