data_PCOD9176385
_publ_section_title
;
Structure prediction by ZEFSAII (Michael W. Deem and Ramdas Pophale) SiO2 
 PCOD9176385
Probable space group: C 2/M
;
_chemical_formula_sum "Si O2"
_cell_formula_units_Z 48
_cell_length_a 14.850374
_cell_length_b 18.314102
_cell_length_c 15.385229
_cell_angle_alpha 90.000000
_cell_angle_beta 37.469678
_cell_angle_gamma 90.000000
_cell_volume 2545.507725
_symmetry_space_group_name_H-M "C 2/M"
_symmetry_group_IT_number 12
_symmetry_cell_setting 'monoclinic'
loop_
_space_group_symop_operation_xyz
x,y,z
-x,y,-z
-x,-y,-z
x,-y,z
1/2+x,1/2+y,z
1/2-x,1/2+y,-z
1/2-x,1/2-y,-z
1/2+x,1/2-y,z
loop_
_atom_site_type_symbol
_atom_site_label
_atom_site_fract_x
_atom_site_fract_y
_atom_site_fract_z
Si Si1 0.218180 0.323092 0.896995
Si Si2 0.322404 0.169511 0.448651
Si Si3 0.167808 0.340054 0.215874
Si Si4 0.837296 0.851576 0.260153
Si Si5 0.856796 0.084282 0.934765
Si Si6 0.881964 0.323674 0.213658
O O1 0.255354 0.237063 0.868848
O O2 0.334321 0.365978 0.866768
O O3 0.208173 0.345255 0.803486
O O4 0.055227 0.336540 0.061941
O O5 0.250000 0.250000 0.500000
O O6 0.493113 0.172933 0.347230
O O7 0.233264 0.128850 0.592628
O O8 0.326236 0.141963 0.346310
O O9 0.227061 0.364061 0.264534
O O10 0.222965 0.397400 0.102492
O O11 0.867596 0.764265 0.234371
O O12 0.992446 0.892357 0.132839
O O13 0.858981 0.000000 0.909847
#
# Coordination Sequence:
#
# PCOD9176385 Si02
#       6
#     8   8   8   8   8   8
#     4  10  18  34  60  87 112 146 194 247 291 338
#     4  10  19  33  57  91 120 146 186 242 301 351
#     4  11  20  36  62  86 117 151 195 243 292 347
#     4  10  21  35  55  88 120 151 186 239 295 349
#     4  12  24  38  58  86 118 158 202 243 288 344
#     4   9  17  32  59  89 112 142 190 241 296 340
#
# _framework density 18.856750000000002
#
# number of rings (size 3 to 8) (size 9 to 14) (size 15 to 20)
#    0.000    1.667    3.333    3.500    0.000    1.333 
#    0.000    5.000    0.000    3.000    0.000    0.000 
#    0.000    0.000    0.000    0.000    0.000    0.000 
#
# Total GULP energy -133916.143135 kJ/mol
# GULP energy per Si atom -5579.839297 kJ/mol
# Density = 1.881383 g / cm^3
# Si number density = 18.856750 Si / 1000 Ang^3
#
#
#
# Elastic Constant Matrix: (Units=GPa)
#
#
# Indices 1 2 3 4 5 6 
#
# 1 93.9378 5.2644 27.2750 0.0002 9.2272 0.0000
# 2 5.2644 21.7916 0.9745 0.0003 10.0769 0.0001
# 3 27.2750 0.9745 79.6664 0.0010 6.7193 -0.0004
# 4 0.0002 0.0003 0.0010 3.7307 -0.0003 -0.9234
# 5 9.2272 10.0769 6.7193 -0.0003 40.7054 0.0000
# 6 0.0000 0.0001 -0.0004 -0.9234 0.0000 4.7767
#
#
#
# Elastic Compliance Matrix: (Units=1/GPa)
#
#
# Indices 1 2 3 4 5 6 
#
# 1 0.012067 -0.002005 -0.003973 0.000000 -0.001583 0.000000
# 2 -0.002005 0.052171 0.001115 -0.000005 -0.012645 -0.000002
# 3 -0.003973 0.001115 0.014042 -0.000004 -0.001693 0.000000
# 4 0.000000 -0.000005 -0.000004 0.281518 0.000004 0.054420
# 5 -0.001583 -0.012645 -0.001693 0.000004 0.028335 0.000001
# 6 0.000000 -0.000002 0.000000 0.054420 0.000001 0.219867
#
#
# Mechanical properties :
#
#
# Convention : Reuss Voigt Hill
#
# Bulk Modulus (GPa) = 14.58738 29.15814 21.87276
# Shear Modulus (GPa) = 7.80544 20.63468 14.22006
#
# Velocity S-wave (km/s) = 2.03674 3.31159 2.74909
# Velocity P-wave (km/s) = 3.64469 5.48805 4.65846
#
# Compressibility (1/GPa) = 0.06855239
#
# Stress axis : x y z
#
# Youngs Moduli (GPa) = 82.87167 19.16770 71.21587
#
# Poissons Ratio (x) = 0.03844 0.28296
# Poissons Ratio (y) = 0.16619 -0.07940
# Poissons Ratio (z) = 0.32927 -0.02137
#
# Static dielectric constant tensor:
#      x y z
#    x 1.689840 0.000000 0.017810 
#    y 0.000000 1.619920 0.000000 
#    z 0.017810 0.000000 1.675900 
# 
# From -- ./inp_files/89741.got.cif
#   From: 2010.05.17/outbox.cif.g08.bks.cpg/sg12_45_cif.got.tgz:89741.got - 2010.06.03 13:09:07.
