data_PCOD9176494
_publ_section_title
;
Structure prediction by ZEFSAII (Michael W. Deem and Ramdas Pophale) SiO2 
 PCOD9176494
Probable space group: C 2/M
;
_chemical_formula_sum "Si O2"
_cell_formula_units_Z 64
_cell_length_a 8.743810
_cell_length_b 21.444716
_cell_length_c 24.318927
_cell_angle_alpha 90.000000
_cell_angle_beta 52.725794
_cell_angle_gamma 90.000000
_cell_volume 3628.607544
_symmetry_space_group_name_H-M "C 2/M"
_symmetry_group_IT_number 12
_symmetry_cell_setting 'monoclinic'
loop_
_space_group_symop_operation_xyz
x,y,z
-x,y,-z
-x,-y,-z
x,-y,z
1/2+x,1/2+y,z
1/2-x,1/2+y,-z
1/2-x,1/2-y,-z
1/2+x,1/2-y,z
loop_
_atom_site_type_symbol
_atom_site_label
_atom_site_fract_x
_atom_site_fract_y
_atom_site_fract_z
Si Si1 0.834191 0.252064 0.760591
Si Si2 0.601094 0.071931 0.714753
Si Si3 0.305600 0.074069 0.577539
Si Si4 0.994045 0.664722 0.824949
Si Si5 0.673912 0.426989 0.919858
Si Si6 0.043463 0.924667 0.430152
Si Si7 0.854333 0.929869 0.201235
Si Si8 0.671023 0.661951 0.703301
O O1 0.886742 0.296795 0.799936
O O2 0.642754 0.213362 0.817951
O O3 0.797937 0.292405 0.713778
O O4 0.008763 0.204987 0.711935
O O5 0.616178 0.112865 0.765685
O O6 0.379423 0.073357 0.743995
O O7 0.751062 0.096307 0.637534
O O8 0.646958 0.000000 0.716811
O O9 0.500000 0.083989 0.500000
O O10 0.125391 0.087120 0.576554
O O11 0.281282 0.118591 0.635627
O O12 0.301587 0.000000 0.594059
O O13 0.840567 0.624238 0.892591
O O14 0.742198 0.500000 0.906935
O O15 0.604890 0.417154 0.871739
O O16 0.500000 0.420467 0.000000
O O17 0.000000 0.899298 0.500000
O O18 0.055403 0.000000 0.432471
O O19 0.930998 0.882276 0.229093
O O20 0.915174 0.000000 0.200596
#
# Coordination Sequence:
#
# PCOD9176494 Si02
#       8
#     8   8   8   8   8   8   8   8
#     4  10  22  33  56  74 108 142 190 220 264 304
#     4   9  16  28  51  77  99 129 175 219 264 318
#     4  10  22  36  54  82 111 137 173 227 288 334
#     4  10  18  35  51  78 104 141 179 225 257 316
#     4   9  17  32  57  87 115 141 176 222 270 323
#     4   9  18  30  46  74 108 136 163 205 268 330
#     4   9  17  30  54  82 106 139 177 221 276 323
#     4  11  20  38  54  79 106 144 183 233 264 323
#
# _framework density 17.637619999999998
#
# number of rings (size 3 to 8) (size 9 to 14) (size 15 to 20)
#    0.000    2.375    2.500    2.250    1.750    0.000 
#    0.000    3.125    0.000    3.000    0.000    2.625 
#    0.000    0.000    0.000    0.000    0.000    0.000 
#
# Total GULP energy -178273.364520 kJ/mol
# GULP energy per Si atom -5571.042641 kJ/mol
# Density = 1.759748 g / cm^3
# Si number density = 17.637620 Si / 1000 Ang^3
#
#
#
# Elastic Constant Matrix: (Units=GPa)
#
#
# Indices 1 2 3 4 5 6 
#
# 1 46.5144 31.6200 32.5091 0.0000 1.9533 0.0000
# 2 31.6200 94.7832 44.9335 0.0000 0.1010 0.0000
# 3 32.5091 44.9335 124.3543 0.0000 -5.8874 0.0000
# 4 0.0000 0.0000 0.0000 21.6117 0.0000 2.7037
# 5 1.9533 0.1010 -5.8874 0.0000 10.7111 0.0000
# 6 0.0000 0.0000 0.0000 2.7037 0.0000 10.7862
#
#
#
# Elastic Compliance Matrix: (Units=1/GPa)
#
#
# Indices 1 2 3 4 5 6 
#
# 1 0.031094 -0.007618 -0.005792 0.000000 -0.008782 0.000000
# 2 -0.007618 0.014675 -0.003339 0.000000 -0.000584 0.000000
# 3 -0.005792 -0.003339 0.011102 0.000000 0.007190 0.000000
# 4 0.000000 0.000000 0.000000 0.047769 0.000000 -0.011974
# 5 -0.008782 -0.000584 0.007190 0.000000 0.098921 0.000000
# 6 0.000000 0.000000 0.000000 -0.011974 0.000000 0.095713
#
#
# Mechanical properties :
#
#
# Convention : Reuss Voigt Hill
#
# Bulk Modulus (GPa) = 42.78168 53.75299 48.26734
# Shear Modulus (GPa) = 14.68157 19.06108 16.87132
#
# Velocity S-wave (km/s) = 2.88827 3.29098 3.09617
# Velocity P-wave (km/s) = 5.95242 6.70695 6.34092
#
# Compressibility (1/GPa) = 0.02337449
#
# Stress axis : x y z
#
# Youngs Moduli (GPa) = 32.16051 68.14211 90.06986
#
# Poissons Ratio (x) = 0.51911 0.52167
# Poissons Ratio (y) = 0.24500 0.30073
# Poissons Ratio (z) = 0.18627 0.22751
#
# Static dielectric constant tensor:
#      x y z
#    x 1.621440 0.000000 -0.005990 
#    y 0.000000 1.638660 0.000000 
#    z -0.005990 0.000000 1.591470 
# 
# From -- ./inp_files/333730.got.cif
#   From: 2010.05.17/outbox.cif.g08.bks.cpg/sg12_167_cif.got.tgz:333730.got - 2010.06.03 13:09:07.
