data_PCOD9176854
_publ_section_title
;
Structure prediction by ZEFSAII (Michael W. Deem and Ramdas Pophale) SiO2 
 PCOD9176854
Probable space group: C 2/M
;
_chemical_formula_sum "Si O2"
_cell_formula_units_Z 44
_cell_length_a 21.614186
_cell_length_b 10.892364
_cell_length_c 26.605906
_cell_angle_alpha 90.000000
_cell_angle_beta 159.310268
_cell_angle_gamma 90.000000
_cell_volume 2213.051737
_symmetry_space_group_name_H-M "C 2/M"
_symmetry_group_IT_number 12
_symmetry_cell_setting 'monoclinic'
loop_
_space_group_symop_operation_xyz
x,y,z
-x,y,-z
-x,-y,-z
x,-y,z
1/2+x,1/2+y,z
1/2-x,1/2+y,-z
1/2-x,1/2-y,-z
1/2+x,1/2-y,z
loop_
_atom_site_type_symbol
_atom_site_label
_atom_site_fract_x
_atom_site_fract_y
_atom_site_fract_z
Si Si1 0.860790 0.855383 0.990470
Si Si2 0.833081 0.136005 0.312512
Si Si3 0.500000 0.788196 0.000000
Si Si4 0.864637 0.728864 0.511154
Si Si5 0.761698 0.138034 0.687539
Si Si6 0.976103 0.643260 0.703493
O O1 0.671511 0.809966 0.864811
O O2 0.915720 0.792963 0.980120
O O3 0.838254 0.000000 0.964028
O O4 0.028045 0.841532 0.153845
O O5 0.811098 0.249592 0.334450
O O6 0.000356 0.167677 0.405451
O O7 0.846851 0.000000 0.345806
O O8 0.658490 0.139395 0.145896
O O9 0.822861 0.645674 0.431357
O O10 0.949044 0.661042 0.622978
O O11 0.680790 0.785408 0.389226
O O12 0.732986 0.000000 0.687146
O O13 0.962143 0.500000 0.705842
#
# Coordination Sequence:
#
# PCOD9176854 Si02
#       6
#     8   8   4   8   8   8
#     4   9  18  35  59  87 117 152 198 242 290 346
#     4  11  23  38  60  89 122 157 195 245 299 351
#     4  10  18  36  58  86 117 154 197 242 291 348
#     4  11  22  37  58  86 120 155 199 243 292 350
#     4  10  23  40  62  90 120 154 197 246 296 349
#     4  10  21  37  59  84 116 159 199 240 291 349
#
# _framework density 19.882047
#
# number of rings (size 3 to 8) (size 9 to 14) (size 15 to 20)
#    0.000    1.818    1.818    2.182    0.000    5.818 
#    0.000    0.000    0.000    0.000    0.000    0.000 
#    0.000    0.000    0.000    0.000    0.000    0.000 
#
# Total GULP energy -122766.788958 kJ/mol
# GULP energy per Si atom -5580.308589 kJ/mol
# Density = 1.983679 g / cm^3
# Si number density = 19.882047 Si / 1000 Ang^3
#
#
#
# Elastic Constant Matrix: (Units=GPa)
#
#
# Indices 1 2 3 4 5 6 
#
# 1 49.1548 23.9845 29.4775 0.0000 5.1102 0.0026
# 2 23.9845 86.1804 29.5732 0.0355 5.3407 0.0092
# 3 29.4775 29.5732 135.7303 0.0419 17.6227 0.0073
# 4 0.0000 0.0355 0.0419 11.9293 -0.0002 -1.9047
# 5 5.1102 5.3407 17.6227 -0.0002 38.1749 -0.0039
# 6 0.0026 0.0092 0.0073 -1.9047 -0.0039 16.8628
#
#
#
# Elastic Compliance Matrix: (Units=1/GPa)
#
#
# Indices 1 2 3 4 5 6 
#
# 1 0.025734 -0.005655 -0.004268 0.000032 -0.000683 0.000004
# 2 -0.005655 0.013794 -0.001729 -0.000037 -0.000375 -0.000010
# 3 -0.004268 -0.001729 0.009112 -0.000028 -0.003393 -0.000006
# 4 0.000032 -0.000037 -0.000028 0.085367 0.000015 0.009643
# 5 -0.000683 -0.000375 -0.003393 0.000015 0.027906 0.000010
# 6 0.000004 -0.000010 -0.000006 0.009643 0.000010 0.060391
#
#
# Mechanical properties :
#
#
# Convention : Reuss Voigt Hill
#
# Bulk Modulus (GPa) = 39.46936 48.57067 44.02001
# Shear Modulus (GPa) = 19.68105 25.92874 22.80490
#
# Velocity S-wave (km/s) = 3.14967 3.61519 3.39043
# Velocity P-wave (km/s) = 5.75518 6.47368 6.12497
#
# Compressibility (1/GPa) = 0.02533611
#
# Stress axis : x y z
#
# Youngs Moduli (GPa) = 38.85970 72.49641 109.74976
#
# Poissons Ratio (x) = 0.40996 0.46840
# Poissons Ratio (y) = 0.21975 0.18972
# Poissons Ratio (z) = 0.16585 0.12532
#
# Static dielectric constant tensor:
#      x y z
#    x 1.675150 0.000000 -0.000550 
#    y 0.000000 1.683610 -0.000010 
#    z -0.000550 -0.000010 1.737000 
# 
# From -- ./inp_files/366103.got.cif
#   From: 2010.05.17/outbox.cif.g08.bks.cpg/sg12_184_cif.got.tgz:366103.got - 2010.06.03 13:09:07.
