data_PCOD9176990
_publ_section_title
;
Structure prediction by ZEFSAII (Michael W. Deem and Ramdas Pophale) SiO2 
 PCOD9176990
Probable space group: C 2/M
;
_chemical_formula_sum "Si O2"
_cell_formula_units_Z 34
_cell_length_a 23.631897
_cell_length_b 10.592734
_cell_length_c 7.831331
_cell_angle_alpha 90.000000
_cell_angle_beta 124.197584
_cell_angle_gamma 90.000000
_cell_volume 1621.446029
_symmetry_space_group_name_H-M "C 2/M"
_symmetry_group_IT_number 12
_symmetry_cell_setting 'monoclinic'
loop_
_space_group_symop_operation_xyz
x,y,z
-x,y,-z
-x,-y,-z
x,-y,z
1/2+x,1/2+y,z
1/2-x,1/2+y,-z
1/2-x,1/2-y,-z
1/2+x,1/2-y,z
loop_
_atom_site_type_symbol
_atom_site_label
_atom_site_fract_x
_atom_site_fract_y
_atom_site_fract_z
Si Si1 0.000000 0.287845 0.500000
Si Si2 0.150468 0.500000 0.433711
Si Si3 0.910273 0.500000 0.196108
Si Si4 0.500000 0.000000 0.000000
Si Si5 0.232301 0.500000 0.208284
Si Si6 0.692304 0.732303 0.544514
Si Si7 0.543286 0.649698 0.230539
O O1 0.062172 0.377843 0.658968
O O2 0.019562 0.205990 0.369177
O O3 0.194777 0.500000 0.331605
O O4 0.172306 0.372773 0.568027
O O5 0.070275 0.500000 0.248192
O O6 0.949616 0.500000 0.080997
O O7 0.829891 0.500000 0.027642
O O8 0.278918 0.625743 0.279693
O O9 0.750000 0.750000 0.500000
O O10 0.622936 0.678872 0.342634
O O11 0.532631 0.500000 0.214619
O O12 0.500000 0.708692 0.000000
#
# Coordination Sequence:
#
# PCOD9176990 Si02
#       7
#     4   4   4   2   4   8   8
#     4  11  25  42  68 104 141 171 238 292 346 414
#     4   9  19  28  56  97 129 158 225 282 323 406
#     4  10  23  40  66 102 134 175 227 297 344 413
#     4  10  18  36  66  98 130 176 226 280 352 402
#     4   9  19  37  61  85 138 173 216 278 346 409
#     4  10  20  37  63  98 130 179 228 284 338 416
#     4  11  25  44  71  98 139 190 231 283 352 417
#
# _framework density 20.968935999999999
#
# number of rings (size 3 to 8) (size 9 to 14) (size 15 to 20)
#    0.000    1.882    1.176    1.765   13.176    0.941 
#    0.000    1.176    2.588    0.000    0.000    0.000 
#    0.000    0.000    0.000    0.000    0.000    0.000 
#
# Total GULP energy -94766.273961 kJ/mol
# GULP energy per Si atom -5574.486704 kJ/mol
# Density = 2.092121 g / cm^3
# Si number density = 20.968936 Si / 1000 Ang^3
#
#
#
# Elastic Constant Matrix: (Units=GPa)
#
#
# Indices 1 2 3 4 5 6 
#
# 1 110.4720 31.5081 66.5895 0.0000 2.9161 0.0000
# 2 31.5081 156.0288 82.0734 0.0000 14.1623 0.0000
# 3 66.5895 82.0734 172.7481 0.0000 28.8449 0.0000
# 4 0.0000 0.0000 0.0000 134.5340 0.0000 222.5975
# 5 2.9161 14.1623 28.8449 0.0000 46.3084 0.0000
# 6 0.0000 0.0000 0.0000 222.5975 0.0000 431.9629
#
#
#
# Elastic Compliance Matrix: (Units=1/GPa)
#
#
# Indices 1 2 3 4 5 6 
#
# 1 0.012022 0.000004 -0.005033 0.000000 0.002377 0.000000
# 2 0.000004 0.008545 -0.004046 0.000000 -0.000094 0.000000
# 3 -0.005033 -0.004046 0.010481 0.000000 -0.004975 0.000000
# 4 0.000000 0.000000 0.000000 0.050439 0.000000 -0.025992
# 5 0.002377 -0.000094 -0.004975 0.000000 0.024572 0.000000
# 6 0.000000 0.000000 0.000000 -0.025992 0.000000 0.015709
#
#
# Mechanical properties :
#
#
# Convention : Reuss Voigt Hill
#
# Bulk Modulus (GPa) = 77.52375 88.84343 83.18359
# Shear Modulus (GPa) = 34.67003 139.83293 87.25148
#
# Velocity S-wave (km/s) = 4.07061 8.17499 6.45757
# Velocity P-wave (km/s) = 7.69053 11.47033 9.76506
#
# Compressibility (1/GPa) = 0.01289927
#
# Stress axis : x y z
#
# Youngs Moduli (GPa) = 83.18200 117.03028 95.40636
#
# Poissons Ratio (x) = -0.00046 0.48016
# Poissons Ratio (y) = -0.00033 0.38597
# Poissons Ratio (z) = 0.41864 0.47345
#
# Static dielectric constant tensor:
#      x y z
#    x 1.734740 0.000000 -0.011950 
#    y 0.000000 1.943580 0.000000 
#    z -0.011950 0.000000 1.749590 
# 
# From -- ./inp_files/102968.got.cif
#   From: 2010.05.17/outbox.cif.g08.bks.cpg/sg12_52_cif.got.tgz:102968.got - 2010.06.03 13:09:07.
