data_PCOD9176672
_publ_section_title
;
Structure prediction by ZEFSAII (Michael W. Deem and Ramdas Pophale) SiO2 
 PCOD9176672
Probable space group: C 2/M
;
_chemical_formula_sum "Si O2"
_cell_formula_units_Z 58
_cell_length_a 30.361840
_cell_length_b 7.654374
_cell_length_c 12.149440
_cell_angle_alpha 90.000000
_cell_angle_beta 98.815817
_cell_angle_gamma 90.000000
_cell_volume 2790.183536
_symmetry_space_group_name_H-M "C 2/M"
_symmetry_group_IT_number 12
_symmetry_cell_setting 'monoclinic'
loop_
_space_group_symop_operation_xyz
x,y,z
-x,y,-z
-x,-y,-z
x,-y,z
1/2+x,1/2+y,z
1/2-x,1/2+y,-z
1/2-x,1/2-y,-z
1/2+x,1/2-y,z
loop_
_atom_site_type_symbol
_atom_site_label
_atom_site_fract_x
_atom_site_fract_y
_atom_site_fract_z
Si Si1 0.411644 0.786545 0.169741
Si Si2 0.038053 0.210383 0.429492
Si Si3 0.820139 0.288338 0.029882
Si Si4 0.783178 0.305822 0.418198
Si Si5 0.987121 0.798870 0.828825
Si Si6 0.621776 0.793140 0.603838
Si Si7 0.500000 0.000000 0.000000
Si Si8 0.745141 0.796358 0.178480
O O1 0.370733 0.739309 0.074403
O O2 0.458995 0.708086 0.158261
O O3 0.397355 0.728077 0.286892
O O4 0.417411 0.000000 0.167489
O O5 0.029281 0.257938 0.299519
O O6 0.085275 0.268019 0.495889
O O7 0.000000 0.275607 0.500000
O O8 0.036471 0.000000 0.431938
O O9 0.817702 0.500000 0.033031
O O10 0.787494 0.221925 0.113482
O O11 0.797466 0.232379 0.907127
O O12 0.796146 0.500000 0.455826
O O13 0.750000 0.250000 0.500000
O O14 0.830546 0.214422 0.412108
O O15 0.756560 0.301055 0.293933
O O16 0.973208 0.000000 0.845537
O O17 0.975920 0.655123 0.915613
O O18 0.627731 0.000000 0.628061
O O19 0.738821 0.000000 0.202775
#
# Coordination Sequence:
#
# PCOD9176672 Si02
#       8
#     8   8   8   8   8   8   2   8
#     4  10  18  35  60  93 125 161 203 257 321 374
#     4  10  21  37  61  98 135 158 198 269 327 371
#     4   9  18  33  55  84 121 152 195 250 305 360
#     4  11  23  41  59  83 118 163 209 254 306 378
#     4  11  24  42  67  98 128 167 219 262 310 392
#     4  10  21  35  61  92 125 161 205 254 315 387
#     4  12  26  48  66  86 124 184 210 250 320 374
#     4  10  19  32  54  84 114 156 199 247 305 361
#
# _framework density 20.787163
#
# number of rings (size 3 to 8) (size 9 to 14) (size 15 to 20)
#    0.000    1.793    3.448    1.034    0.966    2.483 
#    0.000    1.379    0.000    0.000    0.000    0.000 
#    0.000    0.000    0.000    0.000    0.000    0.000 
#
# Total GULP energy -161624.755058 kJ/mol
# GULP energy per Si atom -5573.267416 kJ/mol
# Density = 2.073985 g / cm^3
# Si number density = 20.787163 Si / 1000 Ang^3
#
#
#
# Elastic Constant Matrix: (Units=GPa)
#
#
# Indices 1 2 3 4 5 6 
#
# 1 61.4900 -4.0897 24.6241 0.0000 20.9611 0.0000
# 2 -4.0897 59.9898 10.5074 0.0000 -7.1285 0.0000
# 3 24.6241 10.5074 72.8333 0.0000 8.8869 0.0000
# 4 0.0000 0.0000 0.0000 23.0056 0.0000 -2.4069
# 5 20.9611 -7.1285 8.8869 0.0000 27.6589 0.0000
# 6 0.0000 0.0000 0.0000 -2.4069 0.0000 0.9381
#
#
#
# Elastic Compliance Matrix: (Units=1/GPa)
#
#
# Indices 1 2 3 4 5 6 
#
# 1 0.024412 0.000857 -0.006397 0.000000 -0.016224 0.000000
# 2 0.000857 0.017947 -0.003501 0.000000 0.005101 0.000000
# 3 -0.006397 -0.003501 0.016566 0.000000 -0.001377 0.000000
# 4 0.000000 0.000000 0.000000 0.059417 0.000000 0.152443
# 5 -0.016224 0.005101 -0.001377 0.000000 0.050207 0.000000
# 6 0.000000 0.000000 0.000000 0.152443 0.000000 1.457069
#
#
# Mechanical properties :
#
#
# Convention : Reuss Voigt Hill
#
# Bulk Modulus (GPa) = 24.48469 28.48853 26.48661
# Shear Modulus (GPa) = 3.01692 21.20527 12.11110
#
# Velocity S-wave (km/s) = 1.20602 3.19739 2.41638
# Velocity P-wave (km/s) = 3.70724 5.23122 4.53372
#
# Compressibility (1/GPa) = 0.04084185
#
# Stress axis : x y z
#
# Youngs Moduli (GPa) = 40.96285 55.71855 60.36449
#
# Poissons Ratio (x) = -0.04774 0.38618
# Poissons Ratio (y) = -0.03510 0.21136
# Poissons Ratio (z) = 0.26206 0.19509
#
# Static dielectric constant tensor:
#      x y z
#    x 1.777730 0.000000 -0.021180 
#    y 0.000000 1.771590 0.000000 
#    z -0.021180 0.000000 1.746250 
# 
# From -- ./inp_files/186764.got.cif
#   From: 2010.05.17/outbox.cif.g08.bks.cpg/sg12_94_cif.got.tgz:186764.got - 2010.06.03 13:09:07.
