data_PCOD9176092
_publ_section_title
;
Structure prediction by ZEFSAII (Michael W. Deem and Ramdas Pophale) SiO2 
 PCOD9176092
Probable space group: C 2/M
;
_chemical_formula_sum "Si O2"
_cell_formula_units_Z 64
_cell_length_a 12.155838
_cell_length_b 23.057257
_cell_length_c 25.895691
_cell_angle_alpha 90.000000
_cell_angle_beta 30.093584
_cell_angle_gamma 90.000000
_cell_volume 3639.287598
_symmetry_space_group_name_H-M "C 2/M"
_symmetry_group_IT_number 12
_symmetry_cell_setting 'monoclinic'
loop_
_space_group_symop_operation_xyz
x,y,z
-x,y,-z
-x,-y,-z
x,-y,z
1/2+x,1/2+y,z
1/2-x,1/2+y,-z
1/2-x,1/2-y,-z
1/2+x,1/2-y,z
loop_
_atom_site_type_symbol
_atom_site_label
_atom_site_fract_x
_atom_site_fract_y
_atom_site_fract_z
Si Si1 0.423456 0.931923 0.432205
Si Si2 0.765326 0.244813 0.725104
Si Si3 0.503276 0.631014 0.649532
Si Si4 0.561302 0.067537 0.802346
Si Si5 0.338846 0.320504 0.140652
Si Si6 0.697837 0.838027 0.379912
Si Si7 0.912123 0.434313 0.748835
Si Si8 0.807718 0.320808 0.917041
O O1 0.197796 0.902458 0.541615
O O2 0.612437 0.894441 0.383411
O O3 0.453858 0.927609 0.358369
O O4 0.430726 0.000000 0.443552
O O5 0.799252 0.284532 0.761740
O O6 0.762131 0.286203 0.676627
O O7 0.532600 0.214036 0.830980
O O8 0.939864 0.192908 0.650090
O O9 0.287515 0.591277 0.733925
O O10 0.592962 0.645612 0.670264
O O11 0.558276 0.074356 0.740941
O O12 0.370623 0.111379 0.897320
O O13 0.526691 0.000000 0.828136
O O14 0.281407 0.387737 0.172545
O O15 0.265266 0.308615 0.112150
O O16 0.598578 0.308366 0.037608
O O17 0.500000 0.822625 0.500000
O O18 0.827214 0.500000 0.785527
#
# Coordination Sequence:
#
# PCOD9176092 Si02
#       8
#     8   8   8   8   8   8   8   8
#     4  10  20  36  55  78 105 138 179 221 260 312
#     4  11  20  37  52  76 108 143 173 221 261 311
#     4  10  22  35  53  78 106 140 181 213 265 315
#     4   9  18  34  53  78 109 137 170 220 267 316
#     4  10  18  34  55  75 107 138 173 221 268 304
#     4  10  22  37  53  79 106 141 184 217 257 315
#     4   9  18  33  54  80 107 136 177 218 265 316
#     4   9  20  32  52  83 102 136 179 215 263 320
#
# _framework density 17.585858999999999
#
# number of rings (size 3 to 8) (size 9 to 14) (size 15 to 20)
#    0.000    2.250    1.250    1.500    0.000    5.750 
#    6.750    4.375    0.000    0.000    0.000    0.875 
#    0.000    0.000    0.000    0.000    0.000    0.000 
#
# Total GULP energy -178315.200573 kJ/mol
# GULP energy per Si atom -5572.350018 kJ/mol
# Density = 1.754583 g / cm^3
# Si number density = 17.585859 Si / 1000 Ang^3
#
#
#
# Elastic Constant Matrix: (Units=GPa)
#
#
# Indices 1 2 3 4 5 6 
#
# 1 54.1604 37.4668 20.0451 -0.0304 -7.1919 0.0226
# 2 37.4668 117.8099 33.3725 -0.0276 -1.1572 -0.0049
# 3 20.0451 33.3725 35.4046 -0.0376 -1.2071 0.0202
# 4 -0.0304 -0.0276 -0.0376 21.4617 0.0142 2.4925
# 5 -7.1919 -1.1572 -1.2071 0.0142 26.1425 0.0160
# 6 0.0226 -0.0049 0.0202 2.4925 0.0160 22.6167
#
#
#
# Elastic Compliance Matrix: (Units=1/GPa)
#
#
# Indices 1 2 3 4 5 6 
#
# 1 0.026884 -0.005781 -0.009544 0.000013 0.006699 -0.000026
# 2 -0.005781 0.012823 -0.008863 -0.000008 -0.001432 0.000018
# 3 -0.009544 -0.008863 0.041966 0.000053 -0.001080 -0.000035
# 4 0.000013 -0.000008 0.000053 0.047199 -0.000017 -0.005202
# 5 0.006699 -0.001432 -0.001080 -0.000017 0.039982 -0.000032
# 6 -0.000026 0.000018 -0.000035 -0.005202 -0.000032 0.044789
#
#
# Mechanical properties :
#
#
# Convention : Reuss Voigt Hill
#
# Bulk Modulus (GPa) = 30.03158 43.23817 36.63487
# Shear Modulus (GPa) = 18.30707 21.81020 20.05864
#
# Velocity S-wave (km/s) = 3.22997 3.52549 3.38096
# Velocity P-wave (km/s) = 5.56996 6.41968 6.00986
#
# Compressibility (1/GPa) = 0.03329828
#
# Stress axis : x y z
#
# Youngs Moduli (GPa) = 37.19623 77.98281 23.82862
#
# Poissons Ratio (x) = 0.45079 0.22742
# Poissons Ratio (y) = 0.21502 0.21120
# Poissons Ratio (z) = 0.35500 0.69119
#
# Static dielectric constant tensor:
#      x y z
#    x 1.605280 0.000000 -0.011030 
#    y 0.000000 1.607700 0.000010 
#    z -0.011030 0.000010 1.580320 
# 
# From -- ./inp_files/178392.got.cif
#   From: 2010.05.17/outbox.cif.g08.bks.cpg/sg12_90_cif.got.tgz:178392.got - 2010.06.03 13:09:07.
