data_PCOD9176852
_publ_section_title
;
Structure prediction by ZEFSAII (Michael W. Deem and Ramdas Pophale) SiO2 
 PCOD9176852
Probable space group: C 2/M
;
_chemical_formula_sum "Si O2"
_cell_formula_units_Z 52
_cell_length_a 24.171545
_cell_length_b 15.298521
_cell_length_c 10.991000
_cell_angle_alpha 90.000000
_cell_angle_beta 40.547793
_cell_angle_gamma 90.000000
_cell_volume 2642.161019
_symmetry_space_group_name_H-M "C 2/M"
_symmetry_group_IT_number 12
_symmetry_cell_setting 'monoclinic'
loop_
_space_group_symop_operation_xyz
x,y,z
-x,y,-z
-x,-y,-z
x,-y,z
1/2+x,1/2+y,z
1/2-x,1/2+y,-z
1/2-x,1/2-y,-z
1/2+x,1/2-y,z
loop_
_atom_site_type_symbol
_atom_site_label
_atom_site_fract_x
_atom_site_fract_y
_atom_site_fract_z
Si Si1 0.239815 0.275507 0.215809
Si Si2 0.875191 0.000000 0.706457
Si Si3 0.120763 0.602104 0.581351
Si Si4 0.216603 0.331002 0.635019
Si Si5 0.180868 0.500000 0.011279
Si Si6 0.209235 0.000000 0.400463
Si Si7 0.125531 0.817647 0.205284
Si Si8 0.959270 0.639389 0.697461
O O1 0.183567 0.341755 0.389681
O O2 0.291165 0.209866 0.218282
O O3 0.176392 0.218350 0.238414
O O4 0.305336 0.323061 0.017683
O O5 0.911523 0.911356 0.699762
O O6 0.865633 0.000000 0.575182
O O7 0.774470 0.000000 0.912712
O O8 0.140846 0.500000 0.537255
O O9 0.137121 0.632197 0.692498
O O10 0.026236 0.618045 0.690409
O O11 0.250000 0.250000 0.500000
O O12 0.283368 0.411321 0.535380
O O13 0.126409 0.584252 0.139335
O O14 0.205089 0.500000 0.827711
O O15 0.060336 0.742001 0.277600
O O16 0.000000 0.612760 0.500000
#
# Coordination Sequence:
#
# PCOD9176852 Si02
#       8
#     8   4   8   8   4   4   8   8
#     4  10  20  37  61  85 120 150 200 251 291 348
#     4  10  22  35  64  85 114 152 211 250 284 338
#     4  11  23  36  59  90 122 158 192 238 310 366
#     4  10  20  37  58  86 122 157 201 246 288 352
#     4  10  21  35  59  87 119 158 188 243 309 357
#     4  10  18  36  58  85 121 150 200 249 292 341
#     4  11  21  37  58  88 113 160 199 243 298 354
#     4  12  23  36  56  87 131 156 191 241 314 371
#
# _framework density 19.680859000000002
#
# number of rings (size 3 to 8) (size 9 to 14) (size 15 to 20)
#    0.462    0.923    4.615    3.000    1.077    0.000 
#    0.000    4.231    0.000    0.923    0.000    1.077 
#    0.000    0.000    0.000    0.000    0.000    0.000 
#
# Total GULP energy -145156.757340 kJ/mol
# GULP energy per Si atom -5582.952205 kJ/mol
# Density = 1.963606 g / cm^3
# Si number density = 19.680859 Si / 1000 Ang^3
#
#
#
# Elastic Constant Matrix: (Units=GPa)
#
#
# Indices 1 2 3 4 5 6 
#
# 1 83.3780 29.2835 12.1109 0.0000 14.7118 0.0000
# 2 29.2835 149.7668 20.4209 0.0000 8.0983 0.0000
# 3 12.1109 20.4209 50.5098 0.0000 -5.1506 0.0000
# 4 0.0000 0.0000 0.0000 14.9792 0.0000 2.5259
# 5 14.7118 8.0983 -5.1506 0.0000 22.3519 0.0000
# 6 0.0000 0.0000 0.0000 2.5259 0.0000 32.3287
#
#
#
# Elastic Compliance Matrix: (Units=1/GPa)
#
#
# Indices 1 2 3 4 5 6 
#
# 1 0.014987 -0.001857 -0.003871 0.000000 -0.010084 0.000000
# 2 -0.001857 0.007542 -0.002824 0.000000 -0.002161 0.000000
# 3 -0.003871 -0.002824 0.022767 0.000000 0.008817 0.000000
# 4 0.000000 0.000000 0.000000 0.067650 0.000000 -0.005286
# 5 -0.010084 -0.002161 0.008817 0.000000 0.054191 0.000000
# 6 0.000000 0.000000 0.000000 -0.005286 0.000000 0.031345
#
#
# Mechanical properties :
#
#
# Convention : Reuss Voigt Hill
#
# Bulk Modulus (GPa) = 35.47143 45.25391 40.36267
# Shear Modulus (GPa) = 22.22367 28.72126 25.47247
#
# Velocity S-wave (km/s) = 3.36401 3.82429 3.60151
# Velocity P-wave (km/s) = 5.75770 6.52258 6.15204
#
# Compressibility (1/GPa) = 0.02819171
#
# Stress axis : x y z
#
# Youngs Moduli (GPa) = 66.72270 132.58816 43.92275
#
# Poissons Ratio (x) = 0.24627 0.17002
# Poissons Ratio (y) = 0.12393 0.12405
# Poissons Ratio (z) = 0.25828 0.37446
#
# Static dielectric constant tensor:
#      x y z
#    x 1.704610 0.000000 0.012490 
#    y 0.000000 1.719310 0.000000 
#    z 0.012490 0.000000 1.682720 
# 
# From -- ./inp_files/176054.got.cif
#   From: 2010.05.17/outbox.cif.g08.bks.cpg/sg12_89_cif.got.tgz:176054.got - 2010.06.03 13:09:07.
