data_PCOD9176187
_publ_section_title
;
Structure prediction by ZEFSAII (Michael W. Deem and Ramdas Pophale) SiO2 
 PCOD9176187
Probable space group: C 2/M
;
_chemical_formula_sum "Si O2"
_cell_formula_units_Z 48
_cell_length_a 9.312342
_cell_length_b 16.210236
_cell_length_c 16.603376
_cell_angle_alpha 90.000000
_cell_angle_beta 115.868757
_cell_angle_gamma 90.000000
_cell_volume 2255.218545
_symmetry_space_group_name_H-M "C 2/M"
_symmetry_group_IT_number 12
_symmetry_cell_setting 'monoclinic'
loop_
_space_group_symop_operation_xyz
x,y,z
-x,y,-z
-x,-y,-z
x,-y,z
1/2+x,1/2+y,z
1/2-x,1/2+y,-z
1/2-x,1/2-y,-z
1/2+x,1/2-y,z
loop_
_atom_site_type_symbol
_atom_site_label
_atom_site_fract_x
_atom_site_fract_y
_atom_site_fract_z
Si Si1 0.259672 0.000000 0.759667
Si Si2 0.089885 0.000000 0.239113
Si Si3 0.683421 0.500000 0.075116
Si Si4 0.714425 0.819778 0.250475
Si Si5 0.309713 0.500000 0.449335
Si Si6 0.509154 0.332651 0.214018
Si Si7 0.840005 0.836671 0.011426
Si Si8 0.807854 0.177140 0.458395
O O1 0.340664 0.911019 0.791294
O O2 0.223916 0.000000 0.654801
O O3 0.095054 0.000000 0.770787
O O4 0.126823 0.094684 0.272907
O O5 0.162749 0.000000 0.166127
O O6 0.748187 0.413433 0.054831
O O7 0.500000 0.500000 0.000000
O O8 0.599738 0.745461 0.200482
O O9 0.736131 0.815216 0.351530
O O10 0.888043 0.807266 0.253894
O O11 0.500000 0.500000 0.500000
O O12 0.255380 0.585723 0.474240
O O13 0.400904 0.366347 0.113884
O O14 0.750000 0.750000 0.000000
O O15 0.000000 0.820388 0.000000
O O16 0.750000 0.250000 0.500000
O O17 0.000000 0.178774 0.500000
#
# Coordination Sequence:
#
# PCOD9176187 Si02
#       8
#     4   4   4   8   4   8   8   8
#     4   8  18  34  54  77 108 149 178 218 276 325
#     4  10  18  34  57  78 105 145 187 224 265 321
#     4  10  18  36  56  78 106 144 186 224 268 326
#     4  10  21  35  55  82 110 142 184 223 272 326
#     4   8  16  32  55  79 106 140 190 222 255 322
#     4  11  20  35  55  81 109 141 179 230 270 322
#     4  11  21  36  57  82 107 144 184 226 274 321
#     4  10  19  35  57  81 109 144 180 226 269 320
#
# _framework density 21.283968999999999
#
# number of rings (size 3 to 8) (size 9 to 14) (size 15 to 20)
#    0.000    2.000    3.333    2.000    0.000    1.333 
#    0.000    2.500    0.000    0.000    0.000    0.000 
#    0.000    0.000    0.000    0.000    0.000    0.000 
#
# Total GULP energy -133624.321262 kJ/mol
# GULP energy per Si atom -5567.680053 kJ/mol
# Density = 2.123553 g / cm^3
# Si number density = 21.283969 Si / 1000 Ang^3
#
#
#
# Elastic Constant Matrix: (Units=GPa)
#
#
# Indices 1 2 3 4 5 6 
#
# 1 26.5028 54.7588 11.0293 0.0000 -11.6165 0.0000
# 2 54.7588 217.7937 25.4708 0.0000 -28.5223 0.0000
# 3 11.0293 25.4708 43.6086 0.0000 -18.6815 0.0000
# 4 0.0000 0.0000 0.0000 30.6238 0.0000 -11.7154
# 5 -11.6165 -28.5223 -18.6815 0.0000 23.5351 0.0000
# 6 0.0000 0.0000 0.0000 -11.7154 0.0000 37.0067
#
#
#
# Elastic Compliance Matrix: (Units=1/GPa)
#
#
# Indices 1 2 3 4 5 6 
#
# 1 0.085553 -0.018941 -0.003513 0.000000 0.016485 0.000000
# 2 -0.018941 0.009659 0.000240 0.000000 0.002548 0.000000
# 3 -0.003513 0.000240 0.034944 0.000000 0.026294 0.000000
# 4 0.000000 0.000000 0.000000 0.037154 0.000000 0.011762
# 5 0.016485 0.002548 0.026294 0.000000 0.074586 0.000000
# 6 0.000000 0.000000 0.000000 0.011762 0.000000 0.030746
#
#
# Mechanical properties :
#
#
# Convention : Reuss Voigt Hill
#
# Bulk Modulus (GPa) = 11.66464 52.26923 31.96694
# Shear Modulus (GPa) = 14.46570 31.34287 22.90429
#
# Velocity S-wave (km/s) = 2.60984 3.84162 3.28400
# Velocity P-wave (km/s) = 3.81760 6.65498 5.42507
#
# Compressibility (1/GPa) = 0.08572918
#
# Stress axis : x y z
#
# Youngs Moduli (GPa) = 11.68862 103.52793 28.61744
#
# Poissons Ratio (x) = 1.96088 0.10054
# Poissons Ratio (y) = 0.22139 -0.00687
# Poissons Ratio (z) = 0.04106 -0.02486
#
# Static dielectric constant tensor:
#      x y z
#    x 1.614110 0.000000 0.002160 
#    y 0.000000 1.916710 0.000000 
#    z 0.002160 0.000000 1.795100 
# 
# From -- ./inp_files/255856.got.cif
#   From: 2010.05.17/outbox.cif.g08.bks.cpg/sg12_128_cif.got.tgz:255856.got - 2010.06.03 13:09:07.
