data_PCOD9176638
_publ_section_title
;
Structure prediction by ZEFSAII (Michael W. Deem and Ramdas Pophale) SiO2 
 PCOD9176638
Probable space group: C 2/M
;
_chemical_formula_sum "Si O2"
_cell_formula_units_Z 50
_cell_length_a 16.400275
_cell_length_b 25.675111
_cell_length_c 6.056449
_cell_angle_alpha 90.000000
_cell_angle_beta 121.857358
_cell_angle_gamma 90.000000
_cell_volume 2166.086284
_symmetry_space_group_name_H-M "C 2/M"
_symmetry_group_IT_number 12
_symmetry_cell_setting 'monoclinic'
loop_
_space_group_symop_operation_xyz
x,y,z
-x,y,-z
-x,-y,-z
x,-y,z
1/2+x,1/2+y,z
1/2-x,1/2+y,-z
1/2-x,1/2-y,-z
1/2+x,1/2-y,z
loop_
_atom_site_type_symbol
_atom_site_label
_atom_site_fract_x
_atom_site_fract_y
_atom_site_fract_z
Si Si1 0.762293 0.559022 0.324946
Si Si2 0.317079 0.322494 0.175070
Si Si3 0.186338 0.278704 0.593176
Si Si4 0.435462 0.604264 0.082519
Si Si5 0.641742 0.134744 0.219156
Si Si6 0.500000 0.500000 0.000000
Si Si7 0.079006 0.442028 0.803783
O O1 0.736164 0.500000 0.342152
O O2 0.665349 0.590741 0.178006
O O3 0.830907 0.583930 0.601743
O O4 0.818003 0.559994 0.172497
O O5 0.358400 0.268501 0.330921
O O6 0.237187 0.345730 0.226096
O O7 0.256883 0.308170 0.866277
O O8 0.400534 0.363431 0.241658
O O9 0.250000 0.250000 0.500000
O O10 0.120837 0.319569 0.365438
O O11 0.500000 0.635996 0.000000
O O12 0.484991 0.547508 0.164208
O O13 0.571806 0.110066 0.937414
O O14 0.071796 0.500000 0.899331
O O15 0.000000 0.441033 0.500000
#
# Coordination Sequence:
#
# PCOD9176638 Si02
#       7
#     8   8   8   8   8   2   8
#     4  11  20  36  58  89 129 169 217 267 317 395
#     4  10  19  36  58  94 123 164 214 275 334 394
#     4   9  19  33  61  95 114 152 217 270 335 407
#     4  10  18  35  59  89 130 178 216 263 320 386
#     4  11  19  34  60  93 118 166 216 270 339 403
#     4   8  20  32  60  90 130 186 226 268 306 398
#     4  10  22  37  56  87 125 170 222 274 339 412
#
# _framework density 23.083106000000001
#
# number of rings (size 3 to 8) (size 9 to 14) (size 15 to 20)
#    0.480    1.440    4.000    0.480    0.000    0.640 
#    1.440    3.200    0.000    1.920   70.720    0.000 
#    0.000    0.000    0.000    0.000    0.000    0.000 
#
# Total GULP energy -139192.758731 kJ/mol
# GULP energy per Si atom -5567.710349 kJ/mol
# Density = 2.303057 g / cm^3
# Si number density = 23.083106 Si / 1000 Ang^3
#
#
#
# Elastic Constant Matrix: (Units=GPa)
#
#
# Indices 1 2 3 4 5 6 
#
# 1 91.6646 33.4248 2.0766 0.0000 -12.9736 0.0000
# 2 33.4248 165.5937 61.2798 0.0000 -14.9466 0.0000
# 3 2.0766 61.2798 60.7952 0.0000 -7.8884 0.0000
# 4 0.0000 0.0000 0.0000 45.7267 0.0000 -15.9422
# 5 -12.9736 -14.9466 -7.8884 0.0000 28.4720 0.0000
# 6 0.0000 0.0000 0.0000 -15.9422 0.0000 26.5840
#
#
#
# Elastic Compliance Matrix: (Units=1/GPa)
#
#
# Indices 1 2 3 4 5 6 
#
# 1 0.012824 -0.003531 0.003774 0.000000 0.005036 0.000000
# 2 -0.003531 0.010772 -0.010593 0.000000 0.001111 0.000000
# 3 0.003774 -0.010593 0.027487 0.000000 0.003774 0.000000
# 4 0.000000 0.000000 0.000000 0.027650 0.000000 0.016581
# 5 0.005036 0.001111 0.003774 0.000000 0.039046 0.000000
# 6 0.000000 0.000000 0.000000 0.016581 0.000000 0.047560
#
#
# Mechanical properties :
#
#
# Convention : Reuss Voigt Hill
#
# Bulk Modulus (GPa) = 32.91227 56.84623 44.87925
# Shear Modulus (GPa) = 25.48867 34.90804 30.19835
#
# Velocity S-wave (km/s) = 3.32658 3.89302 3.62089
# Velocity P-wave (km/s) = 5.38924 6.69983 6.07995
#
# Compressibility (1/GPa) = 0.03038380
#
# Stress axis : x y z
#
# Youngs Moduli (GPa) = 77.97904 92.83444 36.38099
#
# Poissons Ratio (x) = 0.32777 -0.13731
# Poissons Ratio (y) = 0.27532 0.38538
# Poissons Ratio (z) = -0.29431 0.98339
#
# Static dielectric constant tensor:
#      x y z
#    x 2.003030 0.000000 -0.008790 
#    y 0.000000 1.888460 0.000000 
#    z -0.008790 0.000000 1.929250 
# 
# From -- ./inp_files/17773.got.cif
#   From: 2010.05.17/outbox.cif.g08.bks.cpg/sg12_9_cif.got.tgz:17773.got - 2010.06.03 13:09:07.
