data_PCOD9176928
_publ_section_title
;
Structure prediction by ZEFSAII (Michael W. Deem and Ramdas Pophale) SiO2 
 PCOD9176928
Probable space group: C 2/M
;
_chemical_formula_sum "Si O2"
_cell_formula_units_Z 48
_cell_length_a 32.013137
_cell_length_b 15.727594
_cell_length_c 9.218834
_cell_angle_alpha 90.000000
_cell_angle_beta 150.704024
_cell_angle_gamma 90.000000
_cell_volume 2271.227054
_symmetry_space_group_name_H-M "C 2/M"
_symmetry_group_IT_number 12
_symmetry_cell_setting 'monoclinic'
loop_
_space_group_symop_operation_xyz
x,y,z
-x,y,-z
-x,-y,-z
x,-y,z
1/2+x,1/2+y,z
1/2-x,1/2+y,-z
1/2-x,1/2-y,-z
1/2+x,1/2-y,z
loop_
_atom_site_type_symbol
_atom_site_label
_atom_site_fract_x
_atom_site_fract_y
_atom_site_fract_z
Si Si1 0.372996 0.655182 0.500776
Si Si2 0.909764 0.000000 0.804730
Si Si3 0.038686 0.664216 0.260983
Si Si4 0.594240 0.500000 0.864831
Si Si5 0.325398 0.160636 0.095932
Si Si6 0.590390 0.342941 0.698265
Si Si7 0.426859 0.095056 0.155124
O O1 0.373002 0.588235 0.630722
O O2 0.421732 0.744847 0.670186
O O3 0.417629 0.620631 0.489136
O O4 0.273107 0.665882 0.163985
O O5 0.910531 0.000000 0.978763
O O6 0.000000 0.000000 0.000000
O O7 0.116249 0.625929 0.593625
O O8 0.959232 0.662645 0.134093
O O9 0.000000 0.621966 0.000000
O O10 0.500000 0.500000 0.500000
O O11 0.636083 0.413923 0.932885
O O12 0.361388 0.254762 0.173743
O O13 0.343500 0.112525 0.999348
O O14 0.500000 0.324515 0.500000
O O15 0.500000 0.096379 0.500000
O O16 0.424098 0.000000 0.082787
#
# Coordination Sequence:
#
# PCOD9176928 Si02
#       7
#     8   4   8   4   8   8   8
#     4  11  23  39  63  91 128 164 211 258 316 368
#     4  12  24  40  62  92 120 163 207 254 299 378
#     4  10  20  37  62  93 123 160 211 263 305 371
#     4  10  22  38  60  88 120 153 206 252 300 356
#     4  10  21  38  63  87 126 166 210 255 320 373
#     4  10  18  36  62  90 119 164 208 256 310 373
#     4   9  19  37  62  86 115 163 213 252 302 376
#
# _framework density 21.133949999999999
#
# number of rings (size 3 to 8) (size 9 to 14) (size 15 to 20)
#    0.000    1.833    0.000    7.500    1.167    4.333 
#    0.000    5.000    1.833    0.000    0.000    0.000 
#    0.000    0.000    0.000    0.000    0.000    0.000 
#
# Total GULP energy -133698.304997 kJ/mol
# GULP energy per Si atom -5570.762708 kJ/mol
# Density = 2.108585 g / cm^3
# Si number density = 21.133950 Si / 1000 Ang^3
#
#
#
# Elastic Constant Matrix: (Units=GPa)
#
#
# Indices 1 2 3 4 5 6 
#
# 1 114.7860 11.6744 45.7403 0.0000 -9.3362 0.0000
# 2 11.6744 57.6636 10.4425 0.0000 -7.2838 0.0000
# 3 45.7403 10.4425 76.9443 0.0000 1.0536 0.0000
# 4 0.0000 0.0000 0.0000 8.1576 0.0000 -11.5323
# 5 -9.3362 -7.2838 1.0536 0.0000 40.9952 0.0000
# 6 0.0000 0.0000 0.0000 -11.5323 0.0000 -0.2450
#
#
#
# Elastic Compliance Matrix: (Units=1/GPa)
#
#
# Indices 1 2 3 4 5 6 
#
# 1 0.011775 -0.000785 -0.006930 0.000000 0.002720 0.000000
# 2 -0.000785 0.018267 -0.002055 0.000000 0.003120 0.000000
# 3 -0.006930 -0.002055 0.017428 0.000000 -0.002391 0.000000
# 4 0.000000 0.000000 0.000000 0.001815 0.000000 -0.085429
# 5 0.002720 0.003120 -0.002391 0.000000 0.025628 0.000000
# 6 0.000000 0.000000 0.000000 -0.085429 0.000000 -0.060429
#
#
# Mechanical properties :
#
#
# Convention : Reuss Voigt Hill
#
# Bulk Modulus (GPa) = 35.80566 42.78981 39.29774
# Shear Modulus (GPa) = 115.38417 21.88400 68.63409
#
# Velocity S-wave (km/s) = 7.39697 3.22139 5.70493
# Velocity P-wave (km/s) = 9.48328 5.84187 7.87591
#
# Compressibility (1/GPa) = 0.02792854
#
# Stress axis : x y z
#
# Youngs Moduli (GPa) = 84.92910 54.74310 57.37969
#
# Poissons Ratio (x) = 0.04299 0.39765
# Poissons Ratio (y) = 0.06669 0.11792
# Poissons Ratio (z) = 0.58857 0.11250
#
# Static dielectric constant tensor:
#      x y z
#    x 1.800680 0.000000 -0.011320 
#    y 0.000000 1.972410 0.000000 
#    z -0.011320 0.000000 1.818630 
# 
# From -- ./inp_files/112972.got.cif
#   From: 2010.05.17/outbox.cif.g08.bks.cpg/sg12_57_cif.got.tgz:112972.got - 2010.06.03 13:09:07.
