data_PCOD9176632
_publ_section_title
;
Structure prediction by ZEFSAII (Michael W. Deem and Ramdas Pophale) SiO2 
 PCOD9176632
Probable space group: C 2/M
;
_chemical_formula_sum "Si O2"
_cell_formula_units_Z 48
_cell_length_a 17.780705
_cell_length_b 19.829967
_cell_length_c 8.864814
_cell_angle_alpha 90.000000
_cell_angle_beta 39.652186
_cell_angle_gamma 90.000000
_cell_volume 1994.558188
_symmetry_space_group_name_H-M "C 2/M"
_symmetry_group_IT_number 12
_symmetry_cell_setting 'monoclinic'
loop_
_space_group_symop_operation_xyz
x,y,z
-x,y,-z
-x,-y,-z
x,-y,z
1/2+x,1/2+y,z
1/2-x,1/2+y,-z
1/2-x,1/2-y,-z
1/2+x,1/2-y,z
loop_
_atom_site_type_symbol
_atom_site_label
_atom_site_fract_x
_atom_site_fract_y
_atom_site_fract_z
Si Si1 0.800892 0.851400 0.263267
Si Si2 0.500000 0.751297 0.000000
Si Si3 0.194788 0.000000 0.370783
Si Si4 0.853682 0.273157 0.724699
Si Si5 0.035387 0.500000 0.121192
Si Si6 0.804115 0.854481 0.623721
Si Si7 0.038269 0.649017 0.174368
Si Si8 0.859296 0.000000 0.199710
O O1 0.696542 0.826032 0.319185
O O2 0.797370 0.847892 0.452259
O O3 0.827559 0.928401 0.177226
O O4 0.905189 0.797856 0.071755
O O5 0.459434 0.803709 0.189805
O O6 0.140193 0.072695 0.422198
O O7 0.322703 0.000000 0.096149
O O8 0.204770 0.000000 0.537928
O O9 0.874748 0.205121 0.595554
O O10 0.750000 0.250000 0.000000
O O11 0.939636 0.310122 0.708826
O O12 0.995150 0.571669 0.251411
O O13 0.000000 0.500000 0.000000
O O14 0.668411 0.854317 0.892579
O O15 0.000000 0.000000 0.000000
#
# Coordination Sequence:
#
# PCOD9176632 Si02
#       8
#     8   4   4   8   4   8   8   4
#     4  11  21  35  59  79 111 149 192 229 288 344
#     4  12  20  32  56  84 108 140 190 232 280 338
#     4   8  18  32  54  88 110 148 195 227 278 355
#     4  10  19  34  55  80 111 143 188 234 278 340
#     4  10  18  35  59  87 113 155 190 239 283 354
#     4   9  18  35  57  79 109 150 188 228 274 346
#     4  10  21  35  58  83 112 142 194 233 283 342
#     4  10  20  35  55  85 111 148 195 245 278 334
#
# _framework density 24.065479
#
# number of rings (size 3 to 8) (size 9 to 14) (size 15 to 20)
#    0.000    2.000    5.000    0.500    0.000    0.667 
#    0.000    1.667    0.000    0.000    0.000   18.667 
#    0.000    0.000    0.000    0.000    0.000    0.000 
#
# Total GULP energy -134056.006097 kJ/mol
# GULP energy per Si atom -5585.666921 kJ/mol
# Density = 2.401070 g / cm^3
# Si number density = 24.065479 Si / 1000 Ang^3
#
#
#
# Elastic Constant Matrix: (Units=GPa)
#
#
# Indices 1 2 3 4 5 6 
#
# 1 131.2167 93.2597 -1.8980 0.0000 22.8083 0.0000
# 2 93.2597 304.9867 18.0346 0.0000 26.3441 0.0000
# 3 -1.8980 18.0346 64.2309 0.0000 19.4684 0.0000
# 4 0.0000 0.0000 0.0000 19.7249 0.0000 2.3444
# 5 22.8083 26.3441 19.4684 0.0000 32.2116 0.0000
# 6 0.0000 0.0000 0.0000 2.3444 0.0000 24.9290
#
#
#
# Elastic Compliance Matrix: (Units=1/GPa)
#
#
# Indices 1 2 3 4 5 6 
#
# 1 0.011062 -0.002937 0.003425 0.000000 -0.007500 0.000000
# 2 -0.002937 0.004309 -0.001052 0.000000 -0.000809 0.000000
# 3 0.003425 -0.001052 0.020127 0.000000 -0.013730 0.000000
# 4 0.000000 0.000000 0.000000 0.051270 0.000000 -0.004822
# 5 -0.007500 -0.000809 -0.013730 0.000000 0.045315 0.000000
# 6 0.000000 0.000000 0.000000 -0.004822 0.000000 0.040567
#
#
# Mechanical properties :
#
#
# Convention : Reuss Voigt Hill
#
# Bulk Modulus (GPa) = 29.09509 79.91410 54.50459
# Shear Modulus (GPa) = 26.99280 41.44229 34.21755
#
# Velocity S-wave (km/s) = 3.35272 4.15428 3.77484
# Velocity P-wave (km/s) = 5.20614 7.50265 6.45731
#
# Compressibility (1/GPa) = 0.03437006
#
# Stress axis : x y z
#
# Youngs Moduli (GPa) = 90.40124 232.07194 49.68530
#
# Poissons Ratio (x) = 0.68163 -0.17017
# Poissons Ratio (y) = 0.26552 0.05224
# Poissons Ratio (z) = -0.30962 0.24402
#
# Static dielectric constant tensor:
#      x y z
#    x 1.969720 0.000000 -0.105100 
#    y 0.000000 1.929790 0.000000 
#    z -0.105100 0.000000 2.035420 
# 
# From -- ./inp_files/76756.got.cif
#   From: 2010.05.17/outbox.cif.g08.bks.cpg/sg12_39_cif.got.tgz:76756.got - 2010.06.03 13:09:07.
