data_PCOD9176775
_publ_section_title
;
Structure prediction by ZEFSAII (Michael W. Deem and Ramdas Pophale) SiO2 
 PCOD9176775
Probable space group: C 2/M
;
_chemical_formula_sum "Si O2"
_cell_formula_units_Z 44
_cell_length_a 21.643570
_cell_length_b 19.598441
_cell_length_c 18.645692
_cell_angle_alpha 90.000000
_cell_angle_beta 19.429598
_cell_angle_gamma 90.000000
_cell_volume 2630.960267
_symmetry_space_group_name_H-M "C 2/M"
_symmetry_group_IT_number 12
_symmetry_cell_setting 'monoclinic'
loop_
_space_group_symop_operation_xyz
x,y,z
-x,y,-z
-x,-y,-z
x,-y,z
1/2+x,1/2+y,z
1/2-x,1/2+y,-z
1/2-x,1/2-y,-z
1/2+x,1/2-y,z
loop_
_atom_site_type_symbol
_atom_site_label
_atom_site_fract_x
_atom_site_fract_y
_atom_site_fract_z
Si Si1 0.258830 0.000000 0.126964
Si Si2 0.574425 0.781920 0.097240
Si Si3 0.758192 0.852476 0.608018
Si Si4 0.430887 0.500000 0.813303
Si Si5 0.667061 0.000000 0.652222
Si Si6 0.280351 0.356497 0.747473
Si Si7 0.646694 0.650106 0.103314
O O1 0.095827 0.000000 0.245486
O O2 0.254602 0.932482 0.181163
O O3 0.449563 0.000000 0.871550
O O4 0.366217 0.804660 0.306551
O O5 0.599450 0.704063 0.093267
O O6 0.691681 0.803524 0.899449
O O7 0.667172 0.825905 0.060101
O O8 0.714630 0.842115 0.738856
O O9 0.973499 0.845920 0.349335
O O10 0.696356 0.930165 0.662559
O O11 0.647876 0.500000 0.599353
O O12 0.344500 0.571815 0.930716
O O13 0.500000 0.349895 0.500000
#
# Coordination Sequence:
#
# PCOD9176775 Si02
#       7
#     4   8   8   4   4   8   8
#     4  12  20  33  46  76 108 142 165 194 237 301
#     4  11  21  34  51  72 103 135 172 208 251 293
#     4  11  20  34  49  75 103 138 168 203 249 299
#     4  10  18  36  52  73 100 136 170 205 251 294
#     4  10  19  29  49  72 102 138 166 192 233 302
#     4  12  21  33  49  75 108 137 170 204 246 303
#     4  10  21  36  52  72 101 133 173 212 247 301
#
# _framework density 16.723931
#
# number of rings (size 3 to 8) (size 9 to 14) (size 15 to 20)
#    0.000    1.091    5.455    3.000    0.000    0.727 
#    0.000    0.000    0.000    0.000    0.000    3.182 
#    0.000    0.000    0.000    0.000    0.000    0.000 
#
# Total GULP energy -122634.965633 kJ/mol
# GULP energy per Si atom -5574.316620 kJ/mol
# Density = 1.668587 g / cm^3
# Si number density = 16.723931 Si / 1000 Ang^3
#
#
#
# Elastic Constant Matrix: (Units=GPa)
#
#
# Indices 1 2 3 4 5 6 
#
# 1 61.5623 44.6953 -1.1556 -0.0045 -4.2259 0.0042
# 2 44.6953 126.7385 6.5833 -0.0066 9.7099 0.0044
# 3 -1.1556 6.5833 35.9171 -0.0006 -8.5914 0.0067
# 4 -0.0045 -0.0066 -0.0006 18.5059 0.0029 -1.9563
# 5 -4.2259 9.7099 -8.5914 0.0029 30.1804 -0.0011
# 6 0.0042 0.0044 0.0067 -1.9563 -0.0011 9.2842
#
#
#
# Elastic Compliance Matrix: (Units=1/GPa)
#
#
# Indices 1 2 3 4 5 6 
#
# 1 0.023381 -0.009026 0.004168 0.000001 0.007364 -0.000008
# 2 -0.009026 0.011749 -0.003917 0.000003 -0.006159 0.000001
# 3 0.004168 -0.003917 0.031264 -0.000003 0.010744 -0.000022
# 4 0.000001 0.000003 -0.000003 0.055268 -0.000007 0.011646
# 5 0.007364 -0.006159 0.010744 -0.000007 0.039205 -0.000005
# 6 -0.000008 0.000001 -0.000022 0.011646 -0.000005 0.110163
#
#
# Mechanical properties :
#
#
# Convention : Reuss Voigt Hill
#
# Bulk Modulus (GPa) = 20.47361 36.05154 28.26258
# Shear Modulus (GPa) = 16.40097 23.20045 19.80071
#
# Velocity S-wave (km/s) = 3.13499 3.72864 3.44463
# Velocity P-wave (km/s) = 5.03715 6.33566 5.72335
#
# Compressibility (1/GPa) = 0.04884335
#
# Stress axis : x y z
#
# Youngs Moduli (GPa) = 42.77059 85.11597 31.98582
#
# Poissons Ratio (x) = 0.76826 -0.13332
# Poissons Ratio (y) = 0.38605 0.12529
# Poissons Ratio (z) = -0.17828 0.33340
#
# Static dielectric constant tensor:
#      x y z
#    x 1.577220 0.000000 -0.046510 
#    y 0.000000 1.564970 0.000010 
#    z -0.046510 0.000010 1.612960 
# 
# From -- ./inp_files/62739.got.cif
#   From: 2010.05.17/outbox.cif.g08.bks.cpg/sg12_32_cif.got.tgz:62739.got - 2010.06.03 13:09:07.
