data_PCOD9176046
_publ_section_title
;
Structure prediction by ZEFSAII (Michael W. Deem and Ramdas Pophale) SiO2 
 PCOD9176046
Probable space group: C 2/M
;
_chemical_formula_sum "Si O2"
_cell_formula_units_Z 64
_cell_length_a 18.240612
_cell_length_b 20.296908
_cell_length_c 9.534049
_cell_angle_alpha 90.000000
_cell_angle_beta 114.316654
_cell_angle_gamma 90.000000
_cell_volume 3216.623530
_symmetry_space_group_name_H-M "C 2/M"
_symmetry_group_IT_number 12
_symmetry_cell_setting 'monoclinic'
loop_
_space_group_symop_operation_xyz
x,y,z
-x,y,-z
-x,-y,-z
x,-y,z
1/2+x,1/2+y,z
1/2-x,1/2+y,-z
1/2-x,1/2-y,-z
1/2+x,1/2-y,z
loop_
_atom_site_type_symbol
_atom_site_label
_atom_site_fract_x
_atom_site_fract_y
_atom_site_fract_z
Si Si1 0.753324 0.073031 0.875486
Si Si2 0.080609 0.427054 0.897069
Si Si3 0.356912 0.927968 0.464724
Si Si4 0.182481 0.570781 0.237507
Si Si5 0.982527 0.284392 0.153233
Si Si6 0.754280 0.706133 0.680990
Si Si7 0.821599 0.213140 0.976108
Si Si8 0.123526 0.712458 0.472229
O O1 0.667629 0.076708 0.889390
O O2 0.725021 0.076844 0.690617
O O3 0.806892 0.135278 0.958488
O O4 0.787522 0.000000 0.928093
O O5 0.045925 0.500000 0.840164
O O6 0.033890 0.361210 0.824068
O O7 0.103198 0.423086 0.079521
O O8 0.341698 0.930778 0.619000
O O9 0.398309 0.857084 0.471911
O O10 0.393136 0.000000 0.452934
O O11 0.219793 0.500000 0.231021
O O12 0.237267 0.633452 0.247995
O O13 0.053001 0.264291 0.314824
O O14 0.904039 0.239208 0.105953
O O15 0.000000 0.281370 0.000000
O O16 0.809120 0.756925 0.810766
O O17 0.798940 0.698115 0.566841
O O18 0.663855 0.733323 0.603590
O O19 0.750000 0.250000 0.000000
#
# Coordination Sequence:
#
# PCOD9176046 Si02
#       8
#     8   8   8   8   8   8   8   8
#     4  10  20  36  58  83 112 151 194 233 281 343
#     4  10  20  35  54  81 118 153 185 226 284 349
#     4   9  17  30  50  76 107 147 187 221 275 342
#     4   9  16  29  51  77 105 142 190 232 272 331
#     4  12  22  35  54  88 117 148 193 241 285 331
#     4  10  18  34  53  77 105 146 190 229 278 334
#     4  12  21  37  60  83 111 154 192 235 282 346
#     4  10  20  32  53  77 110 144 185 235 281 328
#
# _framework density 19.896639
#
# number of rings (size 3 to 8) (size 9 to 14) (size 15 to 20)
#    0.000    1.750    5.000    0.750    0.000    0.750 
#    0.000    2.500    0.000    3.375    0.000    0.000 
#    0.000    5.000    0.000    0.000    0.000    0.000 
#
# Total GULP energy -178420.507070 kJ/mol
# GULP energy per Si atom -5575.640846 kJ/mol
# Density = 1.985135 g / cm^3
# Si number density = 19.896639 Si / 1000 Ang^3
#
#
#
# Elastic Constant Matrix: (Units=GPa)
#
#
# Indices 1 2 3 4 5 6 
#
# 1 41.2252 29.3222 18.8756 0.0000 10.3822 0.0000
# 2 29.3222 153.0676 38.1603 0.0000 28.0271 0.0000
# 3 18.8756 38.1603 83.2263 0.0000 24.0861 0.0000
# 4 0.0000 0.0000 0.0000 25.8048 0.0000 5.2074
# 5 10.3822 28.0271 24.0861 0.0000 36.5552 0.0000
# 6 0.0000 0.0000 0.0000 5.2074 0.0000 17.7904
#
#
#
# Elastic Compliance Matrix: (Units=1/GPa)
#
#
# Indices 1 2 3 4 5 6 
#
# 1 0.029766 -0.004221 -0.004084 0.000000 -0.002526 0.000000
# 2 -0.004221 0.008546 -0.001745 0.000000 -0.004204 0.000000
# 3 -0.004084 -0.001745 0.016086 0.000000 -0.008102 0.000000
# 4 0.000000 0.000000 0.000000 0.041185 0.000000 -0.012055
# 5 -0.002526 -0.004204 -0.008102 0.000000 0.036635 0.000000
# 6 0.000000 0.000000 0.000000 -0.012055 0.000000 0.059739
#
#
# Mechanical properties :
#
#
# Convention : Reuss Voigt Hill
#
# Bulk Modulus (GPa) = 29.15582 50.02615 39.59098
# Shear Modulus (GPa) = 22.37235 28.77414 25.57325
#
# Velocity S-wave (km/s) = 3.35689 3.80699 3.58900
# Velocity P-wave (km/s) = 5.45072 6.67247 6.09230
#
# Compressibility (1/GPa) = 0.03429847
#
# Stress axis : x y z
#
# Youngs Moduli (GPa) = 33.59577 117.00797 62.16478
#
# Poissons Ratio (x) = 0.49392 0.25389
# Poissons Ratio (y) = 0.14182 0.10845
# Poissons Ratio (z) = 0.13721 0.20413
#
# Static dielectric constant tensor:
#      x y z
#    x 1.743700 0.000000 -0.079800 
#    y 0.000000 1.797150 0.000000 
#    z -0.079800 0.000000 1.782540 
# 
# From -- ./inp_files/159257.got.cif
#   From: 2010.05.17/outbox.cif.g08.bks.cpg/sg12_80_cif.got.tgz:159257.got - 2010.06.03 13:09:07.
