data_PCOD9176801
_publ_section_title
;
Structure prediction by ZEFSAII (Michael W. Deem and Ramdas Pophale) SiO2 
 PCOD9176801
Probable space group: C 2/M
;
_chemical_formula_sum "Si O2"
_cell_formula_units_Z 28
_cell_length_a 16.546303
_cell_length_b 10.632082
_cell_length_c 12.404103
_cell_angle_alpha 90.000000
_cell_angle_beta 151.136548
_cell_angle_gamma 90.000000
_cell_volume 1053.375960
_symmetry_space_group_name_H-M "C 2/M"
_symmetry_group_IT_number 12
_symmetry_cell_setting 'monoclinic'
loop_
_space_group_symop_operation_xyz
x,y,z
-x,y,-z
-x,-y,-z
x,-y,z
1/2+x,1/2+y,z
1/2-x,1/2+y,-z
1/2-x,1/2-y,-z
1/2+x,1/2-y,z
loop_
_atom_site_type_symbol
_atom_site_label
_atom_site_fract_x
_atom_site_fract_y
_atom_site_fract_z
Si Si1 0.131939 0.000000 0.839239
Si Si2 0.878350 0.000000 0.724279
Si Si3 0.236448 0.000000 0.641354
Si Si4 0.263499 0.772392 0.315120
Si Si5 0.895758 0.645302 0.237254
O O1 0.055592 0.000000 0.870998
O O2 0.254335 0.879421 0.980778
O O3 0.966663 0.000000 0.575479
O O4 0.849166 0.875429 0.758659
O O5 0.751009 0.000000 0.473586
O O6 0.302559 0.130819 0.762791
O O7 0.438841 0.772946 0.589116
O O8 0.316972 0.815680 0.259165
O O9 0.960201 0.500000 0.326169
#
# Coordination Sequence:
#
# PCOD9176801 Si02
#       5
#     4   4   4   8   8
#     4   8  20  34  50  88 102 128 189 203 273 295
#     4  10  18  36  56  75 105 147 172 211 250 334
#     4  10  24  31  51  90 106 135 164 231 266 303
#     4  11  18  35  59  75 108 135 186 208 258 310
#     4   9  18  35  56  81  92 144 180 215 242 318
#
# _framework density 26.581204
#
# number of rings (size 3 to 8) (size 9 to 14) (size 15 to 20)
#    1.714    0.571    2.857    1.714    0.000    5.714 
#    0.000    0.000    0.000    5.143    0.000    0.000 
#    0.000    0.000    0.000    0.000    0.000    0.000 
#
# Total GULP energy -78293.020553 kJ/mol
# GULP energy per Si atom -5592.358611 kJ/mol
# Density = 2.652070 g / cm^3
# Si number density = 26.581204 Si / 1000 Ang^3
#
#
#
# Elastic Constant Matrix: (Units=GPa)
#
#
# Indices 1 2 3 4 5 6 
#
# 1 99.4201 47.4895 16.3785 0.0000 -2.0154 0.0000
# 2 47.4895 205.6754 3.4792 0.0000 12.4463 0.0000
# 3 16.3785 3.4792 98.1101 0.0000 8.6913 0.0000
# 4 0.0000 0.0000 0.0000 -35.9227 0.0000 1.4090
# 5 -2.0154 12.4463 8.6913 0.0000 17.5095 0.0000
# 6 0.0000 0.0000 0.0000 1.4090 0.0000 30.2539
#
#
#
# Elastic Compliance Matrix: (Units=1/GPa)
#
#
# Indices 1 2 3 4 5 6 
#
# 1 0.011968 -0.003006 -0.002304 0.000000 0.004658 0.000000
# 2 -0.003006 0.005838 0.000725 0.000000 -0.004856 0.000000
# 3 -0.002304 0.000725 0.011109 0.000000 -0.006295 0.000000
# 4 0.000000 0.000000 0.000000 -0.027787 0.000000 0.001294
# 5 0.004658 -0.004856 -0.006295 0.000000 0.064224 0.000000
# 6 0.000000 0.000000 0.000000 0.001294 0.000000 0.032993
#
#
# Mechanical properties :
#
#
# Convention : Reuss Voigt Hill
#
# Bulk Modulus (GPa) = 50.64699 59.76667 55.20683
# Shear Modulus (GPa) = 43.82177 24.75868 34.29023
#
# Velocity S-wave (km/s) = 4.06470 3.05525 3.59558
# Velocity P-wave (km/s) = 6.41281 5.91434 6.16861
#
# Compressibility (1/GPa) = 0.01974451
#
# Stress axis : x y z
#
# Youngs Moduli (GPa) = 83.55358 171.29885 90.01545
#
# Poissons Ratio (x) = 0.51499 0.20740
# Poissons Ratio (y) = 0.25119 -0.06526
# Poissons Ratio (z) = 0.19251 -0.12419
#
# Static dielectric constant tensor:
#      x y z
#    x 1.962780 0.000000 -0.007380 
#    y 0.000000 2.117240 0.000000 
#    z -0.007380 0.000000 2.210830 
# 
# From -- ./inp_files/107719.got.cif
#   From: 2010.05.17/outbox.cif.g08.bks.cpg/sg12_54_cif.got.tgz:107719.got - 2010.06.03 13:09:07.
