data_PCOD9176867
_publ_section_title
;
Structure prediction by ZEFSAII (Michael W. Deem and Ramdas Pophale) SiO2 
 PCOD9176867
Probable space group: C 2/M
;
_chemical_formula_sum "Si O2"
_cell_formula_units_Z 40
_cell_length_a 9.234572
_cell_length_b 27.111083
_cell_length_c 15.996579
_cell_angle_alpha 90.000000
_cell_angle_beta 154.496667
_cell_angle_gamma 90.000000
_cell_volume 1724.360501
_symmetry_space_group_name_H-M "C 2/M"
_symmetry_group_IT_number 12
_symmetry_cell_setting 'monoclinic'
loop_
_space_group_symop_operation_xyz
x,y,z
-x,y,-z
-x,-y,-z
x,-y,z
1/2+x,1/2+y,z
1/2-x,1/2+y,-z
1/2-x,1/2-y,-z
1/2+x,1/2-y,z
loop_
_atom_site_type_symbol
_atom_site_label
_atom_site_fract_x
_atom_site_fract_y
_atom_site_fract_z
Si Si1 0.462603 0.085816 0.574128
Si Si2 0.094668 0.553324 0.276602
Si Si3 0.955741 0.776571 0.260146
Si Si4 0.194308 0.623379 0.184645
Si Si5 0.302348 0.805342 0.287006
O O1 0.500000 0.064435 0.500000
O O2 0.546583 0.057277 0.702959
O O3 0.673866 0.136307 0.691700
O O4 0.071890 0.101760 0.377276
O O5 0.500000 0.553040 0.500000
O O6 0.998925 0.500000 0.189447
O O7 0.027906 0.599461 0.180427
O O8 0.992590 0.788443 0.182084
O O9 0.340681 0.785440 0.490126
O O10 0.748669 0.817687 0.204264
O O11 0.822904 0.722316 0.209915
O O12 0.000000 0.607745 0.000000
#
# Coordination Sequence:
#
# PCOD9176867 Si02
#       5
#     8   8   8   8   8
#     4  10  18  36  59  81 108 142 188 232 265 320
#     4   9  20  36  58  85 107 141 189 228 272 328
#     4   9  17  29  49  77 106 140 182 222 258 315
#     4  10  20  36  56  81 116 145 178 224 282 330
#     4   9  16  29  50  78 102 139 188 219 257 310
#
# _framework density 23.197006999999999
#
# number of rings (size 3 to 8) (size 9 to 14) (size 15 to 20)
#    0.000    2.600    4.000    0.000    2.800    0.800 
#    0.000    2.000    0.000    1.200    0.000    0.000 
#    0.000    0.000    0.000    0.000    0.000    0.000 
#
# Total GULP energy -111452.918829 kJ/mol
# GULP energy per Si atom -5572.645941 kJ/mol
# Density = 2.314421 g / cm^3
# Si number density = 23.197007 Si / 1000 Ang^3
#
#
#
# Elastic Constant Matrix: (Units=GPa)
#
#
# Indices 1 2 3 4 5 6 
#
# 1 142.0862 55.9924 6.9058 0.0000 -16.1086 0.0000
# 2 55.9924 73.8621 5.9807 0.0000 -10.3045 0.0000
# 3 6.9058 5.9807 66.0860 -0.0002 1.5958 -0.0003
# 4 0.0000 0.0000 -0.0002 -4.9859 0.0000 -6.1206
# 5 -16.1086 -10.3045 1.5958 0.0000 18.5022 -0.0001
# 6 0.0000 0.0000 -0.0003 -6.1206 -0.0001 9.0447
#
#
#
# Elastic Compliance Matrix: (Units=1/GPa)
#
#
# Indices 1 2 3 4 5 6 
#
# 1 0.010481 -0.007177 -0.000571 0.000000 0.005177 0.000000
# 2 -0.007177 0.019749 -0.001154 0.000000 0.004850 0.000000
# 3 -0.000571 -0.001154 0.015355 -0.000001 -0.002464 0.000000
# 4 0.000000 0.000000 -0.000001 -0.109557 -0.000001 -0.074137
# 5 0.005177 0.004850 -0.002464 -0.000001 0.061469 0.000000
# 6 0.000000 0.000000 0.000000 -0.074137 0.000000 0.060393
#
#
# Mechanical properties :
#
#
# Convention : Reuss Voigt Hill
#
# Bulk Modulus (GPa) = 35.99487 46.64358 41.31922
# Shear Modulus (GPa) = 58.85454 18.72256 38.78855
#
# Velocity S-wave (km/s) = 5.04249 2.84405 4.09361
# Velocity P-wave (km/s) = 7.03228 5.56202 6.33992
#
# Compressibility (1/GPa) = 0.02778174
#
# Stress axis : x y z
#
# Youngs Moduli (GPa) = 95.41250 50.63473 65.12356
#
# Poissons Ratio (x) = 0.36339 0.03717
# Poissons Ratio (y) = 0.68474 0.07518
# Poissons Ratio (z) = 0.05446 0.05846
#
# Static dielectric constant tensor:
#      x y z
#    x 1.936020 0.000000 -0.041690 
#    y 0.000000 1.874480 0.000000 
#    z -0.041690 0.000000 1.950100 
# 
# From -- ./inp_files/201409.got.cif
#   From: 2010.05.17/outbox.cif.g08.bks.cpg/sg12_101_cif.got.tgz:201409.got - 2010.06.03 13:09:07.
