data_PCOD9176422
_publ_section_title
;
Structure prediction by ZEFSAII (Michael W. Deem and Ramdas Pophale) SiO2 
 PCOD9176422
Probable space group: C 2/M
;
_chemical_formula_sum "Si O2"
_cell_formula_units_Z 56
_cell_length_a 13.979217
_cell_length_b 13.602639
_cell_length_c 12.066181
_cell_angle_alpha 90.000000
_cell_angle_beta 82.648385
_cell_angle_gamma 90.000000
_cell_volume 2275.574268
_symmetry_space_group_name_H-M "C 2/M"
_symmetry_group_IT_number 12
_symmetry_cell_setting 'monoclinic'
loop_
_space_group_symop_operation_xyz
x,y,z
-x,y,-z
-x,-y,-z
x,-y,z
1/2+x,1/2+y,z
1/2-x,1/2+y,-z
1/2-x,1/2-y,-z
1/2+x,1/2-y,z
loop_
_atom_site_type_symbol
_atom_site_label
_atom_site_fract_x
_atom_site_fract_y
_atom_site_fract_z
Si Si1 0.960795 0.618114 0.387046
Si Si2 0.390431 0.814353 0.815944
Si Si3 0.740910 0.381130 0.439745
Si Si4 0.332096 0.813562 0.050588
Si Si5 0.917139 0.890429 0.103829
Si Si6 0.214423 0.112086 0.691908
Si Si7 0.166636 0.111552 0.218275
O O1 0.965921 0.500000 0.389599
O O2 0.849752 0.645701 0.392605
O O3 0.000000 0.654848 0.500000
O O4 0.025213 0.651508 0.275629
O O5 0.289521 0.836936 0.765732
O O6 0.396708 0.695896 0.828463
O O7 0.386361 0.862211 0.938402
O O8 0.737230 0.500000 0.443770
O O9 0.717837 0.346735 0.567178
O O10 0.673177 0.358161 0.346039
O O11 0.392135 0.725517 0.092856
O O12 0.272925 0.879760 0.145689
O O13 0.250000 0.750000 0.000000
O O14 0.892254 0.891841 0.239640
O O15 0.864113 0.000000 0.085492
O O16 0.000000 0.899937 0.000000
O O17 0.251677 0.000000 0.677813
O O18 0.131526 0.000000 0.210165
#
# Coordination Sequence:
#
# PCOD9176422 Si02
#       7
#     8   8   8   8   8   8   8
#     4  10  19  35  59  90 120 143 185 247 298 339
#     4  11  21  36  56  91 114 151 195 236 291 344
#     4   9  19  36  59  86 116 150 189 238 293 347
#     4  10  21  38  56  83 114 153 201 236 280 347
#     4  10  21  38  60  87 118 148 187 243 295 340
#     4  10  18  34  61  88 113 142 191 242 287 340
#     4  10  22  39  57  81 118 162 198 232 286 350
#
# _framework density 24.609172000000001
#
# number of rings (size 3 to 8) (size 9 to 14) (size 15 to 20)
#    0.000    2.000    4.286    0.429    0.000    5.143 
#    0.000    0.000    0.000    3.429    0.000    0.000 
#    0.000    0.000    0.000    0.000    0.000    0.000 
#
# Total GULP energy -156019.532297 kJ/mol
# GULP energy per Si atom -5572.126153 kJ/mol
# Density = 2.455316 g / cm^3
# Si number density = 24.609172 Si / 1000 Ang^3
#
#
#
# Elastic Constant Matrix: (Units=GPa)
#
#
# Indices 1 2 3 4 5 6 
#
# 1 33.9369 2.0186 32.1067 0.0000 -15.1060 0.0000
# 2 2.0186 84.8375 5.9075 0.0000 -8.7485 0.0000
# 3 32.1067 5.9075 190.3363 0.0000 -26.7772 0.0000
# 4 0.0000 0.0000 0.0000 8.8800 0.0000 -21.2287
# 5 -15.1060 -8.7485 -26.7772 0.0000 41.8818 0.0000
# 6 0.0000 0.0000 0.0000 -21.2287 0.0000 20.2718
#
#
#
# Elastic Compliance Matrix: (Units=1/GPa)
#
#
# Indices 1 2 3 4 5 6 
#
# 1 0.039120 0.000555 -0.005071 0.000000 0.010984 0.000000
# 2 0.000555 0.012055 -0.000094 0.000000 0.002658 0.000000
# 3 -0.005071 -0.000094 0.006430 0.000000 0.002263 0.000000
# 4 0.000000 0.000000 0.000000 -0.074902 0.000000 -0.078438
# 5 0.010984 0.002658 0.002263 0.000000 0.029840 0.000000
# 6 0.000000 0.000000 0.000000 -0.078438 0.000000 -0.032811
#
#
# Mechanical properties :
#
#
# Convention : Reuss Voigt Hill
#
# Bulk Modulus (GPa) = 20.66731 43.24184 31.95457
# Shear Modulus (GPa) = 984.17927 32.14525 508.16226
#
# Velocity S-wave (km/s) = 20.01979 3.61810 14.38545
# Velocity P-wave (km/s) = 23.29819 5.92147 16.99808
#
# Compressibility (1/GPa) = 0.04838559
#
# Stress axis : x y z
#
# Youngs Moduli (GPa) = 25.56240 82.95532 155.50924
#
# Poissons Ratio (x) = -0.04603 0.78857
# Poissons Ratio (y) = -0.01419 0.01458
# Poissons Ratio (z) = 0.12962 0.00778
#
# Static dielectric constant tensor:
#      x y z
#    x 2.144280 0.000000 0.037000 
#    y 0.000000 1.982960 0.000000 
#    z 0.037000 0.000000 2.007830 
# 
# From -- ./inp_files/155952.got.cif
#   From: 2010.05.17/outbox.cif.g08.bks.cpg/sg12_78_cif.got.tgz:155952.got - 2010.06.03 13:09:07.
