data_PCOD9176413
_publ_section_title
;
Structure prediction by ZEFSAII (Michael W. Deem and Ramdas Pophale) SiO2 
 PCOD9176413
Probable space group: C 2/M
;
_chemical_formula_sum "Si O2"
_cell_formula_units_Z 56
_cell_length_a 17.157946
_cell_length_b 19.063641
_cell_length_c 9.545271
_cell_angle_alpha 90.000000
_cell_angle_beta 67.955710
_cell_angle_gamma 90.000000
_cell_volume 2893.939739
_symmetry_space_group_name_H-M "C 2/M"
_symmetry_group_IT_number 12
_symmetry_cell_setting 'monoclinic'
loop_
_space_group_symop_operation_xyz
x,y,z
-x,y,-z
-x,-y,-z
x,-y,z
1/2+x,1/2+y,z
1/2-x,1/2+y,-z
1/2-x,1/2-y,-z
1/2+x,1/2-y,z
loop_
_atom_site_type_symbol
_atom_site_label
_atom_site_fract_x
_atom_site_fract_y
_atom_site_fract_z
Si Si1 0.186669 0.581727 0.605952
Si Si2 0.302183 0.299598 0.569785
Si Si3 0.518646 0.579552 0.828095
Si Si4 0.015708 0.795554 0.650905
Si Si5 0.563918 0.185997 0.837410
Si Si6 0.284430 0.422069 0.252070
Si Si7 0.774675 0.770790 0.138739
O O1 0.181160 0.500000 0.644119
O O2 0.261200 0.625478 0.628485
O O3 0.106135 0.625496 0.713241
O O4 0.215674 0.587132 0.423223
O O5 0.250000 0.250000 0.500000
O O6 0.385810 0.310367 0.429835
O O7 0.302133 0.256780 0.712645
O O8 0.486543 0.500000 0.833748
O O9 0.479614 0.633261 0.742373
O O10 0.620318 0.576265 0.751821
O O11 0.500000 0.603445 0.000000
O O12 0.010113 0.734995 0.769141
O O13 0.000000 0.777512 0.500000
O O14 0.640816 0.231682 0.856919
O O15 0.500000 0.160519 0.000000
O O16 0.270665 0.500000 0.198406
O O17 0.281667 0.354224 0.155483
O O18 0.750000 0.750000 0.000000
#
# Coordination Sequence:
#
# PCOD9176413 Si02
#       7
#     8   8   8   8   8   8   8
#     4  10  19  37  67  87 109 161 207 249 307 357
#     4  11  18  39  59  85 118 151 205 254 287 361
#     4  10  20  35  55  81 123 166 193 236 301 365
#     4  12  23  34  60  90 123 158 205 250 300 361
#     4  11  23  41  57  88 127 156 202 259 310 365
#     4  10  18  34  61  85 115 157 202 244 298 368
#     4  11  22  36  61  89 117 158 201 253 306 360
#
# _framework density 19.350783
#
# number of rings (size 3 to 8) (size 9 to 14) (size 15 to 20)
#    0.000    1.286    7.143    0.429    2.000    0.571 
#    0.000    2.857    0.000    0.429    0.000    0.000 
#    0.000    0.000    0.000    0.000    0.000    0.000 
#
# Total GULP energy -155903.020645 kJ/mol
# GULP energy per Si atom -5567.965023 kJ/mol
# Density = 1.930674 g / cm^3
# Si number density = 19.350783 Si / 1000 Ang^3
#
#
#
# Elastic Constant Matrix: (Units=GPa)
#
#
# Indices 1 2 3 4 5 6 
#
# 1 19.9748 18.2349 16.1728 0.0000 3.3371 0.0000
# 2 18.2349 138.0395 32.8523 0.0000 12.6686 0.0000
# 3 16.1728 32.8523 108.8908 0.0000 2.2642 0.0000
# 4 0.0000 0.0000 0.0000 22.9883 0.0000 -2.6351
# 5 3.3371 12.6686 2.2642 0.0000 39.2205 0.0000
# 6 0.0000 0.0000 0.0000 -2.6351 0.0000 8.2058
#
#
#
# Elastic Compliance Matrix: (Units=1/GPa)
#
#
# Indices 1 2 3 4 5 6 
#
# 1 0.062112 -0.006207 -0.007293 0.000000 -0.002859 0.000000
# 2 -0.006207 0.008655 -0.001644 0.000000 -0.002173 0.000000
# 3 -0.007293 -0.001644 0.010752 0.000000 0.000531 0.000000
# 4 0.000000 0.000000 0.000000 0.045163 0.000000 0.014503
# 5 -0.002859 -0.002173 0.000531 0.000000 0.026411 0.000000
# 6 0.000000 0.000000 0.000000 0.014503 0.000000 0.126522
#
#
# Mechanical properties :
#
#
# Convention : Reuss Voigt Hill
#
# Bulk Modulus (GPa) = 19.51968 44.60278 32.06123
# Shear Modulus (GPa) = 15.29149 27.39260 21.34204
#
# Velocity S-wave (km/s) = 2.81414 3.76650 3.32460
# Velocity P-wave (km/s) = 4.54625 6.48190 5.59837
#
# Compressibility (1/GPa) = 0.05123035
#
# Stress axis : x y z
#
# Youngs Moduli (GPa) = 16.10003 115.54146 93.00871
#
# Poissons Ratio (x) = 0.71715 0.67831
# Poissons Ratio (y) = 0.09993 0.15292
# Poissons Ratio (z) = 0.11742 0.18997
#
# Static dielectric constant tensor:
#      x y z
#    x 1.726340 0.000000 -0.017320 
#    y 0.000000 1.654360 0.000000 
#    z -0.017320 0.000000 1.722860 
# 
# From -- ./inp_files/75824.got.cif
#   From: 2010.05.17/outbox.cif.g08.bks.cpg/sg12_38_cif.got.tgz:75824.got - 2010.06.03 13:09:07.
