data_PCOD9177854
_publ_section_title
;
Structure prediction by ZEFSAII (Michael W. Deem and Ramdas Pophale) SiO2 
 PCOD9177854
Probable space group: C 2/M
;
_chemical_formula_sum "Si O2"
_cell_formula_units_Z 56
_cell_length_a 9.739560
_cell_length_b 25.996681
_cell_length_c 15.057524
_cell_angle_alpha 90.000000
_cell_angle_beta 71.919632
_cell_angle_gamma 90.000000
_cell_volume 3624.254822
_symmetry_space_group_name_H-M "C 2/M"
_symmetry_group_IT_number 12
_symmetry_cell_setting 'monoclinic'
loop_
_space_group_symop_operation_xyz
x,y,z
-x,y,-z
-x,-y,-z
x,-y,z
1/2+x,1/2+y,z
1/2-x,1/2+y,-z
1/2-x,1/2-y,-z
1/2+x,1/2-y,z
loop_
_atom_site_type_symbol
_atom_site_label
_atom_site_fract_x
_atom_site_fract_y
_atom_site_fract_z
Si Si1 0.103324 0.835579 0.285682
Si Si2 0.579092 0.792596 0.109084
Si Si3 0.427615 0.212457 0.687572
Si Si4 0.312820 0.857067 0.404450
Si Si5 0.769273 0.308587 0.089020
Si Si6 0.221406 0.138897 0.626411
Si Si7 0.542062 0.058275 0.387129
O O1 0.083605 0.773769 0.302661
O O2 0.196850 0.854046 0.350135
O O3 0.188959 0.844195 0.176258
O O4 0.945591 0.859919 0.316297
O O5 0.585658 0.809616 0.209516
O O6 0.656071 0.737010 0.091940
O O7 0.413124 0.788359 0.111189
O O8 0.666966 0.826050 0.018813
O O9 0.580477 0.192273 0.620270
O O10 0.302813 0.188208 0.652130
O O11 0.242694 0.859991 0.515848
O O12 0.418224 0.906009 0.370041
O O13 0.308773 0.089783 0.646129
O O14 0.500000 0.056460 0.500000
O O15 0.549349 0.000000 0.352374
#
# Coordination Sequence:
#
# PCOD9177854 Si02
#       7
#     8   8   8   8   8   8   8
#     4  11  20  29  42  67  99 130 151 186 225 264
#     4   9  17  30  44  61  83 122 165 200 226 256
#     4  10  19  30  44  63  93 135 164 183 214 262
#     4  10  19  32  45  67  92 123 159 191 218 268
#     4   9  18  29  44  61  86 122 162 199 227 256
#     4  10  21  30  45  67  95 122 158 189 220 270
#     4   8  16  34  54  66  82 114 154 197 240 276
#
# _framework density 15.451452
#
# number of rings (size 3 to 8) (size 9 to 14) (size 15 to 20)
#    0.000    2.429    1.429    2.571    6.000    3.429 
#    0.000    0.714    0.000    3.429    0.000    0.000 
#    0.000   18.286    0.000    0.000    0.000    0.000 
#
# Total GULP energy -155929.112648 kJ/mol
# GULP energy per Si atom -5568.896880 kJ/mol
# Density = 1.541628 g / cm^3
# Si number density = 15.451452 Si / 1000 Ang^3
#
#
#
# Elastic Constant Matrix: (Units=GPa)
#
#
# Indices 1 2 3 4 5 6 
#
# 1 116.4272 26.2176 42.3265 0.0000 -14.6733 0.0000
# 2 26.2176 63.4516 13.9528 0.0000 -3.0131 0.0000
# 3 42.3265 13.9528 89.3047 0.0000 -6.6098 0.0000
# 4 0.0000 0.0000 0.0000 3.3520 0.0000 -0.3282
# 5 -14.6733 -3.0131 -6.6098 0.0000 24.1233 0.0000
# 6 0.0000 0.0000 0.0000 -0.3282 0.0000 0.1683
#
#
#
# Elastic Compliance Matrix: (Units=1/GPa)
#
#
# Indices 1 2 3 4 5 6 
#
# 1 0.011758 -0.003586 -0.004610 0.000000 0.005441 0.000000
# 2 -0.003586 0.017459 -0.001049 0.000000 -0.000288 0.000000
# 3 -0.004610 -0.001049 0.013605 0.000000 0.000793 0.000000
# 4 0.000000 0.000000 0.000000 0.368748 0.000000 0.719105
# 5 0.005441 -0.000288 0.000793 0.000000 0.044945 0.000000
# 6 0.000000 0.000000 0.000000 0.719105 0.000000 7.343525
#
#
# Mechanical properties :
#
#
# Convention : Reuss Voigt Hill
#
# Bulk Modulus (GPa) = 41.09936 48.24192 44.67064
# Shear Modulus (GPa) = 0.63884 17.97449 9.30667
#
# Velocity S-wave (km/s) = 0.64370 3.41440 2.45688
# Velocity P-wave (km/s) = 5.21625 6.84351 6.08452
#
# Compressibility (1/GPa) = 0.02433128
#
# Stress axis : x y z
#
# Youngs Moduli (GPa) = 85.04645 57.27729 73.50177
#
# Poissons Ratio (x) = 0.20542 0.33883
# Poissons Ratio (y) = 0.30500 0.07713
# Poissons Ratio (z) = 0.39205 0.06010
#
# Static dielectric constant tensor:
#      x y z
#    x 1.513280 0.000000 -0.005350 
#    y 0.000000 1.495840 0.000000 
#    z -0.005350 0.000000 1.552330 
# 
# From -- ./inp_files/199302.got.cif
#   From: 2010.05.17/outbox.cif.g08.bks.cpg/sg12_100_cif.got.tgz:199302.got - 2010.06.03 13:09:07.
