data_PCOD9177610
_publ_section_title
;
Structure prediction by ZEFSAII (Michael W. Deem and Ramdas Pophale) SiO2 
 PCOD9177610
Probable space group: C 2/M
;
_chemical_formula_sum "Si O2"
_cell_formula_units_Z 56
_cell_length_a 21.208873
_cell_length_b 13.951572
_cell_length_c 7.974645
_cell_angle_alpha 90.000000
_cell_angle_beta 75.591750
_cell_angle_gamma 90.000000
_cell_volume 2285.456445
_symmetry_space_group_name_H-M "C 2/M"
_symmetry_group_IT_number 12
_symmetry_cell_setting 'monoclinic'
loop_
_space_group_symop_operation_xyz
x,y,z
-x,y,-z
-x,-y,-z
x,-y,z
1/2+x,1/2+y,z
1/2-x,1/2+y,-z
1/2-x,1/2-y,-z
1/2+x,1/2-y,z
loop_
_atom_site_type_symbol
_atom_site_label
_atom_site_fract_x
_atom_site_fract_y
_atom_site_fract_z
Si Si1 0.316590 0.817518 0.611013
Si Si2 0.460211 0.785546 0.185779
Si Si3 0.432725 0.108631 0.722419
Si Si4 0.800010 0.107651 0.514988
Si Si5 0.345495 0.109967 0.121377
Si Si6 0.229408 0.883956 0.978490
Si Si7 0.608437 0.606679 0.872906
O O1 0.384288 0.869130 0.602969
O O2 0.273330 0.864387 0.491923
O O3 0.327134 0.703835 0.582995
O O4 0.271347 0.837179 0.803121
O O5 0.507651 0.817884 0.300656
O O6 0.448126 0.674596 0.156216
O O7 0.500000 0.826442 0.000000
O O8 0.387470 0.826885 0.220593
O O9 0.385689 0.115072 0.918169
O O10 0.457891 0.000000 0.700102
O O11 0.841353 0.100852 0.315477
O O12 0.803943 0.000000 0.589132
O O13 0.271507 0.135513 0.117897
O O14 0.347313 0.000000 0.174075
O O15 0.154040 0.854899 0.996876
O O16 0.230829 0.000000 0.956772
O O17 0.586137 0.500000 0.930154
#
# Coordination Sequence:
#
# PCOD9177610 Si02
#       7
#     8   8   8   8   8   8   8
#     4   9  15  27  51  74  91 113 145 182 226 275
#     4  10  19  29  45  67  90 122 159 190 223 261
#     4   9  16  28  47  70  94 118 147 182 223 276
#     4   9  17  30  50  73  92 115 150 188 228 274
#     4   8  14  26  46  70  91 112 144 186 229 274
#     4   8  14  27  49  73  93 117 150 185 226 276
#     4   9  18  32  46  62  89 123 158 194 227 265
#
# _framework density 24.502765
#
# number of rings (size 3 to 8) (size 9 to 14) (size 15 to 20)
#    0.000    3.143    0.000    3.429    0.000    2.571 
#    0.000    1.429    0.000   26.571    0.000    0.000 
#    0.000    0.000    0.000    0.000    0.000    0.000 
#
# Total GULP energy -156440.411191 kJ/mol
# GULP energy per Si atom -5587.157543 kJ/mol
# Density = 2.444700 g / cm^3
# Si number density = 24.502765 Si / 1000 Ang^3
#
#
#
# Elastic Constant Matrix: (Units=GPa)
#
#
# Indices 1 2 3 4 5 6 
#
# 1 97.0135 53.3824 11.2381 0.0000 23.1366 0.0000
# 2 53.3824 127.8540 14.0260 0.0000 26.2995 0.0000
# 3 11.2381 14.0260 50.3511 0.0000 10.7143 0.0000
# 4 0.0000 0.0000 0.0000 26.5271 0.0000 2.4598
# 5 23.1366 26.2995 10.7143 0.0000 46.6491 0.0000
# 6 0.0000 0.0000 0.0000 2.4598 0.0000 40.1467
#
#
#
# Elastic Compliance Matrix: (Units=1/GPa)
#
#
# Indices 1 2 3 4 5 6 
#
# 1 0.014096 -0.004966 -0.000916 0.000000 -0.003981 0.000000
# 2 -0.004966 0.010702 -0.001170 0.000000 -0.003302 0.000000
# 3 -0.000916 -0.001170 0.021189 0.000000 -0.003753 0.000000
# 4 0.000000 0.000000 0.000000 0.037913 0.000000 -0.002323
# 5 -0.003981 -0.003302 -0.003753 0.000000 0.026135 0.000000
# 6 0.000000 0.000000 0.000000 -0.002323 0.000000 0.025051
#
#
# Mechanical properties :
#
#
# Convention : Reuss Voigt Hill
#
# Bulk Modulus (GPa) = 31.36371 48.05684 39.71027
# Shear Modulus (GPa) = 31.28552 35.76939 33.52746
#
# Velocity S-wave (km/s) = 3.57713 3.82489 3.70308
# Velocity P-wave (km/s) = 5.46709 6.25794 5.87583
#
# Compressibility (1/GPa) = 0.03188399
#
# Stress axis : x y z
#
# Youngs Moduli (GPa) = 70.94210 93.43625 47.19319
#
# Poissons Ratio (x) = 0.46401 0.04321
# Poissons Ratio (y) = 0.35230 0.05523
# Poissons Ratio (z) = 0.06496 0.10935
#
# Static dielectric constant tensor:
#      x y z
#    x 1.963520 0.000000 -0.030100 
#    y 0.000000 1.940210 0.000000 
#    z -0.030100 0.000000 2.040910 
# 
# From -- ./inp_files/173969.got.cif
#   From: 2010.05.17/outbox.cif.g08.bks.cpg/sg12_87_cif.got.tgz:173969.got - 2010.06.03 13:09:07.
