data_PCOD9177350
_publ_section_title
;
Structure prediction by ZEFSAII (Michael W. Deem and Ramdas Pophale) SiO2 
 PCOD9177350
Probable space group: C 2/M
;
_chemical_formula_sum "Si O2"
_cell_formula_units_Z 48
_cell_length_a 9.791276
_cell_length_b 14.434617
_cell_length_c 13.250312
_cell_angle_alpha 90.000000
_cell_angle_beta 107.010822
_cell_angle_gamma 90.000000
_cell_volume 1790.778579
_symmetry_space_group_name_H-M "C 2/M"
_symmetry_group_IT_number 12
_symmetry_cell_setting 'monoclinic'
loop_
_space_group_symop_operation_xyz
x,y,z
-x,y,-z
-x,-y,-z
x,-y,z
1/2+x,1/2+y,z
1/2-x,1/2+y,-z
1/2-x,1/2-y,-z
1/2+x,1/2-y,z
loop_
_atom_site_type_symbol
_atom_site_label
_atom_site_fract_x
_atom_site_fract_y
_atom_site_fract_z
Si Si1 0.495274 0.894545 0.237629
Si Si2 0.126381 0.697356 0.605176
Si Si3 0.381660 0.601030 0.385986
Si Si4 0.190314 0.893550 0.061772
Si Si5 0.851280 0.386997 0.918725
Si Si6 0.905737 0.891346 0.749587
O O1 0.461775 0.816983 0.310708
O O2 0.351423 0.897737 0.139749
O O3 0.628995 0.870432 0.195440
O O4 0.506166 0.000000 0.281246
O O5 0.267507 0.636968 0.653561
O O6 0.000000 0.673462 0.500000
O O7 0.185391 0.800653 0.600699
O O8 0.500000 0.594426 0.500000
O O9 0.309317 0.500000 0.371370
O O10 0.458226 0.613987 0.293850
O O11 0.103165 0.850457 0.137286
O O12 0.145003 0.000000 0.034072
O O13 0.218530 0.851887 0.956236
O O14 0.850503 0.500000 0.925329
O O15 0.000000 0.353730 0.000000
O O16 0.887722 0.000000 0.766513
#
# Coordination Sequence:
#
# PCOD9177350 Si02
#       6
#     8   8   8   8   8   8
#     4   8  13  21  34  58  90 114 134 169 214 255
#     4  10  19  28  44  65  88 116 147 178 215 258
#     4   9  19  34  48  61  82 115 152 186 217 250
#     4   7  10  18  35  58  81 108 139 168 204 249
#     4   7   9  15  30  53  82 111 135 163 204 250
#     4   9  17  30  47  67  91 115 141 177 217 258
#
# _framework density 26.803985000000001
#
# number of rings (size 3 to 8) (size 9 to 14) (size 15 to 20)
#    0.000    3.667    0.000    3.500    0.000    4.000 
#    0.000    0.000    0.000    3.000    0.000    0.000 
#    0.000   16.667    0.000    0.333    0.000   18.667 
#
# Total GULP energy -133912.386365 kJ/mol
# GULP energy per Si atom -5579.682765 kJ/mol
# Density = 2.674298 g / cm^3
# Si number density = 26.803985 Si / 1000 Ang^3
#
#
#
# Elastic Constant Matrix: (Units=GPa)
#
#
# Indices 1 2 3 4 5 6 
#
# 1 127.1281 -13.7293 16.7020 0.0000 3.7262 0.0000
# 2 -13.7293 88.1326 -2.6985 0.0000 -1.7140 0.0000
# 3 16.7020 -2.6985 65.8763 0.0000 -13.5981 0.0000
# 4 0.0000 0.0000 0.0000 -80.6369 0.0000 -18.9352
# 5 3.7262 -1.7140 -13.5981 0.0000 23.0424 0.0000
# 6 0.0000 0.0000 0.0000 -18.9352 0.0000 6.3783
#
#
#
# Elastic Compliance Matrix: (Units=1/GPa)
#
#
# Indices 1 2 3 4 5 6 
#
# 1 0.008429 0.001175 -0.002678 0.000000 -0.002856 0.000000
# 2 0.001175 0.011558 0.000357 0.000000 0.000880 0.000000
# 3 -0.002678 0.000357 0.018184 0.000000 0.011190 0.000000
# 4 0.000000 0.000000 0.000000 -0.007307 0.000000 -0.021693
# 5 -0.002856 0.000880 0.011190 0.000000 0.050530 0.000000
# 6 0.000000 0.000000 0.000000 -0.021693 0.000000 0.092381
#
#
# Mechanical properties :
#
#
# Convention : Reuss Voigt Hill
#
# Bulk Modulus (GPa) = 27.87194 31.29838 29.58516
# Shear Modulus (GPa) = 26.59229 8.48094 17.53661
#
# Velocity S-wave (km/s) = 3.15318 1.78071 2.56061
# Velocity P-wave (km/s) = 4.86598 3.99124 4.45016
#
# Compressibility (1/GPa) = 0.03587837
#
# Stress axis : x y z
#
# Youngs Moduli (GPa) = 118.64337 86.52236 54.99474
#
# Poissons Ratio (x) = -0.10170 0.14730
# Poissons Ratio (y) = -0.13946 -0.01964
# Poissons Ratio (z) = 0.31777 -0.03090
#
# Static dielectric constant tensor:
#      x y z
#    x 2.121560 0.000000 -0.039740 
#    y 0.000000 2.043990 0.000000 
#    z -0.039740 0.000000 2.186910 
# 
# From -- ./inp_files/213809.got.cif
#   From: 2010.05.17/outbox.cif.g08.bks.cpg/sg12_107_cif.got.tgz:213809.got - 2010.06.03 13:09:07.
