data_PCOD9177957
_publ_section_title
;
Structure prediction by ZEFSAII (Michael W. Deem and Ramdas Pophale) SiO2 
 PCOD9177957
Probable space group: C 2/M
;
_chemical_formula_sum "Si O2"
_cell_formula_units_Z 56
_cell_length_a 27.826489
_cell_length_b 8.968212
_cell_length_c 16.448082
_cell_angle_alpha 90.000000
_cell_angle_beta 64.505846
_cell_angle_gamma 90.000000
_cell_volume 3705.006061
_symmetry_space_group_name_H-M "C 2/M"
_symmetry_group_IT_number 12
_symmetry_cell_setting 'monoclinic'
loop_
_space_group_symop_operation_xyz
x,y,z
-x,y,-z
-x,-y,-z
x,-y,z
1/2+x,1/2+y,z
1/2-x,1/2+y,-z
1/2-x,1/2-y,-z
1/2+x,1/2-y,z
loop_
_atom_site_type_symbol
_atom_site_label
_atom_site_fract_x
_atom_site_fract_y
_atom_site_fract_z
Si Si1 0.098278 0.322690 0.306102
Si Si2 0.991216 0.820932 0.311140
Si Si3 0.983743 0.678682 0.143544
Si Si4 0.939219 0.828908 0.510625
Si Si5 0.191656 0.177144 0.951077
Si Si6 0.195352 0.822493 0.140545
Si Si7 0.913652 0.678613 0.038879
O O1 0.096681 0.500000 0.300152
O O2 0.046957 0.252829 0.297815
O O3 0.093314 0.272515 0.403788
O O4 0.150927 0.257012 0.226750
O O5 0.976960 0.764204 0.232399
O O6 0.947004 0.781281 0.411626
O O7 0.997297 0.000000 0.309054
O O8 0.982766 0.500000 0.157853
O O9 0.939512 0.713741 0.107575
O O10 0.040832 0.714756 0.060945
O O11 0.000000 0.829342 0.500000
O O12 0.919969 0.000000 0.528644
O O13 0.245827 0.259124 0.885841
O O14 0.140433 0.237356 0.941362
O O15 0.197670 0.000000 0.936571
O O16 0.184046 0.207177 0.053133
O O17 0.193787 0.000000 0.154266
O O18 0.905230 0.500000 0.041607
#
# Coordination Sequence:
#
# PCOD9177957 Si02
#       7
#     8   8   8   8   8   8   8
#     4  11  20  29  45  68  93 120 152 188 223 266
#     4  10  19  30  45  66  93 123 153 186 226 269
#     4   9  18  31  47  67  91 121 157 189 220 265
#     4   8  16  30  44  61  89 121 150 182 223 270
#     4  10  20  32  47  68  91 118 154 191 223 262
#     4  10  20  33  48  66  91 122 152 184 226 270
#     4   9  18  32  47  65  92 124 153 186 228 266
#
# _framework density 15.114685
#
# number of rings (size 3 to 8) (size 9 to 14) (size 15 to 20)
#    0.000    2.429    0.000    5.143    0.000    8.286 
#    0.000    1.429    0.000    0.000    0.000    1.000 
#    0.000    0.000    0.000    0.000    0.000    0.000 
#
# Total GULP energy -156153.100509 kJ/mol
# GULP energy per Si atom -5576.896447 kJ/mol
# Density = 1.508028 g / cm^3
# Si number density = 15.114685 Si / 1000 Ang^3
#
#
#
# Elastic Constant Matrix: (Units=GPa)
#
#
# Indices 1 2 3 4 5 6 
#
# 1 78.9876 46.0935 47.9678 0.0000 -6.1714 0.0000
# 2 46.0935 76.0576 67.2249 0.0000 -7.2970 0.0000
# 3 47.9678 67.2249 122.0188 0.0000 -1.5637 0.0000
# 4 0.0000 0.0000 0.0000 26.8347 0.0000 0.8100
# 5 -6.1714 -7.2970 -1.5637 0.0000 21.5390 0.0000
# 6 0.0000 0.0000 0.0000 0.8100 0.0000 25.3004
#
#
#
# Elastic Compliance Matrix: (Units=1/GPa)
#
#
# Indices 1 2 3 4 5 6 
#
# 1 0.020017 -0.009715 -0.002488 0.000000 0.002263 0.000000
# 2 -0.009715 0.031672 -0.013541 0.000000 0.006963 0.000000
# 3 -0.002488 -0.013541 0.016581 0.000000 -0.004096 0.000000
# 4 0.000000 0.000000 0.000000 0.037301 0.000000 -0.001194
# 5 0.002263 0.006963 -0.004096 0.000000 0.049138 0.000000
# 6 0.000000 0.000000 0.000000 -0.001194 0.000000 0.039563
#
#
# Mechanical properties :
#
#
# Convention : Reuss Voigt Hill
#
# Bulk Modulus (GPa) = 59.58458 66.62626 63.10542
# Shear Modulus (GPa) = 19.89224 22.45333 21.17278
#
# Velocity S-wave (km/s) = 3.63173 3.85844 3.74680
# Velocity P-wave (km/s) = 7.55600 8.00164 7.78201
#
# Compressibility (1/GPa) = 0.01678287
#
# Stress axis : x y z
#
# Youngs Moduli (GPa) = 49.95737 31.57346 60.30941
#
# Poissons Ratio (x) = 0.30674 0.15003
# Poissons Ratio (y) = 0.48534 0.81665
# Poissons Ratio (z) = 0.12427 0.42754
#
# Static dielectric constant tensor:
#      x y z
#    x 1.473180 0.000000 0.010690 
#    y 0.000000 1.501130 0.000000 
#    z 0.010690 0.000000 1.508320 
# 
# From -- ./inp_files/248131.got.cif
#   From: 2010.05.17/outbox.cif.g08.bks.cpg/sg12_125_cif.got.tgz:248131.got - 2010.06.03 13:09:07.
