data_PCOD9177119
_publ_section_title
;
Structure prediction by ZEFSAII (Michael W. Deem and Ramdas Pophale) SiO2 
 PCOD9177119
Probable space group: C 2/M
;
_chemical_formula_sum "Si O2"
_cell_formula_units_Z 44
_cell_length_a 12.302425
_cell_length_b 20.357277
_cell_length_c 13.098839
_cell_angle_alpha 90.000000
_cell_angle_beta 148.008939
_cell_angle_gamma 90.000000
_cell_volume 1737.978791
_symmetry_space_group_name_H-M "C 2/M"
_symmetry_group_IT_number 12
_symmetry_cell_setting 'monoclinic'
loop_
_space_group_symop_operation_xyz
x,y,z
-x,y,-z
-x,-y,-z
x,-y,z
1/2+x,1/2+y,z
1/2-x,1/2+y,-z
1/2-x,1/2-y,-z
1/2+x,1/2-y,z
loop_
_atom_site_type_symbol
_atom_site_label
_atom_site_fract_x
_atom_site_fract_y
_atom_site_fract_z
Si Si1 0.153988 0.615277 0.241887
Si Si2 0.034535 0.500000 0.783819
Si Si3 0.933984 0.130850 0.783331
Si Si4 0.433431 0.425623 0.309322
Si Si5 0.523701 0.766754 0.779864
Si Si6 0.338035 0.875087 0.247031
O O1 0.360125 0.596823 0.469650
O O2 0.240717 0.616282 0.195679
O O3 0.003047 0.557738 0.158295
O O4 0.077037 0.684873 0.218402
O O5 0.062402 0.440951 0.719430
O O6 0.005298 0.076341 0.759837
O O7 0.734844 0.119751 0.694008
O O8 0.916099 0.196286 0.699819
O O9 0.125947 0.133695 0.013294
O O10 0.386913 0.500000 0.302276
O O11 0.542068 0.808905 0.690793
O O12 0.750000 0.750000 0.000000
#
# Coordination Sequence:
#
# PCOD9177119 Si02
#       6
#     8   4   8   8   8   8
#     4  10  20  41  64  83 125 163 207 265 308 372
#     4  10  18  38  60  80 116 168 198 248 324 358
#     4  10  22  37  59  88 123 159 205 260 311 375
#     4  11  22  38  63  93 123 166 213 261 307 376
#     4   9  20  40  63  87 118 163 208 251 321 371
#     4   9  21  38  59  85 124 158 199 263 317 370
#
# _framework density 25.316763999999999
#
# number of rings (size 3 to 8) (size 9 to 14) (size 15 to 20)
#    0.000    2.182    1.818    0.545    5.091    1.455 
#    3.273    8.182    0.000    0.000    0.000    0.000 
#    0.000    0.000    0.000    0.000    0.000    0.000 
#
# Total GULP energy -122562.310074 kJ/mol
# GULP energy per Si atom -5571.014094 kJ/mol
# Density = 2.525914 g / cm^3
# Si number density = 25.316764 Si / 1000 Ang^3
#
#
#
# Elastic Constant Matrix: (Units=GPa)
#
#
# Indices 1 2 3 4 5 6 
#
# 1 199.7130 29.7504 18.3134 0.0000 -0.4911 0.0000
# 2 29.7504 117.3491 -7.3810 0.0000 6.2428 0.0000
# 3 18.3134 -7.3810 51.0874 0.0000 8.1249 0.0000
# 4 0.0000 0.0000 0.0000 -1.0639 0.0000 -2.8596
# 5 -0.4911 6.2428 8.1249 0.0000 33.2386 0.0000
# 6 0.0000 0.0000 0.0000 -2.8596 0.0000 16.1887
#
#
#
# Elastic Compliance Matrix: (Units=1/GPa)
#
#
# Indices 1 2 3 4 5 6 
#
# 1 0.005459 -0.001581 -0.002336 0.000000 0.000949 0.000000
# 2 -0.001581 0.009187 0.002260 0.000000 -0.002301 0.000000
# 3 -0.002336 0.002260 0.021653 0.000000 -0.005752 0.000000
# 4 0.000000 0.000000 0.000000 -0.637344 0.000000 -0.112581
# 5 0.000949 -0.002301 -0.005752 0.000000 0.031938 0.000000
# 6 0.000000 0.000000 0.000000 -0.112581 0.000000 0.041885
#
#
# Mechanical properties :
#
#
# Convention : Reuss Voigt Hill
#
# Bulk Modulus (GPa) = 30.31740 49.94613 40.13176
# Shear Modulus (GPa) = -9.74828 31.50379 10.87776
#
# Velocity S-wave (km/s) = -1.96440 3.53141 2.07509
# Velocity P-wave (km/s) = 2.61841 6.03317 4.65055
#
# Compressibility (1/GPa) = 0.03298436
#
# Stress axis : x y z
#
# Youngs Moduli (GPa) = 183.17198 108.84810 46.18262
#
# Poissons Ratio (x) = 0.17214 0.10790
# Poissons Ratio (y) = 0.28968 -0.10438
# Poissons Ratio (z) = 0.42796 -0.24602
#
# Static dielectric constant tensor:
#      x y z
#    x 1.991040 0.000000 -0.037390 
#    y 0.000000 1.929730 0.000000 
#    z -0.037390 0.000000 2.169440 
# 
# From -- ./inp_files/207821.got.cif
#   From: 2010.05.17/outbox.cif.g08.bks.cpg/sg12_104_cif.got.tgz:207821.got - 2010.06.03 13:09:07.
