data_PCOD9177318
_publ_section_title
;
Structure prediction by ZEFSAII (Michael W. Deem and Ramdas Pophale) SiO2 
 PCOD9177318
Probable space group: C 2/M
;
_chemical_formula_sum "Si O2"
_cell_formula_units_Z 64
_cell_length_a 22.451551
_cell_length_b 9.124187
_cell_length_c 23.209034
_cell_angle_alpha 90.000000
_cell_angle_beta 123.334776
_cell_angle_gamma 90.000000
_cell_volume 3972.194601
_symmetry_space_group_name_H-M "C 2/M"
_symmetry_group_IT_number 12
_symmetry_cell_setting 'monoclinic'
loop_
_space_group_symop_operation_xyz
x,y,z
-x,y,-z
-x,-y,-z
x,-y,z
1/2+x,1/2+y,z
1/2-x,1/2+y,-z
1/2-x,1/2-y,-z
1/2+x,1/2-y,z
loop_
_atom_site_type_symbol
_atom_site_label
_atom_site_fract_x
_atom_site_fract_y
_atom_site_fract_z
Si Si1 0.427133 0.675434 0.535824
Si Si2 0.154971 0.172927 0.301044
Si Si3 0.558004 0.178708 0.983351
Si Si4 0.274393 0.827756 0.265674
Si Si5 0.406199 0.674252 0.392301
Si Si6 0.449197 0.829346 0.835530
Si Si7 0.819841 0.324783 0.564191
Si Si8 0.327870 0.170107 0.871592
O O1 0.416176 0.500000 0.538671
O O2 0.399817 0.712160 0.456796
O O3 0.511907 0.703066 0.581379
O O4 0.385495 0.768478 0.560507
O O5 0.218933 0.195552 0.289157
O O6 0.083466 0.230286 0.231732
O O7 0.170135 0.265415 0.365973
O O8 0.150576 0.000000 0.311712
O O9 0.523990 0.219818 0.903946
O O10 0.558109 0.000000 0.984303
O O11 0.500000 0.227457 0.000000
O O12 0.634422 0.224355 0.049423
O O13 0.348419 0.755559 0.323308
O O14 0.237133 0.758836 0.189744
O O15 0.283039 0.000000 0.262410
O O16 0.394739 0.500000 0.381717
O O17 0.390861 0.825979 0.856601
O O18 0.454486 0.000000 0.820344
O O19 0.813613 0.500000 0.559915
O O20 0.750000 0.250000 0.500000
O O21 0.307748 0.000000 0.867764
#
# Coordination Sequence:
#
# PCOD9177318 Si02
#       8
#     8   8   8   8   8   8   8   8
#     4   9  19  36  54  72  91 113 146 185 223 267
#     4  10  20  32  44  63  92 124 156 189 225 266
#     4   7  10  18  34  55  78 108 147 185 219 259
#     4  10  19  28  41  64  93 122 153 189 226 262
#     4   9  18  33  53  71  89 116 147 180 222 271
#     4   8  13  23  39  58  81 112 150 188 223 262
#     4  12  24  36  51  70  92 120 151 185 225 265
#     4   8  13  22  37  56  81 115 151 184 220 265
#
# _framework density 16.112000999999999
#
# number of rings (size 3 to 8) (size 9 to 14) (size 15 to 20)
#    0.000    2.875    0.000    4.875    0.000    4.500 
#    0.000    1.875    0.000    3.750    0.000    0.000 
#    0.000    1.000    0.000    3.000    0.000    4.375 
#
# Total GULP energy -178216.528099 kJ/mol
# GULP energy per Si atom -5569.266503 kJ/mol
# Density = 1.607533 g / cm^3
# Si number density = 16.112001 Si / 1000 Ang^3
#
#
#
# Elastic Constant Matrix: (Units=GPa)
#
#
# Indices 1 2 3 4 5 6 
#
# 1 16.8775 26.4598 23.4116 0.0000 5.2615 0.0000
# 2 26.4598 62.6342 57.8641 0.0000 6.8172 0.0000
# 3 23.4116 57.8641 150.1206 0.0000 25.7017 0.0000
# 4 0.0000 0.0000 0.0000 19.1039 0.0000 1.9267
# 5 5.2615 6.8172 25.7017 0.0000 17.7786 0.0000
# 6 0.0000 0.0000 0.0000 1.9267 0.0000 17.9667
#
#
#
# Elastic Compliance Matrix: (Units=1/GPa)
#
#
# Indices 1 2 3 4 5 6 
#
# 1 0.193106 -0.086399 0.009700 0.000000 -0.038043 0.000000
# 2 -0.086399 0.063898 -0.015068 0.000000 0.022850 0.000000
# 3 0.009700 -0.015068 0.013899 0.000000 -0.017186 0.000000
# 4 0.000000 0.000000 0.000000 0.052918 0.000000 -0.005675
# 5 -0.038043 0.022850 -0.017186 0.000000 0.083589 0.000000
# 6 0.000000 0.000000 0.000000 -0.005675 0.000000 0.056267
#
#
# Mechanical properties :
#
#
# Convention : Reuss Voigt Hill
#
# Bulk Modulus (GPa) = 11.44545 49.45592 30.45069
# Shear Modulus (GPa) = 7.39283 19.09628 13.24455
#
# Velocity S-wave (km/s) = 2.14438 3.44644 2.87022
# Velocity P-wave (km/s) = 3.64009 6.82634 5.47034
#
# Compressibility (1/GPa) = 0.08737094
#
# Stress axis : x y z
#
# Youngs Moduli (GPa) = 5.17850 15.65000 71.94951
#
# Poissons Ratio (x) = 1.35214 -0.69794
# Poissons Ratio (y) = 0.44742 1.08410
# Poissons Ratio (z) = -0.05023 0.23581
#
# Static dielectric constant tensor:
#      x y z
#    x 1.527060 0.000000 0.008600 
#    y 0.000000 1.530830 0.000000 
#    z 0.008600 0.000000 1.568600 
# 
# From -- ./inp_files/348578.got.cif
#   From: 2010.05.17/outbox.cif.g08.bks.cpg/sg12_175_cif.got.tgz:348578.got - 2010.06.03 13:09:07.
