data_PCOD9177012
_publ_section_title
;
Structure prediction by ZEFSAII (Michael W. Deem and Ramdas Pophale) SiO2 
 PCOD9177012
Probable space group: C 2/M
;
_chemical_formula_sum "Si O2"
_cell_formula_units_Z 48
_cell_length_a 15.619249
_cell_length_b 14.341296
_cell_length_c 9.451828
_cell_angle_alpha 90.000000
_cell_angle_beta 86.493106
_cell_angle_gamma 90.000000
_cell_volume 2113.247460
_symmetry_space_group_name_H-M "C 2/M"
_symmetry_group_IT_number 12
_symmetry_cell_setting 'monoclinic'
loop_
_space_group_symop_operation_xyz
x,y,z
-x,y,-z
-x,-y,-z
x,-y,z
1/2+x,1/2+y,z
1/2-x,1/2+y,-z
1/2-x,1/2-y,-z
1/2+x,1/2-y,z
loop_
_atom_site_type_symbol
_atom_site_label
_atom_site_fract_x
_atom_site_fract_y
_atom_site_fract_z
Si Si1 0.205030 0.660586 0.672828
Si Si2 0.411568 0.197076 0.081351
Si Si3 0.086897 0.302936 0.422913
Si Si4 0.703609 0.831121 0.174931
Si Si5 0.115820 0.101085 0.792750
Si Si6 0.881588 0.900654 0.550090
O O1 0.127973 0.634809 0.787595
O O2 0.158931 0.694897 0.536277
O O3 0.253598 0.742526 0.751694
O O4 0.283516 0.598325 0.614011
O O5 0.423198 0.302920 0.141139
O O6 0.500000 0.166989 0.000000
O O7 0.339085 0.195200 0.967812
O O8 0.125209 0.357650 0.286614
O O9 0.075265 0.192317 0.390551
O O10 0.000000 0.339184 0.500000
O O11 0.785178 0.898087 0.162643
O O12 0.117666 0.106347 0.620955
O O13 0.077361 0.000000 0.835669
O O14 0.920695 0.000000 0.589125
#
# Coordination Sequence:
#
# PCOD9177012 Si02
#       6
#     8   8   8   8   8   8
#     4  10  18  37  55  77 107 143 189 218 251 319
#     4  11  22  35  56  85 111 140 177 222 274 321
#     4  11  19  32  56  81 110 141 175 226 269 310
#     4  10  19  35  55  79 106 143 189 217 251 323
#     4  10  19  35  58  80 108 143 180 220 265 322
#     4  10  19  34  57  82 107 141 181 224 267 314
#
# _framework density 22.713854999999999
#
# number of rings (size 3 to 8) (size 9 to 14) (size 15 to 20)
#    0.000    1.667    5.000    4.000    0.000    0.667 
#    0.000    7.500    0.000    6.000    0.000    0.000 
#    0.000    0.000    0.000    0.000    0.000    0.000 
#
# Total GULP energy -133873.575716 kJ/mol
# GULP energy per Si atom -5578.065655 kJ/mol
# Density = 2.266216 g / cm^3
# Si number density = 22.713855 Si / 1000 Ang^3
#
#
#
# Elastic Constant Matrix: (Units=GPa)
#
#
# Indices 1 2 3 4 5 6 
#
# 1 95.0684 -1.0970 25.5565 0.0000 -25.3524 0.0000
# 2 -1.0970 29.6037 -1.9291 0.0000 6.9435 0.0000
# 3 25.5565 -1.9291 112.4556 0.0000 -8.9857 0.0000
# 4 0.0000 0.0000 0.0000 7.3402 0.0000 -0.1768
# 5 -25.3524 6.9435 -8.9857 0.0000 57.3435 0.0000
# 6 0.0000 0.0000 0.0000 -0.1768 0.0000 0.7695
#
#
#
# Elastic Compliance Matrix: (Units=1/GPa)
#
#
# Indices 1 2 3 4 5 6 
#
# 1 0.012578 -0.000934 -0.002452 0.000000 0.005290 0.000000
# 2 -0.000934 0.034844 0.000446 0.000000 -0.004562 0.000000
# 3 -0.002452 0.000446 0.009485 0.000000 0.000348 0.000000
# 4 0.000000 0.000000 0.000000 0.136994 0.000000 0.031473
# 5 0.005290 -0.004562 0.000348 0.000000 0.020384 0.000000
# 6 0.000000 0.000000 0.000000 0.031473 0.000000 1.306858
#
#
# Mechanical properties :
#
#
# Convention : Reuss Voigt Hill
#
# Bulk Modulus (GPa) = 19.59801 31.35428 25.47614
# Shear Modulus (GPa) = 3.23827 27.39711 15.31769
#
# Velocity S-wave (km/s) = 1.19531 3.47679 2.59969
# Velocity P-wave (km/s) = 3.24838 5.47279 4.50019
#
# Compressibility (1/GPa) = 0.05102559
#
# Stress axis : x y z
#
# Youngs Moduli (GPa) = 79.50584 28.69929 105.42891
#
# Poissons Ratio (x) = 0.02682 0.25849
# Poissons Ratio (y) = 0.07429 -0.04697
# Poissons Ratio (z) = 0.19493 -0.01279
#
# Static dielectric constant tensor:
#      x y z
#    x 1.913450 0.000000 -0.066880 
#    y 0.000000 1.903140 0.000000 
#    z -0.066880 0.000000 1.857690 
# 
# From -- ./inp_files/74458.got.cif
#   From: 2010.05.17/outbox.cif.g08.bks.cpg/sg12_38_cif.got.tgz:74458.got - 2010.06.03 13:09:07.
