data_PCOD9177294
_publ_section_title
;
Structure prediction by ZEFSAII (Michael W. Deem and Ramdas Pophale) SiO2 
 PCOD9177294
Probable space group: C 2/M
;
_chemical_formula_sum "Si O2"
_cell_formula_units_Z 56
_cell_length_a 25.995863
_cell_length_b 21.788573
_cell_length_c 20.833638
_cell_angle_alpha 90.000000
_cell_angle_beta 161.843553
_cell_angle_gamma 90.000000
_cell_volume 3677.166622
_symmetry_space_group_name_H-M "C 2/M"
_symmetry_group_IT_number 12
_symmetry_cell_setting 'monoclinic'
loop_
_space_group_symop_operation_xyz
x,y,z
-x,y,-z
-x,-y,-z
x,-y,z
1/2+x,1/2+y,z
1/2-x,1/2+y,-z
1/2-x,1/2-y,-z
1/2+x,1/2-y,z
loop_
_atom_site_type_symbol
_atom_site_label
_atom_site_fract_x
_atom_site_fract_y
_atom_site_fract_z
Si Si1 0.759721 0.253429 0.341808
Si Si2 0.533374 0.313624 0.738174
Si Si3 0.263354 0.500000 0.845341
Si Si4 0.334912 0.627248 0.989015
Si Si5 0.404524 0.746568 0.986634
Si Si6 0.973301 0.372749 0.627386
Si Si7 0.900622 0.500000 0.482599
Si Si8 0.623721 0.813618 0.918902
O O1 0.587762 0.259228 0.175497
O O2 0.860676 0.316837 0.469435
O O3 0.868912 0.200291 0.504045
O O4 0.717502 0.242217 0.217487
O O5 0.539610 0.363019 0.802749
O O6 0.577111 0.250003 0.827101
O O7 0.685133 0.326022 0.870242
O O8 0.231153 0.500000 0.731157
O O9 0.081403 0.500000 0.662799
O O10 0.348755 0.562144 0.970623
O O11 0.356931 0.683159 0.965719
O O12 0.151276 0.632206 0.802539
O O13 0.401452 0.799703 0.036616
O O14 0.894984 0.437854 0.516837
O O15 0.013292 0.363011 0.750128
#
# Coordination Sequence:
#
# PCOD9177294 Si02
#       8
#     8   8   4   8   8   8   4   8
#     4  10  19  28  40  61  86 110 137 171 210 247
#     4   8  15  27  42  60  81 106 137 171 206 244
#     4   9  16  26  43  65  86 111 140 166 195 235
#     4   9  17  29  44  62  84 111 142 170 198 240
#     4  10  19  28  40  61  86 110 137 171 210 247
#     4   9  17  29  44  62  84 111 142 170 198 240
#     4   9  16  26  43  65  86 111 140 166 195 235
#     4   8  15  27  42  60  81 106 137 171 206 244
#
# _framework density 15.229117
#
# number of rings (size 3 to 8) (size 9 to 14) (size 15 to 20)
#    0.000    3.000    0.000    3.429    0.000    8.571 
#    0.000    0.714    0.000    2.571    0.000    1.000 
#    0.000    8.000    0.000    0.000    0.000    0.000 
#
# Total GULP energy -155890.280996 kJ/mol
# GULP energy per Si atom -5567.510036 kJ/mol
# Density = 1.519445 g / cm^3
# Si number density = 15.229117 Si / 1000 Ang^3
#
#
#
# Elastic Constant Matrix: (Units=GPa)
#
#
# Indices 1 2 3 4 5 6 
#
# 1 77.8962 39.7325 48.7741 0.0008 -31.2678 0.0001
# 2 39.7325 82.0333 49.3100 0.0001 -26.8062 0.0001
# 3 48.7741 49.3100 100.4235 0.0005 -31.9844 0.0001
# 4 0.0008 0.0001 0.0005 18.0950 0.0006 -9.7560
# 5 -31.2678 -26.8062 -31.9844 0.0006 22.1846 0.0001
# 6 0.0001 0.0001 0.0001 -9.7560 0.0001 14.6034
#
#
#
# Elastic Compliance Matrix: (Units=1/GPa)
#
#
# Indices 1 2 3 4 5 6 
#
# 1 0.029812 -0.000768 -0.001877 -0.000004 0.038384 -0.000003
# 2 -0.000768 0.021051 -0.004080 -0.000001 0.018470 -0.000001
# 3 -0.001877 -0.004080 0.019341 -0.000002 0.020309 -0.000001
# 4 -0.000004 -0.000001 -0.000002 0.086376 -0.000012 0.057705
# 5 0.038384 0.018470 0.020309 -0.000012 0.150774 -0.000009
# 6 -0.000003 -0.000001 -0.000001 0.057705 -0.000009 0.107028
#
#
# Mechanical properties :
#
#
# Convention : Reuss Voigt Hill
#
# Bulk Modulus (GPa) = 17.62039 59.55401 38.58720
# Shear Modulus (GPa) = 11.19191 19.14569 15.16880
#
# Velocity S-wave (km/s) = 2.71385 3.54951 3.15943
# Velocity P-wave (km/s) = 4.62767 7.48258 6.22110
#
# Compressibility (1/GPa) = 0.05675243
#
# Stress axis : x y z
#
# Youngs Moduli (GPa) = 33.54346 47.50471 51.70243
#
# Poissons Ratio (x) = 0.03650 0.09704
# Poissons Ratio (y) = 0.02578 0.21097
# Poissons Ratio (z) = 0.06296 0.19384
#
# Static dielectric constant tensor:
#      x y z
#    x 1.513740 0.000000 -0.007000 
#    y 0.000000 1.496980 0.000000 
#    z -0.007000 0.000000 1.516250 
# 
# From -- ./inp_files/291062.got.cif
#   From: 2010.05.17/outbox.cif.g08.bks.cpg/sg12_146_cif.got.tgz:291062.got - 2010.06.03 13:09:07.
