data_PCOD9177322
_publ_section_title
;
Structure prediction by ZEFSAII (Michael W. Deem and Ramdas Pophale) SiO2 
 PCOD9177322
Probable space group: C 2/M
;
_chemical_formula_sum "Si O2"
_cell_formula_units_Z 64
_cell_length_a 21.775078
_cell_length_b 7.292654
_cell_length_c 26.689292
_cell_angle_alpha 90.000000
_cell_angle_beta 140.377958
_cell_angle_gamma 90.000000
_cell_volume 2702.792258
_symmetry_space_group_name_H-M "C 2/M"
_symmetry_group_IT_number 12
_symmetry_cell_setting 'monoclinic'
loop_
_space_group_symop_operation_xyz
x,y,z
-x,y,-z
-x,-y,-z
x,-y,z
1/2+x,1/2+y,z
1/2-x,1/2+y,-z
1/2-x,1/2-y,-z
1/2+x,1/2-y,z
loop_
_atom_site_type_symbol
_atom_site_label
_atom_site_fract_x
_atom_site_fract_y
_atom_site_fract_z
Si Si1 0.644456 0.722399 0.190006
Si Si2 0.742971 0.789338 0.877500
Si Si3 0.648625 0.222763 0.721966
Si Si4 0.024574 0.275889 0.458265
Si Si5 0.768335 0.718516 0.453027
Si Si6 0.062538 0.775922 0.963702
Si Si7 0.893065 0.220446 0.122641
Si Si8 0.399977 0.276987 0.724004
O O1 0.644031 0.500000 0.188085
O O2 0.748809 0.778708 0.237019
O O3 0.548261 0.781469 0.099912
O O4 0.631164 0.775082 0.239500
O O5 0.663711 0.715661 0.788932
O O6 0.699255 0.786448 0.905515
O O7 0.756560 0.000000 0.870602
O O8 0.850425 0.710068 0.946731
O O9 0.558232 0.285806 0.632557
O O10 0.640936 0.000000 0.715426
O O11 0.024989 0.500000 0.458783
O O12 0.000000 0.220872 0.500000
O O13 0.129333 0.215045 0.504283
O O14 0.770569 0.500000 0.446935
O O15 0.750000 0.750000 0.500000
O O16 0.677228 0.788927 0.364399
O O17 0.092349 0.724124 0.925621
O O18 0.062383 0.000000 0.966029
O O19 0.989605 0.280912 0.212502
O O20 0.889042 0.000000 0.120150
O O21 0.400866 0.500000 0.723326
#
# Coordination Sequence:
#
# PCOD9177322 Si02
#       8
#     8   8   8   8   8   8   8   8
#     4   8  13  25  44  64  89 118 152 190 225 266
#     4  10  19  28  41  67 100 120 140 184 239 280
#     4   9  17  26  40  66  95 119 145 186 238 280
#     4   9  17  30  48  69  95 128 164 199 238 288
#     4  10  20  32  49  73 100 126 156 198 245 289
#     4   8  15  27  43  64  88 119 154 188 224 268
#     4   9  17  30  47  63  85 121 163 189 211 264
#     4   8  15  28  46  66  86 116 157 193 220 261
#
# _framework density 23.679216
#
# number of rings (size 3 to 8) (size 9 to 14) (size 15 to 20)
#    0.000    3.125    0.000    2.625    1.750    3.500 
#    0.000    2.500    0.000    0.375    0.000    7.875 
#    0.000    0.000    0.000    0.000    0.000    0.000 
#
# Total GULP energy -178662.070078 kJ/mol
# GULP energy per Si atom -5583.189690 kJ/mol
# Density = 2.362532 g / cm^3
# Si number density = 23.679216 Si / 1000 Ang^3
#
#
#
# Elastic Constant Matrix: (Units=GPa)
#
#
# Indices 1 2 3 4 5 6 
#
# 1 105.4740 -6.9341 50.9164 0.0001 9.3978 -0.0001
# 2 -6.9341 97.5580 11.4782 0.0000 0.4383 0.0010
# 3 50.9164 11.4782 175.9025 0.0001 25.8906 -0.0003
# 4 0.0001 0.0000 0.0001 -12.1470 -0.0001 -4.7093
# 5 9.3978 0.4383 25.8906 -0.0001 30.8915 0.0000
# 6 -0.0001 0.0010 -0.0003 -4.7093 0.0000 -1.3357
#
#
#
# Elastic Compliance Matrix: (Units=1/GPa)
#
#
# Indices 1 2 3 4 5 6 
#
# 1 0.011169 0.001174 -0.003202 0.000001 -0.000731 -0.000002
# 2 0.001174 0.010459 -0.001081 0.000008 0.000401 -0.000021
# 3 -0.003202 -0.001081 0.007457 -0.000003 -0.005260 0.000007
# 4 0.000001 0.000008 -0.000003 0.224406 0.000003 -0.791171
# 5 -0.000731 0.000401 -0.005260 0.000003 0.036996 -0.000008
# 6 -0.000002 -0.000021 0.000007 -0.791171 -0.000008 2.040722
#
#
# Mechanical properties :
#
#
# Convention : Reuss Voigt Hill
#
# Bulk Modulus (GPa) = 43.73302 54.42838 49.08070
# Shear Modulus (GPa) = 2.13215 25.04668 13.58942
#
# Velocity S-wave (km/s) = 0.94994 3.25583 2.39821
# Velocity P-wave (km/s) = 4.43985 6.09668 5.33300
#
# Compressibility (1/GPa) = 0.02286602
#
# Stress axis : x y z
#
# Youngs Moduli (GPa) = 89.53325 95.60993 134.10991
#
# Poissons Ratio (x) = -0.11223 0.42942
# Poissons Ratio (y) = -0.10510 0.14501
# Poissons Ratio (z) = 0.28669 0.10338
#
# Static dielectric constant tensor:
#      x y z
#    x 1.851410 0.000000 -0.006590 
#    y 0.000000 1.937630 0.000000 
#    z -0.006590 0.000000 1.897830 
# 
# From -- ./inp_files/346852.got.cif
#   From: 2010.05.17/outbox.cif.g08.bks.cpg/sg12_174_cif.got.tgz:346852.got - 2010.06.03 13:09:07.
