data_PCOD9177852
_publ_section_title
;
Structure prediction by ZEFSAII (Michael W. Deem and Ramdas Pophale) SiO2 
 PCOD9177852
Probable space group: C 2/M
;
_chemical_formula_sum "Si O2"
_cell_formula_units_Z 48
_cell_length_a 24.956141
_cell_length_b 7.715025
_cell_length_c 13.913630
_cell_angle_alpha 90.000000
_cell_angle_beta 105.691891
_cell_angle_gamma 90.000000
_cell_volume 2579.049866
_symmetry_space_group_name_H-M "C 2/M"
_symmetry_group_IT_number 12
_symmetry_cell_setting 'monoclinic'
loop_
_space_group_symop_operation_xyz
x,y,z
-x,y,-z
-x,-y,-z
x,-y,z
1/2+x,1/2+y,z
1/2-x,1/2+y,-z
1/2-x,1/2-y,-z
1/2+x,1/2-y,z
loop_
_atom_site_type_symbol
_atom_site_label
_atom_site_fract_x
_atom_site_fract_y
_atom_site_fract_z
Si Si1 0.861469 0.302733 0.848151
Si Si2 0.435141 0.295891 0.060124
Si Si3 0.479279 0.713006 0.385933
Si Si4 0.748714 0.289869 0.885658
Si Si5 0.370513 0.704648 0.230799
Si Si6 0.961104 0.795588 0.776976
O O1 0.849930 0.500000 0.815966
O O2 0.803511 0.223219 0.857001
O O3 0.898080 0.227139 0.779509
O O4 0.902124 0.295282 0.959884
O O5 0.438954 0.500000 0.034123
O O6 0.398944 0.283302 0.139726
O O7 0.495700 0.227665 0.121091
O O8 0.500000 0.769852 0.500000
O O9 0.478689 0.500000 0.386233
O O10 0.416951 0.772311 0.327161
O O11 0.519960 0.769087 0.318400
O O12 0.748992 0.500000 0.880369
O O13 0.691522 0.223561 0.810261
O O14 0.750000 0.250000 0.000000
O O15 0.364545 0.500000 0.249435
O O16 0.973077 0.000000 0.781007
#
# Coordination Sequence:
#
# PCOD9177852 Si02
#       6
#     8   8   8   8   8   8
#     4  11  21  28  39  63  93 124 153 180 213 260
#     4   9  16  28  45  62  85 120 154 181 216 264
#     4   8  14  27  50  75  89 102 141 199 240 265
#     4  10  19  30  44  63  90 125 159 183 213 259
#     4   8  14  26  44  65  89 115 145 186 229 262
#     4   9  18  30  45  66  89 116 148 182 227 273
#
# _framework density 18.611505000000001
#
# number of rings (size 3 to 8) (size 9 to 14) (size 15 to 20)
#    0.000    2.833    1.667    3.000    0.000    3.333 
#    0.000    0.000    0.000    1.500    0.000    0.000 
#    0.000    0.000    0.000    0.000    0.000    0.167 
#
# Total GULP energy -133721.494309 kJ/mol
# GULP energy per Si atom -5571.728930 kJ/mol
# Density = 1.856914 g / cm^3
# Si number density = 18.611505 Si / 1000 Ang^3
#
#
#
# Elastic Constant Matrix: (Units=GPa)
#
#
# Indices 1 2 3 4 5 6 
#
# 1 175.8197 3.6937 69.5947 0.0000 12.5119 0.0000
# 2 3.6937 25.2931 0.9554 0.0000 -0.5538 0.0000
# 3 69.5947 0.9554 111.8437 0.0000 12.2101 0.0000
# 4 0.0000 0.0000 0.0000 63.5924 0.0000 -25.5583
# 5 12.5119 -0.5538 12.2101 0.0000 13.4562 0.0000
# 6 0.0000 0.0000 0.0000 -25.5583 0.0000 26.3163
#
#
#
# Elastic Compliance Matrix: (Units=1/GPa)
#
#
# Indices 1 2 3 4 5 6 
#
# 1 0.007688 -0.001025 -0.004429 0.000000 -0.003172 0.000000
# 2 -0.001025 0.039742 0.000017 0.000000 0.002573 0.000000
# 3 -0.004429 0.000017 0.012484 0.000000 -0.007209 0.000000
# 4 0.000000 0.000000 0.000000 0.025793 0.000000 0.025050
# 5 -0.003172 0.002573 -0.007209 0.000000 0.083912 0.000000
# 6 0.000000 0.000000 0.000000 0.025050 0.000000 0.062328
#
#
# Mechanical properties :
#
#
# Convention : Reuss Voigt Hill
#
# Bulk Modulus (GPa) = 20.39116 51.27154 35.83135
# Shear Modulus (GPa) = 19.29272 36.58719 27.93995
#
# Velocity S-wave (km/s) = 3.22312 4.43859 3.87876
# Velocity P-wave (km/s) = 4.98311 7.34004 6.27326
#
# Compressibility (1/GPa) = 0.04904087
#
# Stress axis : x y z
#
# Youngs Moduli (GPa) = 130.07373 25.16245 80.10430
#
# Poissons Ratio (x) = 0.02579 0.35476
# Poissons Ratio (y) = 0.13331 -0.00139
# Poissons Ratio (z) = 0.57607 -0.00044
#
# Static dielectric constant tensor:
#      x y z
#    x 1.695520 0.000000 0.011920 
#    y 0.000000 1.721640 0.000000 
#    z 0.011920 0.000000 1.618640 
# 
# From -- ./inp_files/236849.got.cif
#   From: 2010.05.17/outbox.cif.g08.bks.cpg/sg12_119_cif.got.tgz:236849.got - 2010.06.03 13:09:07.
