data_PCOD9177729
_publ_section_title
;
Structure prediction by ZEFSAII (Michael W. Deem and Ramdas Pophale) SiO2 
 PCOD9177729
Probable space group: C 2/M
;
_chemical_formula_sum "Si O2"
_cell_formula_units_Z 40
_cell_length_a 10.366032
_cell_length_b 21.751902
_cell_length_c 7.348086
_cell_angle_alpha 90.000000
_cell_angle_beta 85.386130
_cell_angle_gamma 90.000000
_cell_volume 1651.483994
_symmetry_space_group_name_H-M "C 2/M"
_symmetry_group_IT_number 12
_symmetry_cell_setting 'monoclinic'
loop_
_space_group_symop_operation_xyz
x,y,z
-x,y,-z
-x,-y,-z
x,-y,z
1/2+x,1/2+y,z
1/2-x,1/2+y,-z
1/2-x,1/2-y,-z
1/2+x,1/2-y,z
loop_
_atom_site_type_symbol
_atom_site_label
_atom_site_fract_x
_atom_site_fract_y
_atom_site_fract_z
Si Si1 0.636659 0.564950 0.095324
Si Si2 0.744940 0.930229 0.295852
Si Si3 0.148362 0.265058 0.817944
Si Si4 0.883470 0.693625 0.757479
Si Si5 0.984255 0.849695 0.307957
O O1 0.649046 0.500000 0.193692
O O2 0.619266 0.623058 0.223089
O O3 0.500000 0.564109 0.000000
O O4 0.741572 0.567411 0.926223
O O5 0.655779 0.870672 0.328602
O O6 0.885788 0.907197 0.348073
O O7 0.713918 0.000000 0.360012
O O8 0.285906 0.248898 0.711562
O O9 0.083991 0.195998 0.826086
O O10 0.036704 0.299438 0.720120
O O11 0.146604 0.297063 0.017868
O O12 0.000000 0.819138 0.500000
#
# Coordination Sequence:
#
# PCOD9177729 Si02
#       5
#     8   8   8   8   8
#     4   8  15  26  44  68  96 130 166 207 256 303
#     4   9  18  32  51  75 102 133 174 218 261 309
#     4   9  19  31  50  77 104 136 174 212 258 310
#     4   9  18  32  55  78 100 139 175 217 264 303
#     4  10  19  29  47  78 108 136 168 217 268 311
#
# _framework density 24.220641000000001
#
# number of rings (size 3 to 8) (size 9 to 14) (size 15 to 20)
#    0.000    3.000    0.000    1.800   16.800    1.600 
#    0.000    6.000    0.000    0.000    0.000    0.000 
#    0.000    3.200    0.000    0.000    0.000    0.000 
#
# Total GULP energy -111335.297776 kJ/mol
# GULP energy per Si atom -5566.764889 kJ/mol
# Density = 2.416551 g / cm^3
# Si number density = 24.220641 Si / 1000 Ang^3
#
#
#
# Elastic Constant Matrix: (Units=GPa)
#
#
# Indices 1 2 3 4 5 6 
#
# 1 80.5728 21.2185 6.1937 0.0000 5.7342 0.0000
# 2 21.2185 135.5617 10.5164 0.0000 3.1882 0.0000
# 3 6.1937 10.5164 66.8993 0.0000 4.2146 0.0000
# 4 0.0000 0.0000 0.0000 17.0004 0.0000 1.8113
# 5 5.7342 3.1882 4.2146 0.0000 14.6481 0.0000
# 6 0.0000 0.0000 0.0000 1.8113 0.0000 25.0357
#
#
#
# Elastic Compliance Matrix: (Units=1/GPa)
#
#
# Indices 1 2 3 4 5 6 
#
# 1 0.013294 -0.001923 -0.000639 0.000000 -0.004602 0.000000
# 2 -0.001923 0.007771 -0.001003 0.000000 -0.000650 0.000000
# 3 -0.000639 -0.001003 0.015414 0.000000 -0.003967 0.000000
# 4 0.000000 0.000000 0.000000 0.059279 0.000000 -0.004289
# 5 -0.004602 -0.000650 -0.003967 0.000000 0.071353 0.000000
# 6 0.000000 0.000000 0.000000 -0.004289 0.000000 0.040253
#
#
# Mechanical properties :
#
#
# Convention : Reuss Voigt Hill
#
# Bulk Modulus (GPa) = 34.07035 39.87676 36.97356
# Shear Modulus (GPa) = 22.29390 27.67718 24.98554
#
# Velocity S-wave (km/s) = 3.03718 3.38407 3.21531
# Velocity P-wave (km/s) = 5.13775 5.63639 5.39284
#
# Compressibility (1/GPa) = 0.02935103
#
# Stress axis : x y z
#
# Youngs Moduli (GPa) = 75.22090 128.68722 64.87405
#
# Poissons Ratio (x) = 0.24748 0.04143
# Poissons Ratio (y) = 0.14466 0.06504
# Poissons Ratio (z) = 0.04803 0.12902
#
# Static dielectric constant tensor:
#      x y z
#    x 2.032570 0.000000 -0.022870 
#    y 0.000000 2.024270 0.000000 
#    z -0.022870 0.000000 2.005480 
# 
# From -- ./inp_files/48620.got.cif
#   From: 2010.05.17/outbox.cif.g08.bks.cpg/sg12_25_cif.got.tgz:48620.got - 2010.06.03 13:09:07.
