data_PCOD9177396
_publ_section_title
;
Structure prediction by ZEFSAII (Michael W. Deem and Ramdas Pophale) SiO2 
 PCOD9177396
Probable space group: C 2/M
;
_chemical_formula_sum "Si O2"
_cell_formula_units_Z 56
_cell_length_a 17.738791
_cell_length_b 12.995773
_cell_length_c 15.716459
_cell_angle_alpha 90.000000
_cell_angle_beta 147.709634
_cell_angle_gamma 90.000000
_cell_volume 1935.499333
_symmetry_space_group_name_H-M "C 2/M"
_symmetry_group_IT_number 12
_symmetry_cell_setting 'monoclinic'
loop_
_space_group_symop_operation_xyz
x,y,z
-x,y,-z
-x,-y,-z
x,-y,z
1/2+x,1/2+y,z
1/2-x,1/2+y,-z
1/2-x,1/2-y,-z
1/2+x,1/2-y,z
loop_
_atom_site_type_symbol
_atom_site_label
_atom_site_fract_x
_atom_site_fract_y
_atom_site_fract_z
Si Si1 0.366552 0.121090 0.695089
Si Si2 0.078295 0.879203 0.331778
Si Si3 0.276210 0.377738 0.890949
Si Si4 0.017899 0.723870 0.423695
Si Si5 0.817081 0.876017 0.744301
Si Si6 0.328858 0.882221 0.840657
Si Si7 0.689839 0.125193 0.988465
O O1 0.246610 0.131547 0.511418
O O2 0.303122 0.165196 0.723110
O O3 0.523731 0.150333 0.818450
O O4 0.380048 0.000000 0.725672
O O5 0.018328 0.808729 0.349587
O O6 0.073537 0.849918 0.227385
O O7 0.040228 0.000000 0.306366
O O8 0.302274 0.500000 0.919055
O O9 0.348415 0.342005 0.871443
O O10 0.285921 0.343403 0.999788
O O11 0.111285 0.354263 0.714685
O O12 0.159091 0.656678 0.567880
O O13 0.000000 0.775501 0.500000
O O14 0.820134 0.000000 0.748619
O O15 0.274298 0.000000 0.788324
O O16 0.500000 0.886700 0.000000
O O17 0.280421 0.839723 0.885961
O O18 0.697197 0.000000 0.997462
#
# Coordination Sequence:
#
# PCOD9177396 Si02
#       7
#     8   8   8   8   8   8   8
#     4   8  13  21  33  51  76 106 135 159 189 233
#     4  10  19  29  41  57  81 112 140 166 196 231
#     4   9  16  26  41  61  84 107 131 161 198 240
#     4  10  19  29  41  57  78 108 142 172 198 229
#     4   9  17  28  41  58  79 103 132 164 199 240
#     4   7  10  17  30  50  76 102 127 154 187 235
#     4   8  12  19  34  56  80 104 127 154 193 241
#
# _framework density 28.933102999999999
#
# number of rings (size 3 to 8) (size 9 to 14) (size 15 to 20)
#    0.000    3.286    0.000    3.429    0.000    4.286 
#    0.000    0.000    0.000    0.000    0.000    4.000 
#    0.000    4.571    0.000    3.286    0.000   62.571 
#
# Total GULP energy -156849.534059 kJ/mol
# GULP energy per Si atom -5601.769074 kJ/mol
# Density = 2.886725 g / cm^3
# Si number density = 28.933103 Si / 1000 Ang^3
#
#
#
# Elastic Constant Matrix: (Units=GPa)
#
#
# Indices 1 2 3 4 5 6 
#
# 1 272.0007 66.0130 82.3219 0.0000 -59.7029 0.0000
# 2 66.0130 109.2787 40.8733 0.0000 -24.0253 0.0000
# 3 82.3219 40.8733 99.9948 0.0000 -48.3026 0.0000
# 4 0.0000 0.0000 0.0000 41.0941 0.0000 -20.5316
# 5 -59.7029 -24.0253 -48.3026 0.0000 89.7982 0.0000
# 6 0.0000 0.0000 0.0000 -20.5316 0.0000 46.7807
#
#
#
# Elastic Compliance Matrix: (Units=1/GPa)
#
#
# Indices 1 2 3 4 5 6 
#
# 1 0.005325 -0.001793 -0.002935 0.000000 0.001482 0.000000
# 2 -0.001793 0.011439 -0.003103 0.000000 0.000199 0.000000
# 3 -0.002935 -0.003103 0.016674 0.000000 0.006187 0.000000
# 4 0.000000 0.000000 0.000000 0.031169 0.000000 0.013680
# 5 0.001482 0.000199 0.006187 0.000000 0.015503 0.000000
# 6 0.000000 0.000000 0.000000 0.013680 0.000000 0.027380
#
#
# Mechanical properties :
#
#
# Convention : Reuss Voigt Hill
#
# Bulk Modulus (GPa) = 56.25966 95.52118 75.89042
# Shear Modulus (GPa) = 38.73606 55.00567 46.87086
#
# Velocity S-wave (km/s) = 3.66295 4.36493 4.02926
# Velocity P-wave (km/s) = 6.11364 7.64785 6.92337
#
# Compressibility (1/GPa) = 0.01777473
#
# Stress axis : x y z
#
# Youngs Moduli (GPa) = 187.78233 87.42345 59.97259
#
# Poissons Ratio (x) = 0.15677 0.17604
# Poissons Ratio (y) = 0.33674 0.18611
# Poissons Ratio (z) = 0.55120 0.27129
#
# Static dielectric constant tensor:
#      x y z
#    x 2.198420 0.000000 -0.053380 
#    y 0.000000 2.250280 0.000000 
#    z -0.053380 0.000000 2.316070 
# 
# From -- ./inp_files/224888.got.cif
#   From: 2010.05.17/outbox.cif.g08.bks.cpg/sg12_113_cif.got.tgz:224888.got - 2010.06.03 13:09:07.
