data_PCOD9177281
_publ_section_title
;
Structure prediction by ZEFSAII (Michael W. Deem and Ramdas Pophale) SiO2 
 PCOD9177281
Probable space group: C 2/M
;
_chemical_formula_sum "Si O2"
_cell_formula_units_Z 64
_cell_length_a 25.621534
_cell_length_b 8.357773
_cell_length_c 17.204454
_cell_angle_alpha 90.000000
_cell_angle_beta 109.903646
_cell_angle_gamma 90.000000
_cell_volume 3464.077032
_symmetry_space_group_name_H-M "C 2/M"
_symmetry_group_IT_number 12
_symmetry_cell_setting 'monoclinic'
loop_
_space_group_symop_operation_xyz
x,y,z
-x,y,-z
-x,-y,-z
x,-y,z
1/2+x,1/2+y,z
1/2-x,1/2+y,-z
1/2-x,1/2-y,-z
1/2+x,1/2-y,z
loop_
_atom_site_type_symbol
_atom_site_label
_atom_site_fract_x
_atom_site_fract_y
_atom_site_fract_z
Si Si1 0.239370 0.184499 0.255900
Si Si2 0.360208 0.192968 0.281400
Si Si3 0.491599 0.307130 0.907973
Si Si4 0.620781 0.693865 0.235210
Si Si5 0.770751 0.182079 0.430499
Si Si6 0.548798 0.193104 0.790110
Si Si7 0.562881 0.809205 0.355073
Si Si8 0.599515 0.319327 0.535383
O O1 0.296568 0.256451 0.250181
O O2 0.177138 0.253792 0.222150
O O3 0.251819 0.198620 0.353727
O O4 0.236218 0.000000 0.228439
O O5 0.395860 0.247146 0.225801
O O6 0.393710 0.237343 0.377092
O O7 0.356499 0.000000 0.278882
O O8 0.490536 0.500000 0.908762
O O9 0.433189 0.253174 0.840767
O O10 0.538886 0.253542 0.871900
O O11 0.500000 0.249444 0.000000
O O12 0.623092 0.500000 0.236738
O O13 0.610208 0.745934 0.319343
O O14 0.750000 0.250000 0.500000
O O15 0.837068 0.177158 0.462606
O O16 0.750734 0.000000 0.405691
O O17 0.495409 0.245975 0.712076
O O18 0.548602 0.000000 0.790739
O O19 0.567214 0.758405 0.447063
O O20 0.565276 0.000000 0.353379
O O21 0.579523 0.500000 0.536978
#
# Coordination Sequence:
#
# PCOD9177281 Si02
#       8
#     8   8   8   8   8   8   8   8
#     4   9  17  29  46  65  86 117 154 191 229 268
#     4   9  18  33  49  65  89 124 163 196 229 269
#     4   9  18  33  54  78 100 121 145 178 226 281
#     4   9  17  30  48  71  96 119 150 192 233 275
#     4  10  19  28  39  57  84 118 156 197 235 271
#     4   9  19  34  51  71  94 121 154 191 230 275
#     4  10  19  30  45  66  92 123 158 197 240 277
#     4  10  20  31  42  61  90 124 162 200 235 270
#
# _framework density 18.475339000000002
#
# number of rings (size 3 to 8) (size 9 to 14) (size 15 to 20)
#    0.000    2.625    0.000    1.875    0.000    6.750 
#    0.000    2.500    0.000    0.750    0.000    0.000 
#    0.000    0.000    0.000    0.000    0.000    0.000 
#
# Total GULP energy -178247.639273 kJ/mol
# GULP energy per Si atom -5570.238727 kJ/mol
# Density = 1.843329 g / cm^3
# Si number density = 18.475339 Si / 1000 Ang^3
#
#
#
# Elastic Constant Matrix: (Units=GPa)
#
#
# Indices 1 2 3 4 5 6 
#
# 1 115.3393 6.4174 48.3627 0.0000 -27.7278 0.0000
# 2 6.4174 16.3266 0.3917 0.0000 -2.4349 0.0000
# 3 48.3627 0.3917 77.8918 0.0000 -23.3998 0.0000
# 4 0.0000 0.0000 0.0000 16.9992 0.0000 -1.8203
# 5 -27.7278 -2.4349 -23.3998 0.0000 22.6556 0.0000
# 6 0.0000 0.0000 0.0000 -1.8203 0.0000 13.3838
#
#
#
# Elastic Compliance Matrix: (Units=1/GPa)
#
#
# Indices 1 2 3 4 5 6 
#
# 1 0.013689 -0.003612 -0.005169 0.000000 0.011028 0.000000
# 2 -0.003612 0.063527 0.003837 0.000000 0.006370 0.000000
# 3 -0.005169 0.003837 0.020663 0.000000 0.015428 0.000000
# 4 0.000000 0.000000 0.000000 0.059696 0.000000 0.008119
# 5 0.011028 0.006370 0.015428 0.000000 0.074256 0.000000
# 6 0.000000 0.000000 0.000000 0.008119 0.000000 0.075821
#
#
# Mechanical properties :
#
#
# Convention : Reuss Voigt Hill
#
# Bulk Modulus (GPa) = 11.36469 35.54460 23.45464
# Shear Modulus (GPa) = 14.41458 20.90011 17.65734
#
# Velocity S-wave (km/s) = 2.79625 3.36705 3.09483
# Velocity P-wave (km/s) = 4.07308 5.86487 5.04909
#
# Compressibility (1/GPa) = 0.08799185
#
# Stress axis : x y z
#
# Youngs Moduli (GPa) = 73.04953 15.74127 48.39535
#
# Poissons Ratio (x) = 0.05686 0.25014
# Poissons Ratio (y) = 0.26386 -0.18568
# Poissons Ratio (z) = 0.37757 -0.06040
#
# Static dielectric constant tensor:
#      x y z
#    x 1.704990 0.000000 0.014180 
#    y 0.000000 1.663290 0.000000 
#    z 0.014180 0.000000 1.550990 
# 
# From -- ./inp_files/243844.got.cif
#   From: 2010.05.17/outbox.cif.g08.bks.cpg/sg12_122_cif.got.tgz:243844.got - 2010.06.03 13:09:07.
