data_PCOD9177970
_publ_section_title
;
Structure prediction by ZEFSAII (Michael W. Deem and Ramdas Pophale) SiO2 
 PCOD9177970
Probable space group: C 2/M
;
_chemical_formula_sum "Si O2"
_cell_formula_units_Z 56
_cell_length_a 33.308432
_cell_length_b 8.946584
_cell_length_c 16.436030
_cell_angle_alpha 90.000000
_cell_angle_beta 49.489904
_cell_angle_gamma 90.000000
_cell_volume 3723.818472
_symmetry_space_group_name_H-M "C 2/M"
_symmetry_group_IT_number 12
_symmetry_cell_setting 'monoclinic'
loop_
_space_group_symop_operation_xyz
x,y,z
-x,y,-z
-x,-y,-z
x,-y,z
1/2+x,1/2+y,z
1/2-x,1/2+y,-z
1/2-x,1/2-y,-z
1/2+x,1/2-y,z
loop_
_atom_site_type_symbol
_atom_site_label
_atom_site_fract_x
_atom_site_fract_y
_atom_site_fract_z
Si Si1 0.758802 0.177916 0.618787
Si Si2 0.063670 0.319756 0.826142
Si Si3 0.443209 0.820498 0.975563
Si Si4 0.197586 0.179577 0.109100
Si Si5 0.331606 0.677620 0.368330
Si Si6 0.737074 0.820780 0.211962
Si Si7 0.147320 0.821281 0.012460
O O1 0.705039 0.242641 0.650771
O O2 0.803859 0.206227 0.491741
O O3 0.770613 0.257233 0.688120
O O4 0.753732 0.000000 0.636895
O O5 0.068202 0.500000 0.814259
O O6 0.109806 0.241718 0.715615
O O7 0.004110 0.277208 0.879391
O O8 0.069466 0.279001 0.914109
O O9 0.401130 0.753056 0.969591
O O10 0.440852 0.000000 0.974794
O O11 0.196856 0.249214 0.199625
O O12 0.152813 0.215852 0.101226
O O13 0.202434 0.000000 0.106972
O O14 0.250000 0.250000 0.000000
O O15 0.331077 0.500000 0.354821
O O16 0.732980 0.000000 0.215359
O O17 0.796849 0.780183 0.104002
O O18 0.142690 0.000000 0.012063
#
# Coordination Sequence:
#
# PCOD9177970 Si02
#       7
#     8   8   8   8   8   8   8
#     4  10  20  32  46  65  90 120 150 181 221 265
#     4   9  18  32  46  63  89 119 150 184 221 259
#     4   9  18  30  45  65  88 117 152 183 216 263
#     4   9  17  29  43  62  90 121 150 182 222 266
#     4  10  20  32  46  66  90 117 151 186 219 260
#     4  10  19  30  45  67  92 118 151 186 220 264
#     4   9  18  29  42  64  92 118 146 181 218 259
#
# _framework density 15.038327000000001
#
# number of rings (size 3 to 8) (size 9 to 14) (size 15 to 20)
#    0.000    2.571    0.000    4.286    0.000    8.571 
#    0.000    1.429    0.000    0.000    0.000    1.000 
#    0.000    8.000    0.000    0.000    0.000    0.000 
#
# Total GULP energy -156062.026061 kJ/mol
# GULP energy per Si atom -5573.643788 kJ/mol
# Density = 1.500410 g / cm^3
# Si number density = 15.038327 Si / 1000 Ang^3
#
#
#
# Elastic Constant Matrix: (Units=GPa)
#
#
# Indices 1 2 3 4 5 6 
#
# 1 131.1894 48.1120 46.3754 0.0000 11.2760 0.0001
# 2 48.1120 47.4062 35.3051 0.0000 6.2242 0.0001
# 3 46.3754 35.3051 58.7502 0.0000 1.7322 0.0000
# 4 0.0000 0.0000 0.0000 24.1622 0.0000 1.7423
# 5 11.2760 6.2242 1.7322 0.0000 26.7515 0.0000
# 6 0.0001 0.0001 0.0000 1.7423 0.0000 30.7224
#
#
#
# Elastic Compliance Matrix: (Units=1/GPa)
#
#
# Indices 1 2 3 4 5 6 
#
# 1 0.012890 -0.009377 -0.004453 0.000000 -0.002963 0.000000
# 2 -0.009377 0.046529 -0.020395 0.000000 -0.005553 0.000000
# 3 -0.004453 -0.020395 0.032660 0.000000 0.004508 0.000000
# 4 0.000000 0.000000 0.000000 0.041557 0.000000 -0.002357
# 5 -0.002963 -0.005553 0.004508 0.000000 0.039630 0.000000
# 6 0.000000 0.000000 0.000000 -0.002357 0.000000 0.032683
#
#
# Mechanical properties :
#
#
# Convention : Reuss Voigt Hill
#
# Bulk Modulus (GPa) = 42.32176 55.21455 48.76816
# Shear Modulus (GPa) = 17.71320 23.49746 20.60533
#
# Velocity S-wave (km/s) = 3.43573 3.95714 3.70562
# Velocity P-wave (km/s) = 6.62893 7.59435 7.12801
#
# Compressibility (1/GPa) = 0.02362850
#
# Stress axis : x y z
#
# Youngs Moduli (GPa) = 77.57847 21.49197 30.61888
#
# Poissons Ratio (x) = 0.20153 0.13634
# Poissons Ratio (y) = 0.72744 0.62449
# Poissons Ratio (z) = 0.34544 0.43834
#
# Static dielectric constant tensor:
#      x y z
#    x 1.497670 0.000000 0.011980 
#    y 0.000000 1.499970 0.000000 
#    z 0.011980 0.000000 1.497650 
# 
# From -- ./inp_files/237844.got.cif
#   From: 2010.05.17/outbox.cif.g08.bks.cpg/sg12_119_cif.got.tgz:237844.got - 2010.06.03 13:09:07.
