data_PCOD9177115
_publ_section_title
;
Structure prediction by ZEFSAII (Michael W. Deem and Ramdas Pophale) SiO2 
 PCOD9177115
Probable space group: C 2/M
;
_chemical_formula_sum "Si O2"
_cell_formula_units_Z 34
_cell_length_a 16.550887
_cell_length_b 21.562472
_cell_length_c 9.187445
_cell_angle_alpha 90.000000
_cell_angle_beta 150.306529
_cell_angle_gamma 90.000000
_cell_volume 1624.184010
_symmetry_space_group_name_H-M "C 2/M"
_symmetry_group_IT_number 12
_symmetry_cell_setting 'monoclinic'
loop_
_space_group_symop_operation_xyz
x,y,z
-x,y,-z
-x,-y,-z
x,-y,z
1/2+x,1/2+y,z
1/2-x,1/2+y,-z
1/2-x,1/2-y,-z
1/2+x,1/2-y,z
loop_
_atom_site_type_symbol
_atom_site_label
_atom_site_fract_x
_atom_site_fract_y
_atom_site_fract_z
Si Si1 0.116452 0.296368 0.862291
Si Si2 0.438998 0.589087 0.639370
Si Si3 0.688862 0.275219 0.556508
Si Si4 0.500000 0.500000 0.000000
Si Si5 0.766920 0.431967 0.970436
O O1 0.933742 0.272758 0.558079
O O2 0.250000 0.250000 0.000000
O O3 0.161642 0.290533 0.103893
O O4 0.135188 0.368576 0.852325
O O5 0.415853 0.662151 0.625035
O O6 0.432000 0.553304 0.779170
O O7 0.306728 0.570721 0.308856
O O8 0.612235 0.573327 0.836274
O O9 0.750000 0.250000 0.500000
O O10 0.844959 0.500000 0.113594
#
# Coordination Sequence:
#
# PCOD9177115 Si02
#       5
#     8   8   8   2   8
#     4  11  22  39  66  91 120 163 214 251 298 372
#     4  10  20  33  59  86 119 160 206 253 294 372
#     4  11  24  40  61  93 128 162 199 259 316 359
#     4  12  20  30  56  92 124 146 206 248 310 350
#     4  10  18  38  59  85 118 161 210 248 303 362
#
# _framework density 20.933588
#
# number of rings (size 3 to 8) (size 9 to 14) (size 15 to 20)
#    0.000    1.412    4.706    2.118    3.294    0.000 
#    0.000    0.000    2.588    5.647    0.000    0.000 
#    0.000    0.000    0.000    0.000    0.000    0.000 
#
# Total GULP energy -94676.237735 kJ/mol
# GULP energy per Si atom -5569.190455 kJ/mol
# Density = 2.088594 g / cm^3
# Si number density = 20.933588 Si / 1000 Ang^3
#
#
#
# Elastic Constant Matrix: (Units=GPa)
#
#
# Indices 1 2 3 4 5 6 
#
# 1 55.0105 29.8119 6.4701 0.0000 -8.0845 0.0000
# 2 29.8119 205.9169 21.8056 0.0000 2.5261 0.0000
# 3 6.4701 21.8056 59.0987 0.0000 -6.4446 0.0000
# 4 0.0000 0.0000 0.0000 -20.7738 0.0000 54.2822
# 5 -8.0845 2.5261 -6.4446 0.0000 26.9938 0.0000
# 6 0.0000 0.0000 0.0000 54.2822 0.0000 -52.7332
#
#
#
# Elastic Compliance Matrix: (Units=1/GPa)
#
#
# Indices 1 2 3 4 5 6 
#
# 1 0.020825 -0.003045 -0.000457 0.000000 0.006413 0.000000
# 2 -0.003045 0.005523 -0.001910 0.000000 -0.001885 0.000000
# 3 -0.000457 -0.001910 0.018153 0.000000 0.004376 0.000000
# 4 0.000000 0.000000 0.000000 0.028488 0.000000 0.029324
# 5 0.006413 -0.001885 0.004376 0.000000 0.040187 0.000000
# 6 0.000000 0.000000 0.000000 0.029324 0.000000 0.011222
#
#
# Mechanical properties :
#
#
# Convention : Reuss Voigt Hill
#
# Bulk Modulus (GPa) = 29.69469 48.46681 39.08075
# Shear Modulus (GPa) = 34.14208 8.15992 21.15100
#
# Velocity S-wave (km/s) = 4.04291 1.97648 3.18210
# Velocity P-wave (km/s) = 6.00079 5.33025 5.67543
#
# Compressibility (1/GPa) = 0.03367605
#
# Stress axis : x y z
#
# Youngs Moduli (GPa) = 48.01957 181.07531 55.08829
#
# Poissons Ratio (x) = 0.55141 0.02518
# Poissons Ratio (y) = 0.14623 0.10521
# Poissons Ratio (z) = 0.02194 0.34582
#
# Static dielectric constant tensor:
#      x y z
#    x 1.739790 0.000000 -0.030700 
#    y 0.000000 1.775720 0.000000 
#    z -0.030700 0.000000 1.789000 
# 
# From -- ./inp_files/77886.got.cif
#   From: 2010.05.17/outbox.cif.g08.bks.cpg/sg12_39_cif.got.tgz:77886.got - 2010.06.03 13:09:07.
