data_PCOD9177459
_publ_section_title
;
Structure prediction by ZEFSAII (Michael W. Deem and Ramdas Pophale) SiO2 
 PCOD9177459
Probable space group: C 2/M
;
_chemical_formula_sum "Si O2"
_cell_formula_units_Z 56
_cell_length_a 23.264253
_cell_length_b 21.484478
_cell_length_c 5.464395
_cell_angle_alpha 90.000000
_cell_angle_beta 110.640585
_cell_angle_gamma 90.000000
_cell_volume 2555.899194
_symmetry_space_group_name_H-M "C 2/M"
_symmetry_group_IT_number 12
_symmetry_cell_setting 'monoclinic'
loop_
_space_group_symop_operation_xyz
x,y,z
-x,y,-z
-x,-y,-z
x,-y,z
1/2+x,1/2+y,z
1/2-x,1/2+y,-z
1/2-x,1/2-y,-z
1/2+x,1/2-y,z
loop_
_atom_site_type_symbol
_atom_site_label
_atom_site_fract_x
_atom_site_fract_y
_atom_site_fract_z
Si Si1 0.780822 0.106575 0.833546
Si Si2 0.667221 0.734021 0.615922
Si Si3 0.479419 0.430223 0.718665
Si Si4 0.929176 0.575763 0.874858
Si Si5 0.188845 0.745713 0.146818
Si Si6 0.842937 0.092356 0.428757
Si Si7 0.140787 0.575722 0.730045
O O1 0.801709 0.179043 0.847156
O O2 0.796864 0.080940 0.587146
O O3 0.709444 0.101106 0.789603
O O4 0.816656 0.077246 0.120279
O O5 0.741567 0.720800 0.739060
O O6 0.656427 0.770108 0.350111
O O7 0.640033 0.665817 0.560490
O O8 0.654364 0.769324 0.846281
O O9 0.500000 0.398274 0.500000
O O10 0.508860 0.500000 0.763644
O O11 0.407034 0.436980 0.596291
O O12 0.500000 0.398819 0.000000
O O13 0.930214 0.500000 0.881405
O O14 0.889241 0.594178 0.054242
O O15 0.899750 0.592711 0.568683
O O16 0.000000 0.596957 0.000000
O O17 0.145696 0.500000 0.740381
#
# Coordination Sequence:
#
# PCOD9177459 Si02
#       7
#     8   8   8   8   8   8   8
#     4  10  19  29  44  69  98 122 144 178 231 285
#     4   8  14  25  42  63  85 110 140 174 210 255
#     4  10  21  36  51  67  89 120 161 204 239 276
#     4   9  17  30  46  61  80 112 154 191 214 237
#     4   8  14  25  40  61  90 115 137 168 209 261
#     4  10  19  31  48  68  90 118 151 185 229 283
#     4  10  19  29  42  64  92 117 145 181 219 261
#
# _framework density 21.910095999999999
#
# number of rings (size 3 to 8) (size 9 to 14) (size 15 to 20)
#    0.000    2.714    0.000    2.143    0.000    2.857 
#    0.000    0.000    0.000    0.000    0.000    3.000 
#    0.000    0.000    0.000    0.000    0.000    0.000 
#
# Total GULP energy -156178.379570 kJ/mol
# GULP energy per Si atom -5577.799270 kJ/mol
# Density = 2.186023 g / cm^3
# Si number density = 21.910096 Si / 1000 Ang^3
#
#
#
# Elastic Constant Matrix: (Units=GPa)
#
#
# Indices 1 2 3 4 5 6 
#
# 1 84.5444 -0.7893 51.0822 0.0000 -11.4978 0.0000
# 2 -0.7893 48.5925 6.8775 0.0000 -2.6560 0.0000
# 3 51.0822 6.8775 204.1289 0.0000 -31.3422 0.0000
# 4 0.0000 0.0000 0.0000 -27.3632 0.0000 -11.3326
# 5 -11.4978 -2.6560 -31.3422 0.0000 45.6279 0.0000
# 6 0.0000 0.0000 0.0000 -11.3326 0.0000 29.3777
#
#
#
# Elastic Compliance Matrix: (Units=1/GPa)
#
#
# Indices 1 2 3 4 5 6 
#
# 1 0.014028 0.000771 -0.003339 0.000000 0.001286 0.000000
# 2 0.000771 0.020747 -0.000756 0.000000 0.000882 0.000000
# 3 -0.003339 -0.000756 0.006287 0.000000 0.003433 0.000000
# 4 0.000000 0.000000 0.000000 -0.031511 0.000000 -0.012156
# 5 0.001286 0.000882 0.003433 0.000000 0.024650 0.000000
# 6 0.000000 0.000000 0.000000 -0.012156 0.000000 0.029350
#
#
# Mechanical properties :
#
#
# Convention : Reuss Voigt Hill
#
# Bulk Modulus (GPa) = 29.05907 50.17851 39.61879
# Shear Modulus (GPa) = 61.22130 28.20151 44.71141
#
# Velocity S-wave (km/s) = 5.29176 3.59158 4.52229
# Velocity P-wave (km/s) = 7.11538 6.33648 6.73719
#
# Compressibility (1/GPa) = 0.03441266
#
# Stress axis : x y z
#
# Youngs Moduli (GPa) = 71.28835 48.19948 159.05817
#
# Poissons Ratio (x) = -0.03715 0.53106
# Poissons Ratio (y) = -0.05494 0.12031
# Poissons Ratio (z) = 0.23802 0.03646
#
# Static dielectric constant tensor:
#      x y z
#    x 1.776540 0.000000 -0.067700 
#    y 0.000000 1.879100 0.000000 
#    z -0.067700 0.000000 1.866090 
# 
# From -- ./inp_files/22703.got.cif
#   From: 2010.05.17/outbox.cif.g08.bks.cpg/sg12_12_cif.got.tgz:22703.got - 2010.06.03 13:09:07.
