data_PCOD9177673
_publ_section_title
;
Structure prediction by ZEFSAII (Michael W. Deem and Ramdas Pophale) SiO2 
 PCOD9177673
Probable space group: C 2/M
;
_chemical_formula_sum "Si O2"
_cell_formula_units_Z 48
_cell_length_a 24.709939
_cell_length_b 9.127757
_cell_length_c 15.543317
_cell_angle_alpha 90.000000
_cell_angle_beta 61.972958
_cell_angle_gamma 90.000000
_cell_volume 3094.605729
_symmetry_space_group_name_H-M "C 2/M"
_symmetry_group_IT_number 12
_symmetry_cell_setting 'monoclinic'
loop_
_space_group_symop_operation_xyz
x,y,z
-x,y,-z
-x,-y,-z
x,-y,z
1/2+x,1/2+y,z
1/2-x,1/2+y,-z
1/2-x,1/2-y,-z
1/2+x,1/2-y,z
loop_
_atom_site_type_symbol
_atom_site_label
_atom_site_fract_x
_atom_site_fract_y
_atom_site_fract_z
Si Si1 0.651503 0.825224 0.221744
Si Si2 0.839699 0.174238 0.484811
Si Si3 0.298482 0.826143 0.346319
Si Si4 0.315783 0.675095 0.967629
Si Si5 0.291863 0.674181 0.173784
Si Si6 0.428218 0.824260 0.553498
O O1 0.642468 0.740842 0.138817
O O2 0.720102 0.792773 0.206415
O O3 0.603426 0.786694 0.331799
O O4 0.649353 0.000000 0.207596
O O5 0.773435 0.203378 0.578769
O O6 0.836063 0.247433 0.393777
O O7 0.891673 0.243619 0.505480
O O8 0.846885 0.000000 0.472166
O O9 0.311705 0.762566 0.242434
O O10 0.307905 0.000000 0.342588
O O11 0.310446 0.500000 0.962777
O O12 0.250000 0.750000 0.000000
O O13 0.328953 0.706262 0.058128
O O14 0.295476 0.500000 0.188051
O O15 0.500000 0.789018 0.500000
O O16 0.421306 0.000000 0.547345
#
# Coordination Sequence:
#
# PCOD9177673 Si02
#       6
#     8   8   8   8   8   8
#     4   9  17  29  44  64  92 124 156 193 232 273
#     4  10  20  32  46  67  94 124 157 195 235 277
#     4  10  19  29  46  69  93 124 156 189 233 283
#     4   9  17  27  41  63  91 123 154 187 230 279
#     4   9  16  27  43  65  93 123 152 187 230 278
#     4  10  20  34  51  69  93 127 164 199 234 274
#
# _framework density 15.510861999999999
#
# number of rings (size 3 to 8) (size 9 to 14) (size 15 to 20)
#    0.000    2.500    1.667    2.500    0.000    5.667 
#    0.000    0.000    0.000    0.000    0.000    1.167 
#    0.000    9.333    0.000    0.000    0.000    0.000 
#
# Total GULP energy -133742.972781 kJ/mol
# GULP energy per Si atom -5572.623866 kJ/mol
# Density = 1.547556 g / cm^3
# Si number density = 15.510862 Si / 1000 Ang^3
#
#
#
# Elastic Constant Matrix: (Units=GPa)
#
#
# Indices 1 2 3 4 5 6 
#
# 1 73.7658 47.6858 64.9076 0.0000 13.9873 0.0000
# 2 47.6858 51.1598 63.0578 0.0000 19.7318 0.0000
# 3 64.9076 63.0578 142.2551 0.0000 31.0164 0.0000
# 4 0.0000 0.0000 0.0000 30.1610 0.0000 9.1042
# 5 13.9873 19.7318 31.0164 0.0000 23.8323 0.0000
# 6 0.0000 0.0000 0.0000 9.1042 0.0000 20.4434
#
#
#
# Elastic Compliance Matrix: (Units=1/GPa)
#
#
# Indices 1 2 3 4 5 6 
#
# 1 0.036902 -0.033163 -0.004749 0.000000 0.011980 0.000000
# 2 -0.033163 0.077172 -0.013109 0.000000 -0.027369 0.000000
# 3 -0.004749 -0.013109 0.016801 0.000000 -0.008224 0.000000
# 4 0.000000 0.000000 0.000000 0.038305 0.000000 -0.017058
# 5 0.011980 -0.027369 -0.008224 0.000000 0.068292 0.000000
# 6 0.000000 0.000000 0.000000 -0.017058 0.000000 0.056512
#
#
# Mechanical properties :
#
#
# Convention : Reuss Voigt Hill
#
# Bulk Modulus (GPa) = 34.68428 68.72033 51.70230
# Shear Modulus (GPa) = 12.32632 20.98932 16.65782
#
# Velocity S-wave (km/s) = 2.82208 3.68258 3.28067
# Velocity P-wave (km/s) = 5.74706 7.90460 6.91055
#
# Compressibility (1/GPa) = 0.02883151
#
# Stress axis : x y z
#
# Youngs Moduli (GPa) = 27.09899 12.95815 59.52132
#
# Poissons Ratio (x) = 0.42973 0.28269
# Poissons Ratio (y) = 0.89868 0.78028
# Poissons Ratio (z) = 0.12870 0.16987
#
# Static dielectric constant tensor:
#      x y z
#    x 1.480570 0.000000 0.003950 
#    y 0.000000 1.513030 0.000000 
#    z 0.003950 0.000000 1.542580 
# 
# From -- ./inp_files/229967.got.cif
#   From: 2010.05.17/outbox.cif.g08.bks.cpg/sg12_115_cif.got.tgz:229967.got - 2010.06.03 13:09:07.
