data_PCOD9177670
_publ_section_title
;
Structure prediction by ZEFSAII (Michael W. Deem and Ramdas Pophale) SiO2 
 PCOD9177670
Probable space group: C 2/M
;
_chemical_formula_sum "Si O2"
_cell_formula_units_Z 36
_cell_length_a 15.450322
_cell_length_b 18.267654
_cell_length_c 5.682274
_cell_angle_alpha 90.000000
_cell_angle_beta 68.954354
_cell_angle_gamma 90.000000
_cell_volume 1496.791299
_symmetry_space_group_name_H-M "C 2/M"
_symmetry_group_IT_number 12
_symmetry_cell_setting 'monoclinic'
loop_
_space_group_symop_operation_xyz
x,y,z
-x,y,-z
-x,-y,-z
x,-y,z
1/2+x,1/2+y,z
1/2-x,1/2+y,-z
1/2-x,1/2-y,-z
1/2+x,1/2-y,z
loop_
_atom_site_type_symbol
_atom_site_label
_atom_site_fract_x
_atom_site_fract_y
_atom_site_fract_z
Si Si1 0.842890 0.648297 0.829853
Si Si2 0.134117 0.910063 0.998391
Si Si3 0.186037 0.683148 0.640471
Si Si4 0.448325 0.000000 0.800988
Si Si5 0.134905 0.912376 0.497912
O O1 0.875883 0.671126 0.533860
O O2 0.889229 0.572850 0.853065
O O3 0.734233 0.629363 0.902645
O O4 0.854181 0.696399 0.057421
O O5 0.093060 0.888709 0.290285
O O6 0.143254 0.000000 0.989232
O O7 0.091863 0.889512 0.788278
O O8 0.250000 0.750000 0.500000
O O9 0.257810 0.615018 0.601795
O O10 0.500000 0.000000 0.500000
O O11 0.500000 0.000000 0.000000
O O12 0.133270 0.000000 0.498284
#
# Coordination Sequence:
#
# PCOD9177670 Si02
#       5
#     8   8   8   4   8
#     4  10  19  32  47  62  95 124 159 220 262 284
#     4   8  12  21  35  52  68  99 139 170 229 264
#     4  10  19  29  46  68  91 121 168 206 255 319
#     4  12  24  36  52  76  98 134 192 236 264 290
#     4   8  14  21  35  53  76 104 141 183 211 274
#
# _framework density 24.051451
#
# number of rings (size 3 to 8) (size 9 to 14) (size 15 to 20)
#    0.000    2.667    1.111    2.000    3.111    0.000 
#    0.000    0.000    0.000    0.000    0.000    0.000 
#    0.000    0.000    0.000    0.000    0.000   22.222 
#
# Total GULP energy -100287.855169 kJ/mol
# GULP energy per Si atom -5571.547509 kJ/mol
# Density = 2.399671 g / cm^3
# Si number density = 24.051451 Si / 1000 Ang^3
#
#
#
# Elastic Constant Matrix: (Units=GPa)
#
#
# Indices 1 2 3 4 5 6 
#
# 1 52.2912 15.8891 65.8747 0.0000 34.6798 0.0000
# 2 15.8891 40.6327 4.4432 0.0000 13.8448 0.0000
# 3 65.8747 4.4432 259.1241 0.0000 81.9571 0.0000
# 4 0.0000 0.0000 0.0000 -61.0871 0.0000 103.8099
# 5 34.6798 13.8448 81.9571 0.0000 60.4730 0.0000
# 6 0.0000 0.0000 0.0000 103.8099 0.0000 -101.0516
#
#
#
# Elastic Compliance Matrix: (Units=1/GPa)
#
#
# Indices 1 2 3 4 5 6 
#
# 1 0.036565 -0.009907 -0.005620 0.000000 -0.011085 0.000000
# 2 -0.009907 0.030402 0.004204 0.000000 -0.006976 0.000000
# 3 -0.005620 0.004204 0.007878 0.000000 -0.008416 0.000000
# 4 0.000000 0.000000 0.000000 0.021951 0.000000 0.022550
# 5 -0.011085 -0.006976 -0.008416 0.000000 0.035896 0.000000
# 6 0.000000 0.000000 0.000000 0.022550 0.000000 0.013270
#
#
# Mechanical properties :
#
#
# Convention : Reuss Voigt Hill
#
# Bulk Modulus (GPa) = 19.15772 58.27355 38.71564
# Shear Modulus (GPa) = 26.88077 -2.61040 12.13518
#
# Velocity S-wave (km/s) = 3.34673 -1.04293 2.24866
# Velocity P-wave (km/s) = 4.78715 4.77818 4.78267
#
# Compressibility (1/GPa) = 0.05219828
#
# Stress axis : x y z
#
# Youngs Moduli (GPa) = 27.34843 32.89252 126.94363
#
# Poissons Ratio (x) = 0.32587 0.71340
# Poissons Ratio (y) = 0.27094 -0.53363
# Poissons Ratio (z) = 0.15369 -0.13827
#
# Static dielectric constant tensor:
#      x y z
#    x 1.995960 0.000000 -0.027890 
#    y 0.000000 1.867070 0.000000 
#    z -0.027890 0.000000 2.199980 
# 
# From -- ./inp_files/14986.got.cif
#   From: 2010.05.17/outbox.cif.g08.bks.cpg/sg12_8_cif.got.tgz:14986.got - 2010.06.03 13:09:07.
