data_PCOD9177972
_publ_section_title
;
Structure prediction by ZEFSAII (Michael W. Deem and Ramdas Pophale) SiO2 
 PCOD9177972
Probable space group: C 2/M
;
_chemical_formula_sum "Si O2"
_cell_formula_units_Z 56
_cell_length_a 28.446140
_cell_length_b 8.901902
_cell_length_c 18.755140
_cell_angle_alpha 90.000000
_cell_angle_beta 130.949513
_cell_angle_gamma 90.000000
_cell_volume 3587.060423
_symmetry_space_group_name_H-M "C 2/M"
_symmetry_group_IT_number 12
_symmetry_cell_setting 'monoclinic'
loop_
_space_group_symop_operation_xyz
x,y,z
-x,y,-z
-x,-y,-z
x,-y,z
1/2+x,1/2+y,z
1/2-x,1/2+y,-z
1/2-x,1/2-y,-z
1/2+x,1/2-y,z
loop_
_atom_site_type_symbol
_atom_site_label
_atom_site_fract_x
_atom_site_fract_y
_atom_site_fract_z
Si Si1 0.068689 0.672638 0.604460
Si Si2 0.377967 0.818070 0.780855
Si Si3 0.500480 0.678535 0.172209
Si Si4 0.935481 0.672544 0.980996
Si Si5 0.500880 0.181021 0.674984
Si Si6 0.380618 0.320689 0.479317
Si Si7 0.249277 0.819131 0.577687
O O1 0.090625 0.500000 0.626374
O O2 0.110528 0.771076 0.593878
O O3 0.000000 0.672700 0.500000
O O4 0.054317 0.723372 0.670624
O O5 0.433850 0.742614 0.792305
O O6 0.385701 0.778110 0.872124
O O7 0.311642 0.776335 0.682262
O O8 0.385779 0.000000 0.784302
O O9 0.504021 0.500000 0.181567
O O10 0.488245 0.752445 0.236470
O O11 0.448767 0.727333 0.062805
O O12 0.923451 0.500000 0.990669
O O13 0.000000 0.672498 0.000000
O O14 0.435502 0.243164 0.579396
O O15 0.497855 0.000000 0.673765
O O16 0.387474 0.500000 0.491982
O O17 0.313693 0.275749 0.443791
O O18 0.250000 0.750000 0.500000
O O19 0.249387 0.000000 0.571850
#
# Coordination Sequence:
#
# PCOD9177972 Si02
#       7
#     8   8   8   8   8   8   8
#     4   8  16  30  46  63  84 115 151 181 214 263
#     4   9  18  33  48  61  86 124 158 181 208 258
#     4  11  20  28  43  69  95 114 140 184 233 267
#     4   8  15  29  47  63  82 115 152 180 214 264
#     4  10  19  31  46  64  89 120 152 181 214 264
#     4  10  19  30  45  67  93 117 146 185 226 260
#     4  10  21  33  45  65  91 121 154 184 213 250
#
# _framework density 15.611668999999999
#
# number of rings (size 3 to 8) (size 9 to 14) (size 15 to 20)
#    0.000    2.571    0.000    4.714    0.000    9.714 
#    0.000    0.000    0.000    0.000    0.000    1.000 
#    0.000    0.000    0.000    0.000    0.000    0.000 
#
# Total GULP energy -156042.508611 kJ/mol
# GULP energy per Si atom -5572.946736 kJ/mol
# Density = 1.557614 g / cm^3
# Si number density = 15.611669 Si / 1000 Ang^3
#
#
#
# Elastic Constant Matrix: (Units=GPa)
#
#
# Indices 1 2 3 4 5 6 
#
# 1 102.0612 43.3741 63.9389 0.0000 -20.4192 0.0000
# 2 43.3741 52.4191 41.6352 0.0000 -13.1123 0.0000
# 3 63.9389 41.6352 124.5085 0.0000 -16.9669 0.0000
# 4 0.0000 0.0000 0.0000 19.3203 0.0000 -5.2962
# 5 -20.4192 -13.1123 -16.9669 0.0000 25.7559 0.0000
# 6 0.0000 0.0000 0.0000 -5.2962 0.0000 21.6777
#
#
#
# Elastic Compliance Matrix: (Units=1/GPa)
#
#
# Indices 1 2 3 4 5 6 
#
# 1 0.018472 -0.009344 -0.005509 0.000000 0.006259 0.000000
# 2 -0.009344 0.032400 -0.005271 0.000000 0.005615 0.000000
# 3 -0.005509 -0.005271 0.012812 0.000000 0.001390 0.000000
# 4 0.000000 0.000000 0.000000 0.055474 0.000000 0.013553
# 5 0.006259 0.005615 0.001390 0.000000 0.047562 0.000000
# 6 0.000000 0.000000 0.000000 0.013553 0.000000 0.049442
#
#
# Mechanical properties :
#
#
# Convention : Reuss Voigt Hill
#
# Bulk Modulus (GPa) = 42.66664 64.09836 53.38250
# Shear Modulus (GPa) = 18.92355 22.02014 20.47184
#
# Velocity S-wave (km/s) = 3.48536 3.75973 3.62514
# Velocity P-wave (km/s) = 6.60199 7.74561 7.19655
#
# Compressibility (1/GPa) = 0.02343751
#
# Stress axis : x y z
#
# Youngs Moduli (GPa) = 54.13536 30.86465 78.04992
#
# Poissons Ratio (x) = 0.28840 0.42994
# Poissons Ratio (y) = 0.50583 0.41139
# Poissons Ratio (z) = 0.29821 0.16268
#
# Static dielectric constant tensor:
#      x y z
#    x 1.510390 0.000000 -0.012190 
#    y 0.000000 1.522360 0.000000 
#    z -0.012190 0.000000 1.532570 
# 
# From -- ./inp_files/287886.got.cif
#   From: 2010.05.17/outbox.cif.g08.bks.cpg/sg12_144_cif.got.tgz:287886.got - 2010.06.03 13:09:07.
