data_PCOD9177033
_publ_section_title
;
Structure prediction by ZEFSAII (Michael W. Deem and Ramdas Pophale) SiO2 
 PCOD9177033
Probable space group: C 2/M
;
_chemical_formula_sum "Si O2"
_cell_formula_units_Z 64
_cell_length_a 33.493103
_cell_length_b 19.811432
_cell_length_c 16.324795
_cell_angle_alpha 90.000000
_cell_angle_beta 16.888323
_cell_angle_gamma 90.000000
_cell_volume 3146.848757
_symmetry_space_group_name_H-M "C 2/M"
_symmetry_group_IT_number 12
_symmetry_cell_setting 'monoclinic'
loop_
_space_group_symop_operation_xyz
x,y,z
-x,y,-z
-x,-y,-z
x,-y,z
1/2+x,1/2+y,z
1/2-x,1/2+y,-z
1/2-x,1/2-y,-z
1/2+x,1/2-y,z
loop_
_atom_site_type_symbol
_atom_site_label
_atom_site_fract_x
_atom_site_fract_y
_atom_site_fract_z
Si Si1 0.337467 0.577129 0.809723
Si Si2 0.309573 0.813775 0.332588
Si Si3 0.039856 0.575690 0.651538
Si Si4 0.034390 0.782737 0.245517
Si Si5 0.412160 0.151313 0.286807
Si Si6 0.337486 0.427006 0.996247
Si Si7 0.268773 0.735709 0.671066
Si Si8 0.911231 0.662673 0.756816
O O1 0.500000 0.593017 0.500000
O O2 0.326794 0.500000 0.796858
O O3 0.284699 0.574177 0.006561
O O4 0.241040 0.631516 0.955218
O O5 0.250000 0.750000 0.500000
O O6 0.331358 0.868858 0.361964
O O7 0.224588 0.819734 0.414912
O O8 0.461454 0.804212 0.996015
O O9 0.988460 0.500000 0.738021
O O10 0.022356 0.597353 0.780253
O O11 0.203655 0.576227 0.314956
O O12 0.976087 0.624927 0.708656
O O13 0.071699 0.861086 0.172758
O O14 0.123083 0.747763 0.999206
O O15 0.078166 0.741784 0.240607
O O16 0.876288 0.775248 0.532478
O O17 0.314039 0.196397 0.535620
O O18 0.407423 0.500000 0.871095
O O19 0.000000 0.650282 0.500000
#
# Coordination Sequence:
#
# PCOD9177033 Si02
#       8
#     8   8   8   8   8   8   8   8
#     4  10  23  42  61  86 122 167 217 262 316 386
#     4   9  19  33  61  87 128 164 198 252 309 386
#     4  11  21  39  66  93 126 170 215 266 320 384
#     4  12  24  38  64  93 130 161 210 275 321 375
#     4  10  18  37  58  92 124 157 211 254 306 381
#     4  10  22  41  62  84 118 170 216 256 322 392
#     4  11  20  38  59  93 127 158 203 258 322 374
#     4  12  24  40  62  95 127 167 219 275 327 377
#
# _framework density 20.337806
#
# number of rings (size 3 to 8) (size 9 to 14) (size 15 to 20)
#    0.000    1.375    5.000    0.375    1.750    1.500 
#    0.000    1.250    0.000    0.750    0.000    1.750 
#    0.000    0.000    0.000    0.000    0.000    0.000 
#
# Total GULP energy -178251.448602 kJ/mol
# GULP energy per Si atom -5570.357769 kJ/mol
# Density = 2.029152 g / cm^3
# Si number density = 20.337806 Si / 1000 Ang^3
#
#
#
# Elastic Constant Matrix: (Units=GPa)
#
#
# Indices 1 2 3 4 5 6 
#
# 1 98.4602 44.1789 20.6176 0.0000 1.1518 -0.0001
# 2 44.1789 97.7300 19.5762 0.0001 -5.8148 -0.0002
# 3 20.6176 19.5762 59.1603 0.0002 5.8307 -0.0004
# 4 0.0000 0.0001 0.0002 6.9176 0.0000 -2.1388
# 5 1.1518 -5.8148 5.8307 0.0000 32.3469 0.0003
# 6 -0.0001 -0.0002 -0.0004 -2.1388 0.0003 21.6595
#
#
#
# Elastic Compliance Matrix: (Units=1/GPa)
#
#
# Indices 1 2 3 4 5 6 
#
# 1 0.013190 -0.005482 -0.002687 0.000000 -0.000971 0.000000
# 2 -0.005482 0.013469 -0.002855 0.000000 0.003131 0.000000
# 3 -0.002687 -0.002855 0.019166 0.000000 -0.003872 0.000000
# 4 0.000000 0.000000 0.000000 0.149111 0.000000 0.014725
# 5 -0.000971 0.003131 -0.003872 0.000000 0.032210 0.000000
# 6 0.000000 0.000000 0.000000 0.014725 0.000000 0.047623
#
#
# Mechanical properties :
#
#
# Convention : Reuss Voigt Hill
#
# Bulk Modulus (GPa) = 42.05800 47.12177 44.58989
# Shear Modulus (GPa) = 16.40727 23.58332 19.99529
#
# Velocity S-wave (km/s) = 2.84339 3.40896 3.13894
# Velocity P-wave (km/s) = 5.61288 6.22210 5.92532
#
# Compressibility (1/GPa) = 0.02377669
#
# Stress axis : x y z
#
# Youngs Moduli (GPa) = 75.81341 74.24658 52.17575
#
# Poissons Ratio (x) = 0.40703 0.14020
# Poissons Ratio (y) = 0.41562 0.14895
# Poissons Ratio (z) = 0.20372 0.21196
#
# Static dielectric constant tensor:
#      x y z
#    x 1.800350 0.000000 -0.003690 
#    y 0.000000 1.762940 0.000000 
#    z -0.003690 0.000000 1.733410 
# 
# From -- ./inp_files/251886.got.cif
#   From: 2010.05.17/outbox.cif.g08.bks.cpg/sg12_126_cif.got.tgz:251886.got - 2010.06.03 13:09:07.
