data_PCOD9177388
_publ_section_title
;
Structure prediction by ZEFSAII (Michael W. Deem and Ramdas Pophale) SiO2 
 PCOD9177388
Probable space group: C 2/M
;
_chemical_formula_sum "Si O2"
_cell_formula_units_Z 64
_cell_length_a 14.235653
_cell_length_b 21.883032
_cell_length_c 14.615835
_cell_angle_alpha 90.000000
_cell_angle_beta 137.290758
_cell_angle_gamma 90.000000
_cell_volume 3088.277965
_symmetry_space_group_name_H-M "C 2/M"
_symmetry_group_IT_number 12
_symmetry_cell_setting 'monoclinic'
loop_
_space_group_symop_operation_xyz
x,y,z
-x,y,-z
-x,-y,-z
x,-y,z
1/2+x,1/2+y,z
1/2-x,1/2+y,-z
1/2-x,1/2-y,-z
1/2+x,1/2-y,z
loop_
_atom_site_type_symbol
_atom_site_label
_atom_site_fract_x
_atom_site_fract_y
_atom_site_fract_z
Si Si1 0.581039 0.841427 0.437237
Si Si2 0.852666 0.189371 0.720708
Si Si3 0.494844 0.297300 0.622238
Si Si4 0.275380 0.171687 0.659166
Si Si5 0.864202 0.570275 0.198228
Si Si6 0.227050 0.301391 0.099654
Si Si7 0.997303 0.403486 0.095933
Si Si8 0.137075 0.170131 0.000478
O O1 0.706069 0.845055 0.600451
O O2 0.507630 0.775659 0.397902
O O3 0.654414 0.835435 0.391118
O O4 0.472024 0.895673 0.343639
O O5 0.924158 0.192747 0.671277
O O6 0.820451 0.259982 0.720427
O O7 0.971644 0.162371 0.871555
O O8 0.386932 0.328380 0.476995
O O9 0.652865 0.318290 0.742718
O O10 0.349610 0.119073 0.769118
O O11 0.839576 0.500000 0.205756
O O12 0.929443 0.570814 0.140890
O O13 0.726355 0.612142 0.095583
O O14 0.305288 0.311320 0.059083
O O15 0.095672 0.344097 0.993873
O O16 0.178769 0.232277 0.081782
O O17 0.000000 0.436916 0.000000
#
# Coordination Sequence:
#
# PCOD9177388 Si02
#       8
#     8   8   8   8   8   8   8   8
#     4   8  13  22  37  58  79 101 128 162 208 257
#     4   8  12  20  38  61  80  96 119 159 218 273
#     4   8  12  20  38  61  80  95 119 161 217 271
#     4   8  13  22  37  58  80 101 128 162 206 258
#     4  10  19  29  40  56  82 116 151 179 199 233
#     4   9  14  23  40  61  80 101 128 168 221 263
#     4  10  19  29  40  56  82 117 151 176 202 237
#     4   9  14  23  40  61  81 100 128 169 221 261
#
# _framework density 20.723523
#
# number of rings (size 3 to 8) (size 9 to 14) (size 15 to 20)
#    0.000    3.250    2.500    1.500    0.000    0.250 
#    0.000    1.250    0.000    0.000    0.000    0.000 
#    0.000   10.500    0.000    4.750    0.000    0.500 
#
# Total GULP energy -178432.941680 kJ/mol
# GULP energy per Si atom -5576.029428 kJ/mol
# Density = 2.067635 g / cm^3
# Si number density = 20.723523 Si / 1000 Ang^3
#
#
#
# Elastic Constant Matrix: (Units=GPa)
#
#
# Indices 1 2 3 4 5 6 
#
# 1 61.7158 2.0684 12.7535 0.0000 0.5209 0.0000
# 2 2.0684 110.1323 64.7827 0.0000 19.4086 0.0000
# 3 12.7535 64.7827 170.1287 0.0000 23.2661 0.0000
# 4 0.0000 0.0000 0.0000 6.4604 0.0000 0.4087
# 5 0.5209 19.4086 23.2661 0.0000 33.4008 0.0000
# 6 0.0000 0.0000 0.0000 0.4087 0.0000 -0.4070
#
#
#
# Elastic Compliance Matrix: (Units=1/GPa)
#
#
# Indices 1 2 3 4 5 6 
#
# 1 0.016490 0.000476 -0.001486 0.000000 0.000501 0.000000
# 2 0.000476 0.012241 -0.004115 0.000000 -0.004254 0.000000
# 3 -0.001486 -0.004115 0.007987 0.000000 -0.003149 0.000000
# 4 0.000000 0.000000 0.000000 0.145545 0.000000 0.146140
# 5 0.000501 -0.004254 -0.003149 0.000000 0.034597 0.000000
# 6 0.000000 0.000000 0.000000 0.146140 0.000000 -2.310037
#
#
# Mechanical properties :
#
#
# Convention : Reuss Voigt Hill
#
# Bulk Modulus (GPa) = 37.78120 55.68734 46.73427
# Shear Modulus (GPa) = -2.41068 25.38230 11.48581
#
# Velocity S-wave (km/s) = -1.07971 3.50352 2.35678
# Velocity P-wave (km/s) = 4.08855 6.57998 5.47779
#
# Compressibility (1/GPa) = 0.02646819
#
# Stress axis : x y z
#
# Youngs Moduli (GPa) = 60.64205 81.68942 125.20349
#
# Poissons Ratio (x) = -0.03889 0.18605
# Poissons Ratio (y) = -0.02887 0.51525
# Poissons Ratio (z) = 0.09011 0.33618
#
# Static dielectric constant tensor:
#      x y z
#    x 1.893800 0.000000 -0.058250 
#    y 0.000000 1.664390 0.000000 
#    z -0.058250 0.000000 1.780170 
# 
# From -- ./inp_files/322881.got.cif
#   From: 2010.05.17/outbox.cif.g08.bks.cpg/sg12_162_cif.got.tgz:322881.got - 2010.06.03 13:09:07.
