data_PCOD9177392
_publ_section_title
;
Structure prediction by ZEFSAII (Michael W. Deem and Ramdas Pophale) SiO2 
 PCOD9177392
Probable space group: C 2/M
;
_chemical_formula_sum "Si O2"
_cell_formula_units_Z 64
_cell_length_a 28.959205
_cell_length_b 7.597379
_cell_length_c 15.714933
_cell_angle_alpha 90.000000
_cell_angle_beta 92.351785
_cell_angle_gamma 90.000000
_cell_volume 3454.593943
_symmetry_space_group_name_H-M "C 2/M"
_symmetry_group_IT_number 12
_symmetry_cell_setting 'monoclinic'
loop_
_space_group_symop_operation_xyz
x,y,z
-x,y,-z
-x,-y,-z
x,-y,z
1/2+x,1/2+y,z
1/2-x,1/2+y,-z
1/2-x,1/2-y,-z
1/2+x,1/2-y,z
loop_
_atom_site_type_symbol
_atom_site_label
_atom_site_fract_x
_atom_site_fract_y
_atom_site_fract_z
Si Si1 0.733454 0.701866 0.592189
Si Si2 0.232726 0.795679 0.863048
Si Si3 0.613073 0.716089 0.148856
Si Si4 0.843682 0.785247 0.024878
Si Si5 0.157024 0.794041 0.704666
Si Si6 0.583541 0.715246 0.823485
Si Si7 0.806568 0.200006 0.738453
Si Si8 0.509792 0.284874 0.098610
O O1 0.720961 0.500000 0.585662
O O2 0.750000 0.750000 0.500000
O O3 0.687485 0.788157 0.630792
O O4 0.775228 0.716380 0.663120
O O5 0.205828 0.723726 0.943268
O O6 0.192829 0.791993 0.786984
O O7 0.275833 0.702012 0.822775
O O8 0.245350 0.000000 0.876275
O O9 0.613640 0.500000 0.150071
O O10 0.643848 0.775721 0.231123
O O11 0.560043 0.771042 0.135431
O O12 0.639821 0.772750 0.065671
O O13 0.883528 0.735923 0.094857
O O14 0.841376 0.000000 0.025056
O O15 0.109439 0.720536 0.740083
O O16 0.147481 0.000000 0.685215
O O17 0.583432 0.500000 0.820703
O O18 0.532049 0.771583 0.843445
O O19 0.813171 0.000000 0.711218
O O20 0.509967 0.500000 0.097149
O O21 0.500000 0.230563 0.000000
#
# Coordination Sequence:
#
# PCOD9177392 Si02
#       8
#     8   8   8   8   8   8   8   8
#     4  10  19  33  52  71  89 108 135 169 212 266
#     4   8  14  25  40  55  77 113 154 186 212 248
#     4   9  16  23  32  53  86 120 151 185 222 254
#     4   8  12  20  34  52  76 111 152 190 223 249
#     4   7  12  22  37  59  83 106 132 168 212 256
#     4   8  11  17  32  53  80 113 147 179 214 252
#     4  10  19  29  40  59  91 121 142 172 215 259
#     4   9  13  18  31  53  82 118 156 189 217 248
#
# _framework density 18.526056000000001
#
# number of rings (size 3 to 8) (size 9 to 14) (size 15 to 20)
#    0.000    3.375    1.250    3.000    0.000    0.500 
#    0.000    0.000    0.000    0.750    0.000    0.875 
#    0.000   29.000    0.000    1.125    0.000    0.000 
#
# Total GULP energy -178164.411689 kJ/mol
# GULP energy per Si atom -5567.637865 kJ/mol
# Density = 1.848389 g / cm^3
# Si number density = 18.526056 Si / 1000 Ang^3
#
#
#
# Elastic Constant Matrix: (Units=GPa)
#
#
# Indices 1 2 3 4 5 6 
#
# 1 128.1012 0.9962 75.5377 0.0000 -16.5078 0.0000
# 2 0.9962 36.1837 3.8574 0.0000 -5.8826 0.0000
# 3 75.5377 3.8574 89.6045 0.0000 -30.4671 0.0000
# 4 0.0000 0.0000 0.0000 5.2391 0.0000 -1.1192
# 5 -16.5078 -5.8826 -30.4671 0.0000 20.0021 0.0000
# 6 0.0000 0.0000 0.0000 -1.1192 0.0000 7.0680
#
#
#
# Elastic Compliance Matrix: (Units=1/GPa)
#
#
# Indices 1 2 3 4 5 6 
#
# 1 0.017999 -0.001114 -0.021129 0.000000 -0.017656 0.000000
# 2 -0.001114 0.029610 0.004797 0.000000 0.015096 0.000000
# 3 -0.021129 0.004797 0.048365 0.000000 0.057642 0.000000
# 4 0.000000 0.000000 0.000000 0.197554 0.000000 0.031283
# 5 -0.017656 0.015096 0.057642 0.000000 0.127663 0.000000
# 6 0.000000 0.000000 0.000000 0.031283 0.000000 0.146436
#
#
# Mechanical properties :
#
#
# Convention : Reuss Voigt Hill
#
# Bulk Modulus (GPa) = 16.37105 46.07469 31.22287
# Shear Modulus (GPa) = 8.02726 18.02839 13.02782
#
# Velocity S-wave (km/s) = 2.08383 3.12290 2.65470
# Velocity P-wave (km/s) = 3.82698 6.15853 5.12705
#
# Compressibility (1/GPa) = 0.06108346
#
# Stress axis : x y z
#
# Youngs Moduli (GPa) = 55.55965 33.77207 20.67620
#
# Poissons Ratio (x) = 0.03761 0.43686
# Poissons Ratio (y) = 0.06187 -0.09918
# Poissons Ratio (z) = 1.17390 -0.16201
#
# Static dielectric constant tensor:
#      x y z
#    x 1.700490 0.000000 -0.064930 
#    y 0.000000 2.829360 0.000000 
#    z -0.064930 0.000000 1.693120 
# 
# From -- ./inp_files/291593.got.cif
#   From: 2010.05.17/outbox.cif.g08.bks.cpg/sg12_146_cif.got.tgz:291593.got - 2010.06.03 13:09:07.
