data_PCOD9177760
_publ_section_title
;
Structure prediction by ZEFSAII (Michael W. Deem and Ramdas Pophale) SiO2 
 PCOD9177760
Probable space group: C 2/M
;
_chemical_formula_sum "Si O2"
_cell_formula_units_Z 64
_cell_length_a 33.736001
_cell_length_b 9.381337
_cell_length_c 10.799598
_cell_angle_alpha 90.000000
_cell_angle_beta 87.325414
_cell_angle_gamma 90.000000
_cell_volume 3414.228478
_symmetry_space_group_name_H-M "C 2/M"
_symmetry_group_IT_number 12
_symmetry_cell_setting 'monoclinic'
loop_
_space_group_symop_operation_xyz
x,y,z
-x,y,-z
-x,-y,-z
x,-y,z
1/2+x,1/2+y,z
1/2-x,1/2+y,-z
1/2-x,1/2-y,-z
1/2+x,1/2-y,z
loop_
_atom_site_type_symbol
_atom_site_label
_atom_site_fract_x
_atom_site_fract_y
_atom_site_fract_z
Si Si1 0.489062 0.164407 0.317014
Si Si2 0.871462 0.836548 0.211118
Si Si3 0.702791 0.831138 0.377686
Si Si4 0.794045 0.169313 0.363040
Si Si5 0.946667 0.832589 0.831228
Si Si6 0.563366 0.836314 0.926735
Si Si7 0.423346 0.663957 0.455861
Si Si8 0.130707 0.832374 0.301576
O O1 0.527265 0.258026 0.278711
O O2 0.463616 0.168011 0.192372
O O3 0.460502 0.234916 0.423110
O O4 0.498482 0.000000 0.342700
O O5 0.826772 0.796696 0.255018
O O6 0.894434 0.730565 0.117922
O O7 0.896210 0.835473 0.336347
O O8 0.872624 0.000000 0.163818
O O9 0.748463 0.806236 0.331707
O O10 0.698400 0.757810 0.513173
O O11 0.670176 0.760183 0.294757
O O12 0.696556 0.000000 0.388672
O O13 0.798676 0.000000 0.390623
O O14 0.900302 0.814433 0.804956
O O15 0.955872 0.000000 0.833524
O O16 0.954189 0.757438 0.960447
O O17 0.566367 0.000000 0.966688
O O18 0.436425 0.500000 0.475591
O O19 0.394941 0.706424 0.572543
O O20 0.140803 0.000000 0.310557
#
# Coordination Sequence:
#
# PCOD9177760 Si02
#       8
#     8   8   8   8   8   8   8   8
#     4  10  21  36  54  77 105 131 162 216 270 306
#     4   9  16  30  54  77 102 136 171 208 251 301
#     4  10  19  29  49  79 109 140 172 208 253 305
#     4   9  17  31  50  77 110 140 171 209 252 301
#     4  11  23  37  55  75  97 136 182 214 252 310
#     4  10  21  36  54  77 105 131 165 218 269 304
#     4   9  17  32  53  74 100 137 172 205 251 305
#     4  10  21  37  53  72 105 142 175 213 253 304
#
# _framework density 18.745083000000001
#
# number of rings (size 3 to 8) (size 9 to 14) (size 15 to 20)
#    0.000    2.250    1.250    1.875    0.000    6.000 
#    0.000    2.500    0.000    0.750    0.000    0.000 
#    0.000    0.000    0.000    0.000    0.000    0.000 
#
# Total GULP energy -178679.973403 kJ/mol
# GULP energy per Si atom -5583.749169 kJ/mol
# Density = 1.870242 g / cm^3
# Si number density = 18.745083 Si / 1000 Ang^3
#
#
#
# Elastic Constant Matrix: (Units=GPa)
#
#
# Indices 1 2 3 4 5 6 
#
# 1 106.2822 61.2013 8.9027 0.0000 -9.3647 0.0000
# 2 61.2013 89.8031 19.2470 0.0000 -2.7977 0.0000
# 3 8.9027 19.2470 36.1990 0.0000 -2.8839 0.0000
# 4 0.0000 0.0000 0.0000 17.7722 0.0000 -1.9162
# 5 -9.3647 -2.7977 -2.8839 0.0000 16.5152 0.0000
# 6 0.0000 0.0000 0.0000 -1.9162 0.0000 30.0225
#
#
#
# Elastic Compliance Matrix: (Units=1/GPa)
#
#
# Indices 1 2 3 4 5 6 
#
# 1 0.016579 -0.011640 0.002741 0.000000 0.007908 0.000000
# 2 -0.011640 0.020755 -0.008537 0.000000 -0.004575 0.000000
# 3 0.002741 -0.008537 0.031943 0.000000 0.005686 0.000000
# 4 0.000000 0.000000 0.000000 0.056658 0.000000 0.003616
# 5 0.007908 -0.004575 0.005686 0.000000 0.065252 0.000000
# 6 0.000000 0.000000 0.000000 0.003616 0.000000 0.033539
#
#
# Mechanical properties :
#
#
# Convention : Reuss Voigt Hill
#
# Bulk Modulus (GPa) = 29.06482 45.66514 37.36498
# Shear Modulus (GPa) = 18.44576 22.39086 20.41831
#
# Velocity S-wave (km/s) = 3.14033 3.45989 3.30398
# Velocity P-wave (km/s) = 5.35611 6.35415 5.87635
#
# Compressibility (1/GPa) = 0.03440585
#
# Stress axis : x y z
#
# Youngs Moduli (GPa) = 60.31895 48.18083 31.30564
#
# Poissons Ratio (x) = 0.56080 -0.08582
# Poissons Ratio (y) = 0.70209 0.26727
# Poissons Ratio (z) = -0.16536 0.41134
#
# Static dielectric constant tensor:
#      x y z
#    x 1.665460 0.000000 0.019830 
#    y 0.000000 1.632110 0.000000 
#    z 0.019830 0.000000 1.648280 
# 
# From -- ./inp_files/187458.got.cif
#   From: 2010.05.17/outbox.cif.g08.bks.cpg/sg12_94_cif.got.tgz:187458.got - 2010.06.03 13:09:07.
