data_PCOD9177324
_publ_section_title
;
Structure prediction by ZEFSAII (Michael W. Deem and Ramdas Pophale) SiO2 
 PCOD9177324
Probable space group: C 2/M
;
_chemical_formula_sum "Si O2"
_cell_formula_units_Z 64
_cell_length_a 21.778799
_cell_length_b 7.330358
_cell_length_c 17.863013
_cell_angle_alpha 90.000000
_cell_angle_beta 74.969374
_cell_angle_gamma 90.000000
_cell_volume 2754.199124
_symmetry_space_group_name_H-M "C 2/M"
_symmetry_group_IT_number 12
_symmetry_cell_setting 'monoclinic'
loop_
_space_group_symop_operation_xyz
x,y,z
-x,y,-z
-x,-y,-z
x,-y,z
1/2+x,1/2+y,z
1/2-x,1/2+y,-z
1/2-x,1/2-y,-z
1/2+x,1/2-y,z
loop_
_atom_site_type_symbol
_atom_site_label
_atom_site_fract_x
_atom_site_fract_y
_atom_site_fract_z
Si Si1 0.543262 0.222809 0.056746
Si Si2 0.899520 0.276273 0.518963
Si Si3 0.304922 0.211611 0.771941
Si Si4 0.972945 0.277544 0.229267
Si Si5 0.446134 0.787912 0.657075
Si Si6 0.266284 0.216906 0.630721
Si Si7 0.683101 0.781938 0.062903
Si Si8 0.372851 0.216933 0.366271
O O1 0.504926 0.282493 0.142876
O O2 0.617506 0.281561 0.042958
O O3 0.544617 0.000000 0.053704
O O4 0.500000 0.280759 0.000000
O O5 0.902485 0.500000 0.518432
O O6 0.943786 0.214546 0.573619
O O7 0.828518 0.219346 0.567134
O O8 0.906896 0.215575 0.431237
O O9 0.374573 0.214926 0.712151
O O10 0.262905 0.290105 0.717270
O O11 0.309987 0.289511 0.853842
O O12 0.285622 0.000000 0.788735
O O13 0.975895 0.500000 0.224267
O O14 0.902802 0.220939 0.278005
O O15 0.013220 0.213234 0.287991
O O16 0.465628 0.000000 0.643558
O O17 0.201558 0.248278 0.607968
O O18 0.275033 0.000000 0.635224
O O19 0.674589 0.000000 0.071376
O O20 0.750000 0.750000 0.000000
O O21 0.381071 0.000000 0.364857
#
# Coordination Sequence:
#
# PCOD9177324 Si02
#       8
#     8   8   8   8   8   8   8   8
#     4   9  17  30  48  70  98 131 162 194 243 303
#     4   8  15  26  42  65  90 118 152 193 234 271
#     4   8  14  27  47  67  85 115 160 196 218 261
#     4   9  16  26  42  64  90 120 152 189 232 278
#     4   8  12  23  43  63  85 115 153 189 224 265
#     4   9  17  30  47  63  86 126 166 189 217 275
#     4  10  19  32  52  76 100 126 161 205 247 290
#     4  10  19  28  41  69 102 120 143 192 244 279
#
# _framework density 23.237245000000001
#
# number of rings (size 3 to 8) (size 9 to 14) (size 15 to 20)
#    0.000    3.125    1.250    1.875    0.000    1.500 
#    0.000    4.375    0.000    1.125    0.000    2.625 
#    0.000    0.000    0.000    0.000    0.000    0.000 
#
# Total GULP energy -178398.356288 kJ/mol
# GULP energy per Si atom -5574.948634 kJ/mol
# Density = 2.318436 g / cm^3
# Si number density = 23.237245 Si / 1000 Ang^3
#
#
#
# Elastic Constant Matrix: (Units=GPa)
#
#
# Indices 1 2 3 4 5 6 
#
# 1 91.5909 -2.9482 85.2607 0.0000 13.5961 0.0000
# 2 -2.9482 86.5194 7.4345 0.0000 1.2386 0.0000
# 3 85.2607 7.4345 193.7829 0.0000 15.2669 0.0000
# 4 0.0000 0.0000 0.0000 -10.9019 0.0000 -7.7063
# 5 13.5961 1.2386 15.2669 0.0000 33.5129 0.0000
# 6 0.0000 0.0000 0.0000 -7.7063 0.0000 -7.2680
#
#
#
# Elastic Compliance Matrix: (Units=1/GPa)
#
#
# Indices 1 2 3 4 5 6 
#
# 1 0.019177 0.001414 -0.008168 0.000000 -0.004112 0.000000
# 2 0.001414 0.011702 -0.001029 0.000000 -0.000538 0.000000
# 3 -0.008168 -0.001029 0.008847 0.000000 -0.000679 0.000000
# 4 0.000000 0.000000 0.000000 -0.366173 0.000000 0.388253
# 5 -0.004112 -0.000538 -0.000679 0.000000 0.031836 0.000000
# 6 0.000000 0.000000 0.000000 0.388253 0.000000 -0.549252
#
#
# Mechanical properties :
#
#
# Convention : Reuss Voigt Hill
#
# Bulk Modulus (GPa) = 41.38788 61.26523 51.32656
# Shear Modulus (GPa) = -6.09575 21.87834 7.89129
#
# Velocity S-wave (km/s) = -1.62141 3.07175 1.84481
# Velocity P-wave (km/s) = 3.78740 6.24525 5.16467
#
# Compressibility (1/GPa) = 0.02416166
#
# Stress axis : x y z
#
# Youngs Moduli (GPa) = 52.14446 85.45256 113.03105
#
# Poissons Ratio (x) = -0.12085 0.92324
# Poissons Ratio (y) = -0.07374 0.11629
# Poissons Ratio (z) = 0.42592 0.08792
#
# Static dielectric constant tensor:
#      x y z
#    x 1.898360 0.000000 0.009740 
#    y 0.000000 1.930290 0.000000 
#    z 0.009740 0.000000 1.861450 
# 
# From -- ./inp_files/276478.got.cif
#   From: 2010.05.17/outbox.cif.g08.bks.cpg/sg12_139_cif.got.tgz:276478.got - 2010.06.03 13:09:07.
