data_PCOD9177618
_publ_section_title
;
Structure prediction by ZEFSAII (Michael W. Deem and Ramdas Pophale) SiO2 
 PCOD9177618
Probable space group: C 2/M
;
_chemical_formula_sum "Si O2"
_cell_formula_units_Z 64
_cell_length_a 21.490254
_cell_length_b 9.193704
_cell_length_c 23.168068
_cell_angle_alpha 90.000000
_cell_angle_beta 56.149179
_cell_angle_gamma 90.000000
_cell_volume 3801.514615
_symmetry_space_group_name_H-M "C 2/M"
_symmetry_group_IT_number 12
_symmetry_cell_setting 'monoclinic'
loop_
_space_group_symop_operation_xyz
x,y,z
-x,y,-z
-x,-y,-z
x,-y,z
1/2+x,1/2+y,z
1/2-x,1/2+y,-z
1/2-x,1/2-y,-z
1/2+x,1/2-y,z
loop_
_atom_site_type_symbol
_atom_site_label
_atom_site_fract_x
_atom_site_fract_y
_atom_site_fract_z
Si Si1 0.072764 0.332970 0.629748
Si Si2 0.531078 0.668601 0.234744
Si Si3 0.578228 0.171250 0.925842
Si Si4 0.150818 0.331120 0.101169
Si Si5 0.329139 0.669280 0.026827
Si Si6 0.401212 0.329702 0.204719
Si Si7 0.804107 0.324966 0.519234
Si Si8 0.706508 0.169222 0.656649
O O1 0.046585 0.500000 0.641561
O O2 0.008519 0.230002 0.687446
O O3 0.112601 0.296297 0.548429
O O4 0.140477 0.327571 0.641958
O O5 0.551195 0.500000 0.230599
O O6 0.600915 0.762416 0.177132
O O7 0.468724 0.680637 0.216142
O O8 0.640365 0.244434 0.934259
O O9 0.576327 0.250892 0.865621
O O10 0.592325 0.000000 0.910683
O O11 0.500000 0.188439 0.000000
O O12 0.130922 0.500000 0.102346
O O13 0.239011 0.322596 0.069937
O O14 0.139566 0.242119 0.047801
O O15 0.351160 0.500000 0.017986
O O16 0.385996 0.500000 0.202883
O O17 0.329826 0.250431 0.270284
O O18 0.793115 0.500000 0.525133
O O19 0.750000 0.250000 0.500000
O O20 0.777020 0.253903 0.592835
O O21 0.723080 0.000000 0.659294
#
# Coordination Sequence:
#
# PCOD9177618 Si02
#       8
#     8   8   8   8   8   8   8   8
#     4   8  15  25  37  56  85 119 152 187 226 270
#     4  10  19  29  45  68  93 123 157 192 230 272
#     4  11  23  36  51  71  95 123 153 188 231 275
#     4  10  20  34  52  71  93 120 150 188 232 276
#     4  10  21  36  53  72  92 118 153 190 229 273
#     4  10  20  32  46  66  93 124 158 194 229 272
#     4   9  15  23  36  55  81 115 152 188 227 270
#     4   9  16  26  40  58  83 117 154 190 228 271
#
# _framework density 16.835395999999999
#
# number of rings (size 3 to 8) (size 9 to 14) (size 15 to 20)
#    0.000    2.375    0.000    4.125    0.000    9.500 
#    0.000    0.000    0.000    0.000    0.000    0.000 
#    0.000    1.000    0.000   10.500    0.000    7.625 
#
# Total GULP energy -178428.191330 kJ/mol
# GULP energy per Si atom -5575.880979 kJ/mol
# Density = 1.679708 g / cm^3
# Si number density = 16.835396 Si / 1000 Ang^3
#
#
#
# Elastic Constant Matrix: (Units=GPa)
#
#
# Indices 1 2 3 4 5 6 
#
# 1 8.9103 16.8861 3.3145 0.0000 2.6110 -0.0002
# 2 16.8861 137.1116 82.7750 -0.0002 -5.3360 -0.0003
# 3 3.3145 82.7750 123.6282 0.0000 -9.0258 0.0000
# 4 0.0000 -0.0002 0.0000 34.7525 0.0000 0.1179
# 5 2.6110 -5.3360 -9.0258 0.0000 12.5395 0.0000
# 6 -0.0002 -0.0003 0.0000 0.1179 0.0000 16.7892
#
#
#
# Elastic Compliance Matrix: (Units=1/GPa)
#
#
# Indices 1 2 3 4 5 6 
#
# 1 0.179783 -0.031921 0.013540 0.000000 -0.041273 0.000001
# 2 -0.031921 0.017916 -0.010658 0.000000 0.006599 0.000000
# 3 0.013540 -0.010658 0.015119 0.000000 0.003528 0.000000
# 4 0.000000 0.000000 0.000000 0.028776 0.000000 -0.000202
# 5 -0.041273 0.006599 0.003528 0.000000 0.093690 0.000000
# 6 0.000001 0.000000 0.000000 -0.000202 0.000000 0.059563
#
#
# Mechanical properties :
#
#
# Convention : Reuss Voigt Hill
#
# Bulk Modulus (GPa) = 6.46252 52.84456 29.65354
# Shear Modulus (GPa) = 9.91070 23.92788 16.91929
#
# Velocity S-wave (km/s) = 2.42891 3.77408 3.17359
# Velocity P-wave (km/s) = 3.42244 7.10273 5.57503
#
# Compressibility (1/GPa) = 0.15473845
#
# Stress axis : x y z
#
# Youngs Moduli (GPa) = 5.56227 55.81732 66.14103
#
# Poissons Ratio (x) = 1.78177 -0.89553
# Poissons Ratio (y) = 0.17756 0.70491
# Poissons Ratio (z) = -0.07531 0.59489
#
# Static dielectric constant tensor:
#      x y z
#    x 1.551940 0.000000 -0.004760 
#    y 0.000000 1.564040 0.000000 
#    z -0.004760 0.000000 1.585630 
# 
# From -- ./inp_files/346019.got.cif
#   From: 2010.05.17/outbox.cif.g08.bks.cpg/sg12_174_cif.got.tgz:346019.got - 2010.06.03 13:09:07.
