data_PCOD9177380
_publ_section_title
;
Structure prediction by ZEFSAII (Michael W. Deem and Ramdas Pophale) SiO2 
 PCOD9177380
Probable space group: C 2/M
;
_chemical_formula_sum "Si O2"
_cell_formula_units_Z 48
_cell_length_a 9.567255
_cell_length_b 16.453686
_cell_length_c 25.181906
_cell_angle_alpha 90.000000
_cell_angle_beta 151.910368
_cell_angle_gamma 90.000000
_cell_volume 1866.481978
_symmetry_space_group_name_H-M "C 2/M"
_symmetry_group_IT_number 12
_symmetry_cell_setting 'monoclinic'
loop_
_space_group_symop_operation_xyz
x,y,z
-x,y,-z
-x,-y,-z
x,-y,z
1/2+x,1/2+y,z
1/2-x,1/2+y,-z
1/2-x,1/2-y,-z
1/2+x,1/2-y,z
loop_
_atom_site_type_symbol
_atom_site_label
_atom_site_fract_x
_atom_site_fract_y
_atom_site_fract_z
Si Si1 0.226813 0.500000 0.498234
Si Si2 0.923952 0.840394 0.210407
Si Si3 0.548342 0.500000 0.312864
Si Si4 0.837789 0.095050 0.068935
Si Si5 0.866844 0.675419 0.575963
Si Si6 0.645724 0.096901 0.892781
Si Si7 0.052714 0.667543 0.753711
O O1 0.434167 0.500000 0.618683
O O2 0.262899 0.586497 0.481889
O O3 0.885884 0.500000 0.404109
O O4 0.279846 0.826471 0.319188
O O5 0.797468 0.861437 0.110847
O O6 0.807470 0.756322 0.193695
O O7 0.910332 0.917834 0.244175
O O8 0.190962 0.104013 0.175973
O O9 0.771977 0.000000 0.052571
O O10 0.655344 0.126167 0.957212
O O11 0.750000 0.750000 0.500000
O O12 0.840666 0.679823 0.631555
O O13 0.468807 0.141366 0.785847
O O14 0.586965 0.000000 0.871111
O O15 0.000000 0.106091 0.000000
#
# Coordination Sequence:
#
# PCOD9177380 Si02
#       7
#     4   8   4   8   8   8   8
#     4   9  18  30  52  68  87 133 171 217 252 299
#     4  10  19  31  52  79 100 132 171 217 258 301
#     4   9  16  30  48  71  92 119 175 212 251 287
#     4   9  17  33  54  78 106 133 171 213 252 306
#     4  10  21  34  50  71 105 135 176 221 260 306
#     4   8  15  28  49  75 103 134 167 207 254 308
#     4  10  19  28  50  78 104 130 165 218 262 296
#
# _framework density 25.716829000000001
#
# number of rings (size 3 to 8) (size 9 to 14) (size 15 to 20)
#    0.000    2.667    0.833    2.500    4.667    2.667 
#    0.000    0.000    3.667    1.000    4.333    5.250 
#    0.000    0.000    0.000    0.000    0.000    0.000 
#
# Total GULP energy -134288.588780 kJ/mol
# GULP energy per Si atom -5595.357866 kJ/mol
# Density = 2.565830 g / cm^3
# Si number density = 25.716829 Si / 1000 Ang^3
#
#
#
# Elastic Constant Matrix: (Units=GPa)
#
#
# Indices 1 2 3 4 5 6 
#
# 1 89.5455 51.7285 63.8767 0.0000 -48.8269 0.0003
# 2 51.7285 185.5565 89.6209 0.0013 -48.3469 0.0011
# 3 63.8767 89.6209 197.3629 0.0048 -61.1027 0.0029
# 4 0.0000 0.0013 0.0048 37.1202 0.0009 -8.6029
# 5 -48.8269 -48.3469 -61.1027 0.0009 75.9573 0.0006
# 6 0.0003 0.0011 0.0029 -8.6029 0.0006 37.5838
#
#
#
# Elastic Compliance Matrix: (Units=1/GPa)
#
#
# Indices 1 2 3 4 5 6 
#
# 1 0.018872 -0.001680 -0.002557 0.000000 0.009005 0.000000
# 2 -0.001680 0.007426 -0.002263 0.000000 0.001827 0.000000
# 3 -0.002557 -0.002263 0.007946 -0.000001 0.003308 -0.000001
# 4 0.000000 0.000000 -0.000001 0.028449 -0.000001 0.006512
# 5 0.009005 0.001827 0.003308 -0.000001 0.022778 -0.000001
# 6 0.000000 0.000000 -0.000001 0.006512 -0.000001 0.028098
#
#
# Mechanical properties :
#
#
# Convention : Reuss Voigt Hill
#
# Bulk Modulus (GPa) = 47.07041 98.10190 72.58616
# Shear Modulus (GPa) = 37.41082 47.94818 42.67950
#
# Velocity S-wave (km/s) = 3.81822 4.32263 4.07823
# Velocity P-wave (km/s) = 6.14666 7.94628 7.10369
#
# Compressibility (1/GPa) = 0.02124477
#
# Stress axis : x y z
#
# Youngs Moduli (GPa) = 52.98736 134.65395 125.84529
#
# Poissons Ratio (x) = 0.22617 0.32183
# Poissons Ratio (y) = 0.08900 0.28480
# Poissons Ratio (z) = 0.13551 0.30474
#
# Static dielectric constant tensor:
#      x y z
#    x 2.200750 0.000000 0.112340 
#    y 0.000000 1.904350 0.000000 
#    z 0.112340 0.000000 2.059520 
# 
# From -- ./inp_files/358519.got.cif
#   From: 2010.05.17/outbox.cif.g08.bks.cpg/sg12_180_cif.got.tgz:358519.got - 2010.06.03 13:09:07.
