data_PCOD9177595
_publ_section_title
;
Structure prediction by ZEFSAII (Michael W. Deem and Ramdas Pophale) SiO2 
 PCOD9177595
Probable space group: C 2/M
;
_chemical_formula_sum "Si O2"
_cell_formula_units_Z 40
_cell_length_a 25.275485
_cell_length_b 7.623041
_cell_length_c 32.687863
_cell_angle_alpha 90.000000
_cell_angle_beta 19.910023
_cell_angle_gamma 90.000000
_cell_volume 2144.803741
_symmetry_space_group_name_H-M "C 2/M"
_symmetry_group_IT_number 12
_symmetry_cell_setting 'monoclinic'
loop_
_space_group_symop_operation_xyz
x,y,z
-x,y,-z
-x,-y,-z
x,-y,z
1/2+x,1/2+y,z
1/2-x,1/2+y,-z
1/2-x,1/2-y,-z
1/2+x,1/2-y,z
loop_
_atom_site_type_symbol
_atom_site_label
_atom_site_fract_x
_atom_site_fract_y
_atom_site_fract_z
Si Si1 0.066552 0.286311 0.514708
Si Si2 0.088803 0.706155 0.159001
Si Si3 0.238463 0.714639 0.305772
Si Si4 0.928767 0.201804 0.920776
Si Si5 0.284725 0.708673 0.427959
O O1 0.064223 0.500000 0.516923
O O2 0.168684 0.235309 0.400841
O O3 0.151079 0.224448 0.494198
O O4 0.889893 0.230189 0.634077
O O5 0.110111 0.500000 0.134195
O O6 0.047126 0.793618 0.145990
O O7 0.950620 0.724821 0.291430
O O8 0.256028 0.776912 0.052506
O O9 0.243375 0.500000 0.302067
O O10 0.414715 0.779819 0.173835
O O11 0.921512 0.000000 0.939957
O O12 0.289371 0.500000 0.419989
O O13 0.250000 0.750000 0.500000
#
# Coordination Sequence:
#
# PCOD9177595 Si02
#       5
#     8   8   8   8   8
#     4   8  14  24  44  70  93 116 151 192 233 273
#     4  10  19  29  44  70  99 126 156 188 229 281
#     4   8  12  23  45  72  94 115 146 192 237 272
#     4   9  16  28  48  71  97 124 152 191 235 276
#     4  11  21  34  50  68  93 126 160 195 231 274
#
# _framework density 18.649725
#
# number of rings (size 3 to 8) (size 9 to 14) (size 15 to 20)
#    0.000    2.800    2.000    2.400    0.000    0.800 
#    0.000    0.000    0.000    4.800    0.000    8.400 
#    0.000    0.000    0.000    0.000    0.000    0.000 
#
# Total GULP energy -111451.158775 kJ/mol
# GULP energy per Si atom -5572.557939 kJ/mol
# Density = 1.860728 g / cm^3
# Si number density = 18.649725 Si / 1000 Ang^3
#
#
#
# Elastic Constant Matrix: (Units=GPa)
#
#
# Indices 1 2 3 4 5 6 
#
# 1 121.4399 -1.6118 82.5552 0.0976 -27.4513 -0.1056
# 2 -1.6118 43.6703 -4.9854 0.0933 -4.1347 -0.2842
# 3 82.5552 -4.9854 137.1496 0.0263 -37.8026 -0.1337
# 4 0.0976 0.0933 0.0263 13.4982 -0.0102 2.9978
# 5 -27.4513 -4.1347 -37.8026 -0.0102 39.8319 0.0972
# 6 -0.1056 -0.2842 -0.1337 2.9978 0.0972 12.6125
#
#
#
# Elastic Compliance Matrix: (Units=1/GPa)
#
#
# Indices 1 2 3 4 5 6 
#
# 1 0.014086 -0.000169 -0.007874 -0.000092 0.002218 0.000035
# 2 -0.000169 0.023560 0.002167 -0.000293 0.004384 0.000588
# 3 -0.007874 0.002167 0.014458 0.000005 0.008520 0.000069
# 4 -0.000092 -0.000293 0.000005 0.078217 -0.000024 -0.018598
# 5 0.002218 0.004384 0.008520 -0.000024 0.035175 -0.000058
# 6 0.000035 0.000588 0.000069 -0.018598 -0.000058 0.083721
#
#
# Mechanical properties :
#
#
# Convention : Reuss Voigt Hill
#
# Bulk Modulus (GPa) = 24.78135 50.46399 37.62267
# Shear Modulus (GPa) = 18.22030 28.27532 23.24781
#
# Velocity S-wave (km/s) = 3.12905 3.89797 3.53448
# Velocity P-wave (km/s) = 5.13529 6.88306 6.07238
#
# Compressibility (1/GPa) = 0.04035293
#
# Stress axis : x y z
#
# Youngs Moduli (GPa) = 70.99041 42.44558 69.16587
#
# Poissons Ratio (x) = 0.00716 0.54461
# Poissons Ratio (y) = 0.01197 -0.14988
# Poissons Ratio (z) = 0.55897 -0.09198
#
# Static dielectric constant tensor:
#      x y z
#    x 1.699050 -0.000190 -0.006350 
#    y -0.000190 1.736300 -0.000230 
#    z -0.006350 -0.000230 1.713610 
# 
# From -- ./inp_files/162656.got.cif
#   From: 2010.05.17/outbox.cif.g08.bks.cpg/sg12_82_cif.got.tgz:162656.got - 2010.06.03 13:09:07.
