data_PCOD9177674
_publ_section_title
;
Structure prediction by ZEFSAII (Michael W. Deem and Ramdas Pophale) SiO2 
 PCOD9177674
Probable space group: C 2/M
;
_chemical_formula_sum "Si O2"
_cell_formula_units_Z 64
_cell_length_a 26.015381
_cell_length_b 15.321511
_cell_length_c 10.409767
_cell_angle_alpha 90.000000
_cell_angle_beta 100.080161
_cell_angle_gamma 90.000000
_cell_volume 4085.231570
_symmetry_space_group_name_H-M "C 2/M"
_symmetry_group_IT_number 12
_symmetry_cell_setting 'monoclinic'
loop_
_space_group_symop_operation_xyz
x,y,z
-x,y,-z
-x,-y,-z
x,-y,z
1/2+x,1/2+y,z
1/2-x,1/2+y,-z
1/2-x,1/2-y,-z
1/2+x,1/2-y,z
loop_
_atom_site_type_symbol
_atom_site_label
_atom_site_fract_x
_atom_site_fract_y
_atom_site_fract_z
Si Si1 0.717131 0.600640 0.945423
Si Si2 0.191289 0.597913 0.548334
Si Si3 0.497421 0.394757 0.855676
Si Si4 0.351199 0.284949 0.441944
Si Si5 0.606358 0.395866 0.765865
Si Si6 0.214562 0.154277 0.221797
Si Si7 0.763462 0.343763 0.697152
Si Si8 0.885691 0.898895 0.695543
O O1 0.721648 0.500000 0.984929
O O2 0.656838 0.617709 0.879123
O O3 0.750768 0.614338 0.830154
O O4 0.731763 0.652752 0.080414
O O5 0.171324 0.500000 0.563718
O O6 0.152638 0.679982 0.554883
O O7 0.241402 0.613835 0.664389
O O8 0.209331 0.604812 0.406826
O O9 0.495098 0.500000 0.863000
O O10 0.551105 0.376315 0.806569
O O11 0.442826 0.370862 0.767080
O O12 0.500000 0.358328 0.000000
O O13 0.385957 0.329560 0.347629
O O14 0.292430 0.315717 0.384802
O O15 0.367796 0.332640 0.578563
O O16 0.607683 0.500000 0.729723
O O17 0.207030 0.253889 0.261783
O O18 0.159352 0.106146 0.215960
O O19 0.887916 0.000000 0.651092
#
# Coordination Sequence:
#
# PCOD9177674 Si02
#       8
#     8   8   8   8   8   8   8   8
#     4  10  19  29  46  69  95 131 166 192 232 283
#     4  11  20  33  51  68  96 130 164 205 247 281
#     4   9  18  31  46  69 100 129 157 189 231 285
#     4  10  19  32  46  70  95 124 167 197 236 284
#     4   9  18  32  48  68 102 134 154 190 239 284
#     4  11  19  31  46  71  97 129 165 200 233 280
#     4  10  19  33  46  66  97 130 162 202 241 282
#     4  11  19  28  48  70  96 128 158 191 229 284
#
# _framework density 15.666187000000001
#
# number of rings (size 3 to 8) (size 9 to 14) (size 15 to 20)
#    0.000    1.875    2.500    3.750    0.000    3.500 
#    0.000    1.875    0.000    0.000    0.000    1.750 
#    0.000    1.000    0.000    0.000    0.000    0.000 
#
# Total GULP energy -178253.090715 kJ/mol
# GULP energy per Si atom -5570.409085 kJ/mol
# Density = 1.563053 g / cm^3
# Si number density = 15.666187 Si / 1000 Ang^3
#
#
#
# Elastic Constant Matrix: (Units=GPa)
#
#
# Indices 1 2 3 4 5 6 
#
# 1 59.3853 23.8796 31.2651 0.0000 -9.1465 0.0000
# 2 23.8796 79.8515 34.0521 0.0000 -6.8684 0.0000
# 3 31.2651 34.0521 95.5134 0.0000 -12.8535 0.0000
# 4 0.0000 0.0000 0.0000 17.2926 0.0000 -9.1973
# 5 -9.1465 -6.8684 -12.8535 0.0000 11.4293 0.0000
# 6 0.0000 0.0000 0.0000 -9.1973 0.0000 13.4756
#
#
#
# Elastic Compliance Matrix: (Units=1/GPa)
#
#
# Indices 1 2 3 4 5 6 
#
# 1 0.022400 -0.003858 -0.004544 0.000000 0.010497 0.000000
# 2 -0.003858 0.015551 -0.004053 0.000000 0.001701 0.000000
# 3 -0.004544 -0.004053 0.014829 0.000000 0.010605 0.000000
# 4 0.000000 0.000000 0.000000 0.090782 0.000000 0.061960
# 5 0.010497 0.001701 0.010605 0.000000 0.108843 0.000000
# 6 0.000000 0.000000 0.000000 0.061960 0.000000 0.116496
#
#
# Mechanical properties :
#
#
# Convention : Reuss Voigt Hill
#
# Bulk Modulus (GPa) = 35.87989 45.90486 40.89237
# Shear Modulus (GPa) = 12.40380 18.14306 15.27343
#
# Velocity S-wave (km/s) = 2.81687 3.40678 3.12577
# Velocity P-wave (km/s) = 5.79069 6.69630 6.25989
#
# Compressibility (1/GPa) = 0.02787077
#
# Stress axis : x y z
#
# Youngs Moduli (GPa) = 44.64348 64.30265 67.43450
#
# Poissons Ratio (x) = 0.24807 0.30644
# Poissons Ratio (y) = 0.17223 0.27329
# Poissons Ratio (z) = 0.20287 0.26060
#
# Static dielectric constant tensor:
#      x y z
#    x 1.527010 0.000000 -0.031310 
#    y 0.000000 1.533030 0.000000 
#    z -0.031310 0.000000 1.568410 
# 
# From -- ./inp_files/104544.got.cif
#   From: 2010.05.17/outbox.cif.g08.bks.cpg/sg12_53_cif.got.tgz:104544.got - 2010.06.03 13:09:07.
