data_PCOD9177733
_publ_section_title
;
Structure prediction by ZEFSAII (Michael W. Deem and Ramdas Pophale) SiO2 
 PCOD9177733
Probable space group: C 2/M
;
_chemical_formula_sum "Si O2"
_cell_formula_units_Z 58
_cell_length_a 16.584197
_cell_length_b 26.317396
_cell_length_c 11.481907
_cell_angle_alpha 90.000000
_cell_angle_beta 148.016254
_cell_angle_gamma 90.000000
_cell_volume 2654.384713
_symmetry_space_group_name_H-M "C 2/M"
_symmetry_group_IT_number 12
_symmetry_cell_setting 'monoclinic'
loop_
_space_group_symop_operation_xyz
x,y,z
-x,y,-z
-x,-y,-z
x,-y,z
1/2+x,1/2+y,z
1/2-x,1/2+y,-z
1/2-x,1/2-y,-z
1/2+x,1/2-y,z
loop_
_atom_site_type_symbol
_atom_site_label
_atom_site_fract_x
_atom_site_fract_y
_atom_site_fract_z
Si Si1 0.564628 0.662234 0.275525
Si Si2 0.831558 0.940861 0.549206
Si Si3 0.945563 0.261617 0.066167
Si Si4 0.151582 0.204050 0.625802
Si Si5 0.648126 0.189634 0.509321
Si Si6 0.524831 0.916222 0.327092
Si Si7 0.358568 0.060934 0.904309
Si Si8 0.000000 0.500000 0.500000
O O1 0.546590 0.601657 0.262356
O O2 0.654404 0.677787 0.503720
O O3 0.679987 0.673945 0.311200
O O4 0.430994 0.703557 0.095773
O O5 0.677157 0.930894 0.436542
O O6 0.785855 0.932363 0.357122
O O7 0.874778 0.000000 0.616969
O O8 0.799232 0.297922 0.886845
O O9 0.000000 0.261395 0.000000
O O10 0.074566 0.285778 0.303876
O O11 0.141704 0.264782 0.591860
O O12 0.000000 0.185032 0.500000
O O13 0.555889 0.138843 0.418743
O O14 0.502733 0.956294 0.400795
O O15 0.384563 0.916621 0.063631
O O16 0.377253 0.000000 0.940924
O O17 0.500000 0.080522 0.000000
#
# Coordination Sequence:
#
# PCOD9177733 Si02
#       8
#     8   8   8   8   8   8   8   2
#     4  10  20  35  59  92 118 156 210 250 308 365
#     4   9  17  32  55  84 114 150 207 264 295 346
#     4  11  19  37  63  87 120 162 198 257 309 363
#     4  11  23  38  57  88 124 154 196 256 316 370
#     4  10  21  34  56  87 115 158 212 241 291 376
#     4  10  19  29  47  81 117 163 200 243 310 351
#     4   8  13  25  44  72 105 140 193 247 288 338
#     4  12  20  32  46  72 132 174 196 246 298 374
#
# _framework density 21.850638
#
# number of rings (size 3 to 8) (size 9 to 14) (size 15 to 20)
#    0.000    2.069    4.138    1.655    2.897    2.759 
#    0.000    0.000    0.000    0.828    1.793    0.000 
#    0.000    0.000    0.000    0.000    0.000    0.000 
#
# Total GULP energy -161470.182737 kJ/mol
# GULP energy per Si atom -5567.937336 kJ/mol
# Density = 2.180090 g / cm^3
# Si number density = 21.850638 Si / 1000 Ang^3
#
#
#
# Elastic Constant Matrix: (Units=GPa)
#
#
# Indices 1 2 3 4 5 6 
#
# 1 40.8006 6.8307 8.4684 0.0000 -14.2983 0.0000
# 2 6.8307 128.0208 1.7855 0.0000 -11.3524 0.0000
# 3 8.4684 1.7855 40.7710 0.0000 -6.1714 0.0000
# 4 0.0000 0.0000 0.0000 12.8344 0.0000 -7.9851
# 5 -14.2983 -11.3524 -6.1714 0.0000 20.8594 0.0000
# 6 0.0000 0.0000 0.0000 -7.9851 0.0000 10.0353
#
#
#
# Elastic Compliance Matrix: (Units=1/GPa)
#
#
# Indices 1 2 3 4 5 6 
#
# 1 0.032751 0.000210 -0.003556 0.000000 0.021512 0.000000
# 2 0.000210 0.008213 0.000309 0.000000 0.004705 0.000000
# 3 -0.003556 0.000309 0.026077 0.000000 0.005446 0.000000
# 4 0.000000 0.000000 0.000000 0.154308 0.000000 0.122784
# 5 0.021512 0.004705 0.005446 0.000000 0.066857 0.000000
# 6 0.000000 0.000000 0.000000 0.122784 0.000000 0.197348
#
#
# Mechanical properties :
#
#
# Convention : Reuss Voigt Hill
#
# Bulk Modulus (GPa) = 16.40240 27.08462 21.74351
# Shear Modulus (GPa) = 9.76658 21.57966 15.67312
#
# Velocity S-wave (km/s) = 2.11646 3.14602 2.68112
# Velocity P-wave (km/s) = 3.67361 5.06150 4.42234
#
# Compressibility (1/GPa) = 0.06096667
#
# Stress axis : x y z
#
# Youngs Moduli (GPa) = 30.53341 121.75894 38.34864
#
# Poissons Ratio (x) = -0.02553 0.13635
# Poissons Ratio (y) = -0.00640 -0.01185
# Poissons Ratio (z) = 0.10856 -0.03762
#
# Static dielectric constant tensor:
#      x y z
#    x 1.797130 0.000000 0.048150 
#    y 0.000000 1.835070 0.000000 
#    z 0.048150 0.000000 1.880130 
# 
# From -- ./inp_files/160938.got.cif
#   From: 2010.05.17/outbox.cif.g08.bks.cpg/sg12_81_cif.got.tgz:160938.got - 2010.06.03 13:09:07.
