data_PCOD9177440
_publ_section_title
;
Structure prediction by ZEFSAII (Michael W. Deem and Ramdas Pophale) SiO2 
 PCOD9177440
Probable space group: C 2/M
;
_chemical_formula_sum "Si O2"
_cell_formula_units_Z 56
_cell_length_a 18.993908
_cell_length_b 7.353770
_cell_length_c 23.976190
_cell_angle_alpha 90.000000
_cell_angle_beta 53.868795
_cell_angle_gamma 90.000000
_cell_volume 2704.817007
_symmetry_space_group_name_H-M "C 2/M"
_symmetry_group_IT_number 12
_symmetry_cell_setting 'monoclinic'
loop_
_space_group_symop_operation_xyz
x,y,z
-x,y,-z
-x,-y,-z
x,-y,z
1/2+x,1/2+y,z
1/2-x,1/2+y,-z
1/2-x,1/2-y,-z
1/2+x,1/2-y,z
loop_
_atom_site_type_symbol
_atom_site_label
_atom_site_fract_x
_atom_site_fract_y
_atom_site_fract_z
Si Si1 0.482875 0.722524 0.633030
Si Si2 0.332920 0.283131 0.499932
Si Si3 0.593372 0.222837 0.934050
Si Si4 0.203083 0.712744 0.783812
Si Si5 0.180788 0.777506 0.367109
Si Si6 0.755983 0.217141 0.931973
Si Si7 0.374310 0.712483 0.783918
O O1 0.482546 0.500000 0.634758
O O2 0.577646 0.784648 0.569578
O O3 0.408626 0.773405 0.622773
O O4 0.450826 0.786943 0.708999
O O5 0.343740 0.500000 0.499945
O O6 0.250000 0.250000 0.500000
O O7 0.319006 0.215338 0.569398
O O8 0.623807 0.285015 0.858229
O O9 0.668849 0.281372 0.941526
O O10 0.593124 0.000000 0.932972
O O11 0.500000 0.281318 0.000000
O O12 0.184175 0.500000 0.783364
O O13 0.238064 0.786628 0.708860
O O14 0.287937 0.721682 0.784856
O O15 0.183199 0.000000 0.365277
O O16 0.840635 0.288181 0.858639
O O17 0.757771 0.000000 0.923192
O O18 0.750000 0.250000 0.000000
O O19 0.395531 0.500000 0.782635
#
# Coordination Sequence:
#
# PCOD9177440 Si02
#       7
#     8   8   8   8   8   8   8
#     4   8  13  24  44  64  77  98 140 183 204 222
#     4  10  19  29  42  62  88 112 131 159 204 252
#     4   8  13  22  37  57  80 105 133 164 199 240
#     4   7  10  18  34  56  78  97 124 169 211 230
#     4   8  13  23  41  62  77  94 133 181 207 221
#     4   9  16  26  41  61  84 109 136 167 203 241
#     4   7  11  21  38  59  79 100 133 174 205 228
#
# _framework density 20.703802
#
# number of rings (size 3 to 8) (size 9 to 14) (size 15 to 20)
#    0.000    3.857    0.000    3.857    0.000    1.714 
#    0.000    1.429    0.000    4.714    0.000    8.000 
#    0.000    0.000    0.000    0.000    0.000    0.000 
#
# Total GULP energy -155930.851395 kJ/mol
# GULP energy per Si atom -5568.958978 kJ/mol
# Density = 2.065668 g / cm^3
# Si number density = 20.703802 Si / 1000 Ang^3
#
#
#
# Elastic Constant Matrix: (Units=GPa)
#
#
# Indices 1 2 3 4 5 6 
#
# 1 70.8702 -0.3087 105.4214 -0.0003 -9.3298 0.0009
# 2 -0.3087 75.1408 12.1956 -0.0011 -2.4664 0.0009
# 3 105.4214 12.1956 295.6275 0.0000 -14.0392 -0.0001
# 4 -0.0003 -0.0011 0.0000 -3.8360 -0.0002 7.1620
# 5 -9.3298 -2.4664 -14.0392 -0.0002 31.1816 -0.0002
# 6 0.0009 0.0009 -0.0001 7.1620 -0.0002 5.2321
#
#
#
# Elastic Compliance Matrix: (Units=1/GPa)
#
#
# Indices 1 2 3 4 5 6 
#
# 1 0.030923 0.002044 -0.010897 -0.000004 0.004508 0.000000
# 2 0.002044 0.013554 -0.001234 -0.000003 0.001128 0.000001
# 3 -0.010897 -0.001234 0.007317 0.000001 -0.000064 0.000000
# 4 -0.000004 -0.000003 0.000001 -0.073314 0.000000 0.100358
# 5 0.004508 0.001128 -0.000064 0.000000 0.033479 0.000001
# 6 0.000000 0.000001 0.000000 0.100358 0.000001 0.053753
#
#
# Mechanical properties :
#
#
# Convention : Reuss Voigt Hill
#
# Bulk Modulus (GPa) = 31.62826 75.13944 53.38385
# Shear Modulus (GPa) = 51.85321 28.13754 39.99538
#
# Velocity S-wave (km/s) = 5.00995 3.69053 4.39998
# Velocity P-wave (km/s) = 6.98397 7.38454 7.18705
#
# Compressibility (1/GPa) = 0.03161729
#
# Stress axis : x y z
#
# Youngs Moduli (GPa) = 32.33865 73.77837 136.67663
#
# Poissons Ratio (x) = -0.15078 1.48942
# Poissons Ratio (y) = -0.06609 0.16871
# Poissons Ratio (z) = 0.35241 0.09107
#
# Static dielectric constant tensor:
#      x y z
#    x 1.686370 0.000000 -0.007540 
#    y 0.000000 1.789980 0.000000 
#    z -0.007540 0.000000 1.800180 
# 
# From -- ./inp_files/315072.got.cif
#   From: 2010.05.17/outbox.cif.g08.bks.cpg/sg12_158_cif.got.tgz:315072.got - 2010.06.03 13:09:07.
