data_PCOD9177438
_publ_section_title
;
Structure prediction by ZEFSAII (Michael W. Deem and Ramdas Pophale) SiO2 
 PCOD9177438
Probable space group: C 2/M
;
_chemical_formula_sum "Si O2"
_cell_formula_units_Z 56
_cell_length_a 28.182764
_cell_length_b 7.623508
_cell_length_c 25.953118
_cell_angle_alpha 90.000000
_cell_angle_beta 143.882883
_cell_angle_gamma 90.000000
_cell_volume 3286.744216
_symmetry_space_group_name_H-M "C 2/M"
_symmetry_group_IT_number 12
_symmetry_cell_setting 'monoclinic'
loop_
_space_group_symop_operation_xyz
x,y,z
-x,y,-z
-x,-y,-z
x,-y,z
1/2+x,1/2+y,z
1/2-x,1/2+y,-z
1/2-x,1/2-y,-z
1/2+x,1/2-y,z
loop_
_atom_site_type_symbol
_atom_site_label
_atom_site_fract_x
_atom_site_fract_y
_atom_site_fract_z
Si Si1 0.415881 0.713997 0.363035
Si Si2 0.873551 0.797436 0.643816
Si Si3 0.190381 0.708184 0.995269
Si Si4 0.667806 0.715345 0.814251
Si Si5 0.900180 0.788268 0.465156
Si Si6 0.949173 0.205844 0.196614
Si Si7 0.297179 0.793506 0.472064
O O1 0.415454 0.500000 0.362340
O O2 0.362622 0.772279 0.268222
O O3 0.509379 0.767606 0.439576
O O4 0.387337 0.769405 0.394843
O O5 0.793704 0.722237 0.601083
O O6 0.852918 0.791236 0.564918
O O7 0.961538 0.717089 0.729622
O O8 0.878176 0.000000 0.665113
O O9 0.181230 0.500000 0.991351
O O10 0.104614 0.779994 0.902007
O O11 0.250000 0.750000 0.000000
O O12 0.242491 0.771194 0.089819
O O13 0.668015 0.500000 0.815488
O O14 0.604282 0.775525 0.802492
O O15 0.835378 0.729095 0.449756
O O16 0.900107 0.000000 0.465167
O O17 0.959518 0.000000 0.217494
O O18 0.294778 0.000000 0.482579
#
# Coordination Sequence:
#
# PCOD9177438 Si02
#       7
#     8   8   8   8   8   8   8
#     4   8  14  25  42  62  80 106 145 173 193 235
#     4   9  18  31  45  60  80 111 145 169 199 247
#     4   9  16  25  38  58  84 111 136 165 203 245
#     4   8  13  22  38  59  81 104 131 165 200 233
#     4   9  16  27  44  62  81 108 141 173 200 236
#     4   9  16  27  43  60  80 107 137 170 205 241
#     4  10  19  29  42  62  87 110 134 170 210 246
#
# _framework density 17.038136999999999
#
# number of rings (size 3 to 8) (size 9 to 14) (size 15 to 20)
#    0.000    3.143    0.000    3.429    0.000    3.429 
#    0.000    1.429    0.000    5.143    0.000    1.000 
#    0.000    8.000    0.000    0.000    0.000    0.000 
#
# Total GULP energy -155907.855589 kJ/mol
# GULP energy per Si atom -5568.137700 kJ/mol
# Density = 1.699936 g / cm^3
# Si number density = 17.038137 Si / 1000 Ang^3
#
#
#
# Elastic Constant Matrix: (Units=GPa)
#
#
# Indices 1 2 3 4 5 6 
#
# 1 96.9706 -1.4957 67.3596 0.0000 1.4869 0.0000
# 2 -1.4957 30.0052 -6.0270 0.0001 3.9011 0.0001
# 3 67.3596 -6.0270 158.9111 0.0000 4.5601 0.0000
# 4 0.0000 0.0001 0.0000 9.6103 0.0000 -2.6734
# 5 1.4869 3.9011 4.5601 0.0000 26.4318 0.0000
# 6 0.0000 0.0001 0.0000 -2.6734 0.0000 12.1945
#
#
#
# Elastic Compliance Matrix: (Units=1/GPa)
#
#
# Indices 1 2 3 4 5 6 
#
# 1 0.014627 -0.000566 -0.006231 0.000000 0.000336 0.000000
# 2 -0.000566 0.034332 0.001695 -0.000001 -0.005328 0.000000
# 3 -0.006231 0.001695 0.009040 0.000000 -0.001459 0.000000
# 4 0.000000 -0.000001 0.000000 0.110813 0.000000 0.024293
# 5 0.000336 -0.005328 -0.001459 0.000000 0.038852 0.000000
# 6 0.000000 0.000000 0.000000 0.024293 0.000000 0.087330
#
#
# Mechanical properties :
#
#
# Convention : Reuss Voigt Hill
#
# Bulk Modulus (GPa) = 20.92273 45.06232 32.99253
# Shear Modulus (GPa) = 15.56998 24.71732 20.14365
#
# Velocity S-wave (km/s) = 3.02624 3.81295 3.44214
# Velocity P-wave (km/s) = 4.95151 6.77422 5.93328
#
# Compressibility (1/GPa) = 0.04779490
#
# Stress axis : x y z
#
# Youngs Moduli (GPa) = 68.36682 29.12696 110.61580
#
# Poissons Ratio (x) = 0.01649 0.68927
# Poissons Ratio (y) = 0.03871 -0.18749
# Poissons Ratio (z) = 0.42601 -0.04937
#
# Static dielectric constant tensor:
#      x y z
#    x 1.560490 0.000000 0.012800 
#    y 0.000000 1.828060 0.000000 
#    z 0.012800 0.000000 1.607120 
# 
# From -- ./inp_files/348634.got.cif
#   From: 2010.05.17/outbox.cif.g08.bks.cpg/sg12_175_cif.got.tgz:348634.got - 2010.06.03 13:09:07.
