data_PCOD9177526
_publ_section_title
;
Structure prediction by ZEFSAII (Michael W. Deem and Ramdas Pophale) SiO2 
 PCOD9177526
Probable space group: C 2/M
;
_chemical_formula_sum "Si O2"
_cell_formula_units_Z 52
_cell_length_a 8.575479
_cell_length_b 25.427608
_cell_length_c 25.122408
_cell_angle_alpha 90.000000
_cell_angle_beta 144.366971
_cell_angle_gamma 90.000000
_cell_volume 3191.459785
_symmetry_space_group_name_H-M "C 2/M"
_symmetry_group_IT_number 12
_symmetry_cell_setting 'monoclinic'
loop_
_space_group_symop_operation_xyz
x,y,z
-x,y,-z
-x,-y,-z
x,-y,z
1/2+x,1/2+y,z
1/2-x,1/2+y,-z
1/2-x,1/2-y,-z
1/2+x,1/2-y,z
loop_
_atom_site_type_symbol
_atom_site_label
_atom_site_fract_x
_atom_site_fract_y
_atom_site_fract_z
Si Si1 0.935095 0.783978 0.866882
Si Si2 0.000000 0.256180 0.000000
Si Si3 0.795116 0.279521 0.579601
Si Si4 0.061261 0.640530 0.579078
Si Si5 0.129865 0.191229 0.721483
Si Si6 0.944809 0.356521 0.715477
Si Si7 0.181418 0.437592 0.403726
O O1 0.797118 0.728947 0.808149
O O2 0.741552 0.832279 0.800987
O O3 0.226533 0.788699 0.922291
O O4 0.988910 0.778783 0.944287
O O5 0.500000 0.257304 0.500000
O O6 0.809541 0.318615 0.633919
O O7 0.868658 0.314080 0.549236
O O8 0.010787 0.234640 0.648082
O O9 0.367801 0.661126 0.671145
O O10 0.000000 0.630479 0.500000
O O11 0.985224 0.591299 0.595615
O O12 0.309181 0.152693 0.735171
O O13 0.911214 0.412784 0.678422
O O14 0.500000 0.426376 0.500000
O O15 0.145295 0.500000 0.395356
#
# Coordination Sequence:
#
# PCOD9177526 Si02
#       7
#     8   4   8   8   8   8   8
#     4  10  20  33  52  78 113 141 168 204 240 310
#     4  10  20  34  50  78 116 144 168 196 248 302
#     4  10  19  29  43  67 105 139 166 194 239 295
#     4  11  21  31  48  73 100 135 177 213 250 297
#     4  11  20  30  47  74 105 137 167 206 241 300
#     4  10  19  33  51  72 100 136 172 205 249 304
#     4  10  22  39  55  71  97 134 177 226 270 303
#
# _framework density 16.293486000000001
#
# number of rings (size 3 to 8) (size 9 to 14) (size 15 to 20)
#    0.000    1.692    1.538    6.000    4.308    2.154 
#    0.000    1.538    0.000    0.000    0.000    1.077 
#    0.000    0.000    0.000    0.000    0.000    0.000 
#
# Total GULP energy -144983.154380 kJ/mol
# GULP energy per Si atom -5576.275168 kJ/mol
# Density = 1.625640 g / cm^3
# Si number density = 16.293486 Si / 1000 Ang^3
#
#
#
# Elastic Constant Matrix: (Units=GPa)
#
#
# Indices 1 2 3 4 5 6 
#
# 1 88.8163 37.8693 31.4213 0.0000 10.1596 0.0000
# 2 37.8693 87.5604 29.9519 0.0000 6.4909 0.0000
# 3 31.4213 29.9519 80.0852 0.0000 10.2778 -0.0002
# 4 0.0000 0.0000 0.0000 11.9526 0.0000 1.9881
# 5 10.1596 6.4909 10.2778 0.0000 32.5640 0.0000
# 6 0.0000 0.0000 -0.0002 1.9881 0.0000 9.0601
#
#
#
# Elastic Compliance Matrix: (Units=1/GPa)
#
#
# Indices 1 2 3 4 5 6 
#
# 1 0.014997 -0.005042 -0.003676 0.000000 -0.002514 0.000000
# 2 -0.005042 0.014830 -0.003534 0.000000 -0.000268 0.000000
# 3 -0.003676 -0.003534 0.015647 0.000000 -0.003087 0.000000
# 4 0.000000 0.000000 0.000000 0.086833 0.000000 -0.019054
# 5 -0.002514 -0.000268 -0.003087 0.000000 0.032521 0.000000
# 6 0.000000 0.000000 0.000000 -0.019054 0.000000 0.114555
#
#
# Mechanical properties :
#
#
# Convention : Reuss Voigt Hill
#
# Bulk Modulus (GPa) = 47.68659 50.54965 49.11812
# Shear Modulus (GPa) = 16.08353 21.19662 18.64007
#
# Velocity S-wave (km/s) = 3.14525 3.61075 3.38601
# Velocity P-wave (km/s) = 6.52081 6.96241 6.74522
#
# Compressibility (1/GPa) = 0.02097026
#
# Stress axis : x y z
#
# Youngs Moduli (GPa) = 66.67961 67.43017 63.91144
#
# Poissons Ratio (x) = 0.34002 0.23491
# Poissons Ratio (y) = 0.33623 0.22585
# Poissons Ratio (z) = 0.24509 0.23828
#
# Static dielectric constant tensor:
#      x y z
#    x 1.598270 0.000000 0.009220 
#    y 0.000000 1.534920 0.000000 
#    z 0.009220 0.000000 1.569660 
# 
# From -- ./inp_files/357117.got.cif
#   From: 2010.05.17/outbox.cif.g08.bks.cpg/sg12_179_cif.got.tgz:357117.got - 2010.06.03 13:09:07.
