data_PCOD9178391
_publ_section_title
;
Structure prediction by ZEFSAII (Michael W. Deem and Ramdas Pophale) SiO2 
 PCOD9178391
Probable space group: C 2/M
;
_chemical_formula_sum "Si O2"
_cell_formula_units_Z 64
_cell_length_a 23.023334
_cell_length_b 7.366784
_cell_length_c 22.978565
_cell_angle_alpha 90.000000
_cell_angle_beta 49.783375
_cell_angle_gamma 90.000000
_cell_volume 2976.047970
_symmetry_space_group_name_H-M "C 2/M"
_symmetry_group_IT_number 12
_symmetry_cell_setting 'monoclinic'
loop_
_space_group_symop_operation_xyz
x,y,z
-x,y,-z
-x,-y,-z
x,-y,z
1/2+x,1/2+y,z
1/2-x,1/2+y,-z
1/2-x,1/2-y,-z
1/2+x,1/2-y,z
loop_
_atom_site_type_symbol
_atom_site_label
_atom_site_fract_x
_atom_site_fract_y
_atom_site_fract_z
Si Si1 0.887915 0.720702 0.295271
Si Si2 0.737957 0.722838 0.326405
Si Si3 0.076938 0.789811 0.476404
Si Si4 0.226808 0.288096 0.826057
Si Si5 0.045153 0.721022 0.137150
Si Si6 0.882606 0.281249 0.789366
Si Si7 0.575137 0.777954 0.987027
Si Si8 0.039389 0.280644 0.631753
O O1 0.887656 0.500000 0.295622
O O2 0.807506 0.780496 0.322428
O O3 0.958748 0.774870 0.208604
O O4 0.909053 0.777360 0.346969
O O5 0.737497 0.500000 0.327456
O O6 0.656300 0.786538 0.402124
O O7 0.753862 0.784791 0.250326
O O8 0.000000 0.706779 0.500000
O O9 0.069547 0.783186 0.550568
O O10 0.077748 0.000000 0.456768
O O11 0.210032 0.500000 0.827331
O O12 0.301311 0.275063 0.817899
O O13 0.151830 0.213933 0.905839
O O14 0.046226 0.500000 0.136289
O O15 0.097190 0.778581 0.158059
O O16 0.070038 0.781463 0.057390
O O17 0.883822 0.500000 0.788800
O O18 0.952860 0.222376 0.702622
O O19 0.576019 0.000000 0.987441
O O20 0.500000 0.724814 0.000000
O O21 0.039239 0.500000 0.630635
#
# Coordination Sequence:
#
# PCOD9178391 Si02
#       8
#     8   8   8   8   8   8   8   8
#     4   8  14  27  47  68  91 120 152 186 227 275
#     4   9  17  29  45  66  93 123 152 185 230 278
#     4  10  20  32  46  66  94 125 152 183 229 280
#     4  10  19  30  48  73  96 120 154 193 227 264
#     4   8  14  26  44  66  93 123 152 184 227 275
#     4   9  18  32  48  66  93 127 154 181 226 279
#     4   9  16  26  44  72  99 119 149 196 235 260
#     4   9  18  32  50  70  89 115 155 195 227 266
#
# _framework density 21.505029
#
# number of rings (size 3 to 8) (size 9 to 14) (size 15 to 20)
#    0.000    3.000    0.000    3.000    0.000    5.750 
#    0.000    0.625    0.000    1.125    0.000    3.500 
#    0.000    0.000    0.000    0.000    0.000    0.000 
#
# Total GULP energy -178691.469331 kJ/mol
# GULP energy per Si atom -5584.108417 kJ/mol
# Density = 2.145608 g / cm^3
# Si number density = 21.505029 Si / 1000 Ang^3
#
#
#
# Elastic Constant Matrix: (Units=GPa)
#
#
# Indices 1 2 3 4 5 6 
#
# 1 174.9782 -5.5588 126.0461 -0.0023 -25.6107 -0.0016
# 2 -5.5588 73.9715 -1.6605 -0.0002 -3.2777 -0.0271
# 3 126.0461 -1.6605 206.3663 0.0012 -5.0164 -0.0028
# 4 -0.0023 -0.0002 0.0012 3.9352 -0.0003 3.3937
# 5 -25.6107 -3.2777 -5.0164 -0.0003 30.6428 0.0012
# 6 -0.0016 -0.0271 -0.0028 3.3937 0.0012 -8.8483
#
#
#
# Elastic Compliance Matrix: (Units=1/GPa)
#
#
# Indices 1 2 3 4 5 6 
#
# 1 0.012396 0.001178 -0.007336 0.000009 0.009286 0.000001
# 2 0.001178 0.013699 -0.000552 0.000028 0.002360 -0.000031
# 3 -0.007336 -0.000552 0.009208 -0.000005 -0.004683 -0.000002
# 4 0.000009 0.000028 -0.000005 0.190957 0.000009 0.073239
# 5 0.009286 0.002360 -0.004683 0.000009 0.039881 0.000001
# 6 0.000001 -0.000031 -0.000002 0.073239 0.000001 -0.084925
#
#
# Mechanical properties :
#
#
# Convention : Reuss Voigt Hill
#
# Bulk Modulus (GPa) = 45.69570 76.99662 61.34616
# Shear Modulus (GPa) = 24.76087 27.57854 26.16970
#
# Velocity S-wave (km/s) = 3.39691 3.58498 3.49221
# Velocity P-wave (km/s) = 6.05643 7.28133 6.69694
#
# Compressibility (1/GPa) = 0.02188390
#
# Stress axis : x y z
#
# Youngs Moduli (GPa) = 80.66975 72.99578 108.59678
#
# Poissons Ratio (x) = -0.08601 0.79670
# Poissons Ratio (y) = -0.09505 0.05996
# Poissons Ratio (z) = 0.59181 0.04030
#
# Static dielectric constant tensor:
#      x y z
#    x 1.739170 0.000000 -0.001380 
#    y 0.000000 1.851910 0.000000 
#    z -0.001380 0.000000 1.738670 
# 
# From -- ./inp_files/320982.got.cif
#   From: 2010.05.17/outbox.cif.g08.bks.cpg/sg12_161_cif.got.tgz:320982.got - 2010.06.03 13:09:07.
