data_PCOD9178661
_publ_section_title
;
Structure prediction by ZEFSAII (Michael W. Deem and Ramdas Pophale) SiO2 
 PCOD9178661
Probable space group: C 2/M
;
_chemical_formula_sum "Si O2"
_cell_formula_units_Z 48
_cell_length_a 7.641266
_cell_length_b 20.594886
_cell_length_c 15.628511
_cell_angle_alpha 90.000000
_cell_angle_beta 73.502951
_cell_angle_gamma 90.000000
_cell_volume 2358.228603
_symmetry_space_group_name_H-M "C 2/M"
_symmetry_group_IT_number 12
_symmetry_cell_setting 'monoclinic'
loop_
_space_group_symop_operation_xyz
x,y,z
-x,y,-z
-x,-y,-z
x,-y,z
1/2+x,1/2+y,z
1/2-x,1/2+y,-z
1/2-x,1/2-y,-z
1/2+x,1/2-y,z
loop_
_atom_site_type_symbol
_atom_site_label
_atom_site_fract_x
_atom_site_fract_y
_atom_site_fract_z
Si Si1 0.800494 0.924183 0.923119
Si Si2 0.239233 0.923113 0.884553
Si Si3 0.537674 0.886358 0.303695
Si Si4 0.827681 0.076413 0.409447
Si Si5 0.312589 0.426345 0.735580
Si Si6 0.666035 0.182473 0.540275
O O1 0.760268 0.896017 0.834899
O O2 0.020830 0.921686 0.901409
O O3 0.743778 0.000000 0.930668
O O4 0.721904 0.899272 0.024183
O O5 0.336492 0.882753 0.797095
O O6 0.292238 0.000000 0.868983
O O7 0.664618 0.915093 0.361761
O O8 0.364693 0.928417 0.298474
O O9 0.429604 0.823207 0.354303
O O10 0.790575 0.121025 0.497239
O O11 0.011862 0.101409 0.337278
O O12 0.841951 0.000000 0.429429
O O13 0.372753 0.500000 0.747532
O O14 0.500000 0.173953 0.500000
O O15 0.750000 0.250000 0.500000
#
# Coordination Sequence:
#
# PCOD9178661 Si02
#       6
#     8   8   8   8   8   8
#     4   8  15  27  45  73 115 161 183 215 281 335
#     4   9  15  27  48  74 115 155 187 225 271 337
#     4  11  21  33  54  82 110 149 189 235 277 335
#     4  10  21  38  57  83 116 146 187 239 290 337
#     4  10  19  30  51  82 116 151 184 227 282 333
#     4  10  25  43  62  81 112 151 191 238 290 345
#
# _framework density 20.354263
#
# number of rings (size 3 to 8) (size 9 to 14) (size 15 to 20)
#    0.000    2.333    1.667    2.500    2.333    5.000 
#    0.000    4.167    0.000    0.000    0.000    1.167 
#    5.000    0.167    0.000    0.000    0.000    0.000 
#
# Total GULP energy -133617.807062 kJ/mol
# GULP energy per Si atom -5567.408628 kJ/mol
# Density = 2.030794 g / cm^3
# Si number density = 20.354263 Si / 1000 Ang^3
#
#
#
# Elastic Constant Matrix: (Units=GPa)
#
#
# Indices 1 2 3 4 5 6 
#
# 1 70.1684 2.8081 26.2293 0.0000 2.5421 0.0000
# 2 2.8081 45.8566 42.1203 0.0000 -18.6917 0.0000
# 3 26.2293 42.1203 164.7359 0.0000 -23.6350 0.0000
# 4 0.0000 0.0000 0.0000 18.7626 0.0000 -11.0747
# 5 2.5421 -18.6917 -23.6350 0.0000 28.0733 0.0000
# 6 0.0000 0.0000 0.0000 -11.0747 0.0000 13.5836
#
#
#
# Elastic Compliance Matrix: (Units=1/GPa)
#
#
# Indices 1 2 3 4 5 6 
#
# 1 0.015536 0.000362 -0.003109 0.000000 -0.003783 0.000000
# 2 0.000362 0.034967 -0.006441 0.000000 0.017827 0.000000
# 3 -0.003109 -0.006441 0.008686 0.000000 0.003306 0.000000
# 4 0.000000 0.000000 0.000000 0.102739 0.000000 0.083763
# 5 -0.003783 0.017827 0.003306 0.000000 0.050617 0.000000
# 6 0.000000 0.000000 0.000000 0.083763 0.000000 0.141910
#
#
# Mechanical properties :
#
#
# Convention : Reuss Voigt Hill
#
# Bulk Modulus (GPa) = 24.50078 47.00849 35.75463
# Shear Modulus (GPa) = 12.93880 26.05746 19.49813
#
# Velocity S-wave (km/s) = 2.52400 3.58187 3.09842
# Velocity P-wave (km/s) = 4.53403 6.34442 5.51403
#
# Compressibility (1/GPa) = 0.04081502
#
# Stress axis : x y z
#
# Youngs Moduli (GPa) = 64.36589 28.59833 115.12132
#
# Poissons Ratio (x) = -0.01036 0.35792
# Poissons Ratio (y) = -0.02332 0.74145
# Poissons Ratio (z) = 0.20012 0.18419
#
# Static dielectric constant tensor:
#      x y z
#    x 1.784200 0.000000 -0.025230 
#    y 0.000000 1.610750 0.000000 
#    z -0.025230 0.000000 1.857380 
# 
# From -- ./inp_files/196909.got.cif
#   From: 2010.05.17/outbox.cif.g08.bks.cpg/sg12_99_cif.got.tgz:196909.got - 2010.06.03 13:09:07.
