data_PCOD9178767
_publ_section_title
;
Structure prediction by ZEFSAII (Michael W. Deem and Ramdas Pophale) SiO2 
 PCOD9178767
Probable space group: C 2/M
;
_chemical_formula_sum "Si O2"
_cell_formula_units_Z 64
_cell_length_a 20.580584
_cell_length_b 9.011963
_cell_length_c 21.310010
_cell_angle_alpha 90.000000
_cell_angle_beta 99.708999
_cell_angle_gamma 90.000000
_cell_volume 3895.788468
_symmetry_space_group_name_H-M "C 2/M"
_symmetry_group_IT_number 12
_symmetry_cell_setting 'monoclinic'
loop_
_space_group_symop_operation_xyz
x,y,z
-x,y,-z
-x,-y,-z
x,-y,z
1/2+x,1/2+y,z
1/2-x,1/2+y,-z
1/2-x,1/2-y,-z
1/2+x,1/2-y,z
loop_
_atom_site_type_symbol
_atom_site_label
_atom_site_fract_x
_atom_site_fract_y
_atom_site_fract_z
Si Si1 0.645092 0.324209 0.161905
Si Si2 0.817121 0.323709 0.434488
Si Si3 0.686792 0.175932 0.956936
Si Si4 0.211055 0.179298 0.832497
Si Si5 0.810716 0.828148 0.308199
Si Si6 0.650255 0.172008 0.289656
Si Si7 0.071228 0.324562 0.038741
Si Si8 0.673216 0.178844 0.427894
O O1 0.654638 0.500000 0.160808
O O2 0.714327 0.242528 0.157185
O O3 0.626018 0.272939 0.229006
O O4 0.592922 0.269230 0.102318
O O5 0.814941 0.500000 0.428355
O O6 0.840439 0.257148 0.372285
O O7 0.743003 0.261696 0.432202
O O8 0.852923 0.286689 0.506466
O O9 0.677513 0.253440 0.888331
O O10 0.698108 0.000000 0.950542
O O11 0.750000 0.250000 0.000000
O O12 0.625362 0.196487 0.993184
O O13 0.176744 0.223082 0.760983
O O14 0.214182 0.000000 0.835534
O O15 0.730562 0.820448 0.300545
O O16 0.829038 0.000000 0.316431
O O17 0.632456 0.214612 0.358308
O O18 0.632358 0.000000 0.275397
O O19 0.071236 0.500000 0.055479
O O20 0.000000 0.285629 0.000000
O O21 0.685097 0.000000 0.427259
#
# Coordination Sequence:
#
# PCOD9178767 Si02
#       8
#     8   8   8   8   8   8   8   8
#     4  11  20  29  45  68  91 115 149 194 237 274
#     4   9  14  19  30  47  69  99 138 181 219 259
#     4  11  21  33  53  76  96 119 152 194 235 276
#     4  10  19  31  46  64  90 121 154 190 229 276
#     4   8  15  25  35  50  75 109 143 177 220 266
#     4   8  14  25  38  51  75 110 146 182 222 271
#     4  10  22  39  55  70  93 126 157 185 229 289
#     4   8  14  22  30  44  68 102 140 176 217 263
#
# _framework density 16.427994999999999
#
# number of rings (size 3 to 8) (size 9 to 14) (size 15 to 20)
#    0.000    2.625    1.250    3.750    0.000    6.250 
#    0.000    0.000    0.000    0.000    0.000    0.000 
#    0.000    0.000    0.000    1.125    0.000   24.000 
#
# Total GULP energy -178143.308896 kJ/mol
# GULP energy per Si atom -5566.978403 kJ/mol
# Density = 1.639060 g / cm^3
# Si number density = 16.427995 Si / 1000 Ang^3
#
#
#
# Elastic Constant Matrix: (Units=GPa)
#
#
# Indices 1 2 3 4 5 6 
#
# 1 27.2641 20.0659 19.7547 0.0000 2.9059 0.0000
# 2 20.0659 67.9637 69.6275 0.0000 -0.1996 0.0000
# 3 19.7547 69.6275 172.2885 0.0000 -8.7554 0.0000
# 4 0.0000 0.0000 0.0000 32.2604 0.0000 -2.5001
# 5 2.9059 -0.1996 -8.7554 0.0000 7.2673 0.0000
# 6 0.0000 0.0000 0.0000 -2.5001 0.0000 8.6183
#
#
#
# Elastic Compliance Matrix: (Units=1/GPa)
#
#
# Indices 1 2 3 4 5 6 
#
# 1 0.049874 -0.013280 -0.001474 0.000000 -0.022083 0.000000
# 2 -0.013280 0.029720 -0.010841 0.000000 -0.006934 0.000000
# 3 -0.001474 -0.010841 0.011045 0.000000 0.013599 0.000000
# 4 0.000000 0.000000 0.000000 0.031711 0.000000 0.009199
# 5 -0.022083 -0.006934 0.013599 0.000000 0.162627 0.000000
# 6 0.000000 0.000000 0.000000 0.009199 0.000000 0.118701
#
#
# Mechanical properties :
#
#
# Convention : Reuss Voigt Hill
#
# Bulk Modulus (GPa) = 25.34824 54.04584 39.69704
# Shear Modulus (GPa) = 10.68338 20.16707 15.42523
#
# Velocity S-wave (km/s) = 2.55290 3.50752 3.06757
# Velocity P-wave (km/s) = 4.91458 7.02664 6.06328
#
# Compressibility (1/GPa) = 0.03945046
#
# Stress axis : x y z
#
# Youngs Moduli (GPa) = 20.05070 33.64722 90.53581
#
# Poissons Ratio (x) = 0.44682 0.13345
# Poissons Ratio (y) = 0.26627 0.98146
# Poissons Ratio (z) = 0.02956 0.36476
#
# Static dielectric constant tensor:
#      x y z
#    x 1.513780 0.000000 -0.015690 
#    y 0.000000 1.549930 0.000000 
#    z -0.015690 0.000000 1.625900 
# 
# From -- ./inp_files/323390.got.cif
#   From: 2010.05.17/outbox.cif.g08.bks.cpg/sg12_162_cif.got.tgz:323390.got - 2010.06.03 13:09:07.
