data_PCOD9178139
_publ_section_title
;
Structure prediction by ZEFSAII (Michael W. Deem and Ramdas Pophale) SiO2 
 PCOD9178139
Probable space group: C 2/M
;
_chemical_formula_sum "Si O2"
_cell_formula_units_Z 64
_cell_length_a 25.993781
_cell_length_b 9.769435
_cell_length_c 15.424276
_cell_angle_alpha 90.000000
_cell_angle_beta 71.839564
_cell_angle_gamma 90.000000
_cell_volume 3721.799761
_symmetry_space_group_name_H-M "C 2/M"
_symmetry_group_IT_number 12
_symmetry_cell_setting 'monoclinic'
loop_
_space_group_symop_operation_xyz
x,y,z
-x,y,-z
-x,-y,-z
x,-y,z
1/2+x,1/2+y,z
1/2-x,1/2+y,-z
1/2-x,1/2-y,-z
1/2+x,1/2-y,z
loop_
_atom_site_type_symbol
_atom_site_label
_atom_site_fract_x
_atom_site_fract_y
_atom_site_fract_z
Si Si1 0.457387 0.164197 0.745889
Si Si2 0.317604 0.341426 0.389433
Si Si3 0.712715 0.847379 0.074970
Si Si4 0.941294 0.156985 0.076499
Si Si5 0.342791 0.164292 0.716184
Si Si6 0.403437 0.152899 0.954317
Si Si7 0.719131 0.339741 0.390920
Si Si8 0.941612 0.836835 0.279883
O O1 0.404767 0.192562 0.713702
O O2 0.439770 0.200600 0.853903
O O3 0.511476 0.249167 0.698790
O O4 0.466400 0.000000 0.738375
O O5 0.309318 0.500000 0.365074
O O6 0.302730 0.334881 0.498896
O O7 0.276709 0.239451 0.362030
O O8 0.380704 0.307731 0.343393
O O9 0.696087 0.805580 0.180918
O O10 0.655961 0.854540 0.054400
O O11 0.736433 0.000000 0.066803
O O12 0.750000 0.750000 0.000000
O O13 0.943255 0.194671 0.176126
O O14 0.922907 0.000000 0.081340
O O15 0.904738 0.252606 0.036802
O O16 0.000000 0.165740 0.000000
O O17 0.321734 0.256317 0.648952
O O18 0.339257 0.000000 0.700916
O O19 0.421846 0.000000 0.968500
O O20 0.724101 0.500000 0.363781
O O21 0.951781 0.000000 0.284968
#
# Coordination Sequence:
#
# PCOD9178139 Si02
#       8
#     8   8   8   8   8   8   8   8
#     4   9  18  33  52  74 101 136 175 210 249 304
#     4   9  20  38  57  78 107 140 167 208 272 323
#     4   9  19  34  50  72 102 135 172 212 255 303
#     4  10  19  30  46  72 101 130 169 208 242 294
#     4   9  19  36  56  76 104 142 175 210 264 318
#     4   9  18  32  48  67  96 134 171 206 248 295
#     4  10  20  36  59  83 103 130 177 222 258 311
#     4  10  20  34  52  75 106 139 171 211 261 312
#
# _framework density 17.195981
#
# number of rings (size 3 to 8) (size 9 to 14) (size 15 to 20)
#    0.000    2.625    1.250    1.875    0.000    4.250 
#    0.000    6.875    0.000    3.750    0.000    0.000 
#    0.000    0.000    0.000    0.000    0.000    0.000 
#
# Total GULP energy -178290.237345 kJ/mol
# GULP energy per Si atom -5571.569917 kJ/mol
# Density = 1.715684 g / cm^3
# Si number density = 17.195981 Si / 1000 Ang^3
#
#
#
# Elastic Constant Matrix: (Units=GPa)
#
#
# Indices 1 2 3 4 5 6 
#
# 1 95.0250 61.3275 38.4293 0.0000 -5.9318 0.0000
# 2 61.3275 63.5728 36.3735 0.0000 5.5753 0.0000
# 3 38.4293 36.3735 33.4687 0.0000 -3.3625 0.0000
# 4 0.0000 0.0000 0.0000 10.3572 0.0000 5.6688
# 5 -5.9318 5.5753 -3.3625 0.0000 32.4455 0.0000
# 6 0.0000 0.0000 0.0000 5.6688 0.0000 36.1923
#
#
#
# Elastic Compliance Matrix: (Units=1/GPa)
#
#
# Indices 1 2 3 4 5 6 
#
# 1 0.031478 -0.029666 -0.002842 0.000000 0.010558 0.000000
# 2 -0.029666 0.074711 -0.049482 0.000000 -0.023390 0.000000
# 3 -0.002842 -0.049482 0.088643 0.000000 0.017170 0.000000
# 4 0.000000 0.000000 0.000000 0.105604 0.000000 -0.016541
# 5 0.010558 -0.023390 0.017170 0.000000 0.038550 0.000000
# 6 0.000000 0.000000 0.000000 -0.016541 0.000000 0.030221
#
#
# Mechanical properties :
#
#
# Convention : Reuss Voigt Hill
#
# Bulk Modulus (GPa) = 32.41252 51.59188 42.00220
# Shear Modulus (GPa) = 9.20014 19.52808 14.36411
#
# Velocity S-wave (km/s) = 2.31555 3.37355 2.89332
# Velocity P-wave (km/s) = 5.10283 6.72621 5.96996
#
# Compressibility (1/GPa) = 0.03085228
#
# Stress axis : x y z
#
# Youngs Moduli (GPa) = 31.76839 13.38497 11.28119
#
# Poissons Ratio (x) = 0.39708 0.03206
# Poissons Ratio (y) = 0.94244 0.55821
# Poissons Ratio (z) = 0.09028 0.66231
#
# Static dielectric constant tensor:
#      x y z
#    x 1.584760 0.000000 -0.006960 
#    y 0.000000 1.598930 0.000000 
#    z -0.006960 0.000000 1.575850 
# 
# From -- ./inp_files/243857.got.cif
#   From: 2010.05.17/outbox.cif.g08.bks.cpg/sg12_122_cif.got.tgz:243857.got - 2010.06.03 13:09:07.
