data_PCOD9178167
_publ_section_title
;
Structure prediction by ZEFSAII (Michael W. Deem and Ramdas Pophale) SiO2 
 PCOD9178167
Probable space group: C 2/M
;
_chemical_formula_sum "Si O2"
_cell_formula_units_Z 48
_cell_length_a 12.125070
_cell_length_b 15.177414
_cell_length_c 13.748888
_cell_angle_alpha 90.000000
_cell_angle_beta 101.995759
_cell_angle_gamma 90.000000
_cell_volume 2474.918118
_symmetry_space_group_name_H-M "C 2/M"
_symmetry_group_IT_number 12
_symmetry_cell_setting 'monoclinic'
loop_
_space_group_symop_operation_xyz
x,y,z
-x,y,-z
-x,-y,-z
x,-y,z
1/2+x,1/2+y,z
1/2-x,1/2+y,-z
1/2-x,1/2-y,-z
1/2+x,1/2-y,z
loop_
_atom_site_type_symbol
_atom_site_label
_atom_site_fract_x
_atom_site_fract_y
_atom_site_fract_z
Si Si1 0.416840 0.893774 0.783138
Si Si2 0.145593 0.647225 0.910963
Si Si3 0.984489 0.101982 0.887955
Si Si4 0.778602 0.154796 0.126400
Si Si5 0.951598 0.392377 0.387481
Si Si6 0.230370 0.098458 0.253543
O O1 0.512087 0.861864 0.876982
O O2 0.296206 0.855961 0.791806
O O3 0.466270 0.867542 0.686745
O O4 0.410856 0.000000 0.785731
O O5 0.185506 0.745659 0.891435
O O6 0.199491 0.591466 0.833890
O O7 0.200376 0.622330 0.022978
O O8 0.886068 0.142768 0.803169
O O9 0.103270 0.104725 0.855991
O O10 0.949829 0.000000 0.897446
O O11 0.000000 0.141299 0.000000
O O12 0.945985 0.500000 0.385521
O O13 0.823772 0.360397 0.342057
O O14 0.000000 0.364583 0.500000
O O15 0.203186 0.000000 0.286171
#
# Coordination Sequence:
#
# PCOD9178167 Si02
#       6
#     8   8   8   8   8   8
#     4  10  21  35  53  78 103 132 176 225 265 302
#     4  10  21  32  47  70 104 140 172 205 248 303
#     4  10  19  30  47  68 100 138 170 201 240 303
#     4  11  22  31  48  72 107 140 173 204 252 304
#     4   8  15  31  56  80  99 125 170 225 269 305
#     4   9  17  31  51  74  96 128 174 208 243 301
#
# _framework density 19.394582
#
# number of rings (size 3 to 8) (size 9 to 14) (size 15 to 20)
#    0.000    2.333    1.667    2.500    2.333    2.667 
#    0.000    0.000    0.000    5.000    0.000    5.833 
#    0.000    0.000    0.000    0.000    0.000    0.000 
#
# Total GULP energy -133788.396976 kJ/mol
# GULP energy per Si atom -5574.516541 kJ/mol
# Density = 1.935044 g / cm^3
# Si number density = 19.394582 Si / 1000 Ang^3
#
#
#
# Elastic Constant Matrix: (Units=GPa)
#
#
# Indices 1 2 3 4 5 6 
#
# 1 160.2918 1.4192 63.5086 0.0000 15.9687 0.0000
# 2 1.4192 30.9844 4.3942 0.0000 3.5887 0.0000
# 3 63.5086 4.3942 113.7198 0.0000 25.2952 0.0000
# 4 0.0000 0.0000 0.0000 13.6456 0.0000 -8.3566
# 5 15.9687 3.5887 25.2952 0.0000 24.4082 0.0000
# 6 0.0000 0.0000 0.0000 -8.3566 0.0000 28.9188
#
#
#
# Elastic Compliance Matrix: (Units=1/GPa)
#
#
# Indices 1 2 3 4 5 6 
#
# 1 0.008026 0.000340 -0.004310 0.000000 -0.000835 0.000000
# 2 0.000340 0.032854 -0.000436 0.000000 -0.004601 0.000000
# 3 -0.004310 -0.000436 0.013744 0.000000 -0.011360 0.000000
# 4 0.000000 0.000000 0.000000 0.089040 0.000000 0.025730
# 5 -0.000835 -0.004601 -0.011360 0.000000 0.053965 0.000000
# 6 0.000000 0.000000 0.000000 0.025730 0.000000 0.042015
#
#
# Mechanical properties :
#
#
# Convention : Reuss Voigt Hill
#
# Bulk Modulus (GPa) = 21.82808 49.29333 35.56070
# Shear Modulus (GPa) = 18.95904 29.10612 24.03258
#
# Velocity S-wave (km/s) = 3.12996 3.87813 3.52396
# Velocity P-wave (km/s) = 4.93370 6.74718 5.91041
#
# Compressibility (1/GPa) = 0.04581255
#
# Stress axis : x y z
#
# Youngs Moduli (GPa) = 124.58893 30.43814 72.75807
#
# Poissons Ratio (x) = -0.01036 0.31359
# Poissons Ratio (y) = -0.04239 0.03173
# Poissons Ratio (z) = 0.53698 0.01327
#
# Static dielectric constant tensor:
#      x y z
#    x 1.710030 0.000000 0.036880 
#    y 0.000000 1.747280 0.000000 
#    z 0.036880 0.000000 1.679580 
# 
# From -- ./inp_files/131174.got.cif
#   From: 2010.05.17/outbox.cif.g08.bks.cpg/sg12_66_cif.got.tgz:131174.got - 2010.06.03 13:09:07.
