data_PCOD9178062
_publ_section_title
;
Structure prediction by ZEFSAII (Michael W. Deem and Ramdas Pophale) SiO2 
 PCOD9178062
Probable space group: C 2/M
;
_chemical_formula_sum "Si O2"
_cell_formula_units_Z 64
_cell_length_a 14.300037
_cell_length_b 9.221775
_cell_length_c 21.732277
_cell_angle_alpha 90.000000
_cell_angle_beta 86.689638
_cell_angle_gamma 90.000000
_cell_volume 2861.090803
_symmetry_space_group_name_H-M "C 2/M"
_symmetry_group_IT_number 12
_symmetry_cell_setting 'monoclinic'
loop_
_space_group_symop_operation_xyz
x,y,z
-x,y,-z
-x,-y,-z
x,-y,z
1/2+x,1/2+y,z
1/2-x,1/2+y,-z
1/2-x,1/2-y,-z
1/2+x,1/2-y,z
loop_
_atom_site_type_symbol
_atom_site_label
_atom_site_fract_x
_atom_site_fract_y
_atom_site_fract_z
Si Si1 0.352683 0.676639 0.493507
Si Si2 0.866234 0.836428 0.625511
Si Si3 0.384416 0.834791 0.880759
Si Si4 0.613620 0.834652 0.873498
Si Si5 0.112895 0.836148 0.239826
Si Si6 0.858717 0.335480 0.371993
Si Si7 0.890840 0.837818 0.246083
Si Si8 0.385676 0.334769 0.003721
O O1 0.348439 0.500000 0.491215
O O2 0.250000 0.750000 0.500000
O O3 0.398843 0.718640 0.557399
O O4 0.392541 0.742512 0.429104
O O5 0.878930 0.766739 0.692159
O O6 0.754209 0.845807 0.621740
O O7 0.905985 0.000000 0.630472
O O8 0.499066 0.838367 0.876770
O O9 0.353675 0.756767 0.819154
O O10 0.351459 0.000000 0.884390
O O11 0.357503 0.746982 0.942696
O O12 0.644186 0.750309 0.811343
O O13 0.641602 0.750600 0.933916
O O14 0.646601 0.000000 0.872679
O O15 0.002211 0.851816 0.233317
O O16 0.154574 0.000000 0.239574
O O17 0.895761 0.500000 0.371431
O O18 0.878764 0.252474 0.308486
O O19 0.850608 0.000000 0.252355
O O20 0.352288 0.500000 0.005498
O O21 0.500000 0.338498 0.000000
#
# Coordination Sequence:
#
# PCOD9178062 Si02
#       8
#     8   8   8   8   8   8   8   8
#     4   9  16  29  49  71  93 117 150 191 232 272
#     4   8  16  31  51  71  89 116 154 191 226 268
#     4   9  16  25  38  60  89 119 150 185 229 273
#     4   9  16  26  40  59  87 120 151 187 229 271
#     4   9  17  31  48  66  91 122 155 189 227 272
#     4  10  19  32  50  70  93 121 154 191 229 272
#     4  10  19  30  46  68  94 123 153 188 230 275
#     4   9  15  23  37  58  84 116 154 191 225 264
#
# _framework density 22.36909
#
# number of rings (size 3 to 8) (size 9 to 14) (size 15 to 20)
#    0.000    2.875    0.000    3.000    0.000    5.000 
#    0.000    4.375    0.000    3.750    0.000    0.875 
#    0.000    0.000    0.000    0.000    0.000    0.000 
#
# Total GULP energy -178602.966530 kJ/mol
# GULP energy per Si atom -5581.342704 kJ/mol
# Density = 2.231818 g / cm^3
# Si number density = 22.369090 Si / 1000 Ang^3
#
#
#
# Elastic Constant Matrix: (Units=GPa)
#
#
# Indices 1 2 3 4 5 6 
#
# 1 58.0225 12.6575 6.1889 0.0000 9.3715 0.0000
# 2 12.6575 183.3896 136.9119 0.0000 -2.0308 0.0000
# 3 6.1889 136.9119 288.7838 0.0000 9.0262 0.0000
# 4 0.0000 0.0000 0.0000 -36.8684 0.0000 -21.8556
# 5 9.3715 -2.0308 9.0262 0.0000 22.5387 0.0000
# 6 0.0000 0.0000 0.0000 -21.8556 0.0000 -2.8697
#
#
#
# Elastic Compliance Matrix: (Units=1/GPa)
#
#
# Indices 1 2 3 4 5 6 
#
# 1 0.018938 -0.002000 0.000804 0.000000 -0.008377 0.000000
# 2 -0.002000 0.008781 -0.004224 0.000000 0.003314 0.000000
# 3 0.000804 -0.004224 0.005540 0.000000 -0.002934 0.000000
# 4 0.000000 0.000000 0.000000 0.007717 0.000000 -0.058773
# 5 -0.008377 0.003314 -0.002934 0.000000 0.049324 0.000000
# 6 0.000000 0.000000 0.000000 -0.058773 0.000000 0.099144
#
#
# Mechanical properties :
#
#
# Convention : Reuss Voigt Hill
#
# Bulk Modulus (GPa) = 44.60434 93.52360 69.06397
# Shear Modulus (GPa) = 24.06653 21.52265 22.79459
#
# Velocity S-wave (km/s) = 3.28362 3.10524 3.19568
# Velocity P-wave (km/s) = 5.86172 7.39978 6.67519
#
# Compressibility (1/GPa) = 0.02241934
#
# Stress axis : x y z
#
# Youngs Moduli (GPa) = 52.80320 113.88308 180.51446
#
# Poissons Ratio (x) = 0.22781 -0.14519
# Poissons Ratio (y) = 0.10563 0.76245
# Poissons Ratio (z) = -0.04247 0.48101
#
# Static dielectric constant tensor:
#      x y z
#    x 1.929730 0.000000 -0.042490 
#    y 0.000000 1.797790 0.000000 
#    z -0.042490 0.000000 1.832080 
# 
# From -- ./inp_files/319171.got.cif
#   From: 2010.05.17/outbox.cif.g08.bks.cpg/sg12_160_cif.got.tgz:319171.got - 2010.06.03 13:09:07.
