data_PCOD9178395
_publ_section_title
;
Structure prediction by ZEFSAII (Michael W. Deem and Ramdas Pophale) SiO2 
 PCOD9178395
Probable space group: C 2/M
;
_chemical_formula_sum "Si O2"
_cell_formula_units_Z 44
_cell_length_a 19.113859
_cell_length_b 13.009553
_cell_length_c 26.028841
_cell_angle_alpha 90.000000
_cell_angle_beta 160.259388
_cell_angle_gamma 90.000000
_cell_volume 2186.135185
_symmetry_space_group_name_H-M "C 2/M"
_symmetry_group_IT_number 12
_symmetry_cell_setting 'monoclinic'
loop_
_space_group_symop_operation_xyz
x,y,z
-x,y,-z
-x,-y,-z
x,-y,z
1/2+x,1/2+y,z
1/2-x,1/2+y,-z
1/2-x,1/2-y,-z
1/2+x,1/2-y,z
loop_
_atom_site_type_symbol
_atom_site_label
_atom_site_fract_x
_atom_site_fract_y
_atom_site_fract_z
Si Si1 0.643804 0.386053 0.733454
Si Si2 0.850234 0.794103 0.442623
Si Si3 0.000000 0.781263 0.000000
Si Si4 0.062839 0.613103 0.890058
Si Si5 0.792635 0.816216 0.953833
Si Si6 0.395269 0.293916 0.644349
O O1 0.729634 0.500000 0.784254
O O2 0.487089 0.356617 0.578849
O O3 0.518533 0.383671 0.701057
O O4 0.813443 0.296025 0.855423
O O5 0.662920 0.862437 0.290007
O O6 0.739705 0.700486 0.397215
O O7 0.000000 0.762017 0.500000
O O8 0.933344 0.847851 0.003319
O O9 0.064139 0.500000 0.914254
O O10 0.239824 0.619142 0.967880
O O11 0.115227 0.706904 0.963659
O O12 0.567104 0.791443 0.775489
O O13 0.250000 0.250000 0.500000
#
# Coordination Sequence:
#
# PCOD9178395 Si02
#       6
#     8   8   4   8   8   8
#     4  10  19  30  48  73  99 128 161 201 250 298
#     4  10  19  31  49  72  96 127 165 202 242 291
#     4  10  19  32  49  72 102 126 160 210 248 284
#     4  10  20  34  50  71 102 134 163 200 245 294
#     4   9  19  33  50  72  98 130 164 200 244 294
#     4   8  17  33  48  66  95 130 161 193 239 292
#
# _framework density 20.126843999999998
#
# number of rings (size 3 to 8) (size 9 to 14) (size 15 to 20)
#    0.000    2.545    0.000    1.909    0.000    6.545 
#    0.000    0.455    0.000    0.545    0.000   34.364 
#    0.000    0.000    0.000    0.000    0.000    0.000 
#
# Total GULP energy -122495.423128 kJ/mol
# GULP energy per Si atom -5567.973779 kJ/mol
# Density = 2.008103 g / cm^3
# Si number density = 20.126844 Si / 1000 Ang^3
#
#
#
# Elastic Constant Matrix: (Units=GPa)
#
#
# Indices 1 2 3 4 5 6 
#
# 1 138.8496 2.3172 4.6837 -0.0021 51.5203 0.0022
# 2 2.3172 24.6603 7.9858 -0.0060 1.5218 -0.0007
# 3 4.6837 7.9858 62.5504 -0.0101 5.0620 0.0182
# 4 -0.0021 -0.0060 -0.0101 8.0601 0.0074 1.7335
# 5 51.5203 1.5218 5.0620 0.0074 42.3625 -0.0022
# 6 0.0022 -0.0007 0.0182 1.7335 -0.0022 3.1180
#
#
#
# Elastic Compliance Matrix: (Units=1/GPa)
#
#
# Indices 1 2 3 4 5 6 
#
# 1 0.013134 -0.000362 0.000358 0.000026 -0.016003 -0.000037
# 2 -0.000362 0.042343 -0.005343 0.000018 -0.000442 0.000030
# 3 0.000358 -0.005343 0.016825 0.000047 -0.002254 -0.000127
# 4 0.000026 0.000018 0.000047 0.140917 -0.000067 -0.078345
# 5 -0.016003 -0.000442 -0.002254 -0.000067 0.043353 0.000092
# 6 -0.000037 0.000030 -0.000127 -0.078345 0.000092 0.364278
#
#
# Mechanical properties :
#
#
# Convention : Reuss Voigt Hill
#
# Bulk Modulus (GPa) = 16.23213 28.44818 22.34015
# Shear Modulus (GPa) = 7.66776 24.77970 16.22373
#
# Velocity S-wave (km/s) = 1.95397 3.51262 2.84222
# Velocity P-wave (km/s) = 3.62947 5.53321 4.67918
#
# Compressibility (1/GPa) = 0.06160622
#
# Stress axis : x y z
#
# Youngs Moduli (GPa) = 76.13872 23.61693 59.43581
#
# Poissons Ratio (x) = 0.00856 -0.02127
# Poissons Ratio (y) = 0.02760 0.31756
# Poissons Ratio (z) = -0.02725 0.12618
#
# Static dielectric constant tensor:
#      x y z
#    x 1.798210 0.000010 0.035180 
#    y 0.000010 1.667300 -0.000010 
#    z 0.035180 -0.000010 1.731030 
# 
# From -- ./inp_files/364129.got.cif
#   From: 2010.05.17/outbox.cif.g08.bks.cpg/sg12_183_cif.got.tgz:364129.got - 2010.06.03 13:09:07.
