data_PCOD9178811
_publ_section_title
;
Structure prediction by ZEFSAII (Michael W. Deem and Ramdas Pophale) SiO2 
 PCOD9178811
Probable space group: C 2/M
;
_chemical_formula_sum "Si O2"
_cell_formula_units_Z 56
_cell_length_a 14.790796
_cell_length_b 25.513966
_cell_length_c 26.763050
_cell_angle_alpha 90.000000
_cell_angle_beta 160.315033
_cell_angle_gamma 90.000000
_cell_volume 3402.039818
_symmetry_space_group_name_H-M "C 2/M"
_symmetry_group_IT_number 12
_symmetry_cell_setting 'monoclinic'
loop_
_space_group_symop_operation_xyz
x,y,z
-x,y,-z
-x,-y,-z
x,-y,z
1/2+x,1/2+y,z
1/2-x,1/2+y,-z
1/2-x,1/2-y,-z
1/2+x,1/2-y,z
loop_
_atom_site_type_symbol
_atom_site_label
_atom_site_fract_x
_atom_site_fract_y
_atom_site_fract_z
Si Si1 0.703923 0.385281 0.165201
Si Si2 0.395168 0.732058 0.649466
Si Si3 0.273914 0.839196 0.525678
Si Si4 0.568436 0.267374 0.110302
Si Si5 0.320565 0.062098 0.118943
Si Si6 0.185766 0.129327 0.646198
Si Si7 0.561972 0.755300 0.219481
O O1 0.592902 0.326201 0.102873
O O2 0.796295 0.409549 0.160460
O O3 0.968494 0.376485 0.335841
O O4 0.450895 0.419847 0.050696
O O5 0.309662 0.789189 0.582500
O O6 0.267310 0.687296 0.549149
O O7 0.332056 0.728997 0.674932
O O8 0.716432 0.732518 0.807025
O O9 0.012556 0.868606 0.409991
O O10 0.652373 0.265939 0.212646
O O11 0.260696 0.250722 0.947334
O O12 0.592672 0.084075 0.237031
O O13 0.323204 0.000000 0.126480
O O14 0.347601 0.184233 0.729734
O O15 0.000000 0.125072 0.500000
#
# Coordination Sequence:
#
# PCOD9178811 Si02
#       7
#     8   8   8   8   8   8   8
#     4  10  19  35  49  69  99 134 173 215 259 313
#     4  10  19  31  46  70 110 140 184 214 244 302
#     4  10  20  31  48  72 101 145 177 209 254 315
#     4  10  20  30  50  75 100 148 187 205 254 318
#     4  11  23  36  54  75 100 137 181 224 272 324
#     4  12  19  34  50  73 106 143 173 214 262 310
#     4  11  20  31  49  75 108 148 183 211 246 311
#
# _framework density 16.460712999999998
#
# number of rings (size 3 to 8) (size 9 to 14) (size 15 to 20)
#    0.000    1.429    5.714    2.143    4.000    0.286 
#    0.000    0.000    0.000    0.000    0.000    0.000 
#    0.000   12.571    0.000    0.286    0.000    0.000 
#
# Total GULP energy -156216.511196 kJ/mol
# GULP energy per Si atom -5579.161114 kJ/mol
# Density = 1.642325 g / cm^3
# Si number density = 16.460713 Si / 1000 Ang^3
#
#
#
# Elastic Constant Matrix: (Units=GPa)
#
#
# Indices 1 2 3 4 5 6 
#
# 1 77.4214 30.1179 31.2895 0.0317 -17.8572 0.0012
# 2 30.1179 80.2471 37.4652 0.0524 -5.2365 0.0031
# 3 31.2895 37.4652 86.0719 0.0106 8.4749 -0.0029
# 4 0.0317 0.0524 0.0106 13.2837 0.0042 0.2156
# 5 -17.8572 -5.2365 8.4749 0.0042 29.1135 -0.0029
# 6 0.0012 0.0031 -0.0029 0.2156 -0.0029 12.8798
#
#
#
# Elastic Compliance Matrix: (Units=1/GPa)
#
#
# Indices 1 2 3 4 5 6 
#
# 1 0.020432 -0.003306 -0.007375 -0.000034 0.014084 0.000001
# 2 -0.003306 0.016896 -0.006437 -0.000054 0.002885 -0.000004
# 3 -0.007375 -0.006437 0.018182 0.000032 -0.010974 0.000003
# 4 -0.000034 -0.000054 0.000032 0.075301 -0.000051 -0.001261
# 5 0.014084 0.002885 -0.010974 -0.000051 0.046701 0.000007
# 6 0.000001 -0.000004 0.000003 -0.001261 0.000007 0.077662
#
#
# Mechanical properties :
#
#
# Convention : Reuss Voigt Hill
#
# Bulk Modulus (GPa) = 47.00720 49.05398 48.03059
# Shear Modulus (GPa) = 16.86349 20.71326 18.78837
#
# Velocity S-wave (km/s) = 3.20421 3.55116 3.38214
# Velocity P-wave (km/s) = 6.50449 6.83225 6.67039
#
# Compressibility (1/GPa) = 0.02127334
#
# Stress axis : x y z
#
# Youngs Moduli (GPa) = 48.94381 59.18704 55.00093
#
# Poissons Ratio (x) = 0.19567 0.40565
# Poissons Ratio (y) = 0.16180 0.35402
# Poissons Ratio (z) = 0.36097 0.38096
#
# Static dielectric constant tensor:
#      x y z
#    x 1.569480 0.000010 0.014880 
#    y 0.000010 1.515010 -0.000040 
#    z 0.014880 -0.000040 1.631750 
# 
# From -- ./inp_files/362237.got.cif
#   From: 2010.05.17/outbox.cif.g08.bks.cpg/sg12_182_cif.got.tgz:362237.got - 2010.06.03 13:09:07.
