data_PCOD9178670
_publ_section_title
;
Structure prediction by ZEFSAII (Michael W. Deem and Ramdas Pophale) SiO2 
 PCOD9178670
Probable space group: C 2/M
;
_chemical_formula_sum "Si O2"
_cell_formula_units_Z 64
_cell_length_a 22.944504
_cell_length_b 26.821293
_cell_length_c 17.063838
_cell_angle_alpha 90.000000
_cell_angle_beta 20.565721
_cell_angle_gamma 90.000000
_cell_volume 3688.845402
_symmetry_space_group_name_H-M "C 2/M"
_symmetry_group_IT_number 12
_symmetry_cell_setting 'monoclinic'
loop_
_space_group_symop_operation_xyz
x,y,z
-x,y,-z
-x,-y,-z
x,-y,z
1/2+x,1/2+y,z
1/2-x,1/2+y,-z
1/2-x,1/2-y,-z
1/2+x,1/2-y,z
loop_
_atom_site_type_symbol
_atom_site_label
_atom_site_fract_x
_atom_site_fract_y
_atom_site_fract_z
Si Si1 0.990420 0.558582 0.326406
Si Si2 0.008765 0.641892 0.792130
Si Si3 0.314585 0.328007 0.714106
Si Si4 0.972563 0.739086 0.326981
Si Si5 0.167494 0.308619 0.743413
Si Si6 0.221775 0.271668 0.156732
Si Si7 0.843210 0.058553 0.149834
Si Si8 0.666401 0.111526 0.241096
O O1 0.029214 0.500000 0.269963
O O2 0.967106 0.587607 0.274322
O O3 0.818971 0.562771 0.591055
O O4 0.129722 0.587647 0.202556
O O5 0.045354 0.681938 0.677298
O O6 0.113280 0.659245 0.736434
O O7 0.818411 0.649070 0.058903
O O8 0.500000 0.343131 0.500000
O O9 0.263728 0.339338 0.689408
O O10 0.299065 0.267915 0.747236
O O11 0.795902 0.765748 0.556354
O O12 0.083552 0.742949 0.265717
O O13 0.093470 0.763873 0.110006
O O14 0.000000 0.291082 0.000000
O O15 0.193723 0.329432 0.207810
O O16 0.810737 0.085666 0.108888
O O17 0.869642 0.000000 0.100902
O O18 0.000000 0.078613 0.000000
O O19 0.500000 0.101018 0.500000
#
# Coordination Sequence:
#
# PCOD9178670 Si02
#       8
#     8   8   8   8   8   8   8   8
#     4  10  20  36  56  74 101 140 179 220 265 310
#     4  10  21  35  52  79 106 135 177 222 260 308
#     4  10  19  34  54  75 104 142 173 207 259 319
#     4  10  19  33  50  76 111 139 170 214 258 308
#     4  10  21  34  51  74 109 143 174 215 260 314
#     4  10  19  30  52  79 107 139 174 213 250 305
#     4   9  19  35  52  75 106 137 171 217 265 306
#     4  10  19  31  52  81 107 138 176 212 249 315
#
# _framework density 17.349602000000001
#
# number of rings (size 3 to 8) (size 9 to 14) (size 15 to 20)
#    0.000    2.125    2.500    1.125    0.000    2.500 
#    0.000    3.750    0.000    3.750    0.000    0.000 
#    0.000    0.000    0.000    0.000    0.000    0.000 
#
# Total GULP energy -178410.448869 kJ/mol
# GULP energy per Si atom -5575.326527 kJ/mol
# Density = 1.731011 g / cm^3
# Si number density = 17.349602 Si / 1000 Ang^3
#
#
#
# Elastic Constant Matrix: (Units=GPa)
#
#
# Indices 1 2 3 4 5 6 
#
# 1 81.0938 35.6796 24.8877 0.0023 -12.9416 -0.0005
# 2 35.6796 64.8710 15.3430 0.0266 -1.7411 -0.0047
# 3 24.8877 15.3430 61.3809 0.0164 -11.9490 -0.0012
# 4 0.0023 0.0266 0.0164 13.5953 -0.0038 0.4992
# 5 -12.9416 -1.7411 -11.9490 -0.0038 27.7230 -0.0022
# 6 -0.0005 -0.0047 -0.0012 0.4992 -0.0022 20.3205
#
#
#
# Elastic Compliance Matrix: (Units=1/GPa)
#
#
# Indices 1 2 3 4 5 6 
#
# 1 0.018586 -0.009101 -0.004021 0.000021 0.006372 -0.000002
# 2 -0.009101 0.020856 -0.002287 -0.000038 -0.003924 0.000005
# 3 -0.004021 -0.002287 0.019758 -0.000017 0.006495 0.000002
# 4 0.000021 -0.000038 -0.000017 0.073621 0.000010 -0.001808
# 5 0.006372 -0.003924 0.006495 0.000010 0.041599 0.000004
# 6 -0.000002 0.000005 0.000002 -0.001808 0.000004 0.049256
#
#
# Mechanical properties :
#
#
# Convention : Reuss Voigt Hill
#
# Bulk Modulus (GPa) = 35.23198 39.90737 37.56968
# Shear Modulus (GPa) = 18.94259 21.09011 20.01635
#
# Velocity S-wave (km/s) = 3.30785 3.49032 3.40031
# Velocity P-wave (km/s) = 5.91103 6.26857 6.09243
#
# Compressibility (1/GPa) = 0.02838330
#
# Stress axis : x y z
#
# Youngs Moduli (GPa) = 53.80282 47.94711 50.61183
#
# Poissons Ratio (x) = 0.43635 0.20350
# Poissons Ratio (y) = 0.48964 0.11576
# Poissons Ratio (z) = 0.21633 0.10967
#
# Static dielectric constant tensor:
#      x y z
#    x 1.623300 -0.000020 -0.004280 
#    y -0.000020 1.570420 0.000020 
#    z -0.004280 0.000020 1.605380 
# 
# From -- ./inp_files/291072.got.cif
#   From: 2010.05.17/outbox.cif.g08.bks.cpg/sg12_146_cif.got.tgz:291072.got - 2010.06.03 13:09:07.
