data_PCOD9178443
_publ_section_title
;
Structure prediction by ZEFSAII (Michael W. Deem and Ramdas Pophale) SiO2 
 PCOD9178443
Probable space group: C 2/M
;
_chemical_formula_sum "Si O2"
_cell_formula_units_Z 64
_cell_length_a 25.688031
_cell_length_b 10.161313
_cell_length_c 23.637935
_cell_angle_alpha 90.000000
_cell_angle_beta 35.490835
_cell_angle_gamma 90.000000
_cell_volume 3582.175072
_symmetry_space_group_name_H-M "C 2/M"
_symmetry_group_IT_number 12
_symmetry_cell_setting 'monoclinic'
loop_
_space_group_symop_operation_xyz
x,y,z
-x,y,-z
-x,-y,-z
x,-y,z
1/2+x,1/2+y,z
1/2-x,1/2+y,-z
1/2-x,1/2-y,-z
1/2+x,1/2-y,z
loop_
_atom_site_type_symbol
_atom_site_label
_atom_site_fract_x
_atom_site_fract_y
_atom_site_fract_z
Si Si1 0.629364 0.349988 0.670394
Si Si2 0.775833 0.847227 0.103889
Si Si3 0.876343 0.344991 0.841832
Si Si4 0.307354 0.842123 0.584113
Si Si5 0.282222 0.660210 0.226294
Si Si6 0.440481 0.855326 0.109284
Si Si7 0.928992 0.656194 0.376784
Si Si8 0.453605 0.730300 0.888328
O O1 0.642764 0.500000 0.637888
O O2 0.715609 0.311862 0.631331
O O3 0.615017 0.245629 0.633006
O O4 0.539364 0.347174 0.788143
O O5 0.709183 0.788432 0.115802
O O6 0.765202 0.795796 0.176953
O O7 0.749712 0.000000 0.130716
O O8 0.878386 0.839345 0.992855
O O9 0.862531 0.500000 0.865184
O O10 0.901741 0.281103 0.878902
O O11 0.964333 0.330658 0.724590
O O12 0.293933 0.801205 0.660859
O O13 0.389679 0.799798 0.471975
O O14 0.313301 0.000000 0.581182
O O15 0.294173 0.500000 0.216846
O O16 0.371205 0.735499 0.167652
O O17 0.502727 0.838912 0.109265
O O18 0.396558 0.000000 0.149706
O O19 0.500000 0.848725 0.000000
O O20 0.908139 0.500000 0.386589
#
# Coordination Sequence:
#
# PCOD9178443 Si02
#       8
#     8   8   8   8   8   8   8   8
#     4  10  19  30  48  75 107 133 168 213 255 309
#     4  10  20  33  51  74 101 135 179 217 250 301
#     4   9  19  34  50  73 101 134 176 218 257 302
#     4   9  17  31  50  75 102 133 170 213 258 308
#     4  10  20  35  54  76 104 139 174 213 256 306
#     4  11  22  35  51  77 110 141 173 211 255 312
#     4   9  18  33  52  71 101 137 171 213 264 306
#     4  11  19  32  52  74 104 142 170 208 258 308
#
# _framework density 17.866239
#
# number of rings (size 3 to 8) (size 9 to 14) (size 15 to 20)
#    0.000    2.125    2.500    1.500    0.000    1.250 
#    0.000    1.250    0.000    7.500    0.000    0.000 
#    0.000    5.000    0.000    0.000    0.000    0.000 
#
# Total GULP energy -178191.426427 kJ/mol
# GULP energy per Si atom -5568.482076 kJ/mol
# Density = 1.782558 g / cm^3
# Si number density = 17.866239 Si / 1000 Ang^3
#
#
#
# Elastic Constant Matrix: (Units=GPa)
#
#
# Indices 1 2 3 4 5 6 
#
# 1 69.6450 13.5920 20.4015 0.0006 13.8680 0.0003
# 2 13.5920 39.2986 8.0826 0.0054 3.2440 0.0025
# 3 20.4015 8.0826 90.7848 -0.0004 24.7327 -0.0002
# 4 0.0006 0.0054 -0.0004 137.2134 -0.0003 37.3173
# 5 13.8680 3.2440 24.7327 -0.0003 21.9511 -0.0002
# 6 0.0003 0.0025 -0.0002 37.3173 -0.0002 27.8993
#
#
#
# Elastic Compliance Matrix: (Units=1/GPa)
#
#
# Indices 1 2 3 4 5 6 
#
# 1 0.017464 -0.005082 -0.000968 0.000000 -0.009191 0.000000
# 2 -0.005082 0.027448 -0.001546 -0.000001 0.000896 -0.000002
# 3 -0.000968 -0.001546 0.016076 0.000000 -0.017273 0.000000
# 4 0.000000 -0.000001 0.000000 0.011455 0.000000 -0.015322
# 5 -0.009191 0.000896 -0.017273 0.000000 0.070692 0.000000
# 6 0.000000 -0.000002 0.000000 -0.015322 0.000000 0.056337
#
#
# Mechanical properties :
#
#
# Convention : Reuss Voigt Hill
#
# Bulk Modulus (GPa) = 21.83610 31.54228 26.68919
# Shear Modulus (GPa) = 21.74575 47.92291 34.83433
#
# Velocity S-wave (km/s) = 3.49254 5.18473 4.42036
# Velocity P-wave (km/s) = 5.33969 7.31675 6.40497
#
# Compressibility (1/GPa) = 0.04579573
#
# Stress axis : x y z
#
# Youngs Moduli (GPa) = 57.25987 36.43263 62.20459
#
# Poissons Ratio (x) = 0.18517 0.06022
# Poissons Ratio (y) = 0.29102 0.09615
# Poissons Ratio (z) = 0.05543 0.05631
#
# Static dielectric constant tensor:
#      x y z
#    x 1.620650 0.000000 0.014930 
#    y 0.000000 1.614570 0.000000 
#    z 0.014930 0.000000 1.640590 
# 
# From -- ./inp_files/324942.got.cif
#   From: 2010.05.17/outbox.cif.g08.bks.cpg/sg12_163_cif.got.tgz:324942.got - 2010.06.03 13:09:07.
