data_PCOD9178940
_publ_section_title
;
Structure prediction by ZEFSAII (Michael W. Deem and Ramdas Pophale) SiO2 
 PCOD9178940
Probable space group: C 2/M
;
_chemical_formula_sum "Si O2"
_cell_formula_units_Z 64
_cell_length_a 30.980487
_cell_length_b 14.038567
_cell_length_c 8.220686
_cell_angle_alpha 90.000000
_cell_angle_beta 63.437932
_cell_angle_gamma 90.000000
_cell_volume 3197.977312
_symmetry_space_group_name_H-M "C 2/M"
_symmetry_group_IT_number 12
_symmetry_cell_setting 'monoclinic'
loop_
_space_group_symop_operation_xyz
x,y,z
-x,y,-z
-x,-y,-z
x,-y,z
1/2+x,1/2+y,z
1/2-x,1/2+y,-z
1/2-x,1/2-y,-z
1/2+x,1/2-y,z
loop_
_atom_site_type_symbol
_atom_site_label
_atom_site_fract_x
_atom_site_fract_y
_atom_site_fract_z
Si Si1 0.607735 0.828300 0.973063
Si Si2 0.328448 0.891166 0.416734
Si Si3 0.238856 0.390027 0.988220
Si Si4 0.366636 0.704917 0.492419
Si Si5 0.670504 0.714586 0.097690
Si Si6 0.484921 0.105901 0.713238
Si Si7 0.539784 0.731443 0.822922
Si Si8 0.771014 0.887444 0.556840
O O1 0.646897 0.887834 0.804685
O O2 0.571502 0.789548 0.898906
O O3 0.635296 0.741496 0.012086
O O4 0.572571 0.880042 0.160340
O O5 0.358013 0.818027 0.477865
O O6 0.273004 0.857285 0.485821
O O7 0.329173 0.000000 0.473302
O O8 0.226200 0.500000 0.033379
O O9 0.286427 0.359274 0.008360
O O10 0.253387 0.374040 0.773934
O O11 0.197358 0.314480 0.095251
O O12 0.357734 0.681535 0.694944
O O13 0.419909 0.676272 0.346766
O O14 0.323405 0.659669 0.458976
O O15 0.500000 0.109320 0.500000
O O16 0.512974 0.190806 0.756058
O O17 0.497779 0.000000 0.755922
O O18 0.500000 0.678379 0.000000
O O19 0.776296 0.000000 0.523749
#
# Coordination Sequence:
#
# PCOD9178940 Si02
#       8
#     8   8   8   8   8   8   8   8
#     4  10  19  32  51  71  99 140 178 205 248 311
#     4  10  19  31  47  71 102 136 169 205 253 312
#     4   9  18  32  50  74 107 142 174 212 256 306
#     4  10  20  32  51  74 101 132 170 218 257 299
#     4  10  19  32  52  76 103 138 178 216 255 300
#     4  10  20  33  50  75 104 131 167 218 264 305
#     4   9  20  35  51  71  99 134 171 209 259 312
#     4   9  17  32  52  73  98 133 175 210 253 310
#
# _framework density 20.012651000000002
#
# number of rings (size 3 to 8) (size 9 to 14) (size 15 to 20)
#    0.000    2.375    1.250    1.500    0.000    5.250 
#    0.000    0.000    0.000    0.375    0.000    2.625 
#    0.000   17.000    0.000    0.000    0.000    0.000 
#
# Total GULP energy -178417.826245 kJ/mol
# GULP energy per Si atom -5575.557070 kJ/mol
# Density = 1.996710 g / cm^3
# Si number density = 20.012651 Si / 1000 Ang^3
#
#
#
# Elastic Constant Matrix: (Units=GPa)
#
#
# Indices 1 2 3 4 5 6 
#
# 1 56.4710 -1.6495 11.4700 0.0000 -13.3000 0.0000
# 2 -1.6495 12.5711 -3.8662 0.0000 -3.7994 0.0000
# 3 11.4700 -3.8662 70.4514 0.0000 -24.5844 0.0000
# 4 0.0000 0.0000 0.0000 9.5523 0.0000 1.2853
# 5 -13.3000 -3.7994 -24.5844 0.0000 32.5494 0.0000
# 6 0.0000 0.0000 0.0000 1.2853 0.0000 15.3540
#
#
#
# Elastic Compliance Matrix: (Units=1/GPa)
#
#
# Indices 1 2 3 4 5 6 
#
# 1 0.019925 0.005342 0.000146 0.000000 0.008876 0.000000
# 2 0.005342 0.090297 0.011577 0.000000 0.021467 0.000000
# 3 0.000146 0.011577 0.020773 0.000000 0.017101 0.000000
# 4 0.000000 0.000000 0.000000 0.105880 0.000000 -0.008863
# 5 0.008876 0.021467 0.017101 0.000000 0.049771 0.000000
# 6 0.000000 0.000000 0.000000 -0.008863 0.000000 0.065872
#
#
# Mechanical properties :
#
#
# Convention : Reuss Voigt Hill
#
# Bulk Modulus (GPa) = 6.05603 16.82245 11.43924
# Shear Modulus (GPa) = 13.38942 20.39374 16.89158
#
# Velocity S-wave (km/s) = 2.58940 3.19571 2.90840
# Velocity P-wave (km/s) = 3.46016 4.69477 4.12393
#
# Compressibility (1/GPa) = 0.16512479
#
# Stress axis : x y z
#
# Youngs Moduli (GPa) = 50.18843 11.07458 48.13918
#
# Poissons Ratio (x) = -0.05916 -0.00705
# Poissons Ratio (y) = -0.26811 -0.55728
# Poissons Ratio (z) = -0.00735 -0.12821
#
# Static dielectric constant tensor:
#      x y z
#    x 1.726280 0.000000 -0.023100 
#    y 0.000000 1.693800 0.000000 
#    z -0.023100 0.000000 1.785660 
# 
# From -- ./inp_files/111257.got.cif
#   From: 2010.05.17/outbox.cif.g08.bks.cpg/sg12_56_cif.got.tgz:111257.got - 2010.06.03 13:09:07.
