data_PCOD9178338
_publ_section_title
;
Structure prediction by ZEFSAII (Michael W. Deem and Ramdas Pophale) SiO2 
 PCOD9178338
Probable space group: C 2/M
;
_chemical_formula_sum "Si O2"
_cell_formula_units_Z 56
_cell_length_a 27.204029
_cell_length_b 9.241878
_cell_length_c 13.391462
_cell_angle_alpha 90.000000
_cell_angle_beta 60.354585
_cell_angle_gamma 90.000000
_cell_volume 2926.124305
_symmetry_space_group_name_H-M "C 2/M"
_symmetry_group_IT_number 12
_symmetry_cell_setting 'monoclinic'
loop_
_space_group_symop_operation_xyz
x,y,z
-x,y,-z
-x,-y,-z
x,-y,z
1/2+x,1/2+y,z
1/2-x,1/2+y,-z
1/2-x,1/2-y,-z
1/2+x,1/2-y,z
loop_
_atom_site_type_symbol
_atom_site_label
_atom_site_fract_x
_atom_site_fract_y
_atom_site_fract_z
Si Si1 0.928440 0.331650 0.987417
Si Si2 0.762507 0.831520 0.243136
Si Si3 0.466039 0.169990 0.256502
Si Si4 0.376210 0.326282 0.228122
Si Si5 0.162900 0.833411 0.030670
Si Si6 0.837475 0.169957 0.743117
Si Si7 0.533169 0.669044 0.362902
O O1 0.919396 0.500000 0.023482
O O2 0.886305 0.281080 0.941752
O O3 0.991214 0.316334 0.881182
O O4 0.910193 0.229118 0.096291
O O5 0.810941 0.782751 0.272559
O O6 0.704120 0.747549 0.291619
O O7 0.751433 0.000000 0.272654
O O8 0.792949 0.819530 0.103857
O O9 0.408309 0.252454 0.287651
O O10 0.499110 0.240861 0.315263
O O11 0.456336 0.000000 0.282344
O O12 0.378650 0.500000 0.231320
O O13 0.184951 0.813104 0.120419
O O14 0.140913 0.000000 0.047764
O O15 0.902535 0.220246 0.682896
O O16 0.838284 0.000000 0.718915
O O17 0.500000 0.674656 0.500000
O O18 0.536325 0.500000 0.327096
#
# Coordination Sequence:
#
# PCOD9178338 Si02
#       7
#     8   8   8   8   8   8   8
#     4  10  19  30  47  76 111 144 181 220 263 315
#     4   9  19  32  48  75 109 143 179 215 258 314
#     4  11  22  35  54  80 109 141 178 225 275 319
#     4  10  21  35  52  76 109 149 185 217 258 317
#     4   9  17  30  47  72 106 144 184 216 256 318
#     4  10  19  32  53  77 104 139 178 220 268 319
#     4  10  22  40  61  83 106 137 180 227 274 324
#
# _framework density 19.137944000000001
#
# number of rings (size 3 to 8) (size 9 to 14) (size 15 to 20)
#    0.000    2.143    1.429    3.000    0.000    7.714 
#    0.000    0.000    0.000    0.857    0.000    0.000 
#    0.000    0.000    0.000    0.000    0.000    0.000 
#
# Total GULP energy -156184.007342 kJ/mol
# GULP energy per Si atom -5578.000262 kJ/mol
# Density = 1.909438 g / cm^3
# Si number density = 19.137944 Si / 1000 Ang^3
#
#
#
# Elastic Constant Matrix: (Units=GPa)
#
#
# Indices 1 2 3 4 5 6 
#
# 1 193.8484 87.2989 23.0055 0.0000 -3.4438 0.0000
# 2 87.2989 70.7402 11.4328 0.0000 -2.1267 0.0000
# 3 23.0055 11.4328 22.1335 0.0000 -0.9589 0.0000
# 4 0.0000 0.0000 0.0000 11.5699 0.0000 -4.9724
# 5 -3.4438 -2.1267 -0.9589 0.0000 7.4497 0.0000
# 6 0.0000 0.0000 0.0000 -4.9724 0.0000 24.3618
#
#
#
# Elastic Compliance Matrix: (Units=1/GPa)
#
#
# Indices 1 2 3 4 5 6 
#
# 1 0.012170 -0.014133 -0.005310 0.000000 0.000908 0.000000
# 2 -0.014133 0.031923 -0.001697 0.000000 0.002361 0.000000
# 3 -0.005310 -0.001697 0.051737 0.000000 0.003721 0.000000
# 4 0.000000 0.000000 0.000000 0.094742 0.000000 0.019337
# 5 0.000908 0.002361 0.003721 0.000000 0.135806 0.000000
# 6 0.000000 0.000000 0.000000 0.019337 0.000000 0.044995
#
#
# Mechanical properties :
#
#
# Convention : Reuss Voigt Hill
#
# Bulk Modulus (GPa) = 18.67422 58.91074 38.79248
# Shear Modulus (GPa) = 11.58745 19.67527 15.63136
#
# Velocity S-wave (km/s) = 2.46330 3.20984 2.86102
# Velocity P-wave (km/s) = 4.22721 6.67731 5.58819
#
# Compressibility (1/GPa) = 0.05354977
#
# Stress axis : x y z
#
# Youngs Moduli (GPa) = 82.17216 31.32586 19.32850
#
# Poissons Ratio (x) = 0.44272 0.10263
# Poissons Ratio (y) = 1.16132 0.03281
# Poissons Ratio (z) = 0.43630 0.05317
#
# Static dielectric constant tensor:
#      x y z
#    x 1.706690 0.000000 -0.000620 
#    y 0.000000 1.648430 0.000000 
#    z -0.000620 0.000000 1.659270 
# 
# From -- ./inp_files/243604.got.cif
#   From: 2010.05.17/outbox.cif.g08.bks.cpg/sg12_122_cif.got.tgz:243604.got - 2010.06.03 13:09:07.
