data_PCOD9178430
_publ_section_title
;
Structure prediction by ZEFSAII (Michael W. Deem and Ramdas Pophale) SiO2 
 PCOD9178430
Probable space group: C 2/M
;
_chemical_formula_sum "Si O2"
_cell_formula_units_Z 64
_cell_length_a 19.462889
_cell_length_b 7.896472
_cell_length_c 26.361273
_cell_angle_alpha 90.000000
_cell_angle_beta 56.147224
_cell_angle_gamma 90.000000
_cell_volume 3364.585929
_symmetry_space_group_name_H-M "C 2/M"
_symmetry_group_IT_number 12
_symmetry_cell_setting 'monoclinic'
loop_
_space_group_symop_operation_xyz
x,y,z
-x,y,-z
-x,-y,-z
x,-y,z
1/2+x,1/2+y,z
1/2-x,1/2+y,-z
1/2-x,1/2-y,-z
1/2+x,1/2-y,z
loop_
_atom_site_type_symbol
_atom_site_label
_atom_site_fract_x
_atom_site_fract_y
_atom_site_fract_z
Si Si1 0.030055 0.301043 0.696119
Si Si2 0.645570 0.698855 0.191130
Si Si3 0.804045 0.797173 0.191364
Si Si4 0.588624 0.204738 0.944240
Si Si5 0.753633 0.703840 0.056913
Si Si6 0.113407 0.697269 0.565656
Si Si7 0.725784 0.207996 0.435185
Si Si8 0.685497 0.299371 0.698592
O O1 0.049149 0.500000 0.685813
O O2 0.045532 0.230202 0.632575
O O3 0.097380 0.226256 0.707206
O O4 0.937461 0.279210 0.753458
O O5 0.628316 0.500000 0.193228
O O6 0.723244 0.723547 0.196762
O O7 0.678054 0.765603 0.123323
O O8 0.882871 0.755531 0.123747
O O9 0.812260 0.730612 0.245356
O O10 0.794896 0.000000 0.195737
O O11 0.661664 0.264427 0.951651
O O12 0.587407 0.000000 0.946113
O O13 0.500000 0.266432 0.000000
O O14 0.753298 0.500000 0.060960
O O15 0.750000 0.750000 0.000000
O O16 0.093310 0.500000 0.565499
O O17 0.197055 0.717763 0.564778
O O18 0.142645 0.764200 0.498703
O O19 0.744177 0.261143 0.369947
O O20 0.730306 0.000000 0.436098
O O21 0.698080 0.500000 0.698047
#
# Coordination Sequence:
#
# PCOD9178430 Si02
#       8
#     8   8   8   8   8   8   8   8
#     4  10  19  30  48  75 101 126 163 206 242 282
#     4  10  21  37  53  70  97 132 165 196 240 294
#     4  10  20  34  52  74  99 128 165 203 239 285
#     4   9  19  36  54  72  96 127 162 196 235 285
#     4   9  19  34  52  73  95 121 154 193 235 282
#     4   8  14  24  40  65  94 122 156 197 237 280
#     4   8  13  24  42  63  92 127 156 189 239 288
#     4   9  18  31  48  73 102 129 160 200 244 289
#
# _framework density 19.021657999999999
#
# number of rings (size 3 to 8) (size 9 to 14) (size 15 to 20)
#    0.000    2.875    0.000    1.875    0.000    5.250 
#    0.000    2.500    0.000    0.750    0.000    5.250 
#    0.000    0.000    0.000    0.000    0.000    0.000 
#
# Total GULP energy -178169.947041 kJ/mol
# GULP energy per Si atom -5567.810845 kJ/mol
# Density = 1.897836 g / cm^3
# Si number density = 19.021658 Si / 1000 Ang^3
#
#
#
# Elastic Constant Matrix: (Units=GPa)
#
#
# Indices 1 2 3 4 5 6 
#
# 1 33.6199 -6.4612 68.6867 -0.0017 6.8341 -0.0003
# 2 -6.4612 17.6144 -2.1721 -0.0103 1.4321 0.0014
# 3 68.6867 -2.1721 218.6432 0.0004 8.0848 0.0001
# 4 -0.0017 -0.0103 0.0004 17.7284 -0.0010 -2.4673
# 5 6.8341 1.4321 8.0848 -0.0010 27.1460 -0.0008
# 6 -0.0003 0.0014 0.0001 -2.4673 -0.0008 17.2050
#
#
#
# Elastic Compliance Matrix: (Units=1/GPa)
#
#
# Indices 1 2 3 4 5 6 
#
# 1 0.107705 0.037039 -0.032753 0.000032 -0.019314 0.000003
# 2 0.037039 0.069855 -0.010577 0.000044 -0.009860 0.000001
# 3 -0.032753 -0.010577 0.014593 -0.000009 0.004458 -0.000001
# 4 0.000032 0.000044 -0.000009 0.057555 -0.000005 0.008254
# 5 -0.019314 -0.009860 0.004458 -0.000005 0.040893 0.000002
# 6 0.000003 0.000001 -0.000001 0.008254 0.000002 0.059306
#
#
# Mechanical properties :
#
#
# Convention : Reuss Voigt Hill
#
# Bulk Modulus (GPa) = 5.56888 43.33159 24.45023
# Shear Modulus (GPa) = 11.83859 26.40415 19.12137
#
# Velocity S-wave (km/s) = 2.49745 3.72978 3.17400
# Velocity P-wave (km/s) = 3.35415 6.43257 5.12973
#
# Compressibility (1/GPa) = 0.17956943
#
# Stress axis : x y z
#
# Youngs Moduli (GPa) = 9.28465 14.31534 68.52519
#
# Poissons Ratio (x) = -0.53022 2.24442
# Poissons Ratio (y) = -0.34389 0.72480
# Poissons Ratio (z) = 0.30410 0.15141
#
# Static dielectric constant tensor:
#      x y z
#    x 1.617030 0.000000 0.014640 
#    y 0.000000 1.722980 0.000000 
#    z 0.014640 0.000000 1.735120 
# 
# From -- ./inp_files/365188.got.cif
#   From: 2010.05.17/outbox.cif.g08.bks.cpg/sg12_183_cif.got.tgz:365188.got - 2010.06.03 13:09:07.
