data_PCOD9178755
_publ_section_title
;
Structure prediction by ZEFSAII (Michael W. Deem and Ramdas Pophale) SiO2 
 PCOD9178755
Probable space group: C 2/M
;
_chemical_formula_sum "Si O2"
_cell_formula_units_Z 64
_cell_length_a 24.863286
_cell_length_b 9.125088
_cell_length_c 28.227356
_cell_angle_alpha 90.000000
_cell_angle_beta 138.335354
_cell_angle_gamma 90.000000
_cell_volume 4257.325793
_symmetry_space_group_name_H-M "C 2/M"
_symmetry_group_IT_number 12
_symmetry_cell_setting 'monoclinic'
loop_
_space_group_symop_operation_xyz
x,y,z
-x,y,-z
-x,-y,-z
x,-y,z
1/2+x,1/2+y,z
1/2-x,1/2+y,-z
1/2-x,1/2-y,-z
1/2+x,1/2-y,z
loop_
_atom_site_type_symbol
_atom_site_label
_atom_site_fract_x
_atom_site_fract_y
_atom_site_fract_z
Si Si1 0.170297 0.168128 0.157958
Si Si2 0.491617 0.330998 0.882806
Si Si3 0.159904 0.173337 0.385802
Si Si4 0.897716 0.674999 0.741329
Si Si5 0.081558 0.668242 0.021157
Si Si6 0.415292 0.825416 0.468383
Si Si7 0.247832 0.324678 0.695739
Si Si8 0.665500 0.326865 0.499070
O O1 0.089332 0.171817 0.137496
O O2 0.151614 0.266692 0.100450
O O3 0.240089 0.212183 0.240862
O O4 0.182242 0.000000 0.150895
O O5 0.507561 0.500000 0.881506
O O6 0.468362 0.237991 0.821363
O O7 0.561062 0.262046 0.961241
O O8 0.102872 0.256860 0.311453
O O9 0.250042 0.240001 0.439539
O O10 0.138083 0.193117 0.426622
O O11 0.161918 0.000000 0.376423
O O12 0.898220 0.500000 0.740960
O O13 0.814330 0.734889 0.710036
O O14 0.096442 0.500000 0.018647
O O15 0.000000 0.672864 0.000000
O O16 0.500000 0.786476 0.500000
O O17 0.340463 0.798547 0.383417
O O18 0.396235 0.736720 0.503376
O O19 0.416083 0.000000 0.479303
O O20 0.265837 0.500000 0.703018
O O21 0.679890 0.500000 0.516033
#
# Coordination Sequence:
#
# PCOD9178755 Si02
#       8
#     8   8   8   8   8   8   8   8
#     4   8  14  23  35  49  68 100 137 170 206 247
#     4   9  16  25  36  50  74 107 138 167 204 248
#     4  10  19  31  46  63  87 113 141 178 221 266
#     4  11  19  26  40  62  84 108 141 177 215 252
#     4   9  15  22  32  49  72  98 132 172 207 241
#     4  10  20  33  49  66  87 117 148 181 223 268
#     4   9  17  29  42  57  80 109 142 178 215 258
#     4  10  20  32  47  67  85 109 143 182 223 261
#
# _framework density 15.032909999999999
#
# number of rings (size 3 to 8) (size 9 to 14) (size 15 to 20)
#    0.000    2.500    1.250    3.375    0.000    6.250 
#    0.000    0.000    0.000    0.000    0.000    0.000 
#    0.000    0.000    0.000    1.125    0.000   13.125 
#
# Total GULP energy -178293.711336 kJ/mol
# GULP energy per Si atom -5571.678479 kJ/mol
# Density = 1.499869 g / cm^3
# Si number density = 15.032910 Si / 1000 Ang^3
#
#
#
# Elastic Constant Matrix: (Units=GPa)
#
#
# Indices 1 2 3 4 5 6 
#
# 1 49.2715 33.9033 33.4699 0.0000 -8.4951 0.0000
# 2 33.9033 104.9989 69.9780 0.0000 -18.5225 0.0000
# 3 33.4699 69.9780 111.9054 0.0000 -26.4995 0.0000
# 4 0.0000 0.0000 0.0000 23.5487 0.0000 -7.6054
# 5 -8.4951 -18.5225 -26.4995 0.0000 13.6823 0.0000
# 6 0.0000 0.0000 0.0000 -7.6054 0.0000 14.0292
#
#
#
# Elastic Compliance Matrix: (Units=1/GPa)
#
#
# Indices 1 2 3 4 5 6 
#
# 1 0.027390 -0.005784 -0.004438 0.000000 0.000581 0.000000
# 2 -0.005784 0.017689 -0.008333 0.000000 0.004216 0.000000
# 3 -0.004438 -0.008333 0.022444 0.000000 0.029433 0.000000
# 4 0.000000 0.000000 0.000000 0.051478 0.000000 0.027907
# 5 0.000581 0.004216 0.029433 0.000000 0.136160 0.000000
# 6 0.000000 0.000000 0.000000 0.027907 0.000000 0.086409
#
#
# Mechanical properties :
#
#
# Convention : Reuss Voigt Hill
#
# Bulk Modulus (GPa) = 32.87977 60.09756 46.48867
# Shear Modulus (GPa) = 12.85946 18.84033 15.84990
#
# Velocity S-wave (km/s) = 2.92793 3.54400 3.25059
# Velocity P-wave (km/s) = 5.77492 7.53729 6.71418
#
# Compressibility (1/GPa) = 0.03041384
#
# Stress axis : x y z
#
# Youngs Moduli (GPa) = 36.50923 56.53216 44.55501
#
# Poissons Ratio (x) = 0.32699 0.19772
# Poissons Ratio (y) = 0.21117 0.37129
# Poissons Ratio (z) = 0.16201 0.47109
#
# Static dielectric constant tensor:
#      x y z
#    x 1.462720 0.000000 -0.020450 
#    y 0.000000 1.503430 0.000000 
#    z -0.020450 0.000000 1.525860 
# 
# From -- ./inp_files/294542.got.cif
#   From: 2010.05.17/outbox.cif.g08.bks.cpg/sg12_148_cif.got.tgz:294542.got - 2010.06.03 13:09:07.
