data_PCOD9178872
_publ_section_title
;
Structure prediction by ZEFSAII (Michael W. Deem and Ramdas Pophale) SiO2 
 PCOD9178872
Probable space group: C 2/M
;
_chemical_formula_sum "Si O2"
_cell_formula_units_Z 56
_cell_length_a 28.260652
_cell_length_b 9.021696
_cell_length_c 18.569444
_cell_angle_alpha 90.000000
_cell_angle_beta 48.837688
_cell_angle_gamma 90.000000
_cell_volume 3564.319103
_symmetry_space_group_name_H-M "C 2/M"
_symmetry_group_IT_number 12
_symmetry_cell_setting 'monoclinic'
loop_
_space_group_symop_operation_xyz
x,y,z
-x,y,-z
-x,-y,-z
x,-y,z
1/2+x,1/2+y,z
1/2-x,1/2+y,-z
1/2-x,1/2-y,-z
1/2+x,1/2-y,z
loop_
_atom_site_type_symbol
_atom_site_label
_atom_site_fract_x
_atom_site_fract_y
_atom_site_fract_z
Si Si1 0.064410 0.829979 0.888541
Si Si2 0.005803 0.176128 0.666758
Si Si3 0.877397 0.177866 0.025888
Si Si4 0.372793 0.323903 0.719248
Si Si5 0.255322 0.177250 0.916311
Si Si6 0.432556 0.170747 0.526647
Si Si7 0.497571 0.176405 0.829961
O O1 0.050305 0.728959 0.834349
O O2 0.075959 0.000000 0.854265
O O3 0.115536 0.782661 0.896681
O O4 0.000000 0.829801 0.000000
O O5 0.054342 0.246411 0.561226
O O6 0.009443 0.252809 0.740345
O O7 0.935860 0.200225 0.703753
O O8 0.015182 0.000000 0.663254
O O9 0.931444 0.260479 0.926845
O O10 0.889589 0.000000 0.008658
O O11 0.809150 0.207531 0.062165
O O12 0.362890 0.500000 0.724322
O O13 0.314477 0.245409 0.815612
O O14 0.386422 0.255316 0.627155
O O15 0.262274 0.000000 0.915914
O O16 0.250000 0.250000 0.000000
O O17 0.500000 0.170551 0.500000
O O18 0.413777 0.000000 0.534772
O O19 0.494965 0.000000 0.828359
#
# Coordination Sequence:
#
# PCOD9178872 Si02
#       7
#     8   8   8   8   8   8   8
#     4   8  15  30  48  63  85 119 154 187 228 278
#     4  10  19  31  47  67  94 126 156 187 227 276
#     4   9  19  34  48  63  89 126 161 190 226 275
#     4  10  20  33  48  67  93 126 160 190 225 272
#     4  11  22  34  48  68  94 125 161 196 228 265
#     4   9  17  30  48  69  92 118 151 192 234 272
#     4  11  20  28  44  71  97 119 149 192 237 276
#
# _framework density 15.711276
#
# number of rings (size 3 to 8) (size 9 to 14) (size 15 to 20)
#    0.000    2.286    0.000    4.714    0.000   10.571 
#    0.000    0.000    0.000    0.000    0.000    1.000 
#    0.000    0.000    0.000    0.000    0.000    0.000 
#
# Total GULP energy -156173.045303 kJ/mol
# GULP energy per Si atom -5577.608761 kJ/mol
# Density = 1.567552 g / cm^3
# Si number density = 15.711276 Si / 1000 Ang^3
#
#
#
# Elastic Constant Matrix: (Units=GPa)
#
#
# Indices 1 2 3 4 5 6 
#
# 1 105.2662 74.5483 66.2580 0.0003 19.1683 -0.0001
# 2 74.5483 107.5358 74.8579 0.0029 19.8798 -0.0018
# 3 66.2580 74.8579 127.2891 -0.0021 22.1603 0.0006
# 4 0.0003 0.0029 -0.0021 29.8545 0.0003 4.8488
# 5 19.1683 19.8798 22.1603 0.0003 24.9985 -0.0001
# 6 -0.0001 -0.0018 0.0006 4.8488 -0.0001 18.9265
#
#
#
# Elastic Compliance Matrix: (Units=1/GPa)
#
#
# Indices 1 2 3 4 5 6 
#
# 1 0.019946 -0.010774 -0.003400 0.000001 -0.003712 -0.000001
# 2 -0.010774 0.022135 -0.006838 -0.000003 -0.003279 0.000003
# 3 -0.003400 -0.006838 0.014482 0.000002 -0.004793 -0.000002
# 4 0.000001 -0.000003 0.000002 0.034950 0.000000 -0.008954
# 5 -0.003712 -0.003279 -0.004793 0.000000 0.049705 0.000000
# 6 -0.000001 0.000003 -0.000002 -0.008954 0.000000 0.055130
#
#
# Mechanical properties :
#
#
# Convention : Reuss Voigt Hill
#
# Bulk Modulus (GPa) = 68.78634 85.71327 77.24981
# Shear Modulus (GPa) = 20.55766 23.05101 21.80434
#
# Velocity S-wave (km/s) = 3.62120 3.83451 3.72938
# Velocity P-wave (km/s) = 7.83330 8.61849 8.23526
#
# Compressibility (1/GPa) = 0.01453777
#
# Stress axis : x y z
#
# Youngs Moduli (GPa) = 50.13537 45.17770 69.05277
#
# Poissons Ratio (x) = 0.48676 0.23477
# Poissons Ratio (y) = 0.54018 0.47218
# Poissons Ratio (z) = 0.17046 0.30893
#
# Static dielectric constant tensor:
#      x y z
#    x 1.534530 0.000000 0.005950 
#    y 0.000000 1.522570 0.000000 
#    z 0.005950 0.000000 1.494640 
# 
# From -- ./inp_files/244331.got.cif
#   From: 2010.05.17/outbox.cif.g08.bks.cpg/sg12_123_cif.got.tgz:244331.got - 2010.06.03 13:09:07.
