data_PCOD9178691
_publ_section_title
;
Structure prediction by ZEFSAII (Michael W. Deem and Ramdas Pophale) SiO2 
 PCOD9178691
Probable space group: C 2/M
;
_chemical_formula_sum "Si O2"
_cell_formula_units_Z 64
_cell_length_a 19.789462
_cell_length_b 9.428225
_cell_length_c 19.776813
_cell_angle_alpha 90.000000
_cell_angle_beta 59.997869
_cell_angle_gamma 90.000000
_cell_volume 3195.519988
_symmetry_space_group_name_H-M "C 2/M"
_symmetry_group_IT_number 12
_symmetry_cell_setting 'monoclinic'
loop_
_space_group_symop_operation_xyz
x,y,z
-x,y,-z
-x,-y,-z
x,-y,z
1/2+x,1/2+y,z
1/2-x,1/2+y,-z
1/2-x,1/2-y,-z
1/2+x,1/2-y,z
loop_
_atom_site_type_symbol
_atom_site_label
_atom_site_fract_x
_atom_site_fract_y
_atom_site_fract_z
Si Si1 0.952274 0.165073 0.871186
Si Si2 0.371954 0.832289 0.441424
Si Si3 0.436085 0.162267 0.093171
Si Si4 0.509211 0.337868 0.417690
Si Si5 0.688347 0.337689 0.282774
Si Si6 0.758814 0.831632 0.599647
Si Si7 0.828770 0.161921 0.055764
Si Si8 0.841108 0.665954 0.834440
O O1 0.912471 0.244472 0.828411
O O2 0.026471 0.245856 0.865474
O O3 0.968241 0.000000 0.849104
O O4 0.886229 0.172300 0.963191
O O5 0.456680 0.762628 0.398177
O O6 0.322470 0.807351 0.398079
O O7 0.323149 0.756941 0.526054
O O8 0.376056 0.000000 0.451212
O O9 0.360472 0.232242 0.097097
O O10 0.423018 0.000000 0.120275
O O11 0.500000 0.162364 0.000000
O O12 0.500000 0.292204 0.500000
O O13 0.479994 0.500000 0.426987
O O14 0.599624 0.338276 0.354542
O O15 0.706644 0.500000 0.251554
O O16 0.740683 0.298548 0.321238
O O17 0.686120 0.226934 0.223649
O O18 0.777721 0.000000 0.584597
O O19 0.738541 0.183885 0.082479
O O20 0.835501 0.000000 0.078300
O O21 0.860850 0.500000 0.822467
#
# Coordination Sequence:
#
# PCOD9178691 Si02
#       8
#     8   8   8   8   8   8   8   8
#     4  10  19  34  57  81 108 144 186 225 270 328
#     4  10  19  30  53  85 109 131 169 221 268 309
#     4   9  17  30  52  82 111 138 174 224 275 318
#     4  10  19  35  57  78 104 141 178 215 260 316
#     4  10  21  38  57  74 101 145 188 219 265 328
#     4   9  18  35  54  75 106 140 172 210 260 320
#     4   9  19  35  55  80 109 144 184 228 273 324
#     4  11  23  37  53  78 112 144 180 228 278 322
#
# _framework density 20.028039
#
# number of rings (size 3 to 8) (size 9 to 14) (size 15 to 20)
#    0.000    2.250    1.250    1.875    0.000    4.750 
#    0.000    1.250    0.000    6.000    0.000    0.000 
#    0.000    0.000    0.000    0.000    0.000    0.000 
#
# Total GULP energy -178642.956189 kJ/mol
# GULP energy per Si atom -5582.592381 kJ/mol
# Density = 1.998245 g / cm^3
# Si number density = 20.028039 Si / 1000 Ang^3
#
#
#
# Elastic Constant Matrix: (Units=GPa)
#
#
# Indices 1 2 3 4 5 6 
#
# 1 91.8941 69.1404 5.6205 0.0000 25.3850 0.0000
# 2 69.1404 112.1507 17.8023 0.0000 27.4978 -0.0001
# 3 5.6205 17.8023 21.9368 0.0000 14.1777 0.0000
# 4 0.0000 0.0000 0.0000 20.4467 0.0000 5.2514
# 5 25.3850 27.4978 14.1777 0.0000 28.3780 0.0000
# 6 0.0000 -0.0001 0.0000 5.2514 0.0000 34.1507
#
#
#
# Elastic Compliance Matrix: (Units=1/GPa)
#
#
# Indices 1 2 3 4 5 6 
#
# 1 0.024854 -0.013687 0.015561 0.000000 -0.016744 0.000000
# 2 -0.013687 0.019386 -0.011812 0.000000 -0.000641 0.000000
# 3 0.015561 -0.011812 0.077954 0.000000 -0.041420 0.000000
# 4 0.000000 0.000000 0.000000 0.050919 0.000000 -0.007830
# 5 -0.016744 -0.000641 -0.041420 0.000000 0.071532 0.000000
# 6 0.000000 0.000000 0.000000 -0.007830 0.000000 0.030486
#
#
# Mechanical properties :
#
#
# Convention : Reuss Voigt Hill
#
# Bulk Modulus (GPa) = 9.77333 45.67870 27.72601
# Shear Modulus (GPa) = 15.19242 25.48962 20.34102
#
# Velocity S-wave (km/s) = 2.75718 3.57136 3.19035
# Velocity P-wave (km/s) = 3.87640 6.31372 5.23877
#
# Compressibility (1/GPa) = 0.10231932
#
# Stress axis : x y z
#
# Youngs Moduli (GPa) = 40.23552 51.58233 12.82810
#
# Poissons Ratio (x) = 0.70600 -0.19962
# Poissons Ratio (y) = 0.55070 0.15152
# Poissons Ratio (z) = -0.62611 0.60928
#
# Static dielectric constant tensor:
#      x y z
#    x 1.694450 0.000000 -0.004580 
#    y 0.000000 1.683570 0.000000 
#    z -0.004580 0.000000 1.723430 
# 
# From -- ./inp_files/319804.got.cif
#   From: 2010.05.17/outbox.cif.g08.bks.cpg/sg12_160_cif.got.tgz:319804.got - 2010.06.03 13:09:07.
