data_PCOD9178891
_publ_section_title
;
Structure prediction by ZEFSAII (Michael W. Deem and Ramdas Pophale) SiO2 
 PCOD9178891
Probable space group: C 2/M
;
_chemical_formula_sum "Si O2"
_cell_formula_units_Z 56
_cell_length_a 20.572270
_cell_length_b 9.075878
_cell_length_c 22.633410
_cell_angle_alpha 90.000000
_cell_angle_beta 52.183999
_cell_angle_gamma 90.000000
_cell_volume 3338.405208
_symmetry_space_group_name_H-M "C 2/M"
_symmetry_group_IT_number 12
_symmetry_cell_setting 'monoclinic'
loop_
_space_group_symop_operation_xyz
x,y,z
-x,y,-z
-x,-y,-z
x,-y,z
1/2+x,1/2+y,z
1/2-x,1/2+y,-z
1/2-x,1/2-y,-z
1/2+x,1/2-y,z
loop_
_atom_site_type_symbol
_atom_site_label
_atom_site_fract_x
_atom_site_fract_y
_atom_site_fract_z
Si Si1 0.998518 0.668870 0.638532
Si Si2 0.256024 0.824644 0.189917
Si Si3 0.389684 0.177801 0.805274
Si Si4 0.839424 0.825414 0.949455
Si Si5 0.327353 0.169166 0.659140
Si Si6 0.404277 0.673352 0.045907
Si Si7 0.085467 0.831110 0.490198
O O1 0.027425 0.500000 0.623856
O O2 0.968324 0.714408 0.720400
O O3 0.913491 0.670238 0.647948
O O4 0.062221 0.767542 0.567112
O O5 0.190074 0.746314 0.182980
O O6 0.233906 0.766685 0.267619
O O7 0.344964 0.771354 0.119110
O O8 0.246878 0.000000 0.191461
O O9 0.391107 0.246715 0.869226
O O10 0.381398 0.000000 0.811296
O O11 0.831521 0.000000 0.941649
O O12 0.750000 0.750000 0.000000
O O13 0.878627 0.807049 0.992031
O O14 0.350022 0.235333 0.582965
O O15 0.299980 0.000000 0.671001
O O16 0.391419 0.500000 0.067834
O O17 0.500000 0.707736 0.000000
O O18 0.000000 0.826873 0.500000
O O19 0.111840 0.000000 0.478588
#
# Coordination Sequence:
#
# PCOD9178891 Si02
#       7
#     8   8   8   8   8   8   8
#     4   8  15  25  37  55  83 121 157 191 234 285
#     4  11  20  30  47  70  95 123 161 207 250 292
#     4  10  19  31  47  68  96 128 164 202 243 294
#     4  11  21  33  53  76  99 127 164 208 250 296
#     4   9  16  26  40  57  84 122 160 195 235 290
#     4  10  22  39  55  71  97 133 168 203 249 303
#     4   9  15  22  34  55  84 117 154 195 237 283
#
# _framework density 16.774477000000001
#
# number of rings (size 3 to 8) (size 9 to 14) (size 15 to 20)
#    0.000    2.286    1.429    3.857    0.000    6.571 
#    0.000    0.000    0.000    0.000    0.000    0.000 
#    0.000    1.143    0.000    3.429    0.000    6.143 
#
# Total GULP energy -156115.733861 kJ/mol
# GULP energy per Si atom -5575.561924 kJ/mol
# Density = 1.673630 g / cm^3
# Si number density = 16.774477 Si / 1000 Ang^3
#
#
#
# Elastic Constant Matrix: (Units=GPa)
#
#
# Indices 1 2 3 4 5 6 
#
# 1 33.0814 25.4229 21.3333 0.0000 -2.7283 0.0001
# 2 25.4229 113.2764 78.7548 0.0000 3.3293 0.0000
# 3 21.3333 78.7548 138.9071 0.0000 14.6404 0.0000
# 4 0.0000 0.0000 0.0000 36.1301 0.0000 4.2691
# 5 -2.7283 3.3293 14.6404 0.0000 10.2456 0.0000
# 6 0.0001 0.0000 0.0000 4.2691 0.0000 10.2347
#
#
#
# Elastic Compliance Matrix: (Units=1/GPa)
#
#
# Indices 1 2 3 4 5 6 
#
# 1 0.039545 -0.006303 -0.004504 0.000000 0.019014 0.000000
# 2 -0.006303 0.016205 -0.008816 0.000000 0.005653 0.000000
# 3 -0.004504 -0.008816 0.014968 0.000000 -0.019723 0.000000
# 4 0.000000 0.000000 0.000000 0.029113 0.000000 -0.012144
# 5 0.019014 0.005653 -0.019723 0.000000 0.129011 0.000000
# 6 0.000000 0.000000 0.000000 -0.012144 0.000000 0.102772
#
#
# Mechanical properties :
#
#
# Convention : Reuss Voigt Hill
#
# Bulk Modulus (GPa) = 31.77307 59.58742 45.68025
# Shear Modulus (GPa) = 13.11134 21.97233 17.54183
#
# Velocity S-wave (km/s) = 2.79879 3.62313 3.23731
# Velocity P-wave (km/s) = 5.42464 7.28715 6.42376
#
# Compressibility (1/GPa) = 0.03147319
#
# Stress axis : x y z
#
# Youngs Moduli (GPa) = 25.28789 61.70802 66.81104
#
# Poissons Ratio (x) = 0.38892 0.30092
# Poissons Ratio (y) = 0.15938 0.58898
# Poissons Ratio (z) = 0.11390 0.54400
#
# Static dielectric constant tensor:
#      x y z
#    x 1.537010 0.000000 0.012380 
#    y 0.000000 1.565050 0.000000 
#    z 0.012380 0.000000 1.584920 
# 
# From -- ./inp_files/345471.got.cif
#   From: 2010.05.17/outbox.cif.g08.bks.cpg/sg12_173_cif.got.tgz:345471.got - 2010.06.03 13:09:07.
