data_PCOD9178583
_publ_section_title
;
Structure prediction by ZEFSAII (Michael W. Deem and Ramdas Pophale) SiO2 
 PCOD9178583
Probable space group: C 2/M
;
_chemical_formula_sum "Si O2"
_cell_formula_units_Z 64
_cell_length_a 24.468992
_cell_length_b 8.967425
_cell_length_c 19.296614
_cell_angle_alpha 90.000000
_cell_angle_beta 108.960486
_cell_angle_gamma 90.000000
_cell_volume 4004.405243
_symmetry_space_group_name_H-M "C 2/M"
_symmetry_group_IT_number 12
_symmetry_cell_setting 'monoclinic'
loop_
_space_group_symop_operation_xyz
x,y,z
-x,y,-z
-x,-y,-z
x,-y,z
1/2+x,1/2+y,z
1/2-x,1/2+y,-z
1/2-x,1/2-y,-z
1/2+x,1/2-y,z
loop_
_atom_site_type_symbol
_atom_site_label
_atom_site_fract_x
_atom_site_fract_y
_atom_site_fract_z
Si Si1 0.309032 0.679099 0.370789
Si Si2 0.097257 0.823285 0.704487
Si Si3 0.140712 0.320652 0.468949
Si Si4 0.811236 0.178970 0.648287
Si Si5 0.451761 0.824317 0.188050
Si Si6 0.932253 0.825896 0.768081
Si Si7 0.495669 0.324405 0.076264
Si Si8 0.506866 0.174919 0.419921
O O1 0.307149 0.500000 0.378258
O O2 0.346922 0.714357 0.318614
O O3 0.340013 0.752243 0.450095
O O4 0.245181 0.747052 0.342381
O O5 0.093264 0.744854 0.777150
O O6 0.041480 0.770769 0.637829
O O7 0.095024 0.000000 0.713232
O O8 0.147419 0.500000 0.472796
O O9 0.177884 0.247974 0.423066
O O10 0.072933 0.286138 0.428990
O O11 0.869061 0.212731 0.716157
O O12 0.804639 0.000000 0.641013
O O13 0.515906 0.773589 0.240955
O O14 0.451584 0.756992 0.110308
O O15 0.447719 0.000000 0.184681
O O16 0.944253 0.811382 0.855613
O O17 0.943219 0.000000 0.754815
O O18 0.481132 0.500000 0.067433
O O19 0.500000 0.267077 0.000000
O O20 0.500000 0.190894 0.500000
O O21 0.497376 0.000000 0.399047
#
# Coordination Sequence:
#
# PCOD9178583 Si02
#       8
#     8   8   8   8   8   8   8   8
#     4  11  24  38  51  68  92 127 174 217 257 298
#     4  11  22  35  50  69  96 130 167 207 249 302
#     4  11  22  36  53  71  95 126 165 211 260 306
#     4  11  22  36  53  70  96 129 168 214 251 294
#     4  10  19  30  50  77 106 133 159 197 241 288
#     4   8  17  33  51  76 103 132 166 194 239 297
#     4   8  15  31  53  78 110 139 162 191 233 291
#     4  10  20  34  52  73  96 123 160 207 258 306
#
# _framework density 15.982398999999999
#
# number of rings (size 3 to 8) (size 9 to 14) (size 15 to 20)
#    0.750    1.250    1.250    3.375    0.000    6.000 
#    0.000    0.000    0.000    0.000    0.000    0.875 
#    0.000    0.000    0.000    0.000    0.000    0.000 
#
# Total GULP energy -178376.874318 kJ/mol
# GULP energy per Si atom -5574.277322 kJ/mol
# Density = 1.594602 g / cm^3
# Si number density = 15.982399 Si / 1000 Ang^3
#
#
#
# Elastic Constant Matrix: (Units=GPa)
#
#
# Indices 1 2 3 4 5 6 
#
# 1 100.9263 51.6614 43.2068 0.0000 -27.2172 0.0000
# 2 51.6614 66.5934 40.9770 0.0000 -20.6555 0.0000
# 3 43.2068 40.9770 82.7636 0.0000 -31.8970 0.0000
# 4 0.0000 0.0000 0.0000 14.2125 0.0000 0.5991
# 5 -27.2172 -20.6555 -31.8970 0.0000 20.9565 0.0000
# 6 0.0000 0.0000 0.0000 0.5991 0.0000 23.3119
#
#
#
# Elastic Compliance Matrix: (Units=1/GPa)
#
#
# Indices 1 2 3 4 5 6 
#
# 1 0.019271 -0.010764 0.001998 0.000000 0.017460 0.000000
# 2 -0.010764 0.028961 -0.007513 0.000000 0.003130 0.000000
# 3 0.001998 -0.007513 0.031218 0.000000 0.042704 0.000000
# 4 0.000000 0.000000 0.000000 0.070437 0.000000 -0.001810
# 5 0.017460 0.003130 0.042704 0.000000 0.138477 0.000000
# 6 0.000000 0.000000 0.000000 -0.001810 0.000000 0.042943
#
#
# Mechanical properties :
#
#
# Convention : Reuss Voigt Hill
#
# Bulk Modulus (GPa) = 21.32608 57.99708 39.66158
# Shear Modulus (GPa) = 13.17538 19.32537 16.25038
#
# Velocity S-wave (km/s) = 2.87430 3.48108 3.19214
# Velocity P-wave (km/s) = 4.93841 7.24735 6.20129
#
# Compressibility (1/GPa) = 0.04689095
#
# Stress axis : x y z
#
# Youngs Moduli (GPa) = 51.89130 34.52975 32.03296
#
# Poissons Ratio (x) = 0.37167 -0.06399
# Poissons Ratio (y) = 0.55854 0.24067
# Poissons Ratio (z) = -0.10366 0.25943
#
# Static dielectric constant tensor:
#      x y z
#    x 1.529590 0.000000 -0.010300 
#    y 0.000000 1.532600 0.000000 
#    z -0.010300 0.000000 1.543020 
# 
# From -- ./inp_files/323398.got.cif
#   From: 2010.05.17/outbox.cif.g08.bks.cpg/sg12_162_cif.got.tgz:323398.got - 2010.06.03 13:09:07.
