data_PCOD9178469
_publ_section_title
;
Structure prediction by ZEFSAII (Michael W. Deem and Ramdas Pophale) SiO2 
 PCOD9178469
Probable space group: C 2/M
;
_chemical_formula_sum "Si O2"
_cell_formula_units_Z 56
_cell_length_a 9.778783
_cell_length_b 15.438196
_cell_length_c 22.825384
_cell_angle_alpha 90.000000
_cell_angle_beta 40.214716
_cell_angle_gamma 90.000000
_cell_volume 2224.842086
_symmetry_space_group_name_H-M "C 2/M"
_symmetry_group_IT_number 12
_symmetry_cell_setting 'monoclinic'
loop_
_space_group_symop_operation_xyz
x,y,z
-x,y,-z
-x,-y,-z
x,-y,z
1/2+x,1/2+y,z
1/2-x,1/2+y,-z
1/2-x,1/2-y,-z
1/2+x,1/2-y,z
loop_
_atom_site_type_symbol
_atom_site_label
_atom_site_fract_x
_atom_site_fract_y
_atom_site_fract_z
Si Si1 0.246037 0.835722 0.254673
Si Si2 0.790019 0.371217 0.873816
Si Si3 0.675678 0.864412 0.265410
Si Si4 0.796090 0.801520 0.604768
Si Si5 0.705903 0.902802 0.000916
Si Si6 0.788898 0.595037 0.610755
Si Si7 0.747426 0.667680 0.131958
O O1 0.461833 0.888867 0.193968
O O2 0.280212 0.732007 0.234020
O O3 0.134616 0.833232 0.353159
O O4 0.148006 0.865268 0.225186
O O5 0.746007 0.404473 0.822564
O O6 0.686435 0.391918 0.971131
O O7 0.783480 0.267983 0.869569
O O8 0.423229 0.848388 0.339029
O O9 0.692966 0.905987 0.323685
O O10 0.740344 0.698979 0.618244
O O11 0.000000 0.819557 0.500000
O O12 0.499124 0.842784 0.062277
O O13 0.626145 0.000000 0.023735
O O14 0.825223 0.883378 0.901496
O O15 0.684949 0.500000 0.629621
O O16 0.000000 0.591499 0.500000
#
# Coordination Sequence:
#
# PCOD9178469 Si02
#       7
#     8   8   8   8   8   8   8
#     4   8  16  28  45  70  95 121 162 202 232 276
#     4   9  17  30  49  71  95 129 167 198 232 285
#     4   9  17  31  50  71  95 128 166 203 238 281
#     4   9  17  29  49  74  96 122 164 208 241 280
#     4  10  19  30  48  78 104 122 155 200 244 286
#     4   9  18  30  45  68  96 124 154 192 242 291
#     4   9  16  29  47  67  95 128 158 191 234 284
#
# _framework density 25.170328000000001
#
# number of rings (size 3 to 8) (size 9 to 14) (size 15 to 20)
#    0.000    3.000    0.000    1.286    0.000    5.714 
#    0.000    0.000    0.000   35.571    0.000   40.000 
#    0.000    0.571    0.000    0.000    0.000    0.000 
#
# Total GULP energy -155950.507579 kJ/mol
# GULP energy per Si atom -5569.660985 kJ/mol
# Density = 2.511304 g / cm^3
# Si number density = 25.170328 Si / 1000 Ang^3
#
#
#
# Elastic Constant Matrix: (Units=GPa)
#
#
# Indices 1 2 3 4 5 6 
#
# 1 120.4735 15.0047 66.1991 -0.0015 25.4286 -0.0007
# 2 15.0047 60.7604 9.6729 -0.0018 1.1898 -0.0001
# 3 66.1991 9.6729 126.7936 -0.0010 48.6350 0.0002
# 4 -0.0015 -0.0018 -0.0010 -103.7736 0.0018 -35.5586
# 5 25.4286 1.1898 48.6350 0.0018 45.7952 0.0007
# 6 -0.0007 -0.0001 0.0002 -35.5586 0.0007 -18.5419
#
#
#
# Elastic Compliance Matrix: (Units=1/GPa)
#
#
# Indices 1 2 3 4 5 6 
#
# 1 0.011869 -0.001977 -0.005970 0.000000 -0.000199 -0.000001
# 2 -0.001977 0.017055 -0.000878 -0.000001 0.001587 0.000001
# 3 -0.005970 -0.000878 0.016520 -0.000001 -0.014207 0.000001
# 4 0.000000 -0.000001 -0.000001 -0.028105 0.000001 0.053898
# 5 -0.000199 0.001587 -0.014207 0.000001 0.036994 -0.000001
# 6 -0.000001 0.000001 0.000001 0.053898 -0.000001 -0.157295
#
#
# Mechanical properties :
#
#
# Convention : Reuss Voigt Hill
#
# Bulk Modulus (GPa) = 35.97642 54.42011 45.19826
# Shear Modulus (GPa) = -65.74730 -0.82734 -33.28732
#
# Velocity S-wave (km/s) = -5.11641 -0.57394 -3.64054
# Velocity P-wave (km/s) = 4.53645 4.60744 0.56971
#
# Compressibility (1/GPa) = 0.02779599
#
# Stress axis : x y z
#
# Youngs Moduli (GPa) = 84.25233 58.63420 60.53316
#
# Poissons Ratio (x) = 0.11591 0.36136
# Poissons Ratio (y) = 0.16655 0.05312
# Poissons Ratio (z) = 0.50295 0.05146
#
# Static dielectric constant tensor:
#      x y z
#    x 2.105360 0.000000 -0.047740 
#    y 0.000000 1.905400 0.000000 
#    z -0.047740 0.000000 2.131600 
# 
# From -- ./inp_files/336262.got.cif
#   From: 2010.05.17/outbox.cif.g08.bks.cpg/sg12_169_cif.got.tgz:336262.got - 2010.06.03 13:09:07.
