data_PCOD9179079
_publ_section_title
;
Structure prediction by ZEFSAII (Michael W. Deem and Ramdas Pophale) SiO2 
 PCOD9179079
Probable space group: C 2/M
;
_chemical_formula_sum "Si O2"
_cell_formula_units_Z 64
_cell_length_a 14.550690
_cell_length_b 8.795987
_cell_length_c 31.262069
_cell_angle_alpha 90.000000
_cell_angle_beta 59.935554
_cell_angle_gamma 90.000000
_cell_volume 3462.853499
_symmetry_space_group_name_H-M "C 2/M"
_symmetry_group_IT_number 12
_symmetry_cell_setting 'monoclinic'
loop_
_space_group_symop_operation_xyz
x,y,z
-x,y,-z
-x,-y,-z
x,-y,z
1/2+x,1/2+y,z
1/2-x,1/2+y,-z
1/2-x,1/2-y,-z
1/2+x,1/2-y,z
loop_
_atom_site_type_symbol
_atom_site_label
_atom_site_fract_x
_atom_site_fract_y
_atom_site_fract_z
Si Si1 0.274803 0.816594 0.626101
Si Si2 0.763274 0.318512 0.094777
Si Si3 0.961809 0.816770 0.289376
Si Si4 0.943801 0.184187 0.112853
Si Si5 0.468143 0.314808 0.820465
Si Si6 0.208477 0.681995 0.553801
Si Si7 0.104080 0.825082 0.006990
Si Si8 0.027919 0.316916 0.361436
O O1 0.161834 0.776446 0.674064
O O2 0.273214 0.744595 0.579420
O O3 0.373372 0.767873 0.632416
O O4 0.278706 0.000000 0.620994
O O5 0.763159 0.500000 0.094735
O O6 0.647738 0.264724 0.136675
O O7 0.804592 0.264500 0.038792
O O8 0.847976 0.257518 0.109454
O O9 0.001566 0.762499 0.233881
O O10 0.026890 0.750680 0.314077
O O11 0.969126 0.000000 0.288787
O O12 0.950333 0.227164 0.160886
O O13 0.936860 0.000000 0.110615
O O14 0.053964 0.228597 0.063299
O O15 0.466867 0.500000 0.819690
O O16 0.214819 0.500000 0.551179
O O17 0.250000 0.750000 0.500000
O O18 0.085161 0.725320 0.590989
O O19 0.137359 0.000000 0.003639
O O20 0.000000 0.821556 0.000000
O O21 0.031160 0.500000 0.357509
#
# Coordination Sequence:
#
# PCOD9179079 Si02
#       8
#     8   8   8   8   8   8   8   8
#     4   9  18  34  55  76  99 133 174 208 244 292
#     4  10  19  31  48  71  98 124 155 199 246 291
#     4   9  18  34  54  73  96 128 167 207 245 295
#     4   9  18  34  52  68  93 129 163 195 239 299
#     4   9  19  34  50  71  99 129 159 197 250 300
#     4  10  20  34  52  77 111 142 168 205 248 289
#     4   8  15  29  48  68  92 124 159 194 237 293
#     4   9  19  35  54  77 104 133 167 210 254 287
#
# _framework density 18.481867999999999
#
# number of rings (size 3 to 8) (size 9 to 14) (size 15 to 20)
#    0.000    2.875    0.000    1.500    0.000    5.250 
#    0.000    6.875    0.000    0.000    0.000    0.000 
#    0.000    0.000    0.000    0.000    0.000    0.000 
#
# Total GULP energy -178459.461766 kJ/mol
# GULP energy per Si atom -5576.858180 kJ/mol
# Density = 1.843980 g / cm^3
# Si number density = 18.481868 Si / 1000 Ang^3
#
#
#
# Elastic Constant Matrix: (Units=GPa)
#
#
# Indices 1 2 3 4 5 6 
#
# 1 101.8907 17.9458 44.3830 0.0000 21.3501 0.0000
# 2 17.9458 13.5801 23.6030 0.0000 4.2926 0.0000
# 3 44.3830 23.6030 128.9737 0.0000 28.3662 0.0000
# 4 0.0000 0.0000 0.0000 26.2037 0.0000 3.6432
# 5 21.3501 4.2926 28.3662 0.0000 20.6428 0.0000
# 6 0.0000 0.0000 0.0000 3.6432 0.0000 16.8561
#
#
#
# Elastic Compliance Matrix: (Units=1/GPa)
#
#
# Indices 1 2 3 4 5 6 
#
# 1 0.015335 -0.017571 0.000893 0.000000 -0.013434 0.000000
# 2 -0.017571 0.128774 -0.022396 0.000000 0.022170 0.000000
# 3 0.000893 -0.022396 0.015368 0.000000 -0.017385 0.000000
# 4 0.000000 0.000000 0.000000 0.039345 0.000000 -0.008504
# 5 -0.013434 0.022170 -0.017385 0.000000 0.081616 0.000000
# 6 0.000000 0.000000 0.000000 -0.008504 0.000000 0.061164
#
#
# Mechanical properties :
#
#
# Convention : Reuss Voigt Hill
#
# Bulk Modulus (GPa) = 12.29552 46.25645 29.27598
# Shear Modulus (GPa) = 11.18918 23.30804 17.24861
#
# Velocity S-wave (km/s) = 2.46319 3.55509 3.05826
# Velocity P-wave (km/s) = 3.84147 6.47564 5.32404
#
# Compressibility (1/GPa) = 0.08133046
#
# Stress axis : x y z
#
# Youngs Moduli (GPa) = 65.21007 7.76551 65.06847
#
# Poissons Ratio (x) = 0.13645 -0.05810
# Poissons Ratio (y) = 1.14578 1.45728
# Poissons Ratio (z) = -0.05823 0.17392
#
# Static dielectric constant tensor:
#      x y z
#    x 1.643190 0.000000 0.000710 
#    y 0.000000 1.623020 0.000000 
#    z 0.000710 0.000000 1.635900 
# 
# From -- ./inp_files/374984.got.cif
#   From: 2010.05.17/outbox.cif.g08.bks.cpg/sg12_188_cif.got.tgz:374984.got - 2010.06.03 13:09:07.
