data_PCOD9179589
_publ_section_title
;
Structure prediction by ZEFSAII (Michael W. Deem and Ramdas Pophale) SiO2 
 PCOD9179589
Probable space group: C 2/M
;
_chemical_formula_sum "Si O2"
_cell_formula_units_Z 64
_cell_length_a 24.213340
_cell_length_b 12.478707
_cell_length_c 19.414860
_cell_angle_alpha 90.000000
_cell_angle_beta 36.516481
_cell_angle_gamma 90.000000
_cell_volume 3490.719263
_symmetry_space_group_name_H-M "C 2/M"
_symmetry_group_IT_number 12
_symmetry_cell_setting 'monoclinic'
loop_
_space_group_symop_operation_xyz
x,y,z
-x,y,-z
-x,-y,-z
x,-y,z
1/2+x,1/2+y,z
1/2-x,1/2+y,-z
1/2-x,1/2-y,-z
1/2+x,1/2-y,z
loop_
_atom_site_type_symbol
_atom_site_label
_atom_site_fract_x
_atom_site_fract_y
_atom_site_fract_z
Si Si1 0.098419 0.379041 0.935123
Si Si2 0.419643 0.384362 0.200820
Si Si3 0.931120 0.721355 0.896320
Si Si4 0.748018 0.376532 0.528919
Si Si5 0.446554 0.871456 0.734670
Si Si6 0.886862 0.623208 0.519015
Si Si7 0.221674 0.185701 0.774476
Si Si8 0.268114 0.378306 0.079579
O O1 0.114669 0.500000 0.897244
O O2 0.180388 0.303115 0.827837
O O3 0.092653 0.368875 0.023637
O O4 0.000000 0.345607 0.000000
O O5 0.466354 0.500000 0.147593
O O6 0.494982 0.294508 0.137710
O O7 0.351503 0.383172 0.334514
O O8 0.351329 0.367943 0.204819
O O9 0.969503 0.678332 0.785923
O O10 0.840509 0.794600 0.975503
O O11 0.758731 0.500000 0.483441
O O12 0.750000 0.250000 0.500000
O O13 0.826374 0.378064 0.509502
O O14 0.513558 0.833974 0.605543
O O15 0.338486 0.850726 0.829339
O O16 0.459497 0.000000 0.725501
O O17 0.896444 0.500000 0.533914
O O18 0.823104 0.682537 0.638526
O O19 0.221008 0.128923 0.848784
O O20 0.285702 0.500000 0.038515
#
# Coordination Sequence:
#
# PCOD9179589 Si02
#       8
#     8   8   8   8   8   8   8   8
#     4  10  20  35  53  78 108 140 178 218 259 320
#     4  10  19  31  50  76 108 137 169 213 272 328
#     4  11  20  34  54  78 106 145 175 221 270 322
#     4   9  17  30  47  71 103 141 179 221 266 329
#     4  10  21  36  53  78 106 142 182 225 267 314
#     4   9  18  33  53  74 106 140 178 222 269 323
#     4  10  19  35  55  81 107 141 171 217 272 323
#     4  10  21  34  53  79 108 138 181 223 267 320
#
# _framework density 18.334330000000001
#
# number of rings (size 3 to 8) (size 9 to 14) (size 15 to 20)
#    0.000    2.125    1.250    3.750    0.000    0.500 
#    0.000    6.875    0.000    2.250    0.000    3.500 
#    0.000    0.000    0.000    0.000    0.000    0.000 
#
# Total GULP energy -178189.281748 kJ/mol
# GULP energy per Si atom -5568.415055 kJ/mol
# Density = 1.829260 g / cm^3
# Si number density = 18.334330 Si / 1000 Ang^3
#
#
#
# Elastic Constant Matrix: (Units=GPa)
#
#
# Indices 1 2 3 4 5 6 
#
# 1 28.7370 15.3329 0.1311 0.0000 0.6803 0.0000
# 2 15.3329 79.6799 30.0968 0.0000 4.2469 0.0000
# 3 0.1311 30.0968 79.4646 0.0000 3.5641 0.0000
# 4 0.0000 0.0000 0.0000 15.9145 0.0000 -8.6305
# 5 0.6803 4.2469 3.5641 0.0000 21.8243 0.0000
# 6 0.0000 0.0000 0.0000 -8.6305 0.0000 7.2046
#
#
#
# Elastic Compliance Matrix: (Units=1/GPa)
#
#
# Indices 1 2 3 4 5 6 
#
# 1 0.039501 -0.008839 0.003285 0.000000 -0.000048 0.000000
# 2 -0.008839 0.016707 -0.006225 0.000000 -0.001959 0.000000
# 3 0.003285 -0.006225 0.014997 0.000000 -0.001340 0.000000
# 4 0.000000 0.000000 0.000000 0.179339 0.000000 0.214831
# 5 -0.000048 -0.001959 -0.001340 0.000000 0.046422 0.000000
# 6 0.000000 0.000000 0.000000 0.214831 0.000000 0.396147
#
#
# Mechanical properties :
#
#
# Convention : Reuss Voigt Hill
#
# Bulk Modulus (GPa) = 20.98859 31.00033 25.99446
# Shear Modulus (GPa) = 6.82543 18.47673 12.65108
#
# Velocity S-wave (km/s) = 1.93154 3.17798 2.62968
# Velocity P-wave (km/s) = 4.05549 5.51463 4.84036
#
# Compressibility (1/GPa) = 0.04764493
#
# Stress axis : x y z
#
# Youngs Moduli (GPa) = 25.31589 59.85508 66.68141
#
# Poissons Ratio (x) = 0.52908 -0.21904
# Poissons Ratio (y) = 0.22378 0.41511
# Poissons Ratio (z) = -0.08316 0.37261
#
# Static dielectric constant tensor:
#      x y z
#    x 1.634600 0.000000 -0.005720 
#    y 0.000000 1.660970 0.000000 
#    z -0.005720 0.000000 1.647460 
# 
# From -- ./inp_files/327807.got.cif
#   From: 2010.05.17/outbox.cif.g08.bks.cpg/sg12_164_cif.got.tgz:327807.got - 2010.06.03 13:09:07.
