data_PCOD9179769
_publ_section_title
;
Structure prediction by ZEFSAII (Michael W. Deem and Ramdas Pophale) SiO2 
 PCOD9179769
Probable space group: C 2/M
;
_chemical_formula_sum "Si O2"
_cell_formula_units_Z 48
_cell_length_a 14.853474
_cell_length_b 21.448427
_cell_length_c 13.418401
_cell_angle_alpha 90.000000
_cell_angle_beta 33.888058
_cell_angle_gamma 90.000000
_cell_volume 2383.555605
_symmetry_space_group_name_H-M "C 2/M"
_symmetry_group_IT_number 12
_symmetry_cell_setting 'monoclinic'
loop_
_space_group_symop_operation_xyz
x,y,z
-x,y,-z
-x,-y,-z
x,-y,z
1/2+x,1/2+y,z
1/2-x,1/2+y,-z
1/2-x,1/2-y,-z
1/2+x,1/2-y,z
loop_
_atom_site_type_symbol
_atom_site_label
_atom_site_fract_x
_atom_site_fract_y
_atom_site_fract_z
Si Si1 0.546819 0.679341 0.710994
Si Si2 0.113980 0.314695 0.677493
Si Si3 0.878970 0.609765 0.035336
Si Si4 0.405925 0.851920 0.683514
Si Si5 0.154927 0.782456 0.285998
Si Si6 0.173774 0.071430 0.037908
O O1 0.600819 0.741782 0.719170
O O2 0.399976 0.702486 0.776572
O O3 0.700904 0.665022 0.500150
O O4 0.478806 0.618259 0.825855
O O5 0.214723 0.336202 0.816477
O O6 0.042587 0.324135 0.631816
O O7 0.997059 0.354767 0.851514
O O8 0.754270 0.575362 0.075623
O O9 0.000000 0.574860 0.000000
O O10 0.500000 0.875704 0.500000
O O11 0.299995 0.790506 0.752543
O O12 0.301771 0.901455 0.840416
O O13 0.000000 0.788987 0.500000
O O14 0.133220 0.000000 0.054787
#
# Coordination Sequence:
#
# PCOD9179769 Si02
#       6
#     8   8   8   8   8   8
#     4   9  17  31  50  74 104 131 170 217 264 311
#     4   9  17  31  53  78 100 127 163 220 276 312
#     4  10  19  31  51  78 107 135 172 213 257 307
#     4   9  18  33  52  76 102 131 172 217 262 309
#     4   9  16  28  50  78 107 133 162 213 273 315
#     4  10  21  36  52  71 104 148 181 208 247 299
#
# _framework density 20.137982999999998
#
# number of rings (size 3 to 8) (size 9 to 14) (size 15 to 20)
#    0.000    2.667    0.000    2.000    0.000    6.000 
#    0.000    4.167    0.000   18.000    0.000    0.000 
#    0.000    0.000    0.000    0.000    0.000    0.000 
#
# Total GULP energy -133697.674379 kJ/mol
# GULP energy per Si atom -5570.736432 kJ/mol
# Density = 2.009215 g / cm^3
# Si number density = 20.137983 Si / 1000 Ang^3
#
#
#
# Elastic Constant Matrix: (Units=GPa)
#
#
# Indices 1 2 3 4 5 6 
#
# 1 41.5928 9.2459 10.1596 0.0173 -2.3895 -0.0061
# 2 9.2459 114.9480 57.5335 0.0020 -11.6660 0.0005
# 3 10.1596 57.5335 75.1864 0.0128 -2.6869 -0.0065
# 4 0.0173 0.0020 0.0128 0.5466 -0.0076 0.8204
# 5 -2.3895 -11.6660 -2.6869 -0.0076 27.7640 0.0036
# 6 -0.0061 0.0005 -0.0065 0.8204 0.0036 8.1101
#
#
#
# Elastic Compliance Matrix: (Units=1/GPa)
#
#
# Indices 1 2 3 4 5 6 
#
# 1 0.024961 -0.000284 -0.003094 -0.000842 0.001729 0.000101
# 2 -0.000284 0.014799 -0.011104 0.000358 0.005120 -0.000048
# 3 -0.003094 -0.011104 0.022115 -0.000522 -0.002792 0.000070
# 4 -0.000842 0.000358 -0.000522 2.156995 0.000648 -0.218197
# 5 0.001729 0.005120 -0.002792 0.000648 0.038048 -0.000084
# 6 0.000101 -0.000048 0.000070 -0.218197 -0.000084 0.145375
#
#
# Mechanical properties :
#
#
# Convention : Reuss Voigt Hill
#
# Bulk Modulus (GPa) = 30.38248 42.84503 36.61376
# Shear Modulus (GPa) = 2.04731 17.60336 9.82533
#
# Velocity S-wave (km/s) = 1.00938 2.95979 2.21124
# Velocity P-wave (km/s) = 4.05936 5.74477 4.97397
#
# Compressibility (1/GPa) = 0.03291370
#
# Stress axis : x y z
#
# Youngs Moduli (GPa) = 40.06234 67.56992 45.21778
#
# Poissons Ratio (x) = 0.01917 0.13990
# Poissons Ratio (y) = 0.01137 0.50208
# Poissons Ratio (z) = 0.12395 0.75026
#
# Static dielectric constant tensor:
#      x y z
#    x 1.804580 0.000000 0.034880 
#    y 0.000000 1.704930 0.000000 
#    z 0.034880 0.000000 1.707400 
# 
# From -- ./inp_files/157671.got.cif
#   From: 2010.05.17/outbox.cif.g08.bks.cpg/sg12_79_cif.got.tgz:157671.got - 2010.06.03 13:09:07.
