data_PCOD9179930
_publ_section_title
;
Structure prediction by ZEFSAII (Michael W. Deem and Ramdas Pophale) SiO2 
 PCOD9179930
Probable space group: C 2/M
;
_chemical_formula_sum "Si O2"
_cell_formula_units_Z 48
_cell_length_a 18.687024
_cell_length_b 8.292293
_cell_length_c 21.661222
_cell_angle_alpha 90.000000
_cell_angle_beta 130.622028
_cell_angle_gamma 90.000000
_cell_volume 2547.719190
_symmetry_space_group_name_H-M "C 2/M"
_symmetry_group_IT_number 12
_symmetry_cell_setting 'monoclinic'
loop_
_space_group_symop_operation_xyz
x,y,z
-x,y,-z
-x,-y,-z
x,-y,z
1/2+x,1/2+y,z
1/2-x,1/2+y,-z
1/2-x,1/2-y,-z
1/2+x,1/2-y,z
loop_
_atom_site_type_symbol
_atom_site_label
_atom_site_fract_x
_atom_site_fract_y
_atom_site_fract_z
Si Si1 0.469857 0.807088 0.233772
Si Si2 0.103356 0.694910 0.079149
Si Si3 0.863748 0.193824 0.763687
Si Si4 0.773173 0.691739 0.413324
Si Si5 0.734428 0.692152 0.921701
Si Si6 0.891802 0.303728 0.587227
O O1 0.546499 0.748908 0.226513
O O2 0.367606 0.741279 0.160735
O O3 0.510574 0.760892 0.324368
O O4 0.466571 0.000000 0.228906
O O5 0.102381 0.500000 0.076503
O O6 0.126290 0.745438 0.161518
O O7 0.183082 0.754809 0.076775
O O8 0.000000 0.751831 0.000000
O O9 0.768984 0.254376 0.674883
O O10 0.862357 0.000000 0.762942
O O11 0.784394 0.500000 0.412221
O O12 0.865694 0.748958 0.502854
O O13 0.688047 0.728038 0.413326
O O14 0.740145 0.500000 0.925219
O O15 0.750000 0.750000 0.000000
O O16 0.883028 0.500000 0.584902
#
# Coordination Sequence:
#
# PCOD9179930 Si02
#       6
#     8   8   8   8   8   8
#     4  10  19  32  52  77 107 141 174 208 249 300
#     4  10  22  39  56  74  99 131 166 207 257 311
#     4  10  19  31  52  80 107 135 170 214 257 299
#     4   8  14  25  42  69 102 131 165 209 251 289
#     4  11  23  38  57  79 103 131 165 209 258 309
#     4   8  14  25  43  68  99 135 170 204 245 292
#
# _framework density 18.840382000000002
#
# number of rings (size 3 to 8) (size 9 to 14) (size 15 to 20)
#    0.000    2.500    0.000    2.500    0.000    4.333 
#    0.000    0.000    0.000    1.000    0.000    7.000 
#    0.000    0.000    0.000    0.000    0.000    0.000 
#
# Total GULP energy -133715.792163 kJ/mol
# GULP energy per Si atom -5571.491340 kJ/mol
# Density = 1.879750 g / cm^3
# Si number density = 18.840382 Si / 1000 Ang^3
#
#
#
# Elastic Constant Matrix: (Units=GPa)
#
#
# Indices 1 2 3 4 5 6 
#
# 1 88.4451 13.8272 90.1845 0.0000 -1.2783 0.0000
# 2 13.8272 18.1811 19.3816 0.0000 1.5786 0.0000
# 3 90.1845 19.3816 238.3868 0.0000 -6.0884 0.0000
# 4 0.0000 0.0000 0.0000 14.7146 0.0000 -2.2056
# 5 -1.2783 1.5786 -6.0884 0.0000 24.5896 0.0000
# 6 0.0000 0.0000 0.0000 -2.2056 0.0000 18.1614
#
#
#
# Elastic Compliance Matrix: (Units=1/GPa)
#
#
# Indices 1 2 3 4 5 6 
#
# 1 0.019311 -0.007532 -0.006697 0.000000 -0.000171 0.000000
# 2 -0.007532 0.063804 -0.002468 0.000000 -0.005099 0.000000
# 3 -0.006697 -0.002468 0.006968 0.000000 0.001536 0.000000
# 4 0.000000 0.000000 0.000000 0.069219 0.000000 0.008406
# 5 -0.000171 -0.005099 0.001536 0.000000 0.041366 0.000000
# 6 0.000000 0.000000 0.000000 0.008406 0.000000 0.056083
#
#
# Mechanical properties :
#
#
# Convention : Reuss Voigt Hill
#
# Bulk Modulus (GPa) = 17.64029 65.75551 41.69790
# Shear Modulus (GPa) = 16.17896 26.26778 21.22337
#
# Velocity S-wave (km/s) = 2.93360 3.73799 3.35995
# Velocity P-wave (km/s) = 4.56706 7.32169 6.10185
#
# Compressibility (1/GPa) = 0.05668841
#
# Stress axis : x y z
#
# Youngs Moduli (GPa) = 51.78495 15.67289 143.50311
#
# Poissons Ratio (x) = 0.11804 0.96110
# Poissons Ratio (y) = 0.39003 0.35422
# Poissons Ratio (z) = 0.34683 0.03869
#
# Static dielectric constant tensor:
#      x y z
#    x 1.624350 0.000000 0.004150 
#    y 0.000000 1.675030 0.000000 
#    z 0.004150 0.000000 1.707300 
# 
# From -- ./inp_files/273608.got.cif
#   From: 2010.05.17/outbox.cif.g08.bks.cpg/sg12_137_cif.got.tgz:273608.got - 2010.06.03 13:09:07.
