data_PCOD9179064
_publ_section_title
;
Structure prediction by ZEFSAII (Michael W. Deem and Ramdas Pophale) SiO2 
 PCOD9179064
Probable space group: C 2/M
;
_chemical_formula_sum "Si O2"
_cell_formula_units_Z 48
_cell_length_a 10.219150
_cell_length_b 18.818738
_cell_length_c 13.736901
_cell_angle_alpha 90.000000
_cell_angle_beta 66.424678
_cell_angle_gamma 90.000000
_cell_volume 2421.269493
_symmetry_space_group_name_H-M "C 2/M"
_symmetry_group_IT_number 12
_symmetry_cell_setting 'monoclinic'
loop_
_space_group_symop_operation_xyz
x,y,z
-x,y,-z
-x,-y,-z
x,-y,z
1/2+x,1/2+y,z
1/2-x,1/2+y,-z
1/2-x,1/2-y,-z
1/2+x,1/2-y,z
loop_
_atom_site_type_symbol
_atom_site_label
_atom_site_fract_x
_atom_site_fract_y
_atom_site_fract_z
Si Si1 0.770765 0.713510 0.822118
Si Si2 0.023075 0.322813 0.889649
Si Si3 0.488206 0.729221 0.389808
Si Si4 0.171839 0.579836 0.308936
Si Si5 0.651024 0.419948 0.551100
Si Si6 0.865458 0.634803 0.342692
O O1 0.626780 0.756268 0.881029
O O2 0.745341 0.637025 0.780916
O O3 0.869276 0.754690 0.713511
O O4 0.874752 0.701602 0.883548
O O5 0.103983 0.366694 0.781135
O O6 0.000000 0.359868 0.000000
O O7 0.500000 0.748138 0.500000
O O8 0.448998 0.646660 0.395740
O O9 0.372300 0.782618 0.375833
O O10 0.193293 0.500000 0.267020
O O11 0.227044 0.583523 0.402388
O O12 0.005903 0.600032 0.349492
O O13 0.591533 0.500000 0.570599
O O14 0.727192 0.402738 0.426069
#
# Coordination Sequence:
#
# PCOD9179064 Si02
#       6
#     8   8   8   8   8   8
#     4  10  20  34  56  81 107 136 171 217 262 308
#     4  10  20  35  55  79 102 131 176 226 266 300
#     4  10  19  31  48  71 104 138 171 205 256 315
#     4   9  17  30  49  76 107 137 171 209 254 309
#     4  11  20  30  48  75 108 141 171 207 256 316
#     4  10  19  31  51  75 103 134 174 217 257 299
#
# _framework density 19.824309
#
# number of rings (size 3 to 8) (size 9 to 14) (size 15 to 20)
#    0.000    2.333    0.000    7.000    0.000    1.667 
#    0.000    0.000    0.000   14.000    0.000   11.667 
#    0.000    0.000    0.000    0.000    0.000    0.000 
#
# Total GULP energy -134004.434470 kJ/mol
# GULP energy per Si atom -5583.518103 kJ/mol
# Density = 1.977919 g / cm^3
# Si number density = 19.824309 Si / 1000 Ang^3
#
#
#
# Elastic Constant Matrix: (Units=GPa)
#
#
# Indices 1 2 3 4 5 6 
#
# 1 38.0885 8.7211 25.8061 0.0000 18.7942 0.0000
# 2 8.7211 114.3978 37.0778 0.0000 -4.7891 0.0000
# 3 25.8061 37.0778 124.2785 0.0000 24.6167 0.0000
# 4 0.0000 0.0000 0.0000 15.6811 0.0000 -1.0361
# 5 18.7942 -4.7891 24.6167 0.0000 23.4573 0.0000
# 6 0.0000 0.0000 0.0000 -1.0361 0.0000 21.2075
#
#
#
# Elastic Compliance Matrix: (Units=1/GPa)
#
#
# Indices 1 2 3 4 5 6 
#
# 1 0.046263 -0.004828 -0.000794 0.000000 -0.037219 0.000000
# 2 -0.004828 0.010985 -0.004400 0.000000 0.010728 0.000000
# 3 -0.000794 -0.004400 0.012089 0.000000 -0.012948 0.000000
# 4 0.000000 0.000000 0.000000 0.063977 0.000000 0.003126
# 5 -0.037219 0.010728 -0.012948 0.000000 0.088229 0.000000
# 6 0.000000 0.000000 0.000000 0.003126 0.000000 0.047306
#
#
# Mechanical properties :
#
#
# Convention : Reuss Voigt Hill
#
# Bulk Modulus (GPa) = 20.28654 46.66385 33.47519
# Shear Modulus (GPa) = 16.37615 25.74650 21.06132
#
# Velocity S-wave (km/s) = 2.87725 3.60770 3.26298
# Velocity P-wave (km/s) = 4.61449 6.39874 5.57841
#
# Compressibility (1/GPa) = 0.04929377
#
# Stress axis : x y z
#
# Youngs Moduli (GPa) = 21.61560 91.03712 82.72223
#
# Poissons Ratio (x) = 0.43949 0.06567
# Poissons Ratio (y) = 0.10435 0.36395
# Poissons Ratio (z) = 0.01716 0.40053
#
# Static dielectric constant tensor:
#      x y z
#    x 1.742500 0.000000 0.022840 
#    y 0.000000 1.711860 0.000000 
#    z 0.022840 0.000000 1.714790 
# 
# From -- ./inp_files/131084.got.cif
#   From: 2010.05.17/outbox.cif.g08.bks.cpg/sg12_66_cif.got.tgz:131084.got - 2010.06.03 13:09:07.
