data_PCOD9179808
_publ_section_title
;
Structure prediction by ZEFSAII (Michael W. Deem and Ramdas Pophale) SiO2 
 PCOD9179808
Probable space group: C 2/M
;
_chemical_formula_sum "Si O2"
_cell_formula_units_Z 56
_cell_length_a 26.873595
_cell_length_b 9.078622
_cell_length_c 12.963301
_cell_angle_alpha 90.000000
_cell_angle_beta 120.860754
_cell_angle_gamma 90.000000
_cell_volume 2714.934439
_symmetry_space_group_name_H-M "C 2/M"
_symmetry_group_IT_number 12
_symmetry_cell_setting 'monoclinic'
loop_
_space_group_symop_operation_xyz
x,y,z
-x,y,-z
-x,-y,-z
x,-y,z
1/2+x,1/2+y,z
1/2-x,1/2+y,-z
1/2-x,1/2-y,-z
1/2+x,1/2-y,z
loop_
_atom_site_type_symbol
_atom_site_label
_atom_site_fract_x
_atom_site_fract_y
_atom_site_fract_z
Si Si1 0.037962 0.330646 0.643150
Si Si2 0.340098 0.327441 0.263716
Si Si3 0.737916 0.670848 0.258239
Si Si4 0.936812 0.331619 0.031823
Si Si5 0.338003 0.666881 0.030141
Si Si6 0.968062 0.174721 0.751595
Si Si7 0.134761 0.671846 0.257767
O O1 0.048384 0.500000 0.686864
O O2 0.097937 0.249689 0.681019
O O3 0.000000 0.333433 0.500000
O O4 0.000914 0.244367 0.689121
O O5 0.346324 0.500000 0.293507
O O6 0.298514 0.250681 0.301875
O O7 0.313589 0.315626 0.119044
O O8 0.745305 0.500000 0.293672
O O9 0.695443 0.751649 0.293434
O O10 0.705542 0.676092 0.111988
O O11 0.956737 0.500000 0.064461
O O12 0.887879 0.285660 0.062553
O O13 0.990355 0.224807 0.109659
O O14 0.903503 0.319197 0.888238
O O15 0.363673 0.500000 0.053883
O O16 0.904743 0.244782 0.701197
O O17 0.964564 0.000000 0.741277
O O18 0.142426 0.500000 0.291190
#
# Coordination Sequence:
#
# PCOD9179808 Si02
#       7
#     8   8   8   8   8   8   8
#     4  11  25  44  65  88 112 144 191 245 298 347
#     4  11  21  35  57  84 115 152 192 236 290 343
#     4  10  20  34  53  81 119 159 197 233 276 336
#     4  10  19  31  51  79 114 155 196 235 280 335
#     4   9  18  31  49  78 115 155 194 233 280 336
#     4  12  23  36  57  83 114 151 190 237 292 347
#     4  10  21  36  54  81 117 157 198 236 278 336
#
# _framework density 20.626647999999999
#
# number of rings (size 3 to 8) (size 9 to 14) (size 15 to 20)
#    0.000    1.571    1.429    4.286    0.000    5.714 
#    0.000    0.000    0.000    0.857    0.000    0.000 
#    0.000    0.000    0.000    0.000    0.000    0.000 
#
# Total GULP energy -156445.962387 kJ/mol
# GULP energy per Si atom -5587.355800 kJ/mol
# Density = 2.057970 g / cm^3
# Si number density = 20.626648 Si / 1000 Ang^3
#
#
#
# Elastic Constant Matrix: (Units=GPa)
#
#
# Indices 1 2 3 4 5 6 
#
# 1 198.5363 122.3104 9.6429 0.0000 7.3982 0.0000
# 2 122.3104 201.4637 16.0262 0.0000 4.4087 0.0000
# 3 9.6429 16.0262 17.4344 0.0000 0.6383 0.0000
# 4 0.0000 0.0000 0.0000 11.3093 0.0000 4.7757
# 5 7.3982 4.4087 0.6383 0.0000 8.6264 0.0000
# 6 0.0000 0.0000 0.0000 4.7757 0.0000 38.4239
#
#
#
# Elastic Compliance Matrix: (Units=1/GPa)
#
#
# Indices 1 2 3 4 5 6 
#
# 1 0.008219 -0.004900 0.000125 0.000000 -0.004554 0.000000
# 2 -0.004900 0.008326 -0.004955 0.000000 0.000314 0.000000
# 3 0.000125 -0.004955 0.061922 0.000000 -0.002157 0.000000
# 4 0.000000 0.000000 0.000000 0.093321 0.000000 -0.011599
# 5 -0.004554 0.000314 -0.002157 0.000000 0.119828 0.000000
# 6 0.000000 0.000000 0.000000 -0.011599 0.000000 0.027467
#
#
# Mechanical properties :
#
#
# Convention : Reuss Voigt Hill
#
# Bulk Modulus (GPa) = 16.94694 79.26594 48.10644
# Shear Modulus (GPa) = 13.95822 29.63557 21.79689
#
# Velocity S-wave (km/s) = 2.60418 3.79458 3.25427
# Velocity P-wave (km/s) = 4.15647 7.59676 6.12319
#
# Compressibility (1/GPa) = 0.05900769
#
# Stress axis : x y z
#
# Youngs Moduli (GPa) = 121.66316 120.10568 16.14938
#
# Poissons Ratio (x) = 0.58856 -0.00202
# Poissons Ratio (y) = 0.59620 0.08001
# Poissons Ratio (z) = -0.01523 0.59508
#
# Static dielectric constant tensor:
#      x y z
#    x 1.736300 0.000000 -0.013930 
#    y 0.000000 1.700980 0.000000 
#    z -0.013930 0.000000 1.751980 
# 
# From -- ./inp_files/244338.got.cif
#   From: 2010.05.17/outbox.cif.g08.bks.cpg/sg12_123_cif.got.tgz:244338.got - 2010.06.03 13:09:07.
