data_PCOD9179089
_publ_section_title
;
Structure prediction by ZEFSAII (Michael W. Deem and Ramdas Pophale) SiO2 
 PCOD9179089
Probable space group: C 2/M
;
_chemical_formula_sum "Si O2"
_cell_formula_units_Z 56
_cell_length_a 21.710740
_cell_length_b 7.575563
_cell_length_c 24.154104
_cell_angle_alpha 90.000000
_cell_angle_beta 143.035953
_cell_angle_gamma 90.000000
_cell_volume 2388.810043
_symmetry_space_group_name_H-M "C 2/M"
_symmetry_group_IT_number 12
_symmetry_cell_setting 'monoclinic'
loop_
_space_group_symop_operation_xyz
x,y,z
-x,y,-z
-x,-y,-z
x,-y,z
1/2+x,1/2+y,z
1/2-x,1/2+y,-z
1/2-x,1/2-y,-z
1/2+x,1/2-y,z
loop_
_atom_site_type_symbol
_atom_site_label
_atom_site_fract_x
_atom_site_fract_y
_atom_site_fract_z
Si Si1 0.037599 0.709329 0.774282
Si Si2 0.882822 0.793450 0.439551
Si Si3 0.964748 0.211622 0.608848
Si Si4 0.314832 0.282393 0.276078
Si Si5 0.260538 0.289193 0.942127
Si Si6 0.601451 0.202070 0.098208
Si Si7 0.013714 0.792255 0.884842
O O1 0.048009 0.500000 0.784804
O O2 0.956916 0.749959 0.668050
O O3 0.152135 0.782460 0.841543
O O4 0.009686 0.769009 0.815936
O O5 0.816397 0.720844 0.341277
O O6 0.000000 0.786796 0.500000
O O7 0.888707 0.720097 0.506189
O O8 0.855018 0.000000 0.424016
O O9 0.078422 0.275889 0.673601
O O10 0.964938 0.000000 0.603068
O O11 0.313573 0.500000 0.275056
O O12 0.213789 0.219186 0.171836
O O13 0.263838 0.500000 0.936232
O O14 0.250000 0.250000 0.000000
O O15 0.375549 0.223009 0.012958
O O16 0.576173 0.202652 0.145486
O O17 0.605841 0.000000 0.082185
O O18 0.500000 0.288456 0.000000
O O19 0.008467 0.000000 0.891856
#
# Coordination Sequence:
#
# PCOD9179089 Si02
#       7
#     8   8   8   8   8   8   8
#     4  10  19  31  48  72 100 127 154 196 252 298
#     4   7  11  23  45  71  96 123 159 199 237 279
#     4   9  16  27  49  78 100 123 159 201 240 286
#     4   8  15  29  48  71 100 132 163 196 237 284
#     4   8  16  29  44  63  87 119 156 191 232 278
#     4  10  21  34  49  72 100 132 165 197 235 283
#     4  10  20  35  51  67  92 129 170 205 235 277
#
# _framework density 23.442634000000002
#
# number of rings (size 3 to 8) (size 9 to 14) (size 15 to 20)
#    0.000    3.143    0.000    2.571    2.000    1.429 
#    0.000    0.714    0.000    5.571    0.000    0.000 
#    0.000    0.000    0.000    0.000    0.000    0.000 
#
# Total GULP energy -156102.248215 kJ/mol
# GULP energy per Si atom -5575.080293 kJ/mol
# Density = 2.338928 g / cm^3
# Si number density = 23.442634 Si / 1000 Ang^3
#
#
#
# Elastic Constant Matrix: (Units=GPa)
#
#
# Indices 1 2 3 4 5 6 
#
# 1 49.9155 6.0357 0.8287 0.0000 -16.1613 0.0000
# 2 6.0357 75.1577 4.5731 0.0000 -3.6546 0.0004
# 3 0.8287 4.5731 110.3772 0.0000 -30.5556 0.0000
# 4 0.0000 0.0000 0.0000 4.9661 0.0000 -5.5312
# 5 -16.1613 -3.6546 -30.5556 0.0000 37.4972 0.0000
# 6 0.0000 0.0004 0.0000 -5.5312 0.0000 12.8794
#
#
#
# Elastic Compliance Matrix: (Units=1/GPa)
#
#
# Indices 1 2 3 4 5 6 
#
# 1 0.024465 -0.001535 0.003561 0.000000 0.013297 0.000000
# 2 -0.001535 0.013470 -0.000473 -0.000001 0.000266 -0.000001
# 3 0.003561 -0.000473 0.012222 0.000000 0.011448 0.000000
# 4 0.000000 -0.000001 0.000000 0.386001 0.000000 0.165774
# 5 0.013297 0.000266 0.011448 0.000000 0.041754 0.000000
# 6 0.000000 -0.000001 0.000000 0.165774 0.000000 0.148837
#
#
# Mechanical properties :
#
#
# Convention : Reuss Voigt Hill
#
# Bulk Modulus (GPa) = 18.77456 28.70282 23.73869
# Shear Modulus (GPa) = 7.79546 26.00274 16.89910
#
# Velocity S-wave (km/s) = 1.82553 3.33409 2.68782
# Velocity P-wave (km/s) = 3.53122 5.20499 4.44755
#
# Compressibility (1/GPa) = 0.05326356
#
# Stress axis : x y z
#
# Youngs Moduli (GPa) = 40.87401 74.23724 81.82102
#
# Poissons Ratio (x) = 0.11394 -0.29135
# Poissons Ratio (y) = 0.06273 0.03870
# Poissons Ratio (z) = -0.14554 0.03511
#
# Static dielectric constant tensor:
#      x y z
#    x 1.864550 0.000000 0.000090 
#    y 0.000000 1.857800 0.000000 
#    z 0.000090 0.000000 1.946780 
# 
# From -- ./inp_files/348622.got.cif
#   From: 2010.05.17/outbox.cif.g08.bks.cpg/sg12_175_cif.got.tgz:348622.got - 2010.06.03 13:09:07.
