data_PCOD9179070
_publ_section_title
;
Structure prediction by ZEFSAII (Michael W. Deem and Ramdas Pophale) SiO2 
 PCOD9179070
Probable space group: C 2/M
;
_chemical_formula_sum "Si O2"
_cell_formula_units_Z 48
_cell_length_a 19.065232
_cell_length_b 14.449071
_cell_length_c 18.186856
_cell_angle_alpha 90.000000
_cell_angle_beta 22.180279
_cell_angle_gamma 90.000000
_cell_volume 1891.394006
_symmetry_space_group_name_H-M "C 2/M"
_symmetry_group_IT_number 12
_symmetry_cell_setting 'monoclinic'
loop_
_space_group_symop_operation_xyz
x,y,z
-x,y,-z
-x,-y,-z
x,-y,z
1/2+x,1/2+y,z
1/2-x,1/2+y,-z
1/2-x,1/2-y,-z
1/2+x,1/2-y,z
loop_
_atom_site_type_symbol
_atom_site_label
_atom_site_fract_x
_atom_site_fract_y
_atom_site_fract_z
Si Si1 0.184933 0.353787 0.079628
Si Si2 0.851768 0.102347 0.537304
Si Si3 0.749760 0.609220 0.525728
Si Si4 0.726721 0.099436 0.875980
Si Si5 0.767750 0.309305 0.811667
Si Si6 0.720723 0.206953 0.357603
O O1 0.263434 0.371670 0.085722
O O2 0.963838 0.366684 0.300873
O O3 0.250000 0.250000 0.000000
O O4 0.236676 0.405882 0.955203
O O5 0.855368 0.131189 0.447635
O O6 0.743858 0.183291 0.682172
O O7 0.062675 0.097291 0.358164
O O8 0.769046 0.000000 0.621068
O O9 0.733856 0.500000 0.555314
O O10 0.692530 0.665107 0.653284
O O11 0.675274 0.207239 0.911621
O O12 0.641633 0.000000 0.934144
O O13 0.721845 0.341283 0.773830
O O14 0.995183 0.299055 0.587295
#
# Coordination Sequence:
#
# PCOD9179070 Si02
#       6
#     8   8   8   8   8   8
#     4   9  17  30  47  66  90 120 153 191 231 272
#     4   9  18  30  48  72  94 120 157 194 233 279
#     4  10  19  31  48  71  95 123 158 194 231 276
#     4   9  16  28  47  69  90 117 151 191 234 276
#     4   8  16  28  43  66  93 117 151 192 232 278
#     4   9  16  29  46  66  94 123 150 192 237 275
#
# _framework density 25.378108999999998
#
# number of rings (size 3 to 8) (size 9 to 14) (size 15 to 20)
#    0.000    3.000    0.000    2.000    0.000    0.667 
#    0.000   10.833    0.000    9.000    0.000   14.000 
#    0.000    0.000    0.000    1.000    0.000    0.000 
#
# Total GULP energy -133937.872634 kJ/mol
# GULP energy per Si atom -5580.744693 kJ/mol
# Density = 2.532035 g / cm^3
# Si number density = 25.378109 Si / 1000 Ang^3
#
#
#
# Elastic Constant Matrix: (Units=GPa)
#
#
# Indices 1 2 3 4 5 6 
#
# 1 75.8455 5.6078 41.7846 -0.0143 34.8872 -0.0019
# 2 5.6078 57.1048 -7.4500 -0.0458 10.9018 0.0217
# 3 41.7846 -7.4500 90.5683 -0.0399 4.3984 0.0234
# 4 -0.0143 -0.0458 -0.0399 -4.4530 0.0242 -0.2862
# 5 34.8872 10.9018 4.3984 0.0242 57.9116 -0.0082
# 6 -0.0019 0.0217 0.0234 -0.2862 -0.0082 14.7729
#
#
#
# Elastic Compliance Matrix: (Units=1/GPa)
#
#
# Indices 1 2 3 4 5 6 
#
# 1 0.026505 -0.001284 -0.011613 -0.000050 -0.014844 0.000015
# 2 -0.001284 0.018481 0.002252 -0.000219 -0.002876 -0.000037
# 3 -0.011613 0.002252 0.016326 -0.000101 0.005332 -0.000030
# 4 -0.000050 -0.000219 -0.000101 -0.224283 0.000172 -0.004345
# 5 -0.014844 -0.002876 0.005332 0.000172 0.026346 0.000012
# 6 0.000015 -0.000037 -0.000030 -0.004345 0.000012 0.067608
#
#
# Mechanical properties :
#
#
# Convention : Reuss Voigt Hill
#
# Bulk Modulus (GPa) = 24.98692 33.71149 29.34920
# Shear Modulus (GPa) = -145.40497 25.88471 -59.76013
#
# Velocity S-wave (km/s) = -7.57759 3.19715 -4.85788
# Velocity P-wave (km/s) = 8.16655 5.19052 4.45819
#
# Compressibility (1/GPa) = 0.04002094
#
# Stress axis : x y z
#
# Youngs Moduli (GPa) = 37.72828 54.11087 61.25354
#
# Poissons Ratio (x) = 0.06949 0.71136
# Poissons Ratio (y) = 0.04845 -0.13796
# Poissons Ratio (z) = 0.43815 -0.12187
#
# Static dielectric constant tensor:
#      x y z
#    x 2.028960 0.000010 0.006410 
#    y 0.000010 1.843760 0.000420 
#    z 0.006410 0.000420 1.897670 
# 
# From -- ./inp_files/167967.got.cif
#   From: 2010.05.17/outbox.cif.g08.bks.cpg/sg12_84_cif.got.tgz:167967.got - 2010.06.03 13:09:07.
