data_PCOD9179755
_publ_section_title
;
Structure prediction by ZEFSAII (Michael W. Deem and Ramdas Pophale) SiO2 
 PCOD9179755
Probable space group: C 2/M
;
_chemical_formula_sum "Si O2"
_cell_formula_units_Z 64
_cell_length_a 20.745974
_cell_length_b 8.436267
_cell_length_c 25.325430
_cell_angle_alpha 90.000000
_cell_angle_beta 126.034347
_cell_angle_gamma 90.000000
_cell_volume 3584.341220
_symmetry_space_group_name_H-M "C 2/M"
_symmetry_group_IT_number 12
_symmetry_cell_setting 'monoclinic'
loop_
_space_group_symop_operation_xyz
x,y,z
-x,y,-z
-x,-y,-z
x,-y,z
1/2+x,1/2+y,z
1/2-x,1/2+y,-z
1/2-x,1/2-y,-z
1/2+x,1/2-y,z
loop_
_atom_site_type_symbol
_atom_site_label
_atom_site_fract_x
_atom_site_fract_y
_atom_site_fract_z
Si Si1 0.781204 0.810264 0.323902
Si Si2 0.222018 0.309479 0.180048
Si Si3 0.370599 0.688033 0.693194
Si Si4 0.872657 0.690672 0.194832
Si Si5 0.481501 0.191258 0.658030
Si Si6 0.989993 0.691725 0.162965
Si Si7 0.458536 0.806112 0.926230
Si Si8 0.459812 0.191589 0.426485
O O1 0.750735 0.752112 0.251612
O O2 0.715397 0.758274 0.334621
O O3 0.868592 0.744829 0.377664
O O4 0.784733 0.000000 0.323994
O O5 0.218857 0.500000 0.181202
O O6 0.288117 0.260859 0.169528
O O7 0.133233 0.253832 0.123406
O O8 0.367194 0.500000 0.694399
O O9 0.407750 0.740005 0.655149
O O10 0.432991 0.750921 0.767313
O O11 0.866568 0.500000 0.192078
O O12 0.912243 0.741822 0.158573
O O13 0.938092 0.735377 0.270968
O O14 0.492801 0.243616 0.603262
O O15 0.475800 0.000000 0.657056
O O16 0.992349 0.500000 0.165345
O O17 0.996128 0.743023 0.105408
O O18 0.458617 0.000000 0.926974
O O19 0.500000 0.752176 0.000000
O O20 0.500000 0.247772 0.500000
O O21 0.460965 0.000000 0.427000
#
# Coordination Sequence:
#
# PCOD9179755 Si02
#       8
#     8   8   8   8   8   8   8   8
#     4  11  21  35  55  80 111 142 179 225 269 315
#     4  10  19  31  51  78 104 132 174 224 260 303
#     4  11  21  32  53  82 108 138 180 226 269 314
#     4   9  17  29  50  75 103 137 169 210 261 314
#     4   9  18  34  54  78 109 142 174 214 267 318
#     4   9  17  33  52  75 105 138 177 217 267 320
#     4   9  17  32  54  76 101 138 182 221 261 316
#     4  10  21  38  59  83 112 144 178 217 266 325
#
# _framework density 17.855442
#
# number of rings (size 3 to 8) (size 9 to 14) (size 15 to 20)
#    0.000    2.250    2.500    2.250    0.000    3.250 
#    0.000    1.250    0.000    1.500    0.000    0.000 
#    0.000    0.000    0.000    0.000    0.000    0.000 
#
# Total GULP energy -178524.710522 kJ/mol
# GULP energy per Si atom -5578.897204 kJ/mol
# Density = 1.781480 g / cm^3
# Si number density = 17.855442 Si / 1000 Ang^3
#
#
#
# Elastic Constant Matrix: (Units=GPa)
#
#
# Indices 1 2 3 4 5 6 
#
# 1 155.4601 10.5295 90.0356 0.0000 -15.8218 0.0000
# 2 10.5295 2.8565 17.7189 0.0000 -4.5921 0.0000
# 3 90.0356 17.7189 132.3685 0.0000 -14.1030 0.0000
# 4 0.0000 0.0000 0.0000 9.5309 0.0000 6.8063
# 5 -15.8218 -4.5921 -14.1030 0.0000 27.0623 0.0000
# 6 0.0000 0.0000 0.0000 6.8063 0.0000 26.9988
#
#
#
# Elastic Compliance Matrix: (Units=1/GPa)
#
#
# Indices 1 2 3 4 5 6 
#
# 1 0.014550 0.159886 -0.029119 0.000000 0.020462 0.000000
# 2 0.159886 6.793255 -0.937375 0.000001 0.757696 0.000000
# 3 -0.029119 -0.937375 0.141961 0.000000 -0.102103 0.000000
# 4 0.000000 0.000001 0.000000 0.127958 0.000000 -0.032258
# 5 0.020462 0.757696 -0.102103 0.000000 0.124276 0.000000
# 6 0.000000 0.000000 0.000000 -0.032258 0.000000 0.045171
#
#
# Mechanical properties :
#
#
# Convention : Reuss Voigt Hill
#
# Bulk Modulus (GPa) = 0.18739 58.58368 29.38554
# Shear Modulus (GPa) = 0.46996 24.21181 12.34089
#
# Velocity S-wave (km/s) = 0.51359 3.68637 2.63184
# Velocity P-wave (km/s) = 0.67592 7.14145 5.07234
#
# Compressibility (1/GPa) = 5.33654918
#
# Stress axis : x y z
#
# Youngs Moduli (GPa) = 68.72627 0.14720 7.04421
#
# Poissons Ratio (x) = -0.02354 0.20512
# Poissons Ratio (y) = -10.98838 6.60306
# Poissons Ratio (z) = 2.00127 0.13799
#
# Static dielectric constant tensor:
#      x y z
#    x 1.611730 0.000000 -0.024250 
#    y 0.000000 1.609650 0.000000 
#    z -0.024250 0.000000 1.595000 
# 
# From -- ./inp_files/346193.got.cif
#   From: 2010.05.17/outbox.cif.g08.bks.cpg/sg12_174_cif.got.tgz:346193.got - 2010.06.03 13:09:07.
