data_PCOD9179269
_publ_section_title
;
Structure prediction by ZEFSAII (Michael W. Deem and Ramdas Pophale) SiO2 
 PCOD9179269
Probable space group: C 2/M
;
_chemical_formula_sum "Si O2"
_cell_formula_units_Z 48
_cell_length_a 31.804615
_cell_length_b 9.311048
_cell_length_c 17.880018
_cell_angle_alpha 90.000000
_cell_angle_beta 157.003759
_cell_angle_gamma 90.000000
_cell_volume 2068.557230
_symmetry_space_group_name_H-M "C 2/M"
_symmetry_group_IT_number 12
_symmetry_cell_setting 'monoclinic'
loop_
_space_group_symop_operation_xyz
x,y,z
-x,y,-z
-x,-y,-z
x,-y,z
1/2+x,1/2+y,z
1/2-x,1/2+y,-z
1/2-x,1/2-y,-z
1/2+x,1/2-y,z
loop_
_atom_site_type_symbol
_atom_site_label
_atom_site_fract_x
_atom_site_fract_y
_atom_site_fract_z
Si Si1 0.209054 0.163484 0.824345
Si Si2 0.284573 0.837196 0.791114
Si Si3 0.345112 0.664848 0.752116
Si Si4 0.963703 0.837053 0.662074
Si Si5 0.907707 0.334076 0.711629
Si Si6 0.417118 0.837673 0.270276
O O1 0.264166 0.225024 0.840042
O O2 0.116458 0.261607 0.707445
O O3 0.170193 0.000000 0.744346
O O4 0.304162 0.151291 0.040218
O O5 0.350556 0.747324 0.839419
O O6 0.164076 0.847264 0.560442
O O7 0.325505 0.000000 0.866300
O O8 0.377234 0.500000 0.812022
O O9 0.218300 0.665735 0.520700
O O10 0.407026 0.744332 0.786882
O O11 0.974532 0.739674 0.753920
O O12 0.011314 0.760462 0.666795
O O13 0.005688 0.000000 0.739795
O O14 0.936540 0.500000 0.770780
O O15 0.459390 0.000000 0.347416
#
# Coordination Sequence:
#
# PCOD9179269 Si02
#       6
#     8   8   8   8   8   8
#     4   9  19  36  54  70  92 126 165 199 235 285
#     4   9  18  32  50  72  97 127 162 198 237 281
#     4   9  16  26  43  69  99 128 158 194 237 282
#     4  10  19  31  49  73 100 127 158 198 241 283
#     4   9  16  27  44  67  97 130 162 194 231 280
#     4  10  20  34  52  72  95 125 161 199 240 287
#
# _framework density 23.204578000000001
#
# number of rings (size 3 to 8) (size 9 to 14) (size 15 to 20)
#    0.000    2.667    0.000    2.000    0.000    6.667 
#    0.000    3.333    0.000    1.000    0.000    7.000 
#    0.000    0.000    0.000    0.000    0.000    0.000 
#
# Total GULP energy -134220.927745 kJ/mol
# GULP energy per Si atom -5592.538656 kJ/mol
# Density = 2.315176 g / cm^3
# Si number density = 23.204578 Si / 1000 Ang^3
#
#
#
# Elastic Constant Matrix: (Units=GPa)
#
#
# Indices 1 2 3 4 5 6 
#
# 1 246.6102 130.3955 13.2372 0.0000 4.4707 0.0000
# 2 130.3955 185.4748 0.0417 0.0000 14.6954 0.0000
# 3 13.2372 0.0417 49.3232 0.0000 13.0166 0.0000
# 4 0.0000 0.0000 0.0000 2.2045 0.0000 -3.6104
# 5 4.4707 14.6954 13.0166 0.0000 39.4501 0.0000
# 6 0.0000 0.0000 0.0000 -3.6104 0.0000 41.8117
#
#
#
# Elastic Compliance Matrix: (Units=1/GPa)
#
#
# Indices 1 2 3 4 5 6 
#
# 1 0.006716 -0.004864 -0.002274 0.000000 0.001801 0.000000
# 2 -0.004864 0.009094 0.002241 0.000000 -0.003576 0.000000
# 3 -0.002274 0.002241 0.023041 0.000000 -0.008180 0.000000
# 4 0.000000 0.000000 0.000000 0.528320 0.000000 0.045620
# 5 0.001801 -0.003576 -0.008180 0.000000 0.029175 0.000000
# 6 0.000000 0.000000 0.000000 0.045620 0.000000 0.027856
#
#
# Mechanical properties :
#
#
# Convention : Reuss Voigt Hill
#
# Bulk Modulus (GPa) = 34.41260 85.41744 59.91502
# Shear Modulus (GPa) = 7.76782 39.20888 23.48835
#
# Velocity S-wave (km/s) = 1.83161 4.11506 3.18501
# Velocity P-wave (km/s) = 4.39720 7.71160 6.27711
#
# Compressibility (1/GPa) = 0.02905913
#
# Stress axis : x y z
#
# Youngs Moduli (GPa) = 148.89473 109.96428 43.40017
#
# Poissons Ratio (x) = 0.53485 0.09867
# Poissons Ratio (y) = 0.72421 -0.09727
# Poissons Ratio (z) = 0.33853 -0.24647
#
# Static dielectric constant tensor:
#      x y z
#    x 1.826820 0.000000 -0.007660 
#    y 0.000000 1.824480 0.000000 
#    z -0.007660 0.000000 1.946260 
# 
# From -- ./inp_files/274005.got.cif
#   From: 2010.05.17/outbox.cif.g08.bks.cpg/sg12_138_cif.got.tgz:274005.got - 2010.06.03 13:09:07.
