data_PCOD9179767
_publ_section_title
;
Structure prediction by ZEFSAII (Michael W. Deem and Ramdas Pophale) SiO2 
 PCOD9179767
Probable space group: C 2/M
;
_chemical_formula_sum "Si O2"
_cell_formula_units_Z 48
_cell_length_a 10.726126
_cell_length_b 23.889710
_cell_length_c 8.220610
_cell_angle_alpha 90.000000
_cell_angle_beta 100.794443
_cell_angle_gamma 90.000000
_cell_volume 2069.208994
_symmetry_space_group_name_H-M "C 2/M"
_symmetry_group_IT_number 12
_symmetry_cell_setting 'monoclinic'
loop_
_space_group_symop_operation_xyz
x,y,z
-x,y,-z
-x,-y,-z
x,-y,z
1/2+x,1/2+y,z
1/2-x,1/2+y,-z
1/2-x,1/2-y,-z
1/2+x,1/2-y,z
loop_
_atom_site_type_symbol
_atom_site_label
_atom_site_fract_x
_atom_site_fract_y
_atom_site_fract_z
Si Si1 0.797911 0.064833 0.013402
Si Si2 0.853587 0.770693 0.392403
Si Si3 0.174283 0.633804 0.205928
Si Si4 0.965499 0.935436 0.727422
Si Si5 0.221209 0.567135 0.530853
Si Si6 0.927414 0.341311 0.309777
O O1 0.690046 0.108547 0.029645
O O2 0.899691 0.083078 0.176898
O O3 0.760264 0.000000 0.025657
O O4 0.875712 0.066925 0.866171
O O5 0.750000 0.750000 0.500000
O O6 0.782039 0.822057 0.287115
O O7 0.854566 0.716908 0.272766
O O8 0.000000 0.782661 0.500000
O O9 0.173343 0.583630 0.341498
O O10 0.035773 0.657760 0.202859
O O11 0.869158 0.913159 0.570634
O O12 0.987131 0.000000 0.690396
O O13 0.212314 0.500000 0.555985
O O14 0.149349 0.602763 0.653706
O O15 0.000000 0.331220 0.500000
#
# Coordination Sequence:
#
# PCOD9179767 Si02
#       6
#     8   8   8   8   8   8
#     4   9  18  33  52  75 109 140 170 213 265 319
#     4  11  19  35  52  76 107 144 178 213 265 320
#     4  11  21  31  53  83 102 132 178 226 258 305
#     4   8  17  34  50  72 107 146 173 202 260 329
#     4  10  19  31  51  78 107 134 168 213 263 312
#     4   9  19  34  48  74 109 139 169 209 267 319
#
# _framework density 23.197268999999999
#
# number of rings (size 3 to 8) (size 9 to 14) (size 15 to 20)
#    0.000    2.333    5.000    1.500    2.333    3.667 
#    0.000    3.333    0.000    4.000    0.000    0.000 
#    0.000    0.000    0.000    0.000    0.000    0.000 
#
# Total GULP energy -133604.288740 kJ/mol
# GULP energy per Si atom -5566.845364 kJ/mol
# Density = 2.314447 g / cm^3
# Si number density = 23.197269 Si / 1000 Ang^3
#
#
#
# Elastic Constant Matrix: (Units=GPa)
#
#
# Indices 1 2 3 4 5 6 
#
# 1 97.4468 42.5304 -1.5566 0.0000 -7.9223 0.0000
# 2 42.5304 139.0116 9.5267 0.0000 -13.5180 0.0000
# 3 -1.5566 9.5267 41.9463 0.0000 -8.2611 0.0000
# 4 0.0000 0.0000 0.0000 12.0260 0.0000 -9.4315
# 5 -7.9223 -13.5180 -8.2611 0.0000 38.4373 0.0000
# 6 0.0000 0.0000 0.0000 -9.4315 0.0000 38.5321
#
#
#
# Elastic Compliance Matrix: (Units=1/GPa)
#
#
# Indices 1 2 3 4 5 6 
#
# 1 0.011995 -0.003629 0.001571 0.000000 0.001534 0.000000
# 2 -0.003629 0.008607 -0.001713 0.000000 0.001911 0.000000
# 3 0.001571 -0.001713 0.025304 0.000000 0.005160 0.000000
# 4 0.000000 0.000000 0.000000 0.102908 0.000000 0.025189
# 5 0.001534 0.001911 0.005160 0.000000 0.028114 0.000000
# 6 0.000000 0.000000 0.000000 0.025189 0.000000 0.032118
#
#
# Mechanical properties :
#
#
# Convention : Reuss Voigt Hill
#
# Bulk Modulus (GPa) = 26.06507 42.15620 34.11064
# Shear Modulus (GPa) = 21.79843 32.99268 27.39556
#
# Velocity S-wave (km/s) = 3.06878 3.77539 3.44027
# Velocity P-wave (km/s) = 4.88028 6.10058 5.52423
#
# Compressibility (1/GPa) = 0.03836552
#
# Stress axis : x y z
#
# Youngs Moduli (GPa) = 83.36472 116.18428 39.52012
#
# Poissons Ratio (x) = 0.42158 -0.06210
# Poissons Ratio (y) = 0.30249 0.06770
# Poissons Ratio (z) = -0.13099 0.19903
#
# Static dielectric constant tensor:
#      x y z
#    x 1.965570 0.000000 0.046670 
#    y 0.000000 1.874750 0.000000 
#    z 0.046670 0.000000 1.955590 
# 
# From -- ./inp_files/121959.got.cif
#   From: 2010.05.17/outbox.cif.g08.bks.cpg/sg12_61_cif.got.tgz:121959.got - 2010.06.03 13:09:07.
