data_PCOD9179437
_publ_section_title
;
Structure prediction by ZEFSAII (Michael W. Deem and Ramdas Pophale) SiO2 
 PCOD9179437
Probable space group: C 2/M
;
_chemical_formula_sum "Si O2"
_cell_formula_units_Z 64
_cell_length_a 14.735758
_cell_length_b 18.150782
_cell_length_c 14.126275
_cell_angle_alpha 90.000000
_cell_angle_beta 89.837242
_cell_angle_gamma 90.000000
_cell_volume 3778.276401
_symmetry_space_group_name_H-M "C 2/M"
_symmetry_group_IT_number 12
_symmetry_cell_setting 'monoclinic'
loop_
_space_group_symop_operation_xyz
x,y,z
-x,y,-z
-x,-y,-z
x,-y,z
1/2+x,1/2+y,z
1/2-x,1/2+y,-z
1/2-x,1/2-y,-z
1/2+x,1/2-y,z
loop_
_atom_site_type_symbol
_atom_site_label
_atom_site_fract_x
_atom_site_fract_y
_atom_site_fract_z
Si Si1 0.924897 0.273617 0.672948
Si Si2 0.580765 0.416100 0.864904
Si Si3 0.630709 0.414209 0.082774
Si Si4 0.660933 0.299740 0.508479
Si Si5 0.242238 0.412879 0.608496
Si Si6 0.774261 0.808256 0.778559
Si Si7 0.527887 0.083667 0.609089
Si Si8 0.389711 0.287241 0.271476
O O1 0.906818 0.234743 0.570315
O O2 0.836258 0.258087 0.736519
O O3 0.961849 0.356257 0.656441
O O4 0.005434 0.234344 0.728718
O O5 0.598054 0.500000 0.836471
O O6 0.471642 0.407350 0.875826
O O7 0.620879 0.360478 0.789200
O O8 0.621249 0.405147 0.969826
O O9 0.660206 0.500000 0.101026
O O10 0.691557 0.349725 0.128031
O O11 0.750000 0.250000 0.500000
O O12 0.698259 0.379310 0.476600
O O13 0.631214 0.296725 0.616924
O O14 0.249425 0.500000 0.611946
O O15 0.280863 0.372589 0.700270
O O16 0.134433 0.393983 0.607401
O O17 0.673414 0.775422 0.774759
O O18 0.500000 0.080856 0.500000
O O19 0.520860 0.000000 0.648228
#
# Coordination Sequence:
#
# PCOD9179437 Si02
#       8
#     8   8   8   8   8   8   8   8
#     4  11  20  35  52  75 112 145 183 224 264 312
#     4   9  20  37  59  83 108 138 175 221 278 335
#     4   9  18  38  61  81 107 137 172 225 283 328
#     4  11  20  34  51  74 108 154 183 215 268 313
#     4  10  20  33  49  76 106 137 184 227 260 312
#     4  11  21  33  57  81 104 140 179 222 272 320
#     4  10  19  31  50  71 100 144 189 224 255 300
#     4  12  21  34  55  82 109 142 184 220 267 327
#
# _framework density 16.938942000000001
#
# number of rings (size 3 to 8) (size 9 to 14) (size 15 to 20)
#    0.000    1.625    5.000    3.000    0.000    1.000 
#    0.000    0.625    0.000    2.250    0.000    0.000 
#    0.000    3.000    0.000    0.000    0.000    0.000 
#
# Total GULP energy -178309.833661 kJ/mol
# GULP energy per Si atom -5572.182302 kJ/mol
# Density = 1.690039 g / cm^3
# Si number density = 16.938942 Si / 1000 Ang^3
#
#
#
# Elastic Constant Matrix: (Units=GPa)
#
#
# Indices 1 2 3 4 5 6 
#
# 1 44.0929 12.5838 5.3295 0.0000 17.1977 0.0000
# 2 12.5838 94.5711 30.5587 0.0000 9.9820 0.0000
# 3 5.3295 30.5587 45.1668 0.0000 11.1604 0.0000
# 4 0.0000 0.0000 0.0000 27.6462 0.0000 1.9261
# 5 17.1977 9.9820 11.1604 0.0000 20.0606 0.0000
# 6 0.0000 0.0000 0.0000 1.9261 0.0000 24.6212
#
#
#
# Elastic Compliance Matrix: (Units=1/GPa)
#
#
# Indices 1 2 3 4 5 6 
#
# 1 0.035374 -0.003245 0.005931 0.000000 -0.032010 0.000000
# 2 -0.003245 0.013893 -0.009270 0.000000 0.001026 0.000000
# 3 0.005931 -0.009270 0.032264 0.000000 -0.018421 0.000000
# 4 0.000000 0.000000 0.000000 0.036370 0.000000 -0.002845
# 5 -0.032010 0.001026 -0.018421 0.000000 0.087029 0.000000
# 6 0.000000 0.000000 0.000000 -0.002845 0.000000 0.040838
#
#
# Mechanical properties :
#
#
# Convention : Reuss Voigt Hill
#
# Bulk Modulus (GPa) = 14.62787 31.19719 22.91253
# Shear Modulus (GPa) = 17.74794 23.48954 20.61874
#
# Velocity S-wave (km/s) = 3.24042 3.72791 3.49268
# Velocity P-wave (km/s) = 4.75971 6.08170 5.46086
#
# Compressibility (1/GPa) = 0.06836266
#
# Stress axis : x y z
#
# Youngs Moduli (GPa) = 28.26966 71.97863 30.99408
#
# Poissons Ratio (x) = 0.23354 -0.18382
# Poissons Ratio (y) = 0.09172 0.28733
# Poissons Ratio (z) = -0.16766 0.66727
#
# Static dielectric constant tensor:
#      x y z
#    x 1.585950 0.000000 0.018050 
#    y 0.000000 1.605020 0.000000 
#    z 0.018050 0.000000 1.577150 
# 
# From -- ./inp_files/215939.got.cif
#   From: 2010.05.17/outbox.cif.g08.bks.cpg/sg12_108_cif.got.tgz:215939.got - 2010.06.03 13:09:07.
