data_PCOD9179762
_publ_section_title
;
Structure prediction by ZEFSAII (Michael W. Deem and Ramdas Pophale) SiO2 
 PCOD9179762
Probable space group: C 2/M
;
_chemical_formula_sum "Si O2"
_cell_formula_units_Z 44
_cell_length_a 5.391856
_cell_length_b 25.966062
_cell_length_c 13.590031
_cell_angle_alpha 90.000000
_cell_angle_beta 102.163983
_cell_angle_gamma 90.000000
_cell_volume 1859.958075
_symmetry_space_group_name_H-M "C 2/M"
_symmetry_group_IT_number 12
_symmetry_cell_setting 'monoclinic'
loop_
_space_group_symop_operation_xyz
x,y,z
-x,y,-z
-x,-y,-z
x,-y,z
1/2+x,1/2+y,z
1/2-x,1/2+y,-z
1/2-x,1/2-y,-z
1/2+x,1/2-y,z
loop_
_atom_site_type_symbol
_atom_site_label
_atom_site_fract_x
_atom_site_fract_y
_atom_site_fract_z
Si Si1 0.473802 0.266879 0.642167
Si Si2 0.564551 0.940617 0.623419
Si Si3 0.564134 0.384675 0.622070
Si Si4 0.785708 0.612427 0.067104
Si Si5 0.079154 0.725369 0.866502
Si Si6 0.285926 0.000000 0.068447
O O1 0.179980 0.261250 0.592888
O O2 0.545096 0.326353 0.654730
O O3 0.494697 0.239821 0.749480
O O4 0.500000 0.939155 0.500000
O O5 0.342914 0.908163 0.656253
O O6 0.845075 0.917528 0.656111
O O7 0.553755 0.000000 0.652394
O O8 0.500000 0.384749 0.500000
O O9 0.837261 0.666056 0.125801
O O10 0.500000 0.615248 0.000000
O O11 0.810160 0.556219 0.121122
O O12 0.000000 0.611950 0.000000
O O13 0.324982 0.761453 0.906684
O O14 0.500000 0.000000 0.000000
O O15 0.000000 0.000000 0.000000
#
# Coordination Sequence:
#
# PCOD9179762 Si02
#       6
#     8   8   8   8   8   4
#     4  10  21  36  51  72 101 146 182 219 267 322
#     4   9  17  30  49  77 108 134 168 219 277 331
#     4  10  19  31  51  78 105 138 180 224 270 323
#     4  10  19  32  53  81 112 137 172 219 259 318
#     4  10  21  35  51  76 104 146 178 214 268 313
#     4   8  16  30  48  76 108 136 163 204 263 306
#
# _framework density 23.656445000000001
#
# number of rings (size 3 to 8) (size 9 to 14) (size 15 to 20)
#    0.000    2.364    0.000    2.727    0.000    5.091 
#    0.000    0.000    0.000    0.000   56.727    0.000 
#    0.000    0.000    0.000    0.091    0.000    0.000 
#
# Total GULP energy -122952.780813 kJ/mol
# GULP energy per Si atom -5588.762764 kJ/mol
# Density = 2.360260 g / cm^3
# Si number density = 23.656445 Si / 1000 Ang^3
#
#
#
# Elastic Constant Matrix: (Units=GPa)
#
#
# Indices 1 2 3 4 5 6 
#
# 1 214.3954 67.0154 30.5141 0.0000 -3.2247 0.0000
# 2 67.0154 221.8194 17.5410 0.0000 2.7189 0.0000
# 3 30.5141 17.5410 49.5945 0.0000 5.1891 0.0000
# 4 0.0000 0.0000 0.0000 24.4918 0.0000 3.1840
# 5 -3.2247 2.7189 5.1891 0.0000 26.9182 0.0000
# 6 0.0000 0.0000 0.0000 3.1840 0.0000 52.4748
#
#
#
# Elastic Compliance Matrix: (Units=1/GPa)
#
#
# Indices 1 2 3 4 5 6 
#
# 1 0.005578 -0.001460 -0.003062 0.000000 0.001406 0.000000
# 2 -0.001460 0.005021 -0.000823 0.000000 -0.000523 0.000000
# 3 -0.003062 -0.000823 0.022829 0.000000 -0.004685 0.000000
# 4 0.000000 0.000000 0.000000 0.041155 0.000000 -0.002497
# 5 0.001406 -0.000523 -0.004685 0.000000 0.038274 0.000000
# 6 0.000000 0.000000 0.000000 -0.002497 0.000000 0.019208
#
#
# Mechanical properties :
#
#
# Convention : Reuss Voigt Hill
#
# Bulk Modulus (GPa) = 43.98152 79.55004 61.76578
# Shear Modulus (GPa) = 33.25934 45.49289 39.37612
#
# Velocity S-wave (km/s) = 3.75364 4.39003 4.08425
# Velocity P-wave (km/s) = 6.11707 7.70693 6.95756
#
# Compressibility (1/GPa) = 0.02273682
#
# Stress axis : x y z
#
# Youngs Moduli (GPa) = 179.28472 199.17209 43.80420
#
# Poissons Ratio (x) = 0.29083 0.13415
# Poissons Ratio (y) = 0.26179 0.03603
# Poissons Ratio (z) = 0.54906 0.16384
#
# Static dielectric constant tensor:
#      x y z
#    x 1.921160 0.000000 0.035520 
#    y 0.000000 1.853230 0.000000 
#    z 0.035520 0.000000 1.827320 
# 
# From -- ./inp_files/252912.got.cif
#   From: 2010.05.17/outbox.cif.g08.bks.cpg/sg12_127_cif.got.tgz:252912.got - 2010.06.03 13:09:07.
