data_PCOD9179847
_publ_section_title
;
Structure prediction by ZEFSAII (Michael W. Deem and Ramdas Pophale) SiO2 
 PCOD9179847
Probable space group: C 2/M
;
_chemical_formula_sum "Si O2"
_cell_formula_units_Z 56
_cell_length_a 25.834816
_cell_length_b 8.659928
_cell_length_c 15.431928
_cell_angle_alpha 90.000000
_cell_angle_beta 74.344553
_cell_angle_gamma 90.000000
_cell_volume 3324.465834
_symmetry_space_group_name_H-M "C 2/M"
_symmetry_group_IT_number 12
_symmetry_cell_setting 'monoclinic'
loop_
_space_group_symop_operation_xyz
x,y,z
-x,y,-z
-x,-y,-z
x,-y,z
1/2+x,1/2+y,z
1/2-x,1/2+y,-z
1/2-x,1/2-y,-z
1/2+x,1/2-y,z
loop_
_atom_site_type_symbol
_atom_site_label
_atom_site_fract_x
_atom_site_fract_y
_atom_site_fract_z
Si Si1 0.007330 0.685012 0.597139
Si Si2 0.101051 0.184826 0.277055
Si Si3 0.304283 0.186494 0.290865
Si Si4 0.827980 0.684131 0.900622
Si Si5 0.622852 0.685071 0.592950
Si Si6 0.683390 0.312357 0.391392
Si Si7 0.286786 0.186043 0.103735
O O1 0.008651 0.500000 0.598750
O O2 0.063212 0.750244 0.607297
O O3 0.000000 0.734674 0.500000
O O4 0.956402 0.745153 0.673601
O O5 0.124751 0.237552 0.174620
O O6 0.143942 0.236692 0.331466
O O7 0.097913 0.000000 0.281833
O O8 0.348641 0.257699 0.333050
O O9 0.244571 0.237548 0.348165
O O10 0.309554 0.228201 0.187254
O O11 0.306636 0.000000 0.296346
O O12 0.832686 0.500000 0.891722
O O13 0.771303 0.737820 0.884959
O O14 0.823273 0.726280 0.004385
O O15 0.620923 0.500000 0.592422
O O16 0.658723 0.737584 0.494130
O O17 0.683912 0.500000 0.389970
O O18 0.278725 0.000000 0.106539
#
# Coordination Sequence:
#
# PCOD9179847 Si02
#       7
#     8   8   8   8   8   8   8
#     4  11  23  38  56  80 106 138 181 228 268 310
#     4  11  20  35  57  79 108 145 179 218 270 323
#     4  10  19  35  54  76 108 148 183 217 262 317
#     4  10  19  31  51  82 111 138 178 226 269 317
#     4  11  22  36  53  78 108 145 184 220 265 317
#     4   9  18  32  52  76 107 144 178 210 259 319
#     4   9  18  33  53  76 109 147 179 216 271 325
#
# _framework density 16.844812000000001
#
# number of rings (size 3 to 8) (size 9 to 14) (size 15 to 20)
#    0.000    1.857    2.857    2.143    0.000    1.714 
#    0.000    0.714    0.000    0.857    0.000    6.000 
#    0.000    0.000    0.000    0.000    0.000    0.000 
#
# Total GULP energy -156320.882522 kJ/mol
# GULP energy per Si atom -5582.888662 kJ/mol
# Density = 1.680647 g / cm^3
# Si number density = 16.844812 Si / 1000 Ang^3
#
#
#
# Elastic Constant Matrix: (Units=GPa)
#
#
# Indices 1 2 3 4 5 6 
#
# 1 138.5432 37.2469 87.0291 0.0000 6.3886 0.0000
# 2 37.2469 35.1164 43.2453 0.0000 1.2365 0.0000
# 3 87.0291 43.2453 150.0886 0.0000 -1.5575 0.0000
# 4 0.0000 0.0000 0.0000 23.9663 0.0000 -1.2722
# 5 6.3886 1.2365 -1.5575 0.0000 21.0583 0.0000
# 6 0.0000 0.0000 0.0000 -1.2722 0.0000 22.2898
#
#
#
# Elastic Compliance Matrix: (Units=1/GPa)
#
#
# Indices 1 2 3 4 5 6 
#
# 1 0.012564 -0.006464 -0.005463 0.000000 -0.003836 0.000000
# 2 -0.006464 0.047729 -0.010020 0.000000 -0.001583 0.000000
# 3 -0.005463 -0.010020 0.012751 0.000000 0.003189 0.000000
# 4 0.000000 0.000000 0.000000 0.041852 0.000000 0.002389
# 5 -0.003836 -0.001583 0.003189 0.000000 0.048980 0.000000
# 6 0.000000 0.000000 0.000000 0.002389 0.000000 0.045000
#
#
# Mechanical properties :
#
#
# Convention : Reuss Voigt Hill
#
# Bulk Modulus (GPa) = 34.30644 73.19897 53.75271
# Shear Modulus (GPa) = 19.04865 23.87800 21.46333
#
# Velocity S-wave (km/s) = 3.36643 3.76909 3.57344
# Velocity P-wave (km/s) = 5.95994 7.90510 7.00041
#
# Compressibility (1/GPa) = 0.02914905
#
# Stress axis : x y z
#
# Youngs Moduli (GPa) = 79.59096 20.95180 78.42828
#
# Poissons Ratio (x) = 0.13544 0.42843
# Poissons Ratio (y) = 0.51450 0.78587
# Poissons Ratio (z) = 0.43478 0.20994
#
# Static dielectric constant tensor:
#      x y z
#    x 1.528030 0.000000 0.002630 
#    y 0.000000 1.566110 0.000000 
#    z 0.002630 0.000000 1.578970 
# 
# From -- ./inp_files/237313.got.cif
#   From: 2010.05.17/outbox.cif.g08.bks.cpg/sg12_119_cif.got.tgz:237313.got - 2010.06.03 13:09:07.
