data_PCOD9179505
_publ_section_title
;
Structure prediction by ZEFSAII (Michael W. Deem and Ramdas Pophale) SiO2 
 PCOD9179505
Probable space group: C 2/M
;
_chemical_formula_sum "Si O2"
_cell_formula_units_Z 64
_cell_length_a 30.486634
_cell_length_b 8.357088
_cell_length_c 16.074758
_cell_angle_alpha 90.000000
_cell_angle_beta 61.706565
_cell_angle_gamma 90.000000
_cell_volume 3606.233772
_symmetry_space_group_name_H-M "C 2/M"
_symmetry_group_IT_number 12
_symmetry_cell_setting 'monoclinic'
loop_
_space_group_symop_operation_xyz
x,y,z
-x,y,-z
-x,-y,-z
x,-y,z
1/2+x,1/2+y,z
1/2-x,1/2+y,-z
1/2-x,1/2-y,-z
1/2+x,1/2-y,z
loop_
_atom_site_type_symbol
_atom_site_label
_atom_site_fract_x
_atom_site_fract_y
_atom_site_fract_z
Si Si1 0.672834 0.191429 0.101872
Si Si2 0.071956 0.806739 0.272111
Si Si3 0.597876 0.306675 0.434777
Si Si4 0.461099 0.306868 0.346977
Si Si5 0.867152 0.690972 0.339085
Si Si6 0.706409 0.306793 0.724486
Si Si7 0.770592 0.193302 0.109643
Si Si8 0.308530 0.192673 0.554571
O O1 0.618919 0.252554 0.176380
O O2 0.715547 0.246646 0.129086
O O3 0.672613 0.000000 0.102520
O O4 0.691367 0.250491 0.995472
O O5 0.080123 0.752857 0.360244
O O6 0.017986 0.751754 0.288619
O O7 0.071089 0.000000 0.273886
O O8 0.599413 0.500000 0.433398
O O9 0.561226 0.257142 0.542879
O O10 0.652220 0.242174 0.409823
O O11 0.460522 0.500000 0.345818
O O12 0.422496 0.246369 0.312806
O O13 0.865856 0.500000 0.341329
O O14 0.843862 0.751666 0.274559
O O15 0.831587 0.752265 0.446814
O O16 0.707283 0.500000 0.724107
O O17 0.714765 0.251299 0.811506
O O18 0.753618 0.249236 0.627174
O O19 0.770237 0.000000 0.110794
O O20 0.307113 0.000000 0.552315
#
# Coordination Sequence:
#
# PCOD9179505 Si02
#       8
#     8   8   8   8   8   8   8   8
#     4  10  20  34  53  76 102 129 156 193 242 292
#     4  10  19  31  50  74  99 129 165 202 239 285
#     4   9  17  29  47  72 100 130 165 202 237 278
#     4   9  18  33  50  68  96 134 170 201 237 282
#     4  10  20  32  47  70 100 131 165 205 243 280
#     4  10  19  32  51  71  95 130 167 200 238 287
#     4   9  19  35  53  74 100 129 160 195 238 290
#     4   9  18  31  46  69 102 134 162 196 240 288
#
# _framework density 17.747047999999999
#
# number of rings (size 3 to 8) (size 9 to 14) (size 15 to 20)
#    0.000    2.500    0.000    2.250    0.000    5.500 
#    0.000    0.000    0.000    4.500    0.000    5.250 
#    0.000    0.000    0.000    0.000    0.000    0.000 
#
# Total GULP energy -178541.675443 kJ/mol
# GULP energy per Si atom -5579.427358 kJ/mol
# Density = 1.770666 g / cm^3
# Si number density = 17.747048 Si / 1000 Ang^3
#
#
#
# Elastic Constant Matrix: (Units=GPa)
#
#
# Indices 1 2 3 4 5 6 
#
# 1 146.3231 10.1433 69.6241 0.0000 -2.1912 0.0000
# 2 10.1433 3.4122 6.0645 0.0000 0.6846 0.0000
# 3 69.6241 6.0645 61.6072 0.0000 -2.9100 0.0000
# 4 0.0000 0.0000 0.0000 16.5773 0.0000 -0.3487
# 5 -2.1912 0.6846 -2.9100 0.0000 29.9145 0.0000
# 6 0.0000 0.0000 0.0000 -0.3487 0.0000 25.4199
#
#
#
# Elastic Compliance Matrix: (Units=1/GPa)
#
#
# Indices 1 2 3 4 5 6 
#
# 1 0.015675 -0.018324 -0.015910 0.000000 0.000020 0.000000
# 2 -0.018324 0.380667 -0.017318 0.000000 -0.011738 0.000000
# 3 -0.015910 -0.017318 0.036047 0.000000 0.002737 0.000000
# 4 0.000000 0.000000 0.000000 0.060341 0.000000 0.000828
# 5 0.000020 -0.011738 0.002737 0.000000 0.033965 0.000000
# 6 0.000000 0.000000 0.000000 0.000828 0.000000 0.039351
#
#
# Mechanical properties :
#
#
# Convention : Reuss Voigt Hill
#
# Bulk Modulus (GPa) = 3.03689 42.55627 22.79658
# Shear Modulus (GPa) = 6.41921 22.74969 14.58445
#
# Velocity S-wave (km/s) = 1.90392 3.58423 2.86981
# Velocity P-wave (km/s) = 2.55893 6.41563 4.88408
#
# Compressibility (1/GPa) = 0.32928394
#
# Stress axis : x y z
#
# Youngs Moduli (GPa) = 63.79471 2.62697 27.74173
#
# Poissons Ratio (x) = 0.04814 0.44138
# Poissons Ratio (y) = 1.16895 0.48044
# Poissons Ratio (z) = 1.01500 0.04550
#
# Static dielectric constant tensor:
#      x y z
#    x 1.603750 0.000000 0.003460 
#    y 0.000000 1.608310 0.000000 
#    z 0.003460 0.000000 1.593190 
# 
# From -- ./inp_files/249015.got.cif
#   From: 2010.05.17/outbox.cif.g08.bks.cpg/sg12_125_cif.got.tgz:249015.got - 2010.06.03 13:09:07.
