data_PCOD9179660
_publ_section_title
;
Structure prediction by ZEFSAII (Michael W. Deem and Ramdas Pophale) SiO2 
 PCOD9179660
Probable space group: C 2/M
;
_chemical_formula_sum "Si O2"
_cell_formula_units_Z 56
_cell_length_a 29.247561
_cell_length_b 13.950910
_cell_length_c 14.035672
_cell_angle_alpha 90.000000
_cell_angle_beta 35.290686
_cell_angle_gamma 90.000000
_cell_volume 3308.617201
_symmetry_space_group_name_H-M "C 2/M"
_symmetry_group_IT_number 12
_symmetry_cell_setting 'monoclinic'
loop_
_space_group_symop_operation_xyz
x,y,z
-x,y,-z
-x,-y,-z
x,-y,z
1/2+x,1/2+y,z
1/2-x,1/2+y,-z
1/2-x,1/2-y,-z
1/2+x,1/2-y,z
loop_
_atom_site_type_symbol
_atom_site_label
_atom_site_fract_x
_atom_site_fract_y
_atom_site_fract_z
Si Si1 0.498686 0.115991 0.890600
Si Si2 0.163701 0.308231 0.539718
Si Si3 0.828392 0.390017 0.116592
Si Si4 0.776167 0.610865 0.760759
Si Si5 0.310067 0.758088 0.985303
Si Si6 0.273570 0.390899 0.518344
Si Si7 0.912736 0.610402 0.689931
O O1 0.575838 0.152575 0.705488
O O2 0.498793 0.000000 0.888391
O O3 0.500000 0.144144 0.000000
O O4 0.416807 0.149348 0.982634
O O5 0.196381 0.331273 0.379242
O O6 0.222146 0.362870 0.513669
O O7 0.166607 0.195964 0.562738
O O8 0.834199 0.500000 0.077517
O O9 0.785253 0.387286 0.291185
O O10 0.783519 0.333022 0.111327
O O11 0.762947 0.500000 0.758173
O O12 0.848042 0.614587 0.715063
O O13 0.699358 0.658031 0.942391
O O14 0.387765 0.808303 0.808479
O O15 0.250000 0.750000 0.000000
O O16 0.304113 0.500000 0.458538
O O17 0.910101 0.500000 0.732569
O O18 0.000000 0.625964 0.500000
#
# Coordination Sequence:
#
# PCOD9179660 Si02
#       7
#     8   8   8   8   8   8   8
#     4  10  19  31  50  80 114 141 170 216 271 324
#     4  11  20  33  53  80 111 142 171 215 271 315
#     4  10  19  33  54  81 107 136 177 222 272 322
#     4  10  20  33  51  76 104 138 177 214 263 318
#     4  10  20  35  51  73 106 140 178 217 267 320
#     4  10  20  34  54  80 108 139 180 216 253 317
#     4   9  19  34  53  80 107 130 165 217 273 325
#
# _framework density 16.925498999999999
#
# number of rings (size 3 to 8) (size 9 to 14) (size 15 to 20)
#    0.000    2.000    2.857    1.714    2.000    0.571 
#    0.000    0.000    0.000    1.714    0.000    0.000 
#    0.000    0.000    0.000    0.000    0.000    0.000 
#
# Total GULP energy -155951.050053 kJ/mol
# GULP energy per Si atom -5569.680359 kJ/mol
# Density = 1.688698 g / cm^3
# Si number density = 16.925499 Si / 1000 Ang^3
#
#
#
# Elastic Constant Matrix: (Units=GPa)
#
#
# Indices 1 2 3 4 5 6 
#
# 1 48.7755 21.3831 17.1212 0.0000 13.4507 0.0000
# 2 21.3831 82.7001 24.5761 0.0000 4.1562 0.0000
# 3 17.1212 24.5761 81.4419 0.0000 9.0034 0.0000
# 4 0.0000 0.0000 0.0000 34.3121 0.0000 2.4180
# 5 13.4507 4.1562 9.0034 0.0000 23.0660 0.0000
# 6 0.0000 0.0000 0.0000 2.4180 0.0000 17.8306
#
#
#
# Elastic Compliance Matrix: (Units=1/GPa)
#
#
# Indices 1 2 3 4 5 6 
#
# 1 0.027821 -0.005721 -0.002553 0.000000 -0.014196 0.000000
# 2 -0.005721 0.014476 -0.003392 0.000000 0.002052 0.000000
# 3 -0.002553 -0.003392 0.014221 0.000000 -0.003451 0.000000
# 4 0.000000 0.000000 0.000000 0.029425 0.000000 -0.003990
# 5 -0.014196 0.002052 -0.003451 0.000000 0.052609 0.000000
# 6 0.000000 0.000000 0.000000 -0.003990 0.000000 0.056624
#
#
# Mechanical properties :
#
#
# Convention : Reuss Voigt Hill
#
# Bulk Modulus (GPa) = 30.13445 37.67537 33.90491
# Shear Modulus (GPa) = 21.77963 25.03089 23.40526
#
# Velocity S-wave (km/s) = 3.59108 3.84980 3.72269
# Velocity P-wave (km/s) = 5.91923 6.48607 6.20912
#
# Compressibility (1/GPa) = 0.03318461
#
# Stress axis : x y z
#
# Youngs Moduli (GPa) = 35.94369 69.07878 70.32068
#
# Poissons Ratio (x) = 0.39523 0.17952
# Poissons Ratio (y) = 0.20565 0.23856
# Poissons Ratio (z) = 0.09176 0.23435
#
# Static dielectric constant tensor:
#      x y z
#    x 1.599300 0.000000 0.018520 
#    y 0.000000 1.596520 0.000000 
#    z 0.018520 0.000000 1.565400 
# 
# From -- ./inp_files/183492.got.cif
#   From: 2010.05.17/outbox.cif.g08.bks.cpg/sg12_92_cif.got.tgz:183492.got - 2010.06.03 13:09:07.
