data_PCOD9180031
_publ_section_title
;
Structure prediction by ZEFSAII (Michael W. Deem and Ramdas Pophale) SiO2 
 PCOD9180031
Probable space group: C 2/M
;
_chemical_formula_sum "Si O2"
_cell_formula_units_Z 56
_cell_length_a 34.367990
_cell_length_b 8.895845
_cell_length_c 12.741290
_cell_angle_alpha 90.000000
_cell_angle_beta 120.066267
_cell_angle_gamma 90.000000
_cell_volume 3371.281250
_symmetry_space_group_name_H-M "C 2/M"
_symmetry_group_IT_number 12
_symmetry_cell_setting 'monoclinic'
loop_
_space_group_symop_operation_xyz
x,y,z
-x,y,-z
-x,-y,-z
x,-y,z
1/2+x,1/2+y,z
1/2-x,1/2+y,-z
1/2-x,1/2-y,-z
1/2+x,1/2-y,z
loop_
_atom_site_type_symbol
_atom_site_label
_atom_site_fract_x
_atom_site_fract_y
_atom_site_fract_z
Si Si1 0.552505 0.680691 0.240210
Si Si2 0.108264 0.180506 0.524781
Si Si3 0.547314 0.181003 0.615228
Si Si4 0.110052 0.179824 0.110499
Si Si5 0.199754 0.819435 0.543762
Si Si6 0.456242 0.180340 0.145749
Si Si7 0.801874 0.320837 0.689099
O O1 0.546264 0.500000 0.231857
O O2 0.578301 0.722612 0.382345
O O3 0.583091 0.718792 0.181327
O O4 0.504351 0.759251 0.171485
O O5 0.087160 0.254139 0.598654
O O6 0.159551 0.222623 0.567290
O O7 0.106154 0.000000 0.531794
O O8 0.500000 0.231100 0.500000
O O9 0.548840 0.225231 0.739038
O O10 0.548552 0.000000 0.611991
O O11 0.160175 0.242956 0.190291
O O12 0.110848 0.000000 0.103034
O O13 0.082828 0.250671 0.977928
O O14 0.193000 0.739055 0.423043
O O15 0.250236 0.786128 0.650165
O O16 0.196704 0.000000 0.521412
O O17 0.455542 0.000000 0.138362
O O18 0.807782 0.500000 0.699044
#
# Coordination Sequence:
#
# PCOD9180031 Si02
#       7
#     8   8   8   8   8   8   8
#     4  10  20  34  52  76 107 143 174 210 259 310
#     4  10  19  33  55  79 106 138 175 214 256 309
#     4  10  21  37  53  74 105 138 173 221 268 303
#     4  11  22  37  54  75 110 144 176 216 262 314
#     4   9  18  34  52  78 111 140 171 215 264 309
#     4  11  23  37  53  75 106 140 180 221 260 312
#     4  10  19  31  53  80 108 140 175 212 260 316
#
# _framework density 16.610896
#
# number of rings (size 3 to 8) (size 9 to 14) (size 15 to 20)
#    0.000    1.857    2.857    1.714    0.000    5.429 
#    0.000    0.000    0.000    0.857    0.000    0.000 
#    0.000    0.000    0.000    0.000    0.000    0.000 
#
# Total GULP energy -156320.559099 kJ/mol
# GULP energy per Si atom -5582.877111 kJ/mol
# Density = 1.657309 g / cm^3
# Si number density = 16.610896 Si / 1000 Ang^3
#
#
#
# Elastic Constant Matrix: (Units=GPa)
#
#
# Indices 1 2 3 4 5 6 
#
# 1 109.8464 33.1267 51.4118 0.0000 23.2234 0.0000
# 2 33.1267 26.6375 39.4467 0.0000 9.5233 0.0000
# 3 51.4118 39.4467 109.7096 0.0000 19.3436 0.0000
# 4 0.0000 0.0000 0.0000 27.5942 0.0000 0.5488
# 5 23.2234 9.5233 19.3436 0.0000 25.3373 0.0000
# 6 0.0000 0.0000 0.0000 0.5488 0.0000 28.2574
#
#
#
# Elastic Compliance Matrix: (Units=1/GPa)
#
#
# Indices 1 2 3 4 5 6 
#
# 1 0.015938 -0.017026 0.000116 0.000000 -0.008298 0.000000
# 2 -0.017026 0.100470 -0.028009 0.000000 -0.000773 0.000000
# 3 0.000116 -0.028009 0.019984 0.000000 -0.004835 0.000000
# 4 0.000000 0.000000 0.000000 0.036253 0.000000 -0.000704
# 5 -0.008298 -0.000773 -0.004835 0.000000 0.051055 0.000000
# 6 0.000000 0.000000 0.000000 -0.000704 0.000000 0.035403
#
#
# Mechanical properties :
#
#
# Convention : Reuss Voigt Hill
#
# Bulk Modulus (GPa) = 21.48096 54.90710 38.19403
# Shear Modulus (GPa) = 13.71892 24.38500 19.05196
#
# Velocity S-wave (km/s) = 2.87696 3.83562 3.39035
# Velocity P-wave (km/s) = 4.89855 7.26241 6.19429
#
# Compressibility (1/GPa) = 0.04655285
#
# Stress axis : x y z
#
# Youngs Moduli (GPa) = 62.74215 9.95324 50.03957
#
# Poissons Ratio (x) = 0.16947 -0.00580
# Poissons Ratio (y) = 1.06826 1.40158
# Poissons Ratio (z) = -0.00727 0.27878
#
# Static dielectric constant tensor:
#      x y z
#    x 1.548860 0.000000 0.012310 
#    y 0.000000 1.556060 0.000000 
#    z 0.012310 0.000000 1.540790 
# 
# From -- ./inp_files/186416.got.cif
#   From: 2010.05.17/outbox.cif.g08.bks.cpg/sg12_94_cif.got.tgz:186416.got - 2010.06.03 13:09:07.
