data_PCOD9180555
_publ_section_title
;
Structure prediction by ZEFSAII (Michael W. Deem and Ramdas Pophale) SiO2 
 PCOD9180555
Probable space group: C 2/M
;
_chemical_formula_sum "Si O2"
_cell_formula_units_Z 48
_cell_length_a 23.282112
_cell_length_b 8.655837
_cell_length_c 35.004482
_cell_angle_alpha 90.000000
_cell_angle_beta 156.216705
_cell_angle_gamma 90.000000
_cell_volume 2844.855325
_symmetry_space_group_name_H-M "C 2/M"
_symmetry_group_IT_number 12
_symmetry_cell_setting 'monoclinic'
loop_
_space_group_symop_operation_xyz
x,y,z
-x,y,-z
-x,-y,-z
x,-y,z
1/2+x,1/2+y,z
1/2-x,1/2+y,-z
1/2-x,1/2-y,-z
1/2+x,1/2-y,z
loop_
_atom_site_type_symbol
_atom_site_label
_atom_site_fract_x
_atom_site_fract_y
_atom_site_fract_z
Si Si1 0.910242 0.815747 0.552978
Si Si2 0.085749 0.687667 0.817621
Si Si3 0.587975 0.815183 0.591041
Si Si4 0.405302 0.814948 0.782512
Si Si5 0.422027 0.813490 0.643267
Si Si6 0.156392 0.814499 0.978166
O O1 0.742382 0.775963 0.446628
O O2 0.954136 0.760464 0.621911
O O3 0.002493 0.737289 0.576373
O O4 0.923798 0.000000 0.558262
O O5 0.081082 0.500000 0.814403
O O6 0.983131 0.736101 0.790328
O O7 0.023738 0.739935 0.739498
O O8 0.248028 0.730921 0.927036
O O9 0.500000 0.764760 0.500000
O O10 0.745243 0.744393 0.686248
O O11 0.599430 0.000000 0.597353
O O12 0.500564 0.752407 0.875599
O O13 0.408108 0.000000 0.784949
O O14 0.431177 0.000000 0.645415
O O15 0.150906 0.000000 0.973018
O O16 0.250000 0.750000 0.000000
#
# Coordination Sequence:
#
# PCOD9180555 Si02
#       6
#     8   8   8   8   8   8
#     4  10  20  33  50  73 100 131 164 199 243 290
#     4   8  15  28  49  74  98 128 164 200 241 289
#     4  11  23  36  51  73 100 130 164 201 242 291
#     4  10  19  32  50  73 102 134 165 200 247 297
#     4   9  17  32  52  72  97 129 165 203 240 284
#     4   9  16  28  46  71 101 131 166 205 247 292
#
# _framework density 16.872561999999999
#
# number of rings (size 3 to 8) (size 9 to 14) (size 15 to 20)
#    0.000    2.500    0.000    4.000    0.000    3.333 
#    0.000    5.000    0.000    1.000    0.000    7.000 
#    0.000    0.000    0.000    0.000    0.000    0.000 
#
# Total GULP energy -133794.897609 kJ/mol
# GULP energy per Si atom -5574.787400 kJ/mol
# Density = 1.683416 g / cm^3
# Si number density = 16.872562 Si / 1000 Ang^3
#
#
#
# Elastic Constant Matrix: (Units=GPa)
#
#
# Indices 1 2 3 4 5 6 
#
# 1 78.9844 25.5639 73.5241 0.0004 -12.7499 -0.0006
# 2 25.5639 40.8057 44.2278 0.0007 -2.4576 -0.0011
# 3 73.5241 44.2278 173.6488 0.0016 -24.5190 -0.0006
# 4 0.0004 0.0007 0.0016 24.8747 0.0000 0.4701
# 5 -12.7499 -2.4576 -24.5190 0.0000 30.2513 0.0001
# 6 -0.0006 -0.0011 -0.0006 0.4701 0.0001 17.9697
#
#
#
# Elastic Compliance Matrix: (Units=1/GPa)
#
#
# Indices 1 2 3 4 5 6 
#
# 1 0.021800 -0.005391 -0.007478 0.000000 0.002689 0.000000
# 2 -0.005391 0.035809 -0.007620 0.000000 -0.005539 0.000002
# 3 -0.007478 -0.007620 0.011669 0.000000 0.005687 0.000000
# 4 0.000000 0.000000 0.000000 0.040221 0.000000 -0.001052
# 5 0.002689 -0.005539 0.005687 0.000000 0.038349 0.000000
# 6 0.000000 0.000002 0.000000 -0.001052 0.000000 0.055677
#
#
# Mechanical properties :
#
#
# Convention : Reuss Voigt Hill
#
# Bulk Modulus (GPa) = 35.33430 64.45229 49.89329
# Shear Modulus (GPa) = 19.69001 24.62736 22.15868
#
# Velocity S-wave (km/s) = 3.41982 3.82463 3.62788
# Velocity P-wave (km/s) = 6.04821 7.60172 6.86902
#
# Compressibility (1/GPa) = 0.02830111
#
# Stress axis : x y z
#
# Youngs Moduli (GPa) = 45.87081 27.92590 85.69962
#
# Poissons Ratio (x) = 0.15054 0.64084
# Poissons Ratio (y) = 0.24727 0.65304
# Poissons Ratio (z) = 0.34301 0.21280
#
# Static dielectric constant tensor:
#      x y z
#    x 1.557060 0.000000 -0.010530 
#    y 0.000000 1.565160 0.000000 
#    z -0.010530 0.000000 1.599870 
# 
# From -- ./inp_files/281820.got.cif
#   From: 2010.05.17/outbox.cif.g08.bks.cpg/sg12_141_cif.got.tgz:281820.got - 2010.06.03 13:09:07.
