data_PCOD9180864
_publ_section_title
;
Structure prediction by ZEFSAII (Michael W. Deem and Ramdas Pophale) SiO2 
 PCOD9180864
Probable space group: C 2/M
;
_chemical_formula_sum "Si O2"
_cell_formula_units_Z 64
_cell_length_a 10.960504
_cell_length_b 15.298815
_cell_length_c 19.077335
_cell_angle_alpha 90.000000
_cell_angle_beta 113.660374
_cell_angle_gamma 90.000000
_cell_volume 2930.037789
_symmetry_space_group_name_H-M "C 2/M"
_symmetry_group_IT_number 12
_symmetry_cell_setting 'monoclinic'
loop_
_space_group_symop_operation_xyz
x,y,z
-x,y,-z
-x,-y,-z
x,-y,z
1/2+x,1/2+y,z
1/2-x,1/2+y,-z
1/2-x,1/2-y,-z
1/2+x,1/2-y,z
loop_
_atom_site_type_symbol
_atom_site_label
_atom_site_fract_x
_atom_site_fract_y
_atom_site_fract_z
Si Si1 0.143694 0.099407 0.106653
Si Si2 0.690438 0.094708 0.356889
Si Si3 0.050773 0.766282 0.189449
Si Si4 0.233987 0.283262 0.653580
Si Si5 0.903054 0.647102 0.246111
Si Si6 0.384380 0.895669 0.878012
Si Si7 0.655064 0.097238 0.515782
Si Si8 0.301472 0.103667 0.011379
O O1 0.046407 0.164286 0.126041
O O2 0.278018 0.096168 0.185638
O O3 0.194835 0.136999 0.043563
O O4 0.092479 0.000000 0.088779
O O5 0.773512 0.179326 0.355354
O O6 0.544899 0.099706 0.286341
O O7 0.670349 0.101967 0.436022
O O8 0.749991 0.000000 0.354415
O O9 0.130157 0.804716 0.273876
O O10 0.137032 0.682856 0.181198
O O11 0.921496 0.725739 0.194958
O O12 0.125550 0.319578 0.682481
O O13 0.228087 0.329407 0.577565
O O14 0.544098 0.885511 0.929181
O O15 0.363265 0.000000 0.856413
O O16 0.303678 0.873184 0.930183
O O17 0.500000 0.104678 0.500000
O O18 0.699832 0.000000 0.548716
O O19 0.279458 0.000000 0.008665
#
# Coordination Sequence:
#
# PCOD9180864 Si02
#       8
#     8   8   8   8   8   8   8   8
#     4  10  19  32  51  76 106 138 174 219 260 305
#     4  10  20  34  56  82 102 133 176 213 256 311
#     4  10  21  31  49  80 107 138 176 209 262 312
#     4  10  21  34  51  79 111 136 167 218 262 303
#     4  10  19  34  51  75 108 140 175 213 257 306
#     4   9  16  30  51  78 107 133 170 219 263 304
#     4  10  19  34  58  83 102 131 174 217 263 307
#     4   8  15  28  51  78 102 133 171 217 267 302
#
# _framework density 21.842721000000001
#
# number of rings (size 3 to 8) (size 9 to 14) (size 15 to 20)
#    0.000    2.375    2.500    1.500    0.000    4.500 
#    0.000    0.625    0.000    1.875    0.000    1.750 
#    0.000    0.000    0.000    0.000    0.000    0.000 
#
# Total GULP energy -178419.288791 kJ/mol
# GULP energy per Si atom -5575.602775 kJ/mol
# Density = 2.179301 g / cm^3
# Si number density = 21.842721 Si / 1000 Ang^3
#
#
#
# Elastic Constant Matrix: (Units=GPa)
#
#
# Indices 1 2 3 4 5 6 
#
# 1 20.2074 16.3315 9.8329 0.0000 -12.1668 0.0000
# 2 16.3315 89.7350 31.6425 0.0000 2.3582 0.0000
# 3 9.8329 31.6425 90.4686 0.0000 -7.8847 0.0000
# 4 0.0000 0.0000 0.0000 23.3999 0.0000 -2.7206
# 5 -12.1668 2.3582 -7.8847 0.0000 26.8091 0.0000
# 6 0.0000 0.0000 0.0000 -2.7206 0.0000 2.1258
#
#
#
# Elastic Compliance Matrix: (Units=1/GPa)
#
#
# Indices 1 2 3 4 5 6 
#
# 1 0.088469 -0.017209 0.000035 0.000000 0.041674 0.000000
# 2 -0.017209 0.016223 -0.004730 0.000000 -0.010628 0.000000
# 3 0.000035 -0.004730 0.013077 0.000000 0.004278 0.000000
# 4 0.000000 0.000000 0.000000 0.050205 0.000000 0.064251
# 5 0.041674 -0.010628 0.004278 0.000000 0.058407 0.000000
# 6 0.000000 0.000000 0.000000 0.064251 0.000000 0.552627
#
#
# Mechanical properties :
#
#
# Convention : Reuss Voigt Hill
#
# Bulk Modulus (GPa) = 13.52034 35.11385 24.31710
# Shear Modulus (GPa) = 5.89991 19.97391 12.93691
#
# Velocity S-wave (km/s) = 1.64528 3.02726 2.43631
# Velocity P-wave (km/s) = 3.13250 5.32257 4.36705
#
# Compressibility (1/GPa) = 0.07396261
#
# Stress axis : x y z
#
# Youngs Moduli (GPa) = 11.30334 61.64046 76.47032
#
# Poissons Ratio (x) = 1.06076 -0.00271
# Poissons Ratio (y) = 0.19452 0.36171
# Poissons Ratio (z) = -0.00040 0.29157
#
# Static dielectric constant tensor:
#      x y z
#    x 1.808760 0.000000 -0.009200 
#    y 0.000000 1.829210 0.000000 
#    z -0.009200 0.000000 1.832770 
# 
# From -- ./inp_files/305447.got.cif
#   From: 2010.05.17/outbox.cif.g08.bks.cpg/sg12_153_cif.got.tgz:305447.got - 2010.06.03 13:09:07.
