data_PCOD9180834
_publ_section_title
;
Structure prediction by ZEFSAII (Michael W. Deem and Ramdas Pophale) SiO2 
 PCOD9180834
Probable space group: C 2/M
;
_chemical_formula_sum "Si O2"
_cell_formula_units_Z 56
_cell_length_a 21.687062
_cell_length_b 12.778079
_cell_length_c 10.942975
_cell_angle_alpha 90.000000
_cell_angle_beta 102.683810
_cell_angle_gamma 90.000000
_cell_volume 2958.502815
_symmetry_space_group_name_H-M "C 2/M"
_symmetry_group_IT_number 12
_symmetry_cell_setting 'monoclinic'
loop_
_space_group_symop_operation_xyz
x,y,z
-x,y,-z
-x,-y,-z
x,-y,z
1/2+x,1/2+y,z
1/2-x,1/2+y,-z
1/2-x,1/2-y,-z
1/2+x,1/2-y,z
loop_
_atom_site_type_symbol
_atom_site_label
_atom_site_fract_x
_atom_site_fract_y
_atom_site_fract_z
Si Si1 0.153356 0.880201 0.188881
Si Si2 0.148115 0.759221 0.434249
Si Si3 0.428523 0.805632 0.937925
Si Si4 0.101910 0.380694 0.813879
Si Si5 0.230373 0.733112 0.851947
Si Si6 0.541159 0.878872 0.318112
Si Si7 0.757857 0.123965 0.359369
O O1 0.142128 0.844038 0.323040
O O2 0.113717 0.797469 0.092504
O O3 0.226008 0.857436 0.187405
O O4 0.136628 0.000000 0.161618
O O5 0.082128 0.698668 0.419461
O O6 0.180038 0.819345 0.559591
O O7 0.198953 0.673083 0.408342
O O8 0.430702 0.863023 0.807636
O O9 0.500000 0.774400 0.000000
O O10 0.406297 0.874377 0.042333
O O11 0.117626 0.500000 0.786285
O O12 0.158086 0.301967 0.807712
O O13 0.033408 0.354872 0.726341
O O14 0.246912 0.836332 0.781485
O O15 0.250000 0.750000 0.000000
O O16 0.548258 0.000000 0.356992
O O17 0.759723 0.000000 0.371724
#
# Coordination Sequence:
#
# PCOD9180834 Si02
#       7
#     8   8   8   8   8   8   8
#     4  10  19  32  51  75 107 142 176 218 270 317
#     4   9  19  36  57  85 109 132 178 232 273 321
#     4   9  17  30  48  76 108 138 179 221 262 320
#     4  10  19  33  52  76 109 144 179 220 272 324
#     4  11  22  37  51  78 110 144 183 223 263 317
#     4   9  17  31  55  82 107 138 173 222 279 323
#     4  10  21  37  60  82 108 145 181 222 272 324
#
# _framework density 18.928493
#
# number of rings (size 3 to 8) (size 9 to 14) (size 15 to 20)
#    0.000    2.286    1.429    1.714    0.000    3.143 
#    0.000    2.857    0.000    4.286    0.000    0.000 
#    0.000    0.000    0.000    0.000    0.000    0.000 
#
# Total GULP energy -156238.674675 kJ/mol
# GULP energy per Si atom -5579.952667 kJ/mol
# Density = 1.888541 g / cm^3
# Si number density = 18.928493 Si / 1000 Ang^3
#
#
#
# Elastic Constant Matrix: (Units=GPa)
#
#
# Indices 1 2 3 4 5 6 
#
# 1 61.3230 37.3338 -4.0330 0.0000 6.5354 0.0000
# 2 37.3338 119.9295 27.4348 0.0000 10.8742 0.0000
# 3 -4.0330 27.4348 51.3842 0.0000 10.9550 0.0000
# 4 0.0000 0.0000 0.0000 15.8960 0.0000 9.3729
# 5 6.5354 10.8742 10.9550 0.0000 22.2646 0.0000
# 6 0.0000 0.0000 0.0000 9.3729 0.0000 19.0629
#
#
#
# Elastic Compliance Matrix: (Units=1/GPa)
#
#
# Indices 1 2 3 4 5 6 
#
# 1 0.022394 -0.008100 0.007419 0.000000 -0.006268 0.000000
# 2 -0.008100 0.012544 -0.007300 0.000000 -0.000157 0.000000
# 3 0.007419 -0.007300 0.026416 0.000000 -0.011610 0.000000
# 4 0.000000 0.000000 0.000000 0.088594 0.000000 -0.043560
# 5 -0.006268 -0.000157 -0.011610 0.000000 0.052543 0.000000
# 6 0.000000 0.000000 0.000000 -0.043560 0.000000 0.073876
#
#
# Mechanical properties :
#
#
# Convention : Reuss Voigt Hill
#
# Bulk Modulus (GPa) = 22.03020 39.34530 30.68775
# Shear Modulus (GPa) = 16.26229 22.90478 19.58354
#
# Velocity S-wave (km/s) = 2.93430 3.48238 3.22002
# Velocity P-wave (km/s) = 4.81082 6.08282 5.48383
#
# Compressibility (1/GPa) = 0.04539224
#
# Stress axis : x y z
#
# Youngs Moduli (GPa) = 44.65422 79.72031 37.85569
#
# Poissons Ratio (x) = 0.64574 -0.28084
# Poissons Ratio (y) = 0.36170 0.27633
# Poissons Ratio (z) = -0.33127 0.58192
#
# Static dielectric constant tensor:
#      x y z
#    x 1.676470 0.000000 -0.003280 
#    y 0.000000 1.606740 0.000000 
#    z -0.003280 0.000000 1.698060 
# 
# From -- ./inp_files/165049.got.cif
#   From: 2010.05.17/outbox.cif.g08.bks.cpg/sg12_83_cif.got.tgz:165049.got - 2010.06.03 13:09:07.
