data_PCOD9180243
_publ_section_title
;
Structure prediction by ZEFSAII (Michael W. Deem and Ramdas Pophale) SiO2 
 PCOD9180243
Probable space group: C 2/M
;
_chemical_formula_sum "Si O2"
_cell_formula_units_Z 64
_cell_length_a 16.639183
_cell_length_b 18.017101
_cell_length_c 13.748956
_cell_angle_alpha 90.000000
_cell_angle_beta 97.506644
_cell_angle_gamma 90.000000
_cell_volume 4086.472367
_symmetry_space_group_name_H-M "C 2/M"
_symmetry_group_IT_number 12
_symmetry_cell_setting 'monoclinic'
loop_
_space_group_symop_operation_xyz
x,y,z
-x,y,-z
-x,-y,-z
x,-y,z
1/2+x,1/2+y,z
1/2-x,1/2+y,-z
1/2-x,1/2-y,-z
1/2+x,1/2-y,z
loop_
_atom_site_type_symbol
_atom_site_label
_atom_site_fract_x
_atom_site_fract_y
_atom_site_fract_z
Si Si1 0.515962 0.300741 0.388116
Si Si2 0.063046 0.412648 0.712723
Si Si3 0.164928 0.170384 0.658438
Si Si4 0.691938 0.834886 0.609056
Si Si5 0.907240 0.648219 0.604905
Si Si6 0.348586 0.411733 0.549483
Si Si7 0.195968 0.588231 0.234769
Si Si8 0.533434 0.090212 0.108713
O O1 0.500000 0.282488 0.500000
O O2 0.427710 0.310940 0.328032
O O3 0.567258 0.231198 0.357732
O O4 0.569339 0.374678 0.397022
O O5 0.080224 0.500000 0.718989
O O6 0.141727 0.368635 0.690740
O O7 0.024217 0.388545 0.809839
O O8 0.990875 0.397063 0.624293
O O9 0.204593 0.247587 0.628969
O O10 0.159954 0.116944 0.563191
O O11 0.220012 0.132353 0.748696
O O12 0.635041 0.844881 0.505460
O O13 0.774062 0.877774 0.598122
O O14 0.846083 0.608147 0.668723
O O15 0.349227 0.500000 0.552705
O O16 0.208936 0.500000 0.229861
O O17 0.126408 0.611270 0.146936
O O18 0.533102 0.000000 0.108478
O O19 0.500000 0.116163 0.000000
#
# Coordination Sequence:
#
# PCOD9180243 Si02
#       8
#     8   8   8   8   8   8   8   8
#     4  10  19  32  44  59  85 133 173 197 226 272
#     4  10  20  29  47  74  96 122 157 197 239 287
#     4  11  20  32  46  64  94 131 170 198 234 275
#     4  12  20  31  45  65 100 132 163 195 234 281
#     4  11  17  31  44  65  98 128 162 189 231 285
#     4  11  22  31  43  62  90 133 175 207 229 258
#     4  10  20  30  49  76  95 120 162 202 239 283
#     4   8  16  33  53  74  99 121 145 189 251 304
#
# _framework density 15.661429999999999
#
# number of rings (size 3 to 8) (size 9 to 14) (size 15 to 20)
#    0.000    1.625    5.000    3.375    0.000    4.750 
#    0.000    0.000    0.000    0.750    0.000    0.000 
#    0.000    0.000    0.000    7.500    0.000    0.375 
#
# Total GULP energy -178451.917929 kJ/mol
# GULP energy per Si atom -5576.622435 kJ/mol
# Density = 1.562578 g / cm^3
# Si number density = 15.661430 Si / 1000 Ang^3
#
#
#
# Elastic Constant Matrix: (Units=GPa)
#
#
# Indices 1 2 3 4 5 6 
#
# 1 42.5584 6.5877 11.1553 0.0000 8.4072 0.0000
# 2 6.5877 73.6463 12.2869 0.0000 1.5580 0.0000
# 3 11.1553 12.2869 64.9487 0.0000 13.5403 0.0000
# 4 0.0000 0.0000 0.0000 9.7599 0.0000 6.1616
# 5 8.4072 1.5580 13.5403 0.0000 13.1118 0.0000
# 6 0.0000 0.0000 0.0000 6.1616 0.0000 22.1774
#
#
#
# Elastic Compliance Matrix: (Units=1/GPa)
#
#
# Indices 1 2 3 4 5 6 
#
# 1 0.027258 -0.001941 -0.000916 0.000000 -0.016301 0.000000
# 2 -0.001941 0.014178 -0.002876 0.000000 0.002530 0.000000
# 3 -0.000916 -0.002876 0.020268 0.000000 -0.020001 0.000000
# 4 0.000000 0.000000 0.000000 0.124254 0.000000 -0.034522
# 5 -0.016301 0.002530 -0.020001 0.000000 0.107074 0.000000
# 6 0.000000 0.000000 0.000000 -0.034522 0.000000 0.054682
#
#
# Mechanical properties :
#
#
# Convention : Reuss Voigt Hill
#
# Bulk Modulus (GPa) = 19.90522 26.80147 23.35335
# Shear Modulus (GPa) = 13.30046 19.08471 16.19258
#
# Velocity S-wave (km/s) = 2.91735 3.49460 3.21894
# Velocity P-wave (km/s) = 4.90767 5.78215 5.36276
#
# Compressibility (1/GPa) = 0.05023807
#
# Stress axis : x y z
#
# Youngs Moduli (GPa) = 36.68666 70.53005 49.33862
#
# Poissons Ratio (x) = 0.13686 0.04521
# Poissons Ratio (y) = 0.07119 0.14192
# Poissons Ratio (z) = 0.03361 0.20287
#
# Static dielectric constant tensor:
#      x y z
#    x 1.559770 0.000000 0.016250 
#    y 0.000000 1.532600 0.000000 
#    z 0.016250 0.000000 1.510530 
# 
# From -- ./inp_files/226110.got.cif
#   From: 2010.05.17/outbox.cif.g08.bks.cpg/sg12_114_cif.got.tgz:226110.got - 2010.06.03 13:09:07.
