data_PCOD9180129
_publ_section_title
;
Structure prediction by ZEFSAII (Michael W. Deem and Ramdas Pophale) SiO2 
 PCOD9180129
Probable space group: C 2/M
;
_chemical_formula_sum "Si O2"
_cell_formula_units_Z 64
_cell_length_a 21.138275
_cell_length_b 16.787574
_cell_length_c 9.994129
_cell_angle_alpha 90.000000
_cell_angle_beta 89.650096
_cell_angle_gamma 90.000000
_cell_volume 3546.454039
_symmetry_space_group_name_H-M "C 2/M"
_symmetry_group_IT_number 12
_symmetry_cell_setting 'monoclinic'
loop_
_space_group_symop_operation_xyz
x,y,z
-x,y,-z
-x,-y,-z
x,-y,z
1/2+x,1/2+y,z
1/2-x,1/2+y,-z
1/2-x,1/2-y,-z
1/2+x,1/2-y,z
loop_
_atom_site_type_symbol
_atom_site_label
_atom_site_fract_x
_atom_site_fract_y
_atom_site_fract_z
Si Si1 0.594266 0.284194 0.186532
Si Si2 0.456866 0.283915 0.254020
Si Si3 0.747104 0.405860 0.912403
Si Si4 0.683977 0.910830 0.834320
Si Si5 0.838805 0.285824 0.396284
Si Si6 0.401538 0.406656 0.056714
Si Si7 0.793365 0.292073 0.682737
Si Si8 0.933186 0.350255 0.026307
O O1 0.531932 0.285676 0.281782
O O2 0.661822 0.277942 0.258311
O O3 0.589502 0.356259 0.079922
O O4 0.588367 0.203088 0.098961
O O5 0.404232 0.261246 0.365394
O O6 0.440188 0.364996 0.175361
O O7 0.446086 0.215317 0.141952
O O8 0.762677 0.500000 0.907656
O O9 0.671937 0.397672 0.901446
O O10 0.782517 0.357957 0.796517
O O11 0.765883 0.375534 0.060538
O O12 0.669313 0.858231 0.706677
O O13 0.620490 0.908343 0.923350
O O14 0.702780 0.000000 0.797156
O O15 0.830618 0.315785 0.547630
O O16 0.777184 0.232660 0.361663
O O17 0.415853 0.500000 0.039081
O O18 0.000000 0.390710 0.000000
#
# Coordination Sequence:
#
# PCOD9180129 Si02
#       8
#     8   8   8   8   8   8   8   8
#     4  10  19  31  54  80 107 141 178 224 271 317
#     4   9  18  33  51  78 109 138 180 224 266 322
#     4  10  20  33  55  85 112 141 181 227 276 323
#     4  10  19  32  51  77 107 137 172 223 274 317
#     4  10  22  36  54  77 106 143 189 222 271 327
#     4  10  19  32  54  84 115 143 177 225 280 332
#     4  11  21  36  56  77 105 148 184 225 271 319
#     4   8  15  28  47  74 100 132 171 209 258 313
#
# _framework density 18.046194
#
# number of rings (size 3 to 8) (size 9 to 14) (size 15 to 20)
#    0.000    2.250    2.500    1.875    0.000    3.250 
#    0.000    0.000    0.000    1.500    0.000    5.250 
#    0.000    0.000    0.000    0.000    0.000    0.000 
#
# Total GULP energy -178220.721760 kJ/mol
# GULP energy per Si atom -5569.397555 kJ/mol
# Density = 1.800512 g / cm^3
# Si number density = 18.046194 Si / 1000 Ang^3
#
#
#
# Elastic Constant Matrix: (Units=GPa)
#
#
# Indices 1 2 3 4 5 6 
#
# 1 88.6101 16.9604 22.3229 0.0000 -22.5403 0.0000
# 2 16.9604 56.7079 33.4500 0.0000 -9.1774 0.0000
# 3 22.3229 33.4500 74.8536 0.0000 -20.6953 0.0000
# 4 0.0000 0.0000 0.0000 11.3538 0.0000 3.9445
# 5 -22.5403 -9.1774 -20.6953 0.0000 23.4594 0.0000
# 6 0.0000 0.0000 0.0000 3.9445 0.0000 17.4410
#
#
#
# Elastic Compliance Matrix: (Units=1/GPa)
#
#
# Indices 1 2 3 4 5 6 
#
# 1 0.015231 -0.002571 0.000496 0.000000 0.014065 0.000000
# 2 -0.002571 0.024381 -0.010811 0.000000 -0.002470 0.000000
# 3 0.000496 -0.010811 0.022491 0.000000 0.016088 0.000000
# 4 0.000000 0.000000 0.000000 0.095587 0.000000 -0.021618
# 5 0.014065 -0.002470 0.016088 0.000000 0.069367 0.000000
# 6 0.000000 0.000000 0.000000 -0.021618 0.000000 0.062226
#
#
# Mechanical properties :
#
#
# Convention : Reuss Voigt Hill
#
# Bulk Modulus (GPa) = 27.52680 40.62648 34.07664
# Shear Modulus (GPa) = 15.28284 20.28006 17.78145
#
# Velocity S-wave (km/s) = 2.91327 3.35593 3.14240
# Velocity P-wave (km/s) = 5.15779 6.13007 5.66483
#
# Compressibility (1/GPa) = 0.03632824
#
# Stress axis : x y z
#
# Youngs Moduli (GPa) = 65.65754 41.01616 44.46296
#
# Poissons Ratio (x) = 0.10547 -0.02204
# Poissons Ratio (y) = 0.16883 0.48070
# Poissons Ratio (z) = -0.03255 0.44343
#
# Static dielectric constant tensor:
#      x y z
#    x 1.672450 0.000000 -0.001590 
#    y 0.000000 1.595820 0.000000 
#    z -0.001590 0.000000 1.620120 
# 
# From -- ./inp_files/87977.got.cif
#   From: 2010.05.17/outbox.cif.g08.bks.cpg/sg12_44_cif.got.tgz:87977.got - 2010.06.03 13:09:07.
