data_PCOD9180025
_publ_section_title
;
Structure prediction by ZEFSAII (Michael W. Deem and Ramdas Pophale) SiO2 
 PCOD9180025
Probable space group: C 2/M
;
_chemical_formula_sum "Si O2"
_cell_formula_units_Z 64
_cell_length_a 30.994719
_cell_length_b 7.528430
_cell_length_c 15.196450
_cell_angle_alpha 90.000000
_cell_angle_beta 60.480285
_cell_angle_gamma 90.000000
_cell_volume 3085.648556
_symmetry_space_group_name_H-M "C 2/M"
_symmetry_group_IT_number 12
_symmetry_cell_setting 'monoclinic'
loop_
_space_group_symop_operation_xyz
x,y,z
-x,y,-z
-x,-y,-z
x,-y,z
1/2+x,1/2+y,z
1/2-x,1/2+y,-z
1/2-x,1/2-y,-z
1/2+x,1/2-y,z
loop_
_atom_site_type_symbol
_atom_site_label
_atom_site_fract_x
_atom_site_fract_y
_atom_site_fract_z
Si Si1 0.603722 0.792769 0.739505
Si Si2 0.173859 0.717927 0.824945
Si Si3 0.713470 0.712249 0.294516
Si Si4 0.634374 0.291624 0.515124
Si Si5 0.996928 0.716529 0.900042
Si Si6 0.943942 0.714722 0.551248
Si Si7 0.135468 0.713426 0.227102
Si Si8 0.889346 0.282715 0.942569
O O1 0.640586 0.719556 0.776446
O O2 0.626864 0.781779 0.619743
O O3 0.547603 0.721216 0.802518
O O4 0.598433 0.000000 0.767572
O O5 0.175017 0.500000 0.822819
O O6 0.230533 0.779484 0.761670
O O7 0.146837 0.770950 0.942074
O O8 0.715570 0.500000 0.303965
O O9 0.678423 0.782592 0.408794
O O10 0.685148 0.743823 0.231079
O O11 0.643236 0.500000 0.516880
O O12 0.584407 0.265003 0.509142
O O13 0.995168 0.500000 0.898673
O O14 0.945481 0.775813 0.907993
O O15 0.000000 0.765552 0.000000
O O16 0.944981 0.500000 0.553728
O O17 0.909809 0.778144 0.666148
O O18 0.000000 0.779221 0.500000
O O19 0.132172 0.500000 0.227449
O O20 0.129718 0.777826 0.133467
O O21 0.889773 0.500000 0.941431
#
# Coordination Sequence:
#
# PCOD9180025 Si02
#       8
#     8   8   8   8   8   8   8   8
#     4  10  19  31  53  80 102 127 167 211 249 293
#     4   9  17  31  51  76 100 128 167 209 251 294
#     4   9  19  36  53  68  97 136 171 207 246 293
#     4  10  21  35  49  69 101 139 171 202 247 298
#     4   9  15  26  47  77 106 127 154 202 256 299
#     4   9  18  32  51  75 100 128 166 211 251 290
#     4   9  18  31  49  75 103 128 160 204 252 295
#     4   9  16  27  47  77 106 127 155 202 254 300
#
# _framework density 20.741181999999998
#
# number of rings (size 3 to 8) (size 9 to 14) (size 15 to 20)
#    0.000    2.750    1.250    0.375    1.750    1.750 
#    0.000    0.625    0.000    1.125    0.000    0.000 
#    0.000    0.000    0.000    0.000    0.000    0.000 
#
# Total GULP energy -178589.053037 kJ/mol
# GULP energy per Si atom -5580.907907 kJ/mol
# Density = 2.069397 g / cm^3
# Si number density = 20.741182 Si / 1000 Ang^3
#
#
#
# Elastic Constant Matrix: (Units=GPa)
#
#
# Indices 1 2 3 4 5 6 
#
# 1 133.6330 -4.6960 108.2939 0.0001 -25.6302 0.0000
# 2 -4.6960 47.4090 -3.6773 -0.0004 -5.9590 0.0001
# 3 108.2939 -3.6773 143.4204 0.0000 8.9593 0.0000
# 4 0.0001 -0.0004 0.0000 175.2787 0.0000 -7.3003
# 5 -25.6302 -5.9590 8.9593 0.0000 33.2859 0.0000
# 6 0.0000 0.0001 0.0000 -7.3003 0.0000 9.0539
#
#
#
# Elastic Compliance Matrix: (Units=1/GPa)
#
#
# Indices 1 2 3 4 5 6 
#
# 1 0.053906 0.008836 -0.043907 0.000000 0.054908 0.000000
# 2 0.008836 0.023041 -0.006879 0.000000 0.012780 0.000000
# 3 -0.043907 -0.006879 0.042859 0.000000 -0.046576 0.000000
# 4 0.000000 0.000000 0.000000 0.005903 0.000000 0.004760
# 5 0.054908 0.012780 -0.046576 0.000000 0.087146 0.000000
# 6 0.000000 0.000000 0.000000 0.004760 0.000000 0.114287
#
#
# Mechanical properties :
#
#
# Convention : Reuss Voigt Hill
#
# Bulk Modulus (GPa) = 27.85123 58.25597 43.05360
# Shear Modulus (GPa) = 11.81996 58.49315 35.15656
#
# Velocity S-wave (km/s) = 2.38980 5.31627 4.12152
# Velocity P-wave (km/s) = 4.59043 8.11367 6.59180
#
# Compressibility (1/GPa) = 0.03590505
#
# Stress axis : x y z
#
# Youngs Moduli (GPa) = 18.55070 43.40087 23.33231
#
# Poissons Ratio (x) = -0.38347 1.02445
# Poissons Ratio (y) = -0.16390 0.16051
# Poissons Ratio (z) = 0.81451 0.29856
#
# Static dielectric constant tensor:
#      x y z
#    x 1.711320 0.000000 -0.020050 
#    y 0.000000 1.803140 0.000000 
#    z -0.020050 0.000000 1.722280 
# 
# From -- ./inp_files/249073.got.cif
#   From: 2010.05.17/outbox.cif.g08.bks.cpg/sg12_125_cif.got.tgz:249073.got - 2010.06.03 13:09:07.
