data_PCOD9180845
_publ_section_title
;
Structure prediction by ZEFSAII (Michael W. Deem and Ramdas Pophale) SiO2 
 PCOD9180845
Probable space group: C 2/M
;
_chemical_formula_sum "Si O2"
_cell_formula_units_Z 64
_cell_length_a 9.875979
_cell_length_b 14.497559
_cell_length_c 27.524491
_cell_angle_alpha 90.000000
_cell_angle_beta 44.231366
_cell_angle_gamma 90.000000
_cell_volume 2748.997400
_symmetry_space_group_name_H-M "C 2/M"
_symmetry_group_IT_number 12
_symmetry_cell_setting 'monoclinic'
loop_
_space_group_symop_operation_xyz
x,y,z
-x,y,-z
-x,-y,-z
x,-y,z
1/2+x,1/2+y,z
1/2-x,1/2+y,-z
1/2-x,1/2-y,-z
1/2+x,1/2-y,z
loop_
_atom_site_type_symbol
_atom_site_label
_atom_site_fract_x
_atom_site_fract_y
_atom_site_fract_z
Si Si1 0.251536 0.867127 0.656113
Si Si2 0.525408 0.393893 0.185373
Si Si3 0.268105 0.145969 0.340769
Si Si4 0.702541 0.890046 0.193598
Si Si5 0.038077 0.612529 0.934085
Si Si6 0.322881 0.862078 0.432139
Si Si7 0.641050 0.362196 0.580245
Si Si8 0.224058 0.887267 0.935148
O O1 0.078374 0.895058 0.735785
O O2 0.244656 0.756393 0.656408
O O3 0.455826 0.894871 0.626012
O O4 0.243635 0.896311 0.602275
O O5 0.554431 0.500000 0.162022
O O6 0.370442 0.351821 0.186640
O O7 0.742485 0.355532 0.133749
O O8 0.485069 0.123818 0.269047
O O9 0.227879 0.112060 0.405795
O O10 0.086055 0.114322 0.356006
O O11 0.715532 0.858298 0.134623
O O12 0.732465 0.000000 0.184730
O O13 0.032220 0.500000 0.932390
O O14 0.873454 0.645456 0.938488
O O15 0.000000 0.636455 0.000000
O O16 0.331715 0.749568 0.429034
O O17 0.224672 0.892849 0.507131
O O18 0.227738 0.000000 0.935805
O O19 0.000000 0.859852 0.000000
#
# Coordination Sequence:
#
# PCOD9180845 Si02
#       8
#     8   8   8   8   8   8   8   8
#     4  10  19  32  51  76 102 132 171 214 257 302
#     4  10  20  34  52  74 105 141 171 204 250 304
#     4  10  19  32  51  76 102 132 171 214 257 302
#     4  10  20  34  52  74 105 141 171 204 250 304
#     4   9  17  30  50  76 103 132 170 211 249 292
#     4   9  16  32  49  73 100 129 172 214 259 299
#     4   9  18  28  51  75  98 129 168 222 259 295
#     4   9  17  30  50  76 103 132 170 211 249 292
#
# _framework density 23.281213000000001
#
# number of rings (size 3 to 8) (size 9 to 14) (size 15 to 20)
#    0.000    2.500    1.250    1.500    1.750    6.000 
#    0.000    0.000    0.000    5.250    0.000    3.500 
#    0.000    0.000    0.000    0.000    0.000    0.000 
#
# Total GULP energy -178743.501837 kJ/mol
# GULP energy per Si atom -5585.734432 kJ/mol
# Density = 2.322822 g / cm^3
# Si number density = 23.281213 Si / 1000 Ang^3
#
#
#
# Elastic Constant Matrix: (Units=GPa)
#
#
# Indices 1 2 3 4 5 6 
#
# 1 112.3280 4.6229 37.1782 0.0001 2.1837 -0.0001
# 2 4.6229 75.7893 -6.5560 0.0000 2.6932 0.0000
# 3 37.1782 -6.5560 117.9101 0.0002 -2.4469 0.0000
# 4 0.0001 0.0000 0.0002 14.0561 0.0000 -6.8711
# 5 2.1837 2.6932 -2.4469 0.0000 38.8495 0.0000
# 6 -0.0001 0.0000 0.0000 -6.8711 0.0000 -1.3179
#
#
#
# Elastic Compliance Matrix: (Units=1/GPa)
#
#
# Indices 1 2 3 4 5 6 
#
# 1 0.010018 -0.000865 -0.003222 0.000000 -0.000706 0.000000
# 2 -0.000865 0.013363 0.000999 0.000000 -0.000815 0.000000
# 3 -0.003222 0.000999 0.009567 0.000000 0.000714 0.000000
# 4 0.000000 0.000000 0.000000 0.020048 0.000000 -0.104525
# 5 -0.000706 -0.000815 0.000714 0.000000 0.025882 0.000000
# 6 0.000000 0.000000 0.000000 -0.104525 0.000000 -0.213825
#
#
# Mechanical properties :
#
#
# Convention : Reuss Voigt Hill
#
# Bulk Modulus (GPa) = 37.35128 41.83531 39.59330
# Shear Modulus (GPa) = -41.71946 28.36969 -6.67489
#
# Velocity S-wave (km/s) = -4.23777 3.49458 -1.69508
# Velocity P-wave (km/s) = 2.80474 5.85588 3.63489
#
# Compressibility (1/GPa) = 0.02677284
#
# Stress axis : x y z
#
# Youngs Moduli (GPa) = 99.81968 74.83599 104.52409
#
# Poissons Ratio (x) = 0.06471 0.33673
# Poissons Ratio (y) = 0.08631 -0.10439
# Poissons Ratio (z) = 0.32157 -0.07474
#
# Static dielectric constant tensor:
#      x y z
#    x 1.843140 0.000000 -0.008190 
#    y 0.000000 1.942680 0.000000 
#    z -0.008190 0.000000 1.828890 
# 
# From -- ./inp_files/333729.got.cif
#   From: 2010.05.17/outbox.cif.g08.bks.cpg/sg12_167_cif.got.tgz:333729.got - 2010.06.03 13:09:07.
