data_PCOD9180408
_publ_section_title
;
Structure prediction by ZEFSAII (Michael W. Deem and Ramdas Pophale) SiO2 
 PCOD9180408
Probable space group: C 2/M
;
_chemical_formula_sum "Si O2"
_cell_formula_units_Z 56
_cell_length_a 14.698683
_cell_length_b 7.976474
_cell_length_c 24.309393
_cell_angle_alpha 90.000000
_cell_angle_beta 118.641432
_cell_angle_gamma 90.000000
_cell_volume 2501.371600
_symmetry_space_group_name_H-M "C 2/M"
_symmetry_group_IT_number 12
_symmetry_cell_setting 'monoclinic'
loop_
_space_group_symop_operation_xyz
x,y,z
-x,y,-z
-x,-y,-z
x,-y,z
1/2+x,1/2+y,z
1/2-x,1/2+y,-z
1/2-x,1/2-y,-z
1/2+x,1/2-y,z
loop_
_atom_site_type_symbol
_atom_site_label
_atom_site_fract_x
_atom_site_fract_y
_atom_site_fract_z
Si Si1 0.708454 0.185001 0.929928
Si Si2 0.725125 0.303530 0.667638
Si Si3 0.486012 0.804707 0.339632
Si Si4 0.792789 0.809554 0.570621
Si Si5 0.352237 0.807296 0.801335
Si Si6 0.909675 0.297459 0.930208
Si Si7 0.640188 0.794325 0.799703
O O1 0.813754 0.192218 0.925006
O O2 0.632699 0.261192 0.861229
O O3 0.667468 0.000000 0.929961
O O4 0.750000 0.250000 0.000000
O O5 0.714319 0.500000 0.678525
O O6 0.618322 0.217737 0.654971
O O7 0.749461 0.287669 0.610836
O O8 0.820396 0.234211 0.732963
O O9 0.583026 0.706323 0.391273
O O10 0.454188 0.755170 0.268208
O O11 0.515207 0.000000 0.347269
O O12 0.750000 0.750000 0.500000
O O13 0.760687 0.000000 0.569463
O O14 0.427630 0.745226 0.872000
O O15 0.240551 0.790517 0.800446
O O16 0.383725 0.000000 0.800751
O O17 0.113073 0.500000 0.076062
O O18 0.000000 0.271316 0.000000
O O19 0.652402 0.000000 0.802437
#
# Coordination Sequence:
#
# PCOD9180408 Si02
#       7
#     8   8   8   8   8   8   8
#     4  10  19  32  49  72 104 143 185 232 283 335
#     4  10  20  38  63  91 122 158 200 244 296 355
#     4  10  20  39  65  92 120 155 199 247 299 355
#     4  12  26  44  64  91 125 159 197 243 295 353
#     4   8  15  29  52  78 105 142 185 231 280 335
#     4   9  17  31  50  73 104 142 184 229 280 336
#     4   8  16  31  53  77 104 142 186 232 283 338
#
# _framework density 22.387718
#
# number of rings (size 3 to 8) (size 9 to 14) (size 15 to 20)
#    0.000    2.429    0.000    2.571    0.000    2.571 
#    2.571    2.857    0.000    0.000    0.000    0.000 
#    0.000    0.000    0.000    0.000    0.000    0.000 
#
# Total GULP energy -156050.805694 kJ/mol
# GULP energy per Si atom -5573.243060 kJ/mol
# Density = 2.233676 g / cm^3
# Si number density = 22.387718 Si / 1000 Ang^3
#
#
#
# Elastic Constant Matrix: (Units=GPa)
#
#
# Indices 1 2 3 4 5 6 
#
# 1 61.5935 -6.0961 36.5794 0.0000 -8.6717 0.0000
# 2 -6.0961 36.4252 10.7643 0.0000 1.5404 0.0000
# 3 36.5794 10.7643 220.1755 0.0000 -15.1832 0.0000
# 4 0.0000 0.0000 0.0000 24.1618 0.0000 -2.5807
# 5 -8.6717 1.5404 -15.1832 0.0000 32.5483 0.0000
# 6 0.0000 0.0000 0.0000 -2.5807 0.0000 21.3837
#
#
#
# Elastic Compliance Matrix: (Units=1/GPa)
#
#
# Indices 1 2 3 4 5 6 
#
# 1 0.018951 0.003945 -0.003106 0.000000 0.003413 0.000000
# 2 0.003945 0.028806 -0.002155 0.000000 -0.001317 0.000000
# 3 -0.003106 -0.002155 0.005283 0.000000 0.001739 0.000000
# 4 0.000000 0.000000 0.000000 0.041928 0.000000 0.005060
# 5 0.003413 -0.001317 0.001739 0.000000 0.032507 0.000000
# 6 0.000000 0.000000 0.000000 0.005060 0.000000 0.047375
#
#
# Mechanical properties :
#
#
# Convention : Reuss Voigt Hill
#
# Bulk Modulus (GPa) = 19.83748 44.52105 32.17927
# Shear Modulus (GPa) = 25.73547 34.08186 29.90867
#
# Velocity S-wave (km/s) = 3.39416 3.90596 3.65902
# Velocity P-wave (km/s) = 4.92347 6.34599 5.67944
#
# Compressibility (1/GPa) = 0.05040962
#
# Stress axis : x y z
#
# Youngs Moduli (GPa) = 52.76734 34.71475 189.28261
#
# Poissons Ratio (x) = -0.13696 0.58791
# Poissons Ratio (y) = -0.20818 0.40783
# Poissons Ratio (z) = 0.16389 0.07480
#
# Static dielectric constant tensor:
#      x y z
#    x 2.632300 0.000000 -1.519150 
#    y 0.000000 1.796970 0.000000 
#    z -1.519150 0.000000 4.806880 
# 
# From -- ./inp_files/339010.got.cif
#   From: 2010.05.17/outbox.cif.g08.bks.cpg/sg12_170_cif.got.tgz:339010.got - 2010.06.03 13:09:07.
