data_PCOD9180753
_publ_section_title
;
Structure prediction by ZEFSAII (Michael W. Deem and Ramdas Pophale) SiO2 
 PCOD9180753
Probable space group: C 2/M
;
_chemical_formula_sum "Si O2"
_cell_formula_units_Z 64
_cell_length_a 14.487975
_cell_length_b 9.149889
_cell_length_c 23.674117
_cell_angle_alpha 90.000000
_cell_angle_beta 115.486743
_cell_angle_gamma 90.000000
_cell_volume 2832.914497
_symmetry_space_group_name_H-M "C 2/M"
_symmetry_group_IT_number 12
_symmetry_cell_setting 'monoclinic'
loop_
_space_group_symop_operation_xyz
x,y,z
-x,y,-z
-x,-y,-z
x,-y,z
1/2+x,1/2+y,z
1/2-x,1/2+y,-z
1/2-x,1/2-y,-z
1/2+x,1/2-y,z
loop_
_atom_site_type_symbol
_atom_site_label
_atom_site_fract_x
_atom_site_fract_y
_atom_site_fract_z
Si Si1 0.666739 0.832487 0.194462
Si Si2 0.153961 0.664590 0.543502
Si Si3 0.011073 0.325884 0.692258
Si Si4 0.114047 0.163542 0.428735
Si Si5 0.694345 0.322956 0.670993
Si Si6 0.114029 0.167738 0.815463
Si Si7 0.433283 0.335600 0.930187
Si Si8 0.717415 0.836242 0.936609
O O1 0.701566 0.785168 0.266798
O O2 0.776620 0.830837 0.189627
O O3 0.587313 0.744312 0.134702
O O4 0.632332 0.000000 0.188392
O O5 0.118440 0.500000 0.549409
O O6 0.087376 0.745590 0.478015
O O7 0.264665 0.645681 0.543459
O O8 0.177616 0.765503 0.603502
O O9 0.006187 0.500000 0.690731
O O10 0.105998 0.262298 0.681315
O O11 0.033284 0.263253 0.759815
O O12 0.917715 0.253944 0.634660
O O13 0.067944 0.000000 0.416915
O O14 0.684903 0.500000 0.671658
O O15 0.137197 0.241491 0.880892
O O16 0.081791 0.000000 0.810761
O O17 0.474430 0.500000 0.931140
O O18 0.319657 0.347160 0.926066
O O19 0.500000 0.269695 0.000000
O O20 0.680779 0.000000 0.939215
O O21 0.750000 0.750000 0.000000
#
# Coordination Sequence:
#
# PCOD9180753 Si02
#       8
#     8   8   8   8   8   8   8   8
#     4   8  16  30  49  73  99 130 165 203 250 302
#     4  10  21  37  57  80 105 137 176 214 256 309
#     4  11  21  34  55  82 108 134 173 219 259 307
#     4  10  21  38  57  77 106 142 175 210 259 313
#     4  10  20  35  55  79 107 137 172 215 263 310
#     4   9  17  32  52  74 102 134 169 210 260 312
#     4   9  18  32  50  72  98 130 167 206 249 297
#     4  10  19  32  51  74 101 134 171 211 255 305
#
# _framework density 22.591574999999999
#
# number of rings (size 3 to 8) (size 9 to 14) (size 15 to 20)
#    0.000    2.375    0.000    3.750    0.000    6.250 
#    0.000    3.750    0.000    4.500    0.000    0.000 
#    0.000    0.000    0.000    0.000    0.000    0.000 
#
# Total GULP energy -178656.622914 kJ/mol
# GULP energy per Si atom -5583.019466 kJ/mol
# Density = 2.254016 g / cm^3
# Si number density = 22.591575 Si / 1000 Ang^3
#
#
#
# Elastic Constant Matrix: (Units=GPa)
#
#
# Indices 1 2 3 4 5 6 
#
# 1 32.8834 1.6094 -3.4315 0.0000 11.9781 0.0000
# 2 1.6094 181.6608 96.1569 0.0000 3.3594 0.0000
# 3 -3.4315 96.1569 197.1998 0.0000 -0.0667 0.0000
# 4 0.0000 0.0000 0.0000 33.8275 0.0000 -2.4437
# 5 11.9781 3.3594 -0.0667 0.0000 25.1765 0.0000
# 6 0.0000 0.0000 0.0000 -2.4437 0.0000 12.3916
#
#
#
# Elastic Compliance Matrix: (Units=1/GPa)
#
#
# Indices 1 2 3 4 5 6 
#
# 1 0.036893 -0.000458 0.000860 0.000000 -0.017489 0.000000
# 2 -0.000458 0.007451 -0.003641 0.000000 -0.000786 0.000000
# 3 0.000860 -0.003641 0.006862 0.000000 0.000095 0.000000
# 4 0.000000 0.000000 0.000000 0.029989 0.000000 0.005914
# 5 -0.017489 -0.000786 0.000095 0.000000 0.048145 0.000000
# 6 0.000000 0.000000 0.000000 0.005914 0.000000 0.081866
#
#
# Mechanical properties :
#
#
# Convention : Reuss Voigt Hill
#
# Bulk Modulus (GPa) = 22.35882 66.71264 44.53573
# Shear Modulus (GPa) = 21.49663 35.43974 28.46819
#
# Velocity S-wave (km/s) = 3.08804 3.96500 3.55367
# Velocity P-wave (km/s) = 4.75743 7.11025 6.04933
#
# Compressibility (1/GPa) = 0.04472509
#
# Stress axis : x y z
#
# Youngs Moduli (GPa) = 27.10534 134.21390 145.73972
#
# Poissons Ratio (x) = 0.06153 -0.12528
# Poissons Ratio (y) = 0.01243 0.53069
# Poissons Ratio (z) = -0.02330 0.48872
#
# Static dielectric constant tensor:
#      x y z
#    x 1.944700 0.000000 0.021780 
#    y 0.000000 1.812770 0.000000 
#    z 0.021780 0.000000 1.824320 
# 
# From -- ./inp_files/346292.got.cif
#   From: 2010.05.17/outbox.cif.g08.bks.cpg/sg12_174_cif.got.tgz:346292.got - 2010.06.03 13:09:07.
