data_PCOD9180365
_publ_section_title
;
Structure prediction by ZEFSAII (Michael W. Deem and Ramdas Pophale) SiO2 
 PCOD9180365
Probable space group: C 2/M
;
_chemical_formula_sum "Si O2"
_cell_formula_units_Z 64
_cell_length_a 17.234012
_cell_length_b 11.759250
_cell_length_c 18.284214
_cell_angle_alpha 90.000000
_cell_angle_beta 78.584846
_cell_angle_gamma 90.000000
_cell_volume 3632.163298
_symmetry_space_group_name_H-M "C 2/M"
_symmetry_group_IT_number 12
_symmetry_cell_setting 'monoclinic'
loop_
_space_group_symop_operation_xyz
x,y,z
-x,y,-z
-x,-y,-z
x,-y,z
1/2+x,1/2+y,z
1/2-x,1/2+y,-z
1/2-x,1/2-y,-z
1/2+x,1/2-y,z
loop_
_atom_site_type_symbol
_atom_site_label
_atom_site_fract_x
_atom_site_fract_y
_atom_site_fract_z
Si Si1 0.326558 0.131154 0.068473
Si Si2 0.718952 0.757058 0.197957
Si Si3 0.196289 0.862057 0.490823
Si Si4 0.876267 0.869541 0.231474
Si Si5 0.374476 0.634644 0.656291
Si Si6 0.120694 0.371200 0.098572
Si Si7 0.446382 0.363611 0.370296
Si Si8 0.975738 0.787928 0.082732
O O1 0.252114 0.174877 0.127994
O O2 0.404596 0.201258 0.076174
O O3 0.340083 0.000000 0.083437
O O4 0.320546 0.141652 0.981947
O O5 0.796963 0.806809 0.221634
O O6 0.666873 0.695809 0.268396
O O7 0.667311 0.849241 0.164282
O O8 0.250000 0.750000 0.500000
O O9 0.173235 0.851388 0.410100
O O10 0.117588 0.845600 0.554555
O O11 0.220848 0.000000 0.497605
O O12 0.913761 0.819678 0.298637
O O13 0.939539 0.863529 0.153775
O O14 0.855208 0.000000 0.249567
O O15 0.376310 0.500000 0.671440
O O16 0.464876 0.676979 0.630073
O O17 0.089282 0.500000 0.101187
O O18 0.050203 0.282000 0.099876
O O19 0.453064 0.500000 0.361623
O O20 0.000000 0.842170 0.000000
#
# Coordination Sequence:
#
# PCOD9180365 Si02
#       8
#     8   8   8   8   8   8   8   8
#     4   9  18  32  49  68  93 129 171 213 255 302
#     4  11  20  31  48  73 104 132 165 208 260 312
#     4  10  20  36  60  87 113 142 175 214 262 314
#     4  10  20  33  49  71 101 135 169 209 258 310
#     4  10  20  34  55  81 106 135 174 215 250 296
#     4  10  19  32  49  69  96 130 169 213 260 310
#     4   9  18  34  55  77 102 136 177 214 249 299
#     4   9  18  32  50  70  93 127 172 216 257 304
#
# _framework density 17.620353000000001
#
# number of rings (size 3 to 8) (size 9 to 14) (size 15 to 20)
#    0.000    2.250    0.000    3.375    0.000    3.250 
#    0.000    1.250    0.000    7.500    0.000    0.000 
#    0.000    0.000    0.000    0.000    0.000    0.000 
#
# Total GULP energy -178236.231479 kJ/mol
# GULP energy per Si atom -5569.882234 kJ/mol
# Density = 1.758025 g / cm^3
# Si number density = 17.620353 Si / 1000 Ang^3
#
#
#
# Elastic Constant Matrix: (Units=GPa)
#
#
# Indices 1 2 3 4 5 6 
#
# 1 77.3965 27.0853 36.2163 0.0000 -7.5405 0.0000
# 2 27.0853 56.3653 27.2365 0.0000 0.1313 0.0000
# 3 36.2163 27.2365 88.6279 0.0000 -7.3930 0.0000
# 4 0.0000 0.0000 0.0000 25.7357 0.0000 -2.8022
# 5 -7.5405 0.1313 -7.3930 0.0000 28.1979 0.0000
# 6 0.0000 0.0000 0.0000 -2.8022 0.0000 16.2467
#
#
#
# Elastic Compliance Matrix: (Units=1/GPa)
#
#
# Indices 1 2 3 4 5 6 
#
# 1 0.017774 -0.006081 -0.005107 0.000000 0.003442 0.000000
# 2 -0.006081 0.023007 -0.004836 0.000000 -0.003001 0.000000
# 3 -0.005107 -0.004836 0.015074 0.000000 0.002609 0.000000
# 4 0.000000 0.000000 0.000000 0.039600 0.000000 0.006830
# 5 0.003442 -0.003001 0.002609 0.000000 0.037082 0.000000
# 6 0.000000 0.000000 0.000000 0.006830 0.000000 0.062729
#
#
# Mechanical properties :
#
#
# Convention : Reuss Voigt Hill
#
# Bulk Modulus (GPa) = 42.00460 44.82955 43.41707
# Shear Modulus (GPa) = 21.25403 22.82617 22.04010
#
# Velocity S-wave (km/s) = 3.47684 3.60313 3.54055
# Velocity P-wave (km/s) = 6.32521 6.54272 6.43489
#
# Compressibility (1/GPa) = 0.02380692
#
# Stress axis : x y z
#
# Youngs Moduli (GPa) = 56.26301 43.46443 66.34045
#
# Poissons Ratio (x) = 0.26431 0.33880
# Poissons Ratio (y) = 0.34214 0.32081
# Poissons Ratio (z) = 0.28733 0.21019
#
# Static dielectric constant tensor:
#      x y z
#    x 1.596910 0.000000 0.008010 
#    y 0.000000 1.598550 0.000000 
#    z 0.008010 0.000000 1.610380 
# 
# From -- ./inp_files/269316.got.cif
#   From: 2010.05.17/outbox.cif.g08.bks.cpg/sg12_135_cif.got.tgz:269316.got - 2010.06.03 13:09:07.
