data_PCOD9180440
_publ_section_title
;
Structure prediction by ZEFSAII (Michael W. Deem and Ramdas Pophale) SiO2 
 PCOD9180440
Probable space group: C 2/M
;
_chemical_formula_sum "Si O2"
_cell_formula_units_Z 56
_cell_length_a 15.870309
_cell_length_b 25.074105
_cell_length_c 12.334123
_cell_angle_alpha 90.000000
_cell_angle_beta 143.288510
_cell_angle_gamma 90.000000
_cell_volume 2934.031558
_symmetry_space_group_name_H-M "C 2/M"
_symmetry_group_IT_number 12
_symmetry_cell_setting 'monoclinic'
loop_
_space_group_symop_operation_xyz
x,y,z
-x,y,-z
-x,-y,-z
x,-y,z
1/2+x,1/2+y,z
1/2-x,1/2+y,-z
1/2-x,1/2-y,-z
1/2+x,1/2-y,z
loop_
_atom_site_type_symbol
_atom_site_label
_atom_site_fract_x
_atom_site_fract_y
_atom_site_fract_z
Si Si1 0.496839 0.937704 0.626742
Si Si2 0.629004 0.709886 0.208295
Si Si3 0.487004 0.646474 0.359571
Si Si4 0.261892 0.874554 0.500361
Si Si5 0.632200 0.237169 0.697625
Si Si6 0.218042 0.646276 0.951320
Si Si7 0.494889 0.190534 0.866623
O O1 0.500000 0.928765 0.500000
O O2 0.346501 0.922449 0.528085
O O3 0.619234 0.900739 0.804183
O O4 0.524884 0.000000 0.675010
O O5 0.709637 0.663016 0.349060
O O6 0.745321 0.745554 0.265170
O O7 0.552325 0.749746 0.212289
O O8 0.500000 0.690801 0.000000
O O9 0.500000 0.628853 0.500000
O O10 0.629463 0.627168 0.446376
O O11 0.440169 0.709713 0.326078
O O12 0.366261 0.626916 0.151040
O O13 0.383362 0.847061 0.695622
O O14 0.500000 0.209805 0.500000
O O15 0.706974 0.194777 0.853985
O O16 0.144397 0.673541 0.978082
O O17 0.500000 0.186997 0.000000
#
# Coordination Sequence:
#
# PCOD9180440 Si02
#       7
#     8   8   8   8   8   8   8
#     4  10  23  44  67  87 105 133 183 244 298 346
#     4  11  20  31  49  80 119 154 192 228 268 327
#     4  11  22  35  53  86 127 160 189 224 272 336
#     4  11  21  35  58  82 113 150 190 233 283 331
#     4  11  20  32  51  82 121 158 194 228 274 330
#     4  11  20  35  58  80 114 155 192 229 277 333
#     4  10  19  32  49  75 111 156 195 223 256 313
#
# _framework density 19.086364
#
# number of rings (size 3 to 8) (size 9 to 14) (size 15 to 20)
#    0.000    1.286    0.000    9.857    0.000    0.000 
#    0.000    0.714    0.000   18.429    0.000    0.000 
#    0.000    0.000    0.000    0.000    0.000    0.000 
#
# Total GULP energy -155966.135067 kJ/mol
# GULP energy per Si atom -5570.219110 kJ/mol
# Density = 1.904292 g / cm^3
# Si number density = 19.086364 Si / 1000 Ang^3
#
#
#
# Elastic Constant Matrix: (Units=GPa)
#
#
# Indices 1 2 3 4 5 6 
#
# 1 95.0566 18.2230 39.0312 0.0000 1.1006 0.0000
# 2 18.2230 68.7452 12.2049 0.0000 -8.7084 0.0000
# 3 39.0312 12.2049 104.0735 0.0000 10.3474 0.0000
# 4 0.0000 0.0000 0.0000 8.6142 0.0000 -2.2506
# 5 1.1006 -8.7084 10.3474 0.0000 24.4046 0.0000
# 6 0.0000 0.0000 0.0000 -2.2506 0.0000 19.5454
#
#
#
# Elastic Compliance Matrix: (Units=1/GPa)
#
#
# Indices 1 2 3 4 5 6 
#
# 1 0.012882 -0.002545 -0.004578 0.000000 0.000452 0.000000
# 2 -0.002545 0.016350 -0.001623 0.000000 0.006637 0.000000
# 3 -0.004578 -0.001623 0.012061 0.000000 -0.005487 0.000000
# 4 0.000000 0.000000 0.000000 0.119689 0.000000 0.013782
# 5 0.000452 0.006637 -0.005487 0.000000 0.045650 0.000000
# 6 0.000000 0.000000 0.000000 0.013782 0.000000 0.052750
#
#
# Mechanical properties :
#
#
# Convention : Reuss Voigt Hill
#
# Bulk Modulus (GPa) = 42.01246 45.19926 43.60586
# Shear Modulus (GPa) = 17.55572 23.74059 20.64815
#
# Velocity S-wave (km/s) = 3.03612 3.53065 3.29268
# Velocity P-wave (km/s) = 5.86091 6.35244 6.11162
#
# Compressibility (1/GPa) = 0.02380247
#
# Stress axis : x y z
#
# Youngs Moduli (GPa) = 77.62532 61.16225 82.91011
#
# Poissons Ratio (x) = 0.15565 0.37955
# Poissons Ratio (y) = 0.19755 0.13455
# Poissons Ratio (z) = 0.35536 0.09926
#
# Static dielectric constant tensor:
#      x y z
#    x 1.760220 0.000000 -0.009400 
#    y 0.000000 1.649380 0.000000 
#    z -0.009400 0.000000 1.705330 
# 
# From -- ./inp_files/149498.got.cif
#   From: 2010.05.17/outbox.cif.g08.bks.cpg/sg12_75_cif.got.tgz:149498.got - 2010.06.03 13:09:07.
