data_PCOD9180636
_publ_section_title
;
Structure prediction by ZEFSAII (Michael W. Deem and Ramdas Pophale) SiO2 
 PCOD9180636
Probable space group: C 2/M
;
_chemical_formula_sum "Si O2"
_cell_formula_units_Z 56
_cell_length_a 12.550976
_cell_length_b 23.541633
_cell_length_c 20.653211
_cell_angle_alpha 90.000000
_cell_angle_beta 150.180546
_cell_angle_gamma 90.000000
_cell_volume 3034.538674
_symmetry_space_group_name_H-M "C 2/M"
_symmetry_group_IT_number 12
_symmetry_cell_setting 'monoclinic'
loop_
_space_group_symop_operation_xyz
x,y,z
-x,y,-z
-x,-y,-z
x,-y,z
1/2+x,1/2+y,z
1/2-x,1/2+y,-z
1/2-x,1/2-y,-z
1/2+x,1/2-y,z
loop_
_atom_site_type_symbol
_atom_site_label
_atom_site_fract_x
_atom_site_fract_y
_atom_site_fract_z
Si Si1 0.234088 0.325829 0.299969
Si Si2 0.276518 0.436098 0.919822
Si Si3 0.502277 0.763044 0.634781
Si Si4 0.258690 0.328903 0.989269
Si Si5 0.913076 0.624468 0.643775
Si Si6 0.274843 0.771251 0.903373
Si Si7 0.992167 0.936473 0.417341
O O1 0.376398 0.271415 0.357546
O O2 0.201998 0.338314 0.359536
O O3 0.335467 0.383251 0.322743
O O4 0.996955 0.318424 0.147090
O O5 0.218112 0.500000 0.907951
O O6 0.094020 0.410635 0.776780
O O7 0.500000 0.436656 0.000000
O O8 0.297956 0.393199 0.990722
O O9 0.250000 0.750000 0.500000
O O10 0.513482 0.831392 0.646105
O O11 0.619608 0.740824 0.761919
O O12 0.336565 0.308821 0.099947
O O13 0.338159 0.287399 0.973953
O O14 0.728220 0.583475 0.519805
O O15 0.500000 0.797513 0.000000
O O16 0.000000 0.940063 0.500000
O O17 0.935145 0.000000 0.364027
#
# Coordination Sequence:
#
# PCOD9180636 Si02
#       7
#     8   8   8   8   8   8   8
#     4  10  19  32  50  77 108 139 171 225 268 319
#     4  10  20  35  56  82 108 135 181 239 278 316
#     4  12  22  33  53  81 116 143 179 225 271 321
#     4  10  21  34  56  78 108 144 182 222 273 337
#     4  10  20  33  50  78 110 140 175 219 277 332
#     4  11  21  35  55  78 109 151 183 218 270 336
#     4   9  17  30  49  71 101 138 174 215 270 323
#
# _framework density 18.454205000000002
#
# number of rings (size 3 to 8) (size 9 to 14) (size 15 to 20)
#    0.000    1.714    5.714    0.857    0.000    3.429 
#    0.000    0.000    0.000    1.286    0.000    0.000 
#    0.000    3.429    0.000    0.000    0.000    0.000 
#
# Total GULP energy -156155.645013 kJ/mol
# GULP energy per Si atom -5576.987322 kJ/mol
# Density = 1.841220 g / cm^3
# Si number density = 18.454205 Si / 1000 Ang^3
#
#
#
# Elastic Constant Matrix: (Units=GPa)
#
#
# Indices 1 2 3 4 5 6 
#
# 1 48.9460 30.5641 13.0933 0.0011 10.0629 -0.0012
# 2 30.5641 126.9766 -2.1151 -0.0034 8.1072 0.0021
# 3 13.0933 -2.1151 42.1383 -0.0274 3.0875 0.0123
# 4 0.0011 -0.0034 -0.0274 24.0369 -0.0061 0.6827
# 5 10.0629 8.1072 3.0875 -0.0061 20.5158 0.0023
# 6 -0.0012 0.0021 0.0123 0.6827 0.0023 22.5544
#
#
#
# Elastic Compliance Matrix: (Units=1/GPa)
#
#
# Indices 1 2 3 4 5 6 
#
# 1 0.028849 -0.006427 -0.008530 -0.000015 -0.010327 0.000008
# 2 -0.006427 0.009529 0.002548 0.000004 -0.000997 -0.000003
# 3 -0.008530 0.002548 0.026570 0.000031 -0.000822 -0.000016
# 4 -0.000015 0.000004 0.000031 0.041639 0.000013 -0.001260
# 5 -0.010327 -0.000997 -0.000822 0.000013 0.054326 -0.000006
# 6 0.000008 -0.000003 -0.000016 -0.001260 -0.000006 0.044375
#
#
# Mechanical properties :
#
#
# Convention : Reuss Voigt Hill
#
# Bulk Modulus (GPa) = 24.91884 33.46062 29.18973
# Shear Modulus (GPa) = 20.53550 25.18931 22.86240
#
# Velocity S-wave (km/s) = 3.33946 3.69855 3.52358
# Velocity P-wave (km/s) = 5.32932 6.03408 5.69262
#
# Compressibility (1/GPa) = 0.04013028
#
# Stress axis : x y z
#
# Youngs Moduli (GPa) = 34.66348 104.94814 37.63647
#
# Poissons Ratio (x) = 0.67448 0.32104
# Poissons Ratio (y) = 0.22278 -0.09591
# Poissons Ratio (z) = 0.29568 -0.26743
#
# Static dielectric constant tensor:
#      x y z
#    x 1.677600 0.000000 0.014950 
#    y 0.000000 1.681910 0.000000 
#    z 0.014950 0.000000 1.662170 
# 
# From -- ./inp_files/307242.got.cif
#   From: 2010.05.17/outbox.cif.g08.bks.cpg/sg12_154_cif.got.tgz:307242.got - 2010.06.03 13:09:07.
