data_PCOD9180983
_publ_section_title
;
Structure prediction by ZEFSAII (Michael W. Deem and Ramdas Pophale) SiO2 
 PCOD9180983
Probable space group: C 2/M
;
_chemical_formula_sum "Si O2"
_cell_formula_units_Z 56
_cell_length_a 21.068616
_cell_length_b 8.518178
_cell_length_c 20.271293
_cell_angle_alpha 90.000000
_cell_angle_beta 120.949467
_cell_angle_gamma 90.000000
_cell_volume 3120.036573
_symmetry_space_group_name_H-M "C 2/M"
_symmetry_group_IT_number 12
_symmetry_cell_setting 'monoclinic'
loop_
_space_group_symop_operation_xyz
x,y,z
-x,y,-z
-x,-y,-z
x,-y,z
1/2+x,1/2+y,z
1/2-x,1/2+y,-z
1/2-x,1/2-y,-z
1/2+x,1/2-y,z
loop_
_atom_site_type_symbol
_atom_site_label
_atom_site_fract_x
_atom_site_fract_y
_atom_site_fract_z
Si Si1 0.592680 0.310980 0.334328
Si Si2 0.285102 0.188350 0.823343
Si Si3 0.679842 0.311685 0.503967
Si Si4 0.536018 0.810518 0.821202
Si Si5 0.740982 0.687821 0.333244
Si Si6 0.706652 0.811640 0.912632
Si Si7 0.044136 0.691440 0.088053
O O1 0.591197 0.500000 0.330474
O O2 0.611622 0.266355 0.420069
O O3 0.516373 0.245483 0.265852
O O4 0.662482 0.259586 0.325156
O O5 0.252340 0.243510 0.736099
O O6 0.245180 0.256077 0.866053
O O7 0.370863 0.240970 0.868928
O O8 0.283203 0.000000 0.825728
O O9 0.682302 0.500000 0.509151
O O10 0.750000 0.250000 0.500000
O O11 0.693051 0.241766 0.583123
O O12 0.620990 0.757617 0.865785
O O13 0.496484 0.755912 0.867394
O O14 0.536274 0.000000 0.821371
O O15 0.739455 0.500000 0.329863
O O16 0.706988 0.000000 0.915666
O O17 0.750000 0.750000 0.000000
O O18 0.043598 0.500000 0.088107
O O19 0.000000 0.743516 0.000000
#
# Coordination Sequence:
#
# PCOD9180983 Si02
#       7
#     8   8   8   8   8   8   8
#     4   9  18  31  50  79 114 144 176 225 275 321
#     4  11  21  35  58  82 110 146 182 227 278 328
#     4   9  17  29  47  76 112 148 182 220 272 327
#     4  10  20  35  56  79 106 144 185 226 270 327
#     4  10  19  32  51  80 115 147 182 225 272 325
#     4  11  24  41  59  80 109 146 188 230 275 330
#     4   9  17  31  52  78 104 133 175 223 270 322
#
# _framework density 17.948508
#
# number of rings (size 3 to 8) (size 9 to 14) (size 15 to 20)
#    0.000    2.143    1.429    3.429    0.000    6.286 
#    0.000    0.000    0.000    3.000    0.000    6.000 
#    0.000    0.000    0.000    0.000    0.000    0.000 
#
# Total GULP energy -156198.715415 kJ/mol
# GULP energy per Si atom -5578.525551 kJ/mol
# Density = 1.790766 g / cm^3
# Si number density = 17.948508 Si / 1000 Ang^3
#
#
#
# Elastic Constant Matrix: (Units=GPa)
#
#
# Indices 1 2 3 4 5 6 
#
# 1 121.8443 26.5750 85.7366 0.0000 3.5344 0.0000
# 2 26.5750 31.4791 31.6619 0.0000 2.0996 0.0000
# 3 85.7366 31.6619 203.6882 0.0000 7.2056 0.0000
# 4 0.0000 0.0000 0.0000 32.3013 0.0000 -1.6171
# 5 3.5344 2.0996 7.2056 0.0000 24.3085 0.0000
# 6 0.0000 0.0000 0.0000 -1.6171 0.0000 21.8376
#
#
#
# Elastic Compliance Matrix: (Units=1/GPa)
#
#
# Indices 1 2 3 4 5 6 
#
# 1 0.012635 -0.006302 -0.004338 0.000000 -0.000007 0.000000
# 2 -0.006302 0.040854 -0.003644 0.000000 -0.001532 0.000000
# 3 -0.004338 -0.003644 0.007345 0.000000 -0.001232 0.000000
# 4 0.000000 0.000000 0.000000 0.031074 0.000000 0.002301
# 5 -0.000007 -0.001532 -0.001232 0.000000 0.041636 0.000000
# 6 0.000000 0.000000 0.000000 0.002301 0.000000 0.045963
#
#
# Mechanical properties :
#
#
# Convention : Reuss Voigt Hill
#
# Bulk Modulus (GPa) = 30.99214 71.66204 51.32709
# Shear Modulus (GPa) = 22.84865 29.89205 26.37035
#
# Velocity S-wave (km/s) = 3.57180 4.08540 3.83720
# Velocity P-wave (km/s) = 5.85791 7.89095 6.94918
#
# Compressibility (1/GPa) = 0.03226624
#
# Stress axis : x y z
#
# Youngs Moduli (GPa) = 79.14747 24.47711 136.13820
#
# Poissons Ratio (x) = 0.15426 0.59061
# Poissons Ratio (y) = 0.49882 0.49602
# Poissons Ratio (z) = 0.34336 0.08918
#
# Static dielectric constant tensor:
#      x y z
#    x 1.596720 0.000000 0.009380 
#    y 0.000000 1.627040 0.000000 
#    z 0.009380 0.000000 1.627710 
# 
# From -- ./inp_files/281602.got.cif
#   From: 2010.05.17/outbox.cif.g08.bks.cpg/sg12_141_cif.got.tgz:281602.got - 2010.06.03 13:09:07.
