data_PCOD9180837
_publ_section_title
;
Structure prediction by ZEFSAII (Michael W. Deem and Ramdas Pophale) SiO2 
 PCOD9180837
Probable space group: C 2/M
;
_chemical_formula_sum "Si O2"
_cell_formula_units_Z 60
_cell_length_a 8.553034
_cell_length_b 30.604985
_cell_length_c 20.161485
_cell_angle_alpha 90.000000
_cell_angle_beta 39.027765
_cell_angle_gamma 90.000000
_cell_volume 3323.276312
_symmetry_space_group_name_H-M "C 2/M"
_symmetry_group_IT_number 12
_symmetry_cell_setting 'monoclinic'
loop_
_space_group_symop_operation_xyz
x,y,z
-x,y,-z
-x,-y,-z
x,-y,z
1/2+x,1/2+y,z
1/2-x,1/2+y,-z
1/2-x,1/2-y,-z
1/2+x,1/2-y,z
loop_
_atom_site_type_symbol
_atom_site_label
_atom_site_fract_x
_atom_site_fract_y
_atom_site_fract_z
Si Si1 0.024431 0.712754 0.353004
Si Si2 0.846710 0.547792 0.119524
Si Si3 0.778932 0.448740 0.880223
Si Si4 0.705949 0.365196 0.116690
Si Si5 0.500000 0.248611 0.500000
Si Si6 0.761502 0.218509 0.818855
Si Si7 0.707577 0.204898 0.093597
Si Si8 0.223267 0.363266 0.195875
O O1 0.079403 0.718653 0.412096
O O2 0.148813 0.754913 0.275018
O O3 0.105564 0.667154 0.292679
O O4 0.731532 0.720939 0.441779
O O5 0.732047 0.500000 0.168355
O O6 0.668071 0.588094 0.164054
O O7 0.032141 0.556936 0.119909
O O8 0.000000 0.544935 0.000000
O O9 0.790725 0.500000 0.856160
O O10 0.828308 0.413757 0.805418
O O11 0.500000 0.440607 0.000000
O O12 0.641209 0.328277 0.191708
O O13 0.519124 0.360602 0.115986
O O14 0.000000 0.362486 0.000000
O O15 0.463262 0.211283 0.913382
O O16 0.836287 0.251121 0.851540
O O17 0.629866 0.162627 0.161213
O O18 0.000000 0.200754 0.000000
#
# Coordination Sequence:
#
# PCOD9180837 Si02
#       8
#     8   8   8   8   4   8   8   8
#     4  10  21  36  54  76  98 128 163 212 266 317
#     4   9  18  31  45  64  93 134 182 218 242 273
#     4  10  19  32  51  75 107 146 181 211 244 285
#     4  11  20  30  46  68 101 142 175 206 247 291
#     4  10  20  38  58  72  96 126 164 210 274 336
#     4  11  20  32  47  69  99 129 169 210 249 301
#     4  11  20  30  44  64  99 140 173 203 238 287
#     4  11  21  33  49  75 104 132 176 218 251 295
#
# _framework density 18.054472000000001
#
# number of rings (size 3 to 8) (size 9 to 14) (size 15 to 20)
#    0.000    1.600    0.000    8.400    0.000    1.600 
#    0.000    0.000    0.000    0.000    0.000    0.933 
#    0.000    4.267    0.000    0.267    0.000    0.000 
#
# Total GULP energy -167087.811138 kJ/mol
# GULP energy per Si atom -5569.593705 kJ/mol
# Density = 1.801338 g / cm^3
# Si number density = 18.054472 Si / 1000 Ang^3
#
#
#
# Elastic Constant Matrix: (Units=GPa)
#
#
# Indices 1 2 3 4 5 6 
#
# 1 81.3230 34.5689 9.3000 0.0001 -7.3275 0.0003
# 2 34.5689 148.9564 28.6782 0.0000 15.0809 0.0000
# 3 9.3000 28.6782 39.3194 0.0002 7.0810 0.0009
# 4 0.0001 0.0000 0.0002 21.4876 -0.0001 21.2194
# 5 -7.3275 15.0809 7.0810 -0.0001 26.0431 -0.0005
# 6 0.0003 0.0000 0.0009 21.2194 -0.0005 112.9366
#
#
#
# Elastic Compliance Matrix: (Units=1/GPa)
#
#
# Indices 1 2 3 4 5 6 
#
# 1 0.014726 -0.003726 -0.001998 0.000000 0.006844 0.000000
# 2 -0.003726 0.009003 -0.004792 0.000000 -0.004959 0.000000
# 3 -0.001998 -0.004792 0.030495 0.000000 -0.006079 0.000000
# 4 0.000000 0.000000 0.000000 0.057140 0.000000 -0.010736
# 5 0.006844 -0.004959 -0.006079 0.000000 0.044848 0.000000
# 6 0.000000 0.000000 0.000000 -0.010736 0.000000 0.010872
#
#
# Mechanical properties :
#
#
# Convention : Reuss Voigt Hill
#
# Bulk Modulus (GPa) = 30.12793 46.07700 38.10247
# Shear Modulus (GPa) = 25.10315 45.23026 35.16670
#
# Velocity S-wave (km/s) = 3.73287 5.01064 4.41819
# Velocity P-wave (km/s) = 5.94159 7.68452 6.86856
#
# Compressibility (1/GPa) = 0.03319179
#
# Stress axis : x y z
#
# Youngs Moduli (GPa) = 67.90938 111.07894 32.79209
#
# Poissons Ratio (x) = 0.41384 0.06552
# Poissons Ratio (y) = 0.25300 0.15714
# Poissons Ratio (z) = 0.13569 0.53229
#
# Static dielectric constant tensor:
#      x y z
#    x 1.648400 0.000000 0.001330 
#    y 0.000000 1.664240 0.000000 
#    z 0.001330 0.000000 1.672020 
# 
# From -- ./inp_files/302760.got.cif
#   From: 2010.05.17/outbox.cif.g08.bks.cpg/sg12_152_cif.got.tgz:302760.got - 2010.06.03 13:09:07.
