data_PCOD9180218
_publ_section_title
;
Structure prediction by ZEFSAII (Michael W. Deem and Ramdas Pophale) SiO2 
 PCOD9180218
Probable space group: C 2/M
;
_chemical_formula_sum "Si O2"
_cell_formula_units_Z 52
_cell_length_a 8.241030
_cell_length_b 20.187470
_cell_length_c 20.726527
_cell_angle_alpha 90.000000
_cell_angle_beta 132.762469
_cell_angle_gamma 90.000000
_cell_volume 2531.566736
_symmetry_space_group_name_H-M "C 2/M"
_symmetry_group_IT_number 12
_symmetry_cell_setting 'monoclinic'
loop_
_space_group_symop_operation_xyz
x,y,z
-x,y,-z
-x,-y,-z
x,-y,z
1/2+x,1/2+y,z
1/2-x,1/2+y,-z
1/2-x,1/2-y,-z
1/2+x,1/2-y,z
loop_
_atom_site_type_symbol
_atom_site_label
_atom_site_fract_x
_atom_site_fract_y
_atom_site_fract_z
Si Si1 0.476764 0.500000 0.670539
Si Si2 0.641604 0.576971 0.100755
Si Si3 0.130974 0.577073 0.382452
Si Si4 0.156139 0.397575 0.238344
Si Si5 0.249834 0.129553 0.454294
Si Si6 0.556246 0.285597 0.712869
Si Si7 0.282214 0.652265 0.754141
O O1 0.658010 0.443032 0.743708
O O2 0.325611 0.559860 0.597762
O O3 0.596650 0.500000 0.104687
O O4 0.599845 0.623232 0.151194
O O5 0.904109 0.583243 0.157805
O O6 0.500000 0.594927 0.000000
O O7 0.171515 0.500000 0.406277
O O8 0.195671 0.589853 0.325788
O O9 0.250595 0.619701 0.468913
O O10 0.868371 0.592984 0.315199
O O11 0.211692 0.323362 0.233287
O O12 0.500000 0.143437 0.500000
O O13 0.094197 0.188277 0.386698
O O14 0.436613 0.313682 0.743696
O O15 0.603041 0.208119 0.725679
#
# Coordination Sequence:
#
# PCOD9180218 Si02
#       7
#     4   8   8   8   8   8   8
#     4  10  19  31  57  80 128 161 205 257 307 352
#     4  10  21  43  73 101 128 156 199 252 312 384
#     4  11  21  36  61  86 127 164 219 262 311 368
#     4  10  20  39  58  95 122 170 204 256 320 373
#     4  11  22  37  54  90 124 170 220 270 301 356
#     4  11  25  41  64  85 129 169 216 258 310 374
#     4  11  22  43  62  91 123 171 207 257 321 369
#
# _framework density 20.54064
#
# number of rings (size 3 to 8) (size 9 to 14) (size 15 to 20)
#    0.000    1.385    3.846    3.462    0.000    3.692 
#    5.538    3.846    0.000    1.846    0.000    0.000 
#    0.000    0.000    0.000    0.000    0.000    0.000 
#
# Total GULP energy -144772.868526 kJ/mol
# GULP energy per Si atom -5568.187251 kJ/mol
# Density = 2.049389 g / cm^3
# Si number density = 20.540640 Si / 1000 Ang^3
#
#
#
# Elastic Constant Matrix: (Units=GPa)
#
#
# Indices 1 2 3 4 5 6 
#
# 1 61.7173 7.0633 28.2140 0.0000 -4.4199 0.0001
# 2 7.0633 64.8499 28.3040 0.0000 -16.3220 0.0000
# 3 28.2140 28.3040 123.6455 0.0000 -21.9983 0.0000
# 4 0.0000 0.0000 0.0000 24.0977 0.0000 19.0905
# 5 -4.4199 -16.3220 -21.9983 0.0000 21.3129 0.0000
# 6 0.0001 0.0000 0.0000 19.0905 0.0000 62.8688
#
#
#
# Elastic Compliance Matrix: (Units=1/GPa)
#
#
# Indices 1 2 3 4 5 6 
#
# 1 0.018103 -0.000352 -0.004202 0.000000 -0.000853 0.000000
# 2 -0.000352 0.019596 -0.002142 0.000000 0.012723 0.000000
# 3 -0.004202 -0.002142 0.011135 0.000000 0.008981 0.000000
# 4 0.000000 0.000000 0.000000 0.054643 0.000000 -0.016593
# 5 -0.000853 0.012723 0.008981 0.000000 0.065757 0.000000
# 6 0.000000 0.000000 0.000000 -0.016593 0.000000 0.020945
#
#
# Mechanical properties :
#
#
# Convention : Reuss Voigt Hill
#
# Bulk Modulus (GPa) = 28.21552 41.93059 35.07306
# Shear Modulus (GPa) = 23.21444 34.09796 28.65620
#
# Velocity S-wave (km/s) = 3.36545 4.07876 3.73915
# Velocity P-wave (km/s) = 5.37289 6.52989 5.97944
#
# Compressibility (1/GPa) = 0.03544148
#
# Stress axis : x y z
#
# Youngs Moduli (GPa) = 55.23924 51.03180 89.81049
#
# Poissons Ratio (x) = 0.01798 0.37737
# Poissons Ratio (y) = 0.01947 0.19234
# Poissons Ratio (z) = 0.23211 0.10929
#
# Static dielectric constant tensor:
#      x y z
#    x 1.838320 0.000000 0.005520 
#    y 0.000000 1.704180 0.000000 
#    z 0.005520 0.000000 1.710750 
# 
# From -- ./inp_files/333795.got.cif
#   From: 2010.05.17/outbox.cif.g08.bks.cpg/sg12_167_cif.got.tgz:333795.got - 2010.06.03 13:09:07.
