data_PCOD9180666
_publ_section_title
;
Structure prediction by ZEFSAII (Michael W. Deem and Ramdas Pophale) SiO2 
 PCOD9180666
Probable space group: C 2/M
;
_chemical_formula_sum "Si O2"
_cell_formula_units_Z 56
_cell_length_a 19.655190
_cell_length_b 7.657737
_cell_length_c 18.817781
_cell_angle_alpha 90.000000
_cell_angle_beta 82.143433
_cell_angle_gamma 90.000000
_cell_volume 2805.758501
_symmetry_space_group_name_H-M "C 2/M"
_symmetry_group_IT_number 12
_symmetry_cell_setting 'monoclinic'
loop_
_space_group_symop_operation_xyz
x,y,z
-x,y,-z
-x,-y,-z
x,-y,z
1/2+x,1/2+y,z
1/2-x,1/2+y,-z
1/2-x,1/2-y,-z
1/2+x,1/2-y,z
loop_
_atom_site_type_symbol
_atom_site_label
_atom_site_fract_x
_atom_site_fract_y
_atom_site_fract_z
Si Si1 0.353386 0.705994 0.442326
Si Si2 0.669401 0.290107 0.007060
Si Si3 0.710326 0.711347 0.399524
Si Si4 0.114200 0.200424 0.294758
Si Si5 0.998668 0.299747 0.580504
Si Si6 0.552875 0.703612 0.925432
Si Si7 0.068976 0.784930 0.148524
O O1 0.366108 0.500000 0.445601
O O2 0.331515 0.771354 0.524263
O O3 0.288399 0.737367 0.401609
O O4 0.422731 0.793245 0.406558
O O5 0.663507 0.500000 0.005717
O O6 0.627115 0.233186 0.083058
O O7 0.750000 0.250000 0.000000
O O8 0.624709 0.222982 0.945605
O O9 0.706138 0.500000 0.400286
O O10 0.676276 0.778390 0.332128
O O11 0.090379 0.277305 0.223451
O O12 0.050932 0.203062 0.358719
O O13 0.133425 0.000000 0.276357
O O14 0.974757 0.500000 0.579934
O O15 0.000000 0.226750 0.500000
O O16 0.565661 0.500000 0.906264
O O17 0.505888 0.776601 0.868521
O O18 0.500000 0.707555 0.000000
O O19 0.066031 0.000000 0.148916
#
# Coordination Sequence:
#
# PCOD9180666 Si02
#       7
#     8   8   8   8   8   8   8
#     4  10  19  32  51  71  93 123 164 207 245 294
#     4   9  16  28  49  76 101 127 161 198 235 278
#     4   9  18  31  48  71  97 125 158 201 251 296
#     4  10  19  33  53  74  98 129 165 207 252 299
#     4  11  22  34  50  72  98 127 162 207 253 296
#     4   7  11  23  45  70  94 123 160 195 223 267
#     4   8  15  29  50  73  96 127 165 199 237 285
#
# _framework density 19.958953000000001
#
# number of rings (size 3 to 8) (size 9 to 14) (size 15 to 20)
#    0.000    2.857    1.429    2.571    0.000    1.714 
#    0.000    2.143    0.000    8.143    0.000    0.000 
#    0.000    0.000    0.000    0.000    0.000    0.000 
#
# Total GULP energy -156024.346752 kJ/mol
# GULP energy per Si atom -5572.298098 kJ/mol
# Density = 1.991353 g / cm^3
# Si number density = 19.958953 Si / 1000 Ang^3
#
#
#
# Elastic Constant Matrix: (Units=GPa)
#
#
# Indices 1 2 3 4 5 6 
#
# 1 144.8607 2.2595 60.3676 0.0000 37.4022 0.0000
# 2 2.2595 40.9278 6.0191 0.0000 6.2381 0.0000
# 3 60.3676 6.0191 115.7231 0.0000 43.8773 0.0000
# 4 0.0000 0.0000 0.0000 3.1895 0.0000 2.0892
# 5 37.4022 6.2381 43.8773 0.0000 35.2866 0.0000
# 6 0.0000 0.0000 0.0000 2.0892 0.0000 19.7600
#
#
#
# Elastic Compliance Matrix: (Units=1/GPa)
#
#
# Indices 1 2 3 4 5 6 
#
# 1 0.009835 0.000979 -0.002201 0.000000 -0.007861 0.000000
# 2 0.000979 0.025238 0.000495 0.000000 -0.006115 0.000000
# 3 -0.002201 0.000495 0.016862 0.000000 -0.018722 0.000000
# 4 0.000000 0.000000 0.000000 0.336855 0.000000 -0.035615
# 5 -0.007861 -0.006115 -0.018722 0.000000 0.061033 0.000000
# 6 0.000000 0.000000 0.000000 -0.035615 0.000000 0.054373
#
#
# Mechanical properties :
#
#
# Convention : Reuss Voigt Hill
#
# Bulk Modulus (GPa) = 19.80901 48.75600 34.28250
# Shear Modulus (GPa) = 9.56981 27.17158 18.37070
#
# Velocity S-wave (km/s) = 2.19207 3.69368 3.03714
# Velocity P-wave (km/s) = 4.04392 6.53240 5.43256
#
# Compressibility (1/GPa) = 0.05048208
#
# Stress axis : x y z
#
# Youngs Moduli (GPa) = 101.68140 39.62212 59.30388
#
# Poissons Ratio (x) = -0.03878 0.13051
# Poissons Ratio (y) = -0.09953 -0.02937
# Poissons Ratio (z) = 0.22377 -0.01962
#
# Static dielectric constant tensor:
#      x y z
#    x 1.725380 0.000000 0.052320 
#    y 0.000000 1.759090 0.000000 
#    z 0.052320 0.000000 1.709490 
# 
# From -- ./inp_files/280147.got.cif
#   From: 2010.05.17/outbox.cif.g08.bks.cpg/sg12_141_cif.got.tgz:280147.got - 2010.06.03 13:09:07.
