data_PCOD9180585
_publ_section_title
;
Structure prediction by ZEFSAII (Michael W. Deem and Ramdas Pophale) SiO2 
 PCOD9180585
Probable space group: C 2/M
;
_chemical_formula_sum "Si O2"
_cell_formula_units_Z 64
_cell_length_a 9.615295
_cell_length_b 18.481102
_cell_length_c 25.941903
_cell_angle_alpha 90.000000
_cell_angle_beta 137.278811
_cell_angle_gamma 90.000000
_cell_volume 3127.506735
_symmetry_space_group_name_H-M "C 2/M"
_symmetry_group_IT_number 12
_symmetry_cell_setting 'monoclinic'
loop_
_space_group_symop_operation_xyz
x,y,z
-x,y,-z
-x,-y,-z
x,-y,z
1/2+x,1/2+y,z
1/2-x,1/2+y,-z
1/2-x,1/2-y,-z
1/2+x,1/2-y,z
loop_
_atom_site_type_symbol
_atom_site_label
_atom_site_fract_x
_atom_site_fract_y
_atom_site_fract_z
Si Si1 0.754824 0.174598 0.619463
Si Si2 0.824243 0.581639 0.730112
Si Si3 0.227812 0.336202 0.501593
Si Si4 0.292860 0.848659 0.615077
Si Si5 0.777021 0.147885 0.737417
Si Si6 0.865128 0.295260 0.819406
Si Si7 0.677310 0.419910 0.146758
Si Si8 0.674252 0.276767 0.085804
O O1 0.515654 0.153270 0.558632
O O2 0.827047 0.145575 0.583678
O O3 0.767046 0.262451 0.619431
O O4 0.851725 0.147274 0.699005
O O5 0.758581 0.500000 0.721850
O O6 0.790148 0.633990 0.769220
O O7 0.074075 0.582395 0.790794
O O8 0.736434 0.610432 0.651903
O O9 0.250000 0.250000 0.500000
O O10 0.299331 0.367206 0.466366
O O11 0.533456 0.865325 0.672278
O O12 0.873178 0.096597 0.807108
O O13 0.797323 0.228725 0.764968
O O14 0.112922 0.291813 0.885304
O O15 0.791060 0.277684 0.856826
O O16 0.607472 0.500000 0.112537
O O17 0.602247 0.352607 0.092239
O O18 0.500000 0.250051 0.000000
#
# Coordination Sequence:
#
# PCOD9180585 Si02
#       8
#     8   8   8   8   8   8   8   8
#     4   9  14  23  39  61  91 117 152 195 238 281
#     4   9  16  28  46  67  92 123 160 198 234 276
#     4   8  15  23  35  60  91 119 150 193 238 281
#     4   9  15  25  40  65  94 118 160 195 242 276
#     4   9  16  25  44  67  92 123 151 199 239 277
#     4  10  19  32  50  74  99 123 158 198 237 281
#     4   8  16  29  45  68  95 121 154 194 233 276
#     4  10  20  33  52  75  98 126 154 191 239 283
#
# _framework density 20.463584000000001
#
# number of rings (size 3 to 8) (size 9 to 14) (size 15 to 20)
#    0.000    3.000    1.250    1.125    0.000    0.250 
#    0.000    0.000    0.000    4.125    0.000   12.250 
#    0.000    0.000    0.000    0.000    0.000    0.000 
#
# Total GULP energy -178335.133800 kJ/mol
# GULP energy per Si atom -5572.972931 kJ/mol
# Density = 2.041701 g / cm^3
# Si number density = 20.463584 Si / 1000 Ang^3
#
#
#
# Elastic Constant Matrix: (Units=GPa)
#
#
# Indices 1 2 3 4 5 6 
#
# 1 71.6290 6.3600 26.9519 0.0000 -6.3762 0.0000
# 2 6.3600 69.5580 11.5245 0.0000 -15.4704 0.0000
# 3 26.9519 11.5245 70.1927 0.0000 -22.2245 0.0000
# 4 0.0000 0.0000 0.0000 13.1946 0.0000 -2.7739
# 5 -6.3762 -15.4704 -22.2245 0.0000 16.2653 0.0000
# 6 0.0000 0.0000 0.0000 -2.7739 0.0000 13.1475
#
#
#
# Elastic Compliance Matrix: (Units=1/GPa)
#
#
# Indices 1 2 3 4 5 6 
#
# 1 0.016568 -0.001482 -0.007946 0.000000 -0.005772 0.000000
# 2 -0.001482 0.019172 0.005307 0.000000 0.024905 0.000000
# 3 -0.007946 0.005307 0.030030 0.000000 0.042964 0.000000
# 4 0.000000 0.000000 0.000000 0.079306 0.000000 0.016732
# 5 -0.005772 0.024905 0.042964 0.000000 0.141611 0.000000
# 6 0.000000 0.000000 0.000000 0.016732 0.000000 0.079590
#
#
# Mechanical properties :
#
#
# Convention : Reuss Voigt Hill
#
# Bulk Modulus (GPa) = 17.38299 33.45027 25.41663
# Shear Modulus (GPa) = 12.70015 19.62436 16.16226
#
# Velocity S-wave (km/s) = 2.49393 3.10012 2.81340
# Velocity P-wave (km/s) = 4.09951 5.40333 4.79593
#
# Compressibility (1/GPa) = 0.05752752
#
# Stress axis : x y z
#
# Youngs Moduli (GPa) = 60.35568 52.15973 33.30043
#
# Poissons Ratio (x) = 0.07731 0.26460
# Poissons Ratio (y) = 0.08946 -0.17672
# Poissons Ratio (z) = 0.47958 -0.27680
#
# Static dielectric constant tensor:
#      x y z
#    x 1.719490 0.000000 -0.003590 
#    y 0.000000 1.693300 0.000000 
#    z -0.003590 0.000000 1.765310 
# 
# From -- ./inp_files/358568.got.cif
#   From: 2010.05.17/outbox.cif.g08.bks.cpg/sg12_180_cif.got.tgz:358568.got - 2010.06.03 13:09:07.
