data_PCOD9180463
_publ_section_title
;
Structure prediction by ZEFSAII (Michael W. Deem and Ramdas Pophale) SiO2 
 PCOD9180463
Probable space group: C 2/M
;
_chemical_formula_sum "Si O2"
_cell_formula_units_Z 64
_cell_length_a 19.103665
_cell_length_b 13.671421
_cell_length_c 31.874505
_cell_angle_alpha 90.000000
_cell_angle_beta 153.461618
_cell_angle_gamma 90.000000
_cell_volume 3719.497446
_symmetry_space_group_name_H-M "C 2/M"
_symmetry_group_IT_number 12
_symmetry_cell_setting 'monoclinic'
loop_
_space_group_symop_operation_xyz
x,y,z
-x,y,-z
-x,-y,-z
x,-y,z
1/2+x,1/2+y,z
1/2-x,1/2+y,-z
1/2-x,1/2-y,-z
1/2+x,1/2-y,z
loop_
_atom_site_type_symbol
_atom_site_label
_atom_site_fract_x
_atom_site_fract_y
_atom_site_fract_z
Si Si1 0.035019 0.306628 0.893906
Si Si2 0.583169 0.882023 0.610783
Si Si3 0.242803 0.617312 0.611052
Si Si4 0.786989 0.755124 0.248669
Si Si5 0.832907 0.895748 0.030166
Si Si6 0.569604 0.381825 0.747225
Si Si7 0.564321 0.389186 0.078431
Si Si8 0.133423 0.615421 0.036436
O O1 0.086391 0.198690 0.905875
O O2 0.848581 0.312064 0.797607
O O3 0.146985 0.379254 0.928453
O O4 0.095470 0.324699 0.974235
O O5 0.410177 0.863493 0.499311
O O6 0.702965 0.853670 0.637415
O O7 0.616896 0.814573 0.668657
O O8 0.598518 0.000000 0.627158
O O9 0.256301 0.500000 0.620247
O O10 0.402824 0.652617 0.675981
O O11 0.883431 0.827616 0.270593
O O12 0.689481 0.681877 0.166273
O O13 0.917163 0.896887 0.030709
O O14 0.867586 0.000000 0.069820
O O15 0.568205 0.500000 0.740066
O O16 0.703130 0.361331 0.853550
O O17 0.627034 0.500000 0.106749
O O18 0.500000 0.352858 0.000000
O O19 0.132096 0.500000 0.024216
O O20 0.000000 0.628075 0.000000
#
# Coordination Sequence:
#
# PCOD9180463 Si02
#       8
#     8   8   8   8   8   8   8   8
#     4  10  20  31  47  70  99 133 174 216 252 298
#     4   9  18  36  59  81 104 130 166 217 276 322
#     4   8  17  36  59  80 104 130 165 220 274 320
#     4  11  21  30  51  79 105 137 168 215 256 317
#     4   9  19  32  45  63  90 130 173 213 252 291
#     4  10  21  33  50  79 107 140 178 216 261 307
#     4   9  19  34  49  67  98 140 178 211 250 297
#     4  10  19  32  50  69 100 140 175 209 249 297
#
# _framework density 17.206624999999999
#
# number of rings (size 3 to 8) (size 9 to 14) (size 15 to 20)
#    0.000    2.500    1.250    1.500    3.500    4.500 
#    0.000    3.750    0.000    0.000    0.000    1.750 
#    0.000    0.000    0.000    0.000    0.000    0.000 
#
# Total GULP energy -178293.848698 kJ/mol
# GULP energy per Si atom -5571.682772 kJ/mol
# Density = 1.716746 g / cm^3
# Si number density = 17.206625 Si / 1000 Ang^3
#
#
#
# Elastic Constant Matrix: (Units=GPa)
#
#
# Indices 1 2 3 4 5 6 
#
# 1 69.6386 27.1425 41.5420 -0.0002 16.0818 0.0000
# 2 27.1425 69.6488 26.4216 0.0004 -1.9001 0.0000
# 3 41.5420 26.4216 63.3097 0.0025 7.9562 -0.0001
# 4 -0.0002 0.0004 0.0025 11.9942 -0.0001 -0.6339
# 5 16.0818 -1.9001 7.9562 -0.0001 33.1354 -0.0001
# 6 0.0000 0.0000 -0.0001 -0.6339 -0.0001 25.8231
#
#
#
# Elastic Compliance Matrix: (Units=1/GPa)
#
#
# Indices 1 2 3 4 5 6 
#
# 1 0.027479 -0.005503 -0.014455 0.000003 -0.010181 0.000000
# 2 -0.005503 0.018411 -0.004682 0.000000 0.004851 0.000000
# 3 -0.014455 -0.004682 0.027207 -0.000006 0.000214 0.000000
# 4 0.000003 0.000000 -0.000006 0.083482 0.000000 0.002049
# 5 -0.010181 0.004851 0.000214 0.000000 0.035347 0.000000
# 6 0.000000 0.000000 0.000000 0.002049 0.000000 0.038775
#
#
# Mechanical properties :
#
#
# Convention : Reuss Voigt Hill
#
# Bulk Modulus (GPa) = 41.98669 43.64547 42.81608
# Shear Modulus (GPa) = 17.36595 21.35660 19.36128
#
# Velocity S-wave (km/s) = 3.18033 3.52687 3.35807
# Velocity P-wave (km/s) = 6.15958 6.48117 6.32242
#
# Compressibility (1/GPa) = 0.02381707
#
# Stress axis : x y z
#
# Youngs Moduli (GPa) = 36.39207 54.31583 36.75480
#
# Poissons Ratio (x) = 0.29889 0.53128
# Poissons Ratio (y) = 0.20026 0.17210
# Poissons Ratio (z) = 0.52603 0.25433
#
# Static dielectric constant tensor:
#      x y z
#    x 1.617600 0.000000 0.025800 
#    y 0.000000 1.630360 0.000000 
#    z 0.025800 0.000000 1.576040 
# 
# From -- ./inp_files/379367.got.cif
#   From: 2010.05.17/outbox.cif.g08.bks.cpg/sg12_190_cif.got.tgz:379367.got - 2010.06.03 13:09:07.
