data_PCOD9180450
_publ_section_title
;
Structure prediction by ZEFSAII (Michael W. Deem and Ramdas Pophale) SiO2 
 PCOD9180450
Probable space group: C 2/M
;
_chemical_formula_sum "Si O2"
_cell_formula_units_Z 56
_cell_length_a 7.869810
_cell_length_b 23.786136
_cell_length_c 14.361043
_cell_angle_alpha 90.000000
_cell_angle_beta 101.759665
_cell_angle_gamma 90.000000
_cell_volume 2631.853716
_symmetry_space_group_name_H-M "C 2/M"
_symmetry_group_IT_number 12
_symmetry_cell_setting 'monoclinic'
loop_
_space_group_symop_operation_xyz
x,y,z
-x,y,-z
-x,-y,-z
x,-y,z
1/2+x,1/2+y,z
1/2-x,1/2+y,-z
1/2-x,1/2-y,-z
1/2+x,1/2-y,z
loop_
_atom_site_type_symbol
_atom_site_label
_atom_site_fract_x
_atom_site_fract_y
_atom_site_fract_z
Si Si1 0.518799 0.627644 0.185630
Si Si2 0.151124 0.760518 0.763758
Si Si3 0.438644 0.840159 0.722812
Si Si4 0.187407 0.190312 0.054070
Si Si5 0.775720 0.433780 0.582877
Si Si6 0.614313 0.565630 0.375495
Si Si7 0.637077 0.880387 0.081894
O O1 0.483207 0.691550 0.217385
O O2 0.633959 0.634993 0.107362
O O3 0.617430 0.596440 0.278299
O O4 0.329737 0.600412 0.139696
O O5 0.276133 0.797430 0.714079
O O6 0.228853 0.734803 0.867393
O O7 0.084713 0.703687 0.708514
O O8 0.400750 0.892338 0.652554
O O9 0.454491 0.861326 0.832090
O O10 0.195902 0.330587 0.018025
O O11 0.000000 0.211822 0.000000
O O12 0.825189 0.500000 0.591601
O O13 0.584383 0.429187 0.609059
O O14 0.742897 0.415961 0.472327
O O15 0.647787 0.500000 0.365546
O O16 0.500000 0.913251 0.000000
#
# Coordination Sequence:
#
# PCOD9180450 Si02
#       7
#     8   8   8   8   8   8   8
#     4  10  20  33  51  78 115 140 179 228 276 329
#     4  11  20  32  48  80 116 150 176 220 276 332
#     4  11  21  34  54  82 120 145 185 230 277 331
#     4  10  21  33  48  75 116 152 189 219 267 327
#     4   9  18  35  62  87 104 137 191 243 279 323
#     4   9  17  34  62  85 101 135 190 241 279 325
#     4  10  19  32  49  78 109 149 187 223 260 322
#
# _framework density 21.277778999999999
#
# number of rings (size 3 to 8) (size 9 to 14) (size 15 to 20)
#    0.000    2.000    5.714    0.857    0.000    7.429 
#    0.000    0.714    3.143    7.286    0.000    2.000 
#    0.000    0.000    0.000    0.000    0.000    0.000 
#
# Total GULP energy -156095.899833 kJ/mol
# GULP energy per Si atom -5574.853565 kJ/mol
# Density = 2.122935 g / cm^3
# Si number density = 21.277779 Si / 1000 Ang^3
#
#
#
# Elastic Constant Matrix: (Units=GPa)
#
#
# Indices 1 2 3 4 5 6 
#
# 1 31.0557 2.7251 21.4420 0.0000 9.1583 0.0000
# 2 2.7251 48.9091 68.8084 0.0000 19.0253 0.0000
# 3 21.4420 68.8084 144.2239 0.0000 19.9979 0.0000
# 4 0.0000 0.0000 0.0000 59.9676 0.0000 28.0726
# 5 9.1583 19.0253 19.9979 0.0000 22.1636 0.0000
# 6 0.0000 0.0000 0.0000 28.0726 0.0000 51.6238
#
#
#
# Elastic Compliance Matrix: (Units=1/GPa)
#
#
# Indices 1 2 3 4 5 6 
#
# 1 0.061712 0.056794 -0.029690 0.000000 -0.047463 0.000000
# 2 0.056794 0.139664 -0.063093 0.000000 -0.086428 0.000000
# 3 -0.029690 -0.063093 0.036848 0.000000 0.033179 0.000000
# 4 0.000000 0.000000 0.000000 0.022370 0.000000 -0.012165
# 5 -0.047463 -0.086428 0.033179 0.000000 0.108984 0.000000
# 6 0.000000 0.000000 0.000000 -0.012165 0.000000 0.025986
#
#
# Mechanical properties :
#
#
# Convention : Reuss Voigt Hill
#
# Bulk Modulus (GPa) = 6.01512 45.57109 25.79311
# Shear Modulus (GPa) = 9.56100 35.49855 22.52977
#
# Velocity S-wave (km/s) = 2.12207 4.08896 3.25751
# Velocity P-wave (km/s) = 2.97276 6.61487 5.12805
#
# Compressibility (1/GPa) = 0.16624763
#
# Stress axis : x y z
#
# Youngs Moduli (GPa) = 16.20419 7.16004 27.13834
#
# Poissons Ratio (x) = -0.40664 0.80573
# Poissons Ratio (y) = -0.92030 1.71223
# Poissons Ratio (z) = 0.48110 0.45175
#
# Static dielectric constant tensor:
#      x y z
#    x 1.926080 0.000000 0.043640 
#    y 0.000000 1.737820 0.000000 
#    z 0.043640 0.000000 1.806270 
# 
# From -- ./inp_files/198512.got.cif
#   From: 2010.05.17/outbox.cif.g08.bks.cpg/sg12_100_cif.got.tgz:198512.got - 2010.06.03 13:09:07.
