data_PCOD9180299
_publ_section_title
;
Structure prediction by ZEFSAII (Michael W. Deem and Ramdas Pophale) SiO2 
 PCOD9180299
Probable space group: C 2/M
;
_chemical_formula_sum "Si O2"
_cell_formula_units_Z 40
_cell_length_a 20.126818
_cell_length_b 20.058946
_cell_length_c 5.022768
_cell_angle_alpha 90.000000
_cell_angle_beta 69.442663
_cell_angle_gamma 90.000000
_cell_volume 1898.677624
_symmetry_space_group_name_H-M "C 2/M"
_symmetry_group_IT_number 12
_symmetry_cell_setting 'monoclinic'
loop_
_space_group_symop_operation_xyz
x,y,z
-x,y,-z
-x,-y,-z
x,-y,z
1/2+x,1/2+y,z
1/2-x,1/2+y,-z
1/2-x,1/2-y,-z
1/2+x,1/2-y,z
loop_
_atom_site_type_symbol
_atom_site_label
_atom_site_fract_x
_atom_site_fract_y
_atom_site_fract_z
Si Si1 0.620770 0.000000 0.803719
Si Si2 0.571719 0.268417 0.510092
Si Si3 0.213621 0.357241 0.074222
Si Si4 0.714858 0.000000 0.158591
Si Si5 0.329502 0.262107 0.147123
Si Si6 0.564746 0.119502 0.582543
O O1 0.645089 0.000000 0.070067
O O2 0.579540 0.067502 0.793912
O O3 0.688681 0.000000 0.502454
O O4 0.500000 0.302781 0.500000
O O5 0.625873 0.289242 0.666902
O O6 0.546357 0.196574 0.665354
O O7 0.619770 0.264037 0.180791
O O8 0.261964 0.307613 0.177847
O O9 0.138455 0.372072 0.319485
O O10 0.250131 0.430046 0.022203
O O11 0.196818 0.315677 0.827147
O O12 0.500000 0.092746 0.500000
#
# Coordination Sequence:
#
# PCOD9180299 Si02
#       6
#     4   8   8   4   8   8
#     4  10  19  32  48  68 100 140 174 202 238 284
#     4  10  20  34  53  77 102 131 169 212 259 308
#     4   9  20  34  52  77 105 137 174 210 254 299
#     4  10  20  34  51  72 101 134 171 210 245 296
#     4  10  20  34  54  77 105 135 167 212 257 303
#     4   9  18  32  49  72 104 139 173 207 242 289
#
# _framework density 21.067295000000001
#
# number of rings (size 3 to 8) (size 9 to 14) (size 15 to 20)
#    0.000    2.400    0.000    2.100    0.000   10.400 
#    0.000   14.000    0.000    0.000    0.000    4.200 
#    0.000    0.000    0.000    0.000    0.000    0.000 
#
# Total GULP energy -111491.537387 kJ/mol
# GULP energy per Si atom -5574.576869 kJ/mol
# Density = 2.101934 g / cm^3
# Si number density = 21.067295 Si / 1000 Ang^3
#
#
#
# Elastic Constant Matrix: (Units=GPa)
#
#
# Indices 1 2 3 4 5 6 
#
# 1 115.1400 21.7789 33.5703 0.0000 16.2325 0.0000
# 2 21.7789 88.3167 5.9446 0.0000 -3.2753 0.0000
# 3 33.5703 5.9446 88.2131 0.0000 2.4274 0.0000
# 4 0.0000 0.0000 0.0000 9.7741 0.0000 7.1799
# 5 16.2325 -3.2753 2.4274 0.0000 31.2768 0.0000
# 6 0.0000 0.0000 0.0000 7.1799 0.0000 21.3399
#
#
#
# Elastic Compliance Matrix: (Units=1/GPa)
#
#
# Indices 1 2 3 4 5 6 
#
# 1 0.011146 -0.002700 -0.003901 0.000000 -0.005765 0.000000
# 2 -0.002700 0.012078 0.000140 0.000000 0.002655 0.000000
# 3 -0.003901 0.000140 0.012782 0.000000 0.001047 0.000000
# 4 0.000000 0.000000 0.000000 0.135899 0.000000 -0.045724
# 5 -0.005765 0.002655 0.001047 0.000000 0.035161 0.000000
# 6 0.000000 0.000000 0.000000 -0.045724 0.000000 0.062245
#
#
# Mechanical properties :
#
#
# Convention : Reuss Voigt Hill
#
# Bulk Modulus (GPa) = 43.31781 46.02861 44.67321
# Shear Modulus (GPa) = 17.24571 27.83655 22.54113
#
# Velocity S-wave (km/s) = 2.86422 3.63893 3.27457
# Velocity P-wave (km/s) = 5.61646 6.28901 5.96222
#
# Compressibility (1/GPa) = 0.02308519
#
# Stress axis : x y z
#
# Youngs Moduli (GPa) = 89.71946 82.79746 78.23200
#
# Poissons Ratio (x) = 0.22353 0.30519
# Poissons Ratio (y) = 0.24222 -0.01099
# Poissons Ratio (z) = 0.35000 -0.01163
#
# Static dielectric constant tensor:
#      x y z
#    x 1.807890 0.000000 0.026870 
#    y 0.000000 1.882520 0.000000 
#    z 0.026870 0.000000 1.790990 
# 
# From -- ./inp_files/15808.got.cif
#   From: 2010.05.17/outbox.cif.g08.bks.cpg/sg12_8_cif.got.tgz:15808.got - 2010.06.03 13:09:07.
