data_PCOD9180711
_publ_section_title
;
Structure prediction by ZEFSAII (Michael W. Deem and Ramdas Pophale) SiO2 
 PCOD9180711
Probable space group: C 2/M
;
_chemical_formula_sum "Si O2"
_cell_formula_units_Z 56
_cell_length_a 10.063787
_cell_length_b 12.931550
_cell_length_c 21.074701
_cell_angle_alpha 90.000000
_cell_angle_beta 113.505668
_cell_angle_gamma 90.000000
_cell_volume 2515.084289
_symmetry_space_group_name_H-M "C 2/M"
_symmetry_group_IT_number 12
_symmetry_cell_setting 'monoclinic'
loop_
_space_group_symop_operation_xyz
x,y,z
-x,y,-z
-x,-y,-z
x,-y,z
1/2+x,1/2+y,z
1/2-x,1/2+y,-z
1/2-x,1/2-y,-z
1/2+x,1/2-y,z
loop_
_atom_site_type_symbol
_atom_site_label
_atom_site_fract_x
_atom_site_fract_y
_atom_site_fract_z
Si Si1 0.641106 0.382077 0.307592
Si Si2 0.889869 0.116540 0.039188
Si Si3 0.260466 0.839446 0.201844
Si Si4 0.373863 0.160448 0.092811
Si Si5 0.814205 0.387678 0.791605
Si Si6 0.058765 0.334140 0.315823
Si Si7 0.045453 0.378327 0.576055
O O1 0.611847 0.500000 0.320497
O O2 0.644283 0.373820 0.231520
O O3 0.542237 0.289889 0.312799
O O4 0.798603 0.346489 0.365761
O O5 0.904623 0.217149 0.086855
O O6 0.915979 0.000000 0.069159
O O7 0.720470 0.122922 0.984667
O O8 0.000000 0.131219 0.000000
O O9 0.266676 0.869489 0.130456
O O10 0.261450 0.715221 0.198884
O O11 0.408299 0.879336 0.261367
O O12 0.528564 0.115431 0.143461
O O13 0.747437 0.500000 0.790281
O O14 0.833272 0.369133 0.719156
O O15 0.073637 0.365302 0.391364
O O16 0.064570 0.500000 0.569999
O O17 0.000000 0.330911 0.500000
#
# Coordination Sequence:
#
# PCOD9180711 Si02
#       7
#     8   8   8   8   8   8   8
#     4   9  18  32  50  72  98 128 162 199 240 288
#     4  10  21  36  53  72  97 129 162 197 238 287
#     4   9  19  33  49  72  98 123 156 199 241 285
#     4  10  20  35  52  73  98 125 161 200 240 287
#     4  10  19  32  51  73  96 124 158 197 243 290
#     4   9  18  32  49  72 100 128 160 201 244 283
#     4   9  17  30  49  72  98 131 169 204 239 283
#
# _framework density 22.265654999999999
#
# number of rings (size 3 to 8) (size 9 to 14) (size 15 to 20)
#    0.000    2.571    0.000    1.714    0.000    5.714 
#    0.000    8.571    0.000    5.143    0.000    0.000 
#    0.000    0.000    0.000    0.000    0.000    0.000 
#
# Total GULP energy -155966.909870 kJ/mol
# GULP energy per Si atom -5570.246781 kJ/mol
# Density = 2.221498 g / cm^3
# Si number density = 22.265655 Si / 1000 Ang^3
#
#
#
# Elastic Constant Matrix: (Units=GPa)
#
#
# Indices 1 2 3 4 5 6 
#
# 1 28.7049 -3.1095 12.2679 0.0000 9.3994 0.0000
# 2 -3.1095 117.2322 19.5662 0.0000 10.3316 0.0000
# 3 12.2679 19.5662 77.2634 0.0000 -2.0491 0.0000
# 4 0.0000 0.0000 0.0000 10.5961 0.0000 6.2096
# 5 9.3994 10.3316 -2.0491 0.0000 15.8501 0.0000
# 6 0.0000 0.0000 0.0000 6.2096 0.0000 9.1985
#
#
#
# Elastic Compliance Matrix: (Units=1/GPa)
#
#
# Indices 1 2 3 4 5 6 
#
# 1 0.052129 0.006413 -0.010869 0.000000 -0.036499 0.000000
# 2 0.006413 0.010329 -0.003927 0.000000 -0.011044 0.000000
# 3 -0.010869 -0.003927 0.015957 0.000000 0.011068 0.000000
# 4 0.000000 0.000000 0.000000 0.156147 0.000000 -0.105410
# 5 -0.036499 -0.011044 0.011068 0.000000 0.093365 0.000000
# 6 0.000000 0.000000 0.000000 -0.105410 0.000000 0.179872
#
#
# Mechanical properties :
#
#
# Convention : Reuss Voigt Hill
#
# Bulk Modulus (GPa) = 16.22093 31.18332 23.70212
# Shear Modulus (GPa) = 9.17241 20.09399 14.63320
#
# Velocity S-wave (km/s) = 2.03186 3.00737 2.56639
# Velocity P-wave (km/s) = 3.57850 5.10828 4.41022
#
# Compressibility (1/GPa) = 0.06164876
#
# Stress axis : x y z
#
# Youngs Moduli (GPa) = 19.18329 96.81627 62.67030
#
# Poissons Ratio (x) = -0.62092 0.68117
# Poissons Ratio (y) = -0.12303 0.24610
# Poissons Ratio (z) = 0.20851 0.38019
#
# Static dielectric constant tensor:
#      x y z
#    x 1.891980 0.000000 0.038050 
#    y 0.000000 1.846870 0.000000 
#    z 0.038050 0.000000 1.861740 
# 
# From -- ./inp_files/304143.got.cif
#   From: 2010.05.17/outbox.cif.g08.bks.cpg/sg12_153_cif.got.tgz:304143.got - 2010.06.03 13:09:07.
