data_PCOD9180099
_publ_section_title
;
Structure prediction by ZEFSAII (Michael W. Deem and Ramdas Pophale) SiO2 
 PCOD9180099
Probable space group: C 2/M
;
_chemical_formula_sum "Si O2"
_cell_formula_units_Z 64
_cell_length_a 21.624683
_cell_length_b 18.102850
_cell_length_c 11.667079
_cell_angle_alpha 90.000000
_cell_angle_beta 48.214507
_cell_angle_gamma 90.000000
_cell_volume 3405.577743
_symmetry_space_group_name_H-M "C 2/M"
_symmetry_group_IT_number 12
_symmetry_cell_setting 'monoclinic'
loop_
_space_group_symop_operation_xyz
x,y,z
-x,y,-z
-x,-y,-z
x,-y,z
1/2+x,1/2+y,z
1/2-x,1/2+y,-z
1/2-x,1/2-y,-z
1/2+x,1/2-y,z
loop_
_atom_site_type_symbol
_atom_site_label
_atom_site_fract_x
_atom_site_fract_y
_atom_site_fract_z
Si Si1 0.153569 0.263815 0.122309
Si Si2 0.197130 0.415323 0.166632
Si Si3 0.148804 0.301366 0.550300
Si Si4 0.879471 0.853994 0.997951
Si Si5 0.565723 0.917612 0.521473
Si Si6 0.584223 0.706491 0.430804
Si Si7 0.959511 0.085422 0.331249
Si Si8 0.340216 0.336066 0.310903
O O1 0.147645 0.350580 0.159370
O O2 0.126126 0.207024 0.256413
O O3 0.250000 0.250000 0.000000
O O4 0.115654 0.230466 0.054277
O O5 0.190253 0.500000 0.131512
O O6 0.293238 0.391528 0.061207
O O7 0.153527 0.414986 0.345062
O O8 0.076740 0.359756 0.610273
O O9 0.144025 0.249627 0.442942
O O10 0.240244 0.336107 0.444291
O O11 0.134665 0.245687 0.673227
O O12 0.872455 0.852109 0.143611
O O13 0.958307 0.893748 0.843264
O O14 0.500000 0.906439 0.500000
O O15 0.550822 0.000000 0.584231
O O16 0.500000 0.749161 0.500000
O O17 0.553388 0.635612 0.539432
O O18 0.882721 0.106178 0.343986
O O19 0.961482 0.000000 0.358981
#
# Coordination Sequence:
#
# PCOD9180099 Si02
#       8
#     8   8   8   8   8   8   8   8
#     4  10  20  35  59  85 117 158 197 240 296 361
#     4  10  20  33  55  86 119 150 189 246 309 357
#     4  10  19  36  57  78 113 149 195 247 296 348
#     4  11  20  38  56  83 117 164 203 241 293 360
#     4  10  19  31  53  85 114 141 185 248 312 361
#     4  11  20  38  60  88 115 152 194 247 301 355
#     4  11  25  39  58  87 122 160 200 246 297 355
#     4  10  22  36  56  80 111 159 208 244 282 343
#
# _framework density 18.7927
#
# number of rings (size 3 to 8) (size 9 to 14) (size 15 to 20)
#    0.000    1.625    3.750    1.875    0.000    2.250 
#    0.000    0.625    0.000    0.750    0.000    0.000 
#    0.000    6.250    0.000    0.000    0.000    0.000 
#
# Total GULP energy -178167.623232 kJ/mol
# GULP energy per Si atom -5567.738226 kJ/mol
# Density = 1.874993 g / cm^3
# Si number density = 18.792700 Si / 1000 Ang^3
#
#
#
# Elastic Constant Matrix: (Units=GPa)
#
#
# Indices 1 2 3 4 5 6 
#
# 1 70.0412 16.9562 6.6128 0.0000 -6.3399 0.0000
# 2 16.9562 109.2530 1.7804 0.0000 6.3856 0.0000
# 3 6.6128 1.7804 68.9029 0.0000 -6.6021 0.0000
# 4 0.0000 0.0000 0.0000 13.7227 0.0000 -3.1274
# 5 -6.3399 6.3856 -6.6021 0.0000 31.2979 0.0000
# 6 0.0000 0.0000 0.0000 -3.1274 0.0000 22.5096
#
#
#
# Elastic Compliance Matrix: (Units=1/GPa)
#
#
# Indices 1 2 3 4 5 6 
#
# 1 0.015305 -0.002556 -0.001078 0.000000 0.003395 0.000000
# 2 -0.002556 0.009703 -0.000250 0.000000 -0.002550 0.000000
# 3 -0.001078 -0.000250 0.014908 0.000000 0.002977 0.000000
# 4 0.000000 0.000000 0.000000 0.075255 0.000000 0.010456
# 5 0.003395 -0.002550 0.002977 0.000000 0.033787 0.000000
# 6 0.000000 0.000000 0.000000 0.010456 0.000000 0.045878
#
#
# Mechanical properties :
#
#
# Convention : Reuss Voigt Hill
#
# Bulk Modulus (GPa) = 31.10482 33.21066 32.15774
# Shear Modulus (GPa) = 23.43893 28.36252 25.90072
#
# Velocity S-wave (km/s) = 3.53545 3.88910 3.71648
# Velocity P-wave (km/s) = 5.76658 6.15445 5.96367
#
# Compressibility (1/GPa) = 0.03214936
#
# Stress axis : x y z
#
# Youngs Moduli (GPa) = 65.33752 103.06176 67.07651
#
# Poissons Ratio (x) = 0.26345 0.07228
# Poissons Ratio (y) = 0.16702 0.01675
# Poissons Ratio (z) = 0.07040 0.02574
#
# Static dielectric constant tensor:
#      x y z
#    x 1.666340 0.000000 -0.014210 
#    y 0.000000 1.718300 0.000000 
#    z -0.014210 0.000000 1.653790 
# 
# From -- ./inp_files/168781.got.cif
#   From: 2010.05.17/outbox.cif.g08.bks.cpg/sg12_85_cif.got.tgz:168781.got - 2010.06.03 13:09:07.
