data_PCOD9180737
_publ_section_title
;
Structure prediction by ZEFSAII (Michael W. Deem and Ramdas Pophale) SiO2 
 PCOD9180737
Probable space group: C 2/M
;
_chemical_formula_sum "Si O2"
_cell_formula_units_Z 56
_cell_length_a 24.387690
_cell_length_b 11.073572
_cell_length_c 15.502613
_cell_angle_alpha 90.000000
_cell_angle_beta 60.578760
_cell_angle_gamma 90.000000
_cell_volume 3646.677024
_symmetry_space_group_name_H-M "C 2/M"
_symmetry_group_IT_number 12
_symmetry_cell_setting 'monoclinic'
loop_
_space_group_symop_operation_xyz
x,y,z
-x,y,-z
-x,-y,-z
x,-y,z
1/2+x,1/2+y,z
1/2-x,1/2+y,-z
1/2-x,1/2-y,-z
1/2+x,1/2-y,z
loop_
_atom_site_type_symbol
_atom_site_label
_atom_site_fract_x
_atom_site_fract_y
_atom_site_fract_z
Si Si1 0.348651 0.773122 0.974933
Si Si2 0.638997 0.752661 0.734549
Si Si3 0.697035 0.355897 0.528694
Si Si4 0.272369 0.641542 0.682774
Si Si5 0.570400 0.358922 0.945238
Si Si6 0.576210 0.000000 0.835089
Si Si7 0.790559 0.143779 0.860456
Si Si8 0.925945 0.500000 0.956993
O O1 0.334682 0.710147 0.894953
O O2 0.394769 0.886114 0.935546
O O3 0.383677 0.689055 0.016484
O O4 0.281205 0.816519 0.063831
O O5 0.645169 0.687925 0.637293
O O6 0.709721 0.780317 0.714271
O O7 0.602428 0.669421 0.829765
O O8 0.604250 0.881733 0.767322
O O9 0.713846 0.500000 0.532223
O O10 0.750000 0.250000 0.500000
O O11 0.684527 0.349423 0.435733
O O12 0.252523 0.500000 0.704437
O O13 0.302703 0.673316 0.750795
O O14 0.563830 0.500000 0.963579
O O15 0.500000 0.302067 0.000000
O O16 0.500798 0.000000 0.891517
O O17 0.592491 0.000000 0.925878
O O18 0.795458 0.000000 0.868614
#
# Coordination Sequence:
#
# PCOD9180737 Si02
#       8
#     8   8   8   8   8   4   8   4
#     4  11  20  32  49  71 103 132 171 214 250 313
#     4  11  18  31  49  74 105 133 173 213 262 311
#     4   9  19  31  51  75 105 139 174 216 264 317
#     4   9  16  31  50  73 100 131 168 210 251 307
#     4  11  22  33  46  69 103 139 170 210 262 312
#     4  11  20  30  56  77  99 143 173 219 258 304
#     4  10  19  32  51  73  99 136 169 205 261 308
#     4  11  20  34  50  77 103 133 186 213 251 306
#
# _framework density 15.356446
#
# number of rings (size 3 to 8) (size 9 to 14) (size 15 to 20)
#    0.000    1.714    4.286    1.714    1.000    0.000 
#    0.000    0.000    1.571    0.000    0.000    5.000 
#    0.000   16.000    0.000    0.000    0.000    0.000 
#
# Total GULP energy -155909.536779 kJ/mol
# GULP energy per Si atom -5568.197742 kJ/mol
# Density = 1.532149 g / cm^3
# Si number density = 15.356446 Si / 1000 Ang^3
#
#
#
# Elastic Constant Matrix: (Units=GPa)
#
#
# Indices 1 2 3 4 5 6 
#
# 1 80.9075 35.6776 51.5387 0.0000 11.1800 0.0000
# 2 35.6776 85.7408 36.1610 0.0000 10.1399 0.0000
# 3 51.5387 36.1610 124.6036 0.0000 17.8720 0.0000
# 4 0.0000 0.0000 0.0000 30.1121 0.0000 0.6198
# 5 11.1800 10.1399 17.8720 0.0000 20.6920 0.0000
# 6 0.0000 0.0000 0.0000 0.6198 0.0000 16.4598
#
#
#
# Elastic Compliance Matrix: (Units=1/GPa)
#
#
# Indices 1 2 3 4 5 6 
#
# 1 0.018673 -0.004975 -0.005915 0.000000 -0.002542 0.000000
# 2 -0.004975 0.014858 -0.001821 0.000000 -0.003020 0.000000
# 3 -0.005915 -0.001821 0.011887 0.000000 -0.006178 0.000000
# 4 0.000000 0.000000 0.000000 0.033235 0.000000 -0.001252
# 5 -0.002542 -0.003020 -0.006178 0.000000 0.056518 0.000000
# 6 0.000000 0.000000 0.000000 -0.001252 0.000000 0.060801
#
#
# Mechanical properties :
#
#
# Convention : Reuss Voigt Hill
#
# Bulk Modulus (GPa) = 50.01001 59.77850 54.89426
# Shear Modulus (GPa) = 21.92415 24.64442 23.28429
#
# Velocity S-wave (km/s) = 3.78257 4.01037 3.89814
# Velocity P-wave (km/s) = 7.19124 7.77534 7.48899
#
# Compressibility (1/GPa) = 0.01999600
#
# Stress axis : x y z
#
# Youngs Moduli (GPa) = 53.55411 67.30235 84.12715
#
# Poissons Ratio (x) = 0.33480 0.49762
# Poissons Ratio (y) = 0.26641 0.15321
# Poissons Ratio (z) = 0.31678 0.12257
#
# Static dielectric constant tensor:
#      x y z
#    x 1.501100 0.000000 -0.006950 
#    y 0.000000 1.596360 0.000000 
#    z -0.006950 0.000000 1.525960 
# 
# From -- ./inp_files/239289.got.cif
#   From: 2010.05.17/outbox.cif.g08.bks.cpg/sg12_120_cif.got.tgz:239289.got - 2010.06.03 13:09:07.
