data_PCOD9180433
_publ_section_title
;
Structure prediction by ZEFSAII (Michael W. Deem and Ramdas Pophale) SiO2 
 PCOD9180433
Probable space group: C 2/M
;
_chemical_formula_sum "Si O2"
_cell_formula_units_Z 56
_cell_length_a 24.053352
_cell_length_b 14.471987
_cell_length_c 7.052163
_cell_angle_alpha 90.000000
_cell_angle_beta 80.369634
_cell_angle_gamma 90.000000
_cell_volume 2420.261479
_symmetry_space_group_name_H-M "C 2/M"
_symmetry_group_IT_number 12
_symmetry_cell_setting 'monoclinic'
loop_
_space_group_symop_operation_xyz
x,y,z
-x,y,-z
-x,-y,-z
x,-y,z
1/2+x,1/2+y,z
1/2-x,1/2+y,-z
1/2-x,1/2-y,-z
1/2+x,1/2-y,z
loop_
_atom_site_type_symbol
_atom_site_label
_atom_site_fract_x
_atom_site_fract_y
_atom_site_fract_z
Si Si1 0.572348 0.290574 0.797150
Si Si2 0.064678 0.399653 0.380170
Si Si3 0.345280 0.397135 0.758891
Si Si4 0.047253 0.799299 0.242130
Si Si5 0.635375 0.892568 0.717831
Si Si6 0.254519 0.225093 0.222223
Si Si7 0.682027 0.604410 0.769341
O O1 0.519612 0.300714 0.688133
O O2 0.589523 0.183225 0.812173
O O3 0.626066 0.351139 0.711994
O O4 0.555066 0.321395 0.015900
O O5 0.070039 0.500000 0.278071
O O6 0.068607 0.304947 0.264210
O O7 0.114346 0.396444 0.509997
O O8 0.000000 0.399377 0.500000
O O9 0.332877 0.500000 0.700954
O O10 0.409654 0.369793 0.689088
O O11 0.303731 0.322486 0.694160
O O12 0.331027 0.395056 0.994781
O O13 0.694104 0.844239 0.750366
O O14 0.633485 0.000000 0.783858
O O15 0.267754 0.324841 0.301609
O O16 0.250000 0.250000 0.000000
O O17 0.693580 0.500000 0.708895
#
# Coordination Sequence:
#
# PCOD9180433 Si02
#       7
#     8   8   8   8   8   8   8
#     4   9  18  30  49  77 104 133 172 219 267 308
#     4  10  20  35  53  74 104 142 179 213 260 321
#     4   9  17  30  48  71 101 137 172 209 256 311
#     4  10  19  32  49  74 107 137 171 217 265 310
#     4  10  19  33  55  79 103 139 181 215 258 315
#     4   9  17  31  51  77 103 131 172 218 256 298
#     4   8  15  28  47  72 102 132 166 211 260 308
#
# _framework density 23.137995
#
# number of rings (size 3 to 8) (size 9 to 14) (size 15 to 20)
#    0.000    2.714    1.429    1.286    0.000    1.714 
#    0.000    5.714    0.000    3.857    0.000    0.000 
#    0.000    0.000    0.000    0.000    0.000    0.000 
#
# Total GULP energy -156146.105999 kJ/mol
# GULP energy per Si atom -5576.646643 kJ/mol
# Density = 2.308533 g / cm^3
# Si number density = 23.137995 Si / 1000 Ang^3
#
#
#
# Elastic Constant Matrix: (Units=GPa)
#
#
# Indices 1 2 3 4 5 6 
#
# 1 116.5539 71.1260 27.4289 0.0000 32.9921 0.0000
# 2 71.1260 182.7638 15.6613 0.0000 21.4517 0.0000
# 3 27.4289 15.6613 91.2533 0.0000 21.5037 0.0000
# 4 0.0000 0.0000 0.0000 -7.9786 0.0000 -5.4632
# 5 32.9921 21.4517 21.5037 0.0000 31.7711 0.0000
# 6 0.0000 0.0000 0.0000 -5.4632 0.0000 21.4827
#
#
#
# Elastic Compliance Matrix: (Units=1/GPa)
#
#
# Indices 1 2 3 4 5 6 
#
# 1 0.014746 -0.004274 -0.000917 0.000000 -0.011806 0.000000
# 2 -0.004274 0.007182 0.000177 0.000000 -0.000531 0.000000
# 3 -0.000917 0.000177 0.013096 0.000000 -0.008032 0.000000
# 4 0.000000 0.000000 0.000000 -0.106747 0.000000 -0.027147
# 5 -0.011806 -0.000531 -0.008032 0.000000 0.049529 0.000000
# 6 0.000000 0.000000 0.000000 -0.027147 0.000000 0.039645
#
#
# Mechanical properties :
#
#
# Convention : Reuss Voigt Hill
#
# Bulk Modulus (GPa) = 40.00550 68.77817 54.39184
# Shear Modulus (GPa) = 139.62233 27.47870 83.55051
#
# Velocity S-wave (km/s) = 7.77652 3.44990 6.01565
# Velocity P-wave (km/s) = 9.89747 6.75713 8.47404
#
# Compressibility (1/GPa) = 0.02499656
#
# Stress axis : x y z
#
# Youngs Moduli (GPa) = 67.81684 139.23574 76.35754
#
# Poissons Ratio (x) = 0.59513 0.06999
# Poissons Ratio (y) = 0.28987 -0.01353
# Poissons Ratio (z) = 0.06216 -0.02467
#
# Static dielectric constant tensor:
#      x y z
#    x 1.868530 0.000000 0.010420 
#    y 0.000000 1.823530 0.000000 
#    z 0.010420 0.000000 1.982460 
# 
# From -- ./inp_files/96452.got.cif
#   From: 2010.05.17/outbox.cif.g08.bks.cpg/sg12_49_cif.got.tgz:96452.got - 2010.06.03 13:09:07.
