data_PCOD9180871
_publ_section_title
;
Structure prediction by ZEFSAII (Michael W. Deem and Ramdas Pophale) SiO2 
 PCOD9180871
Probable space group: C 2/M
;
_chemical_formula_sum "Si O2"
_cell_formula_units_Z 64
_cell_length_a 30.149497
_cell_length_b 8.671929
_cell_length_c 15.913407
_cell_angle_alpha 90.000000
_cell_angle_beta 118.177963
_cell_angle_gamma 90.000000
_cell_volume 3667.532318
_symmetry_space_group_name_H-M "C 2/M"
_symmetry_group_IT_number 12
_symmetry_cell_setting 'monoclinic'
loop_
_space_group_symop_operation_xyz
x,y,z
-x,y,-z
-x,-y,-z
x,-y,z
1/2+x,1/2+y,z
1/2-x,1/2+y,-z
1/2-x,1/2-y,-z
1/2+x,1/2-y,z
loop_
_atom_site_type_symbol
_atom_site_label
_atom_site_fract_x
_atom_site_fract_y
_atom_site_fract_z
Si Si1 0.926761 0.684061 0.767719
Si Si2 0.175842 0.183912 0.389305
Si Si3 0.728669 0.684013 0.612001
Si Si4 0.691185 0.313449 0.061090
Si Si5 0.203328 0.315038 0.768850
Si Si6 0.409998 0.685310 0.936900
Si Si7 0.039819 0.315029 0.851656
Si Si8 0.366206 0.685162 0.157154
O O1 0.921395 0.500000 0.760087
O O2 0.880265 0.760202 0.678178
O O3 0.924310 0.739480 0.861982
O O4 0.981912 0.725173 0.782194
O O5 0.215026 0.259534 0.359228
O O6 0.195511 0.224365 0.500161
O O7 0.178858 0.000000 0.382128
O O8 0.728494 0.500000 0.621674
O O9 0.708050 0.762158 0.677250
O O10 0.693071 0.500000 0.060862
O O11 0.745642 0.258329 0.138496
O O12 0.647195 0.272610 0.087577
O O13 0.671667 0.262856 0.952157
O O14 0.201703 0.500000 0.771619
O O15 0.156231 0.245802 0.776301
O O16 0.413291 0.500000 0.933937
O O17 0.444265 0.743478 0.044303
O O18 0.044198 0.500000 0.860767
O O19 0.079585 0.250786 0.820148
O O20 0.368176 0.500000 0.158066
#
# Coordination Sequence:
#
# PCOD9180871 Si02
#       8
#     8   8   8   8   8   8   8   8
#     4  11  22  34  52  77 105 137 174 217 263 313
#     4  10  21  37  57  80 107 137 170 210 257 312
#     4  10  21  37  56  80 109 138 169 208 257 311
#     4   8  17  31  47  72 104 136 170 207 247 295
#     4  11  20  32  53  78 105 138 175 214 258 309
#     4  10  19  32  51  76 107 141 177 214 254 306
#     4  10  21  36  51  72 104 140 178 218 262 309
#     4  10  20  35  52  72 102 139 179 220 260 303
#
# _framework density 17.450424999999999
#
# number of rings (size 3 to 8) (size 9 to 14) (size 15 to 20)
#    0.000    2.000    0.000    4.875    0.000    6.000 
#    0.000    6.250    0.000    0.750    0.000    5.250 
#    0.000    0.000    0.000    0.000    0.000    0.000 
#
# Total GULP energy -178719.141480 kJ/mol
# GULP energy per Si atom -5584.973171 kJ/mol
# Density = 1.741071 g / cm^3
# Si number density = 17.450425 Si / 1000 Ang^3
#
#
#
# Elastic Constant Matrix: (Units=GPa)
#
#
# Indices 1 2 3 4 5 6 
#
# 1 116.0103 22.4055 57.7610 0.0000 0.7976 0.0000
# 2 22.4055 26.3571 11.6570 0.0000 0.8238 0.0000
# 3 57.7610 11.6570 49.7158 0.0000 3.2454 0.0000
# 4 0.0000 0.0000 0.0000 26.6386 0.0000 -1.7031
# 5 0.7976 0.8238 3.2454 0.0000 29.6435 0.0000
# 6 0.0000 0.0000 0.0000 -1.7031 0.0000 28.7881
#
#
#
# Elastic Compliance Matrix: (Units=1/GPa)
#
#
# Indices 1 2 3 4 5 6 
#
# 1 0.022088 -0.008292 -0.023865 0.000000 0.002249 0.000000
# 2 -0.008292 0.045443 -0.000960 0.000000 -0.000935 0.000000
# 3 -0.023865 -0.000960 0.048369 0.000000 -0.004627 0.000000
# 4 0.000000 0.000000 0.000000 0.037682 0.000000 0.002229
# 5 0.002249 -0.000935 -0.004627 0.000000 0.034206 0.000000
# 6 0.000000 0.000000 0.000000 0.002229 0.000000 0.034868
#
#
# Mechanical properties :
#
#
# Convention : Reuss Voigt Hill
#
# Bulk Modulus (GPa) = 20.13486 41.74779 30.94133
# Shear Modulus (GPa) = 16.36943 23.69803 20.03373
#
# Velocity S-wave (km/s) = 3.06609 3.68913 3.39194
# Velocity P-wave (km/s) = 4.90896 6.49013 5.75412
#
# Compressibility (1/GPa) = 0.04966511
#
# Stress axis : x y z
#
# Youngs Moduli (GPa) = 45.27257 22.00551 20.67448
#
# Poissons Ratio (x) = 0.18247 0.49340
# Poissons Ratio (y) = 0.37541 0.01985
# Poissons Ratio (z) = 1.08045 0.02113
#
# Static dielectric constant tensor:
#      x y z
#    x 1.588840 0.000000 0.010820 
#    y 0.000000 1.585210 0.000000 
#    z 0.010820 0.000000 1.581890 
# 
# From -- ./inp_files/249182.got.cif
#   From: 2010.05.17/outbox.cif.g08.bks.cpg/sg12_125_cif.got.tgz:249182.got - 2010.06.03 13:09:07.
