data_PCOD9180295
_publ_section_title
;
Structure prediction by ZEFSAII (Michael W. Deem and Ramdas Pophale) SiO2 
 PCOD9180295
Probable space group: C 2/M
;
_chemical_formula_sum "Si O2"
_cell_formula_units_Z 52
_cell_length_a 9.355121
_cell_length_b 30.100601
_cell_length_c 7.909982
_cell_angle_alpha 90.000000
_cell_angle_beta 74.426033
_cell_angle_gamma 90.000000
_cell_volume 2145.629408
_symmetry_space_group_name_H-M "C 2/M"
_symmetry_group_IT_number 12
_symmetry_cell_setting 'monoclinic'
loop_
_space_group_symop_operation_xyz
x,y,z
-x,y,-z
-x,-y,-z
x,-y,z
1/2+x,1/2+y,z
1/2-x,1/2+y,-z
1/2-x,1/2-y,-z
1/2+x,1/2-y,z
loop_
_atom_site_type_symbol
_atom_site_label
_atom_site_fract_x
_atom_site_fract_y
_atom_site_fract_z
Si Si1 0.577578 0.357609 0.152119
Si Si2 0.821057 0.887062 0.442652
Si Si3 0.082382 0.550478 0.656732
Si Si4 0.604902 0.267856 0.768927
Si Si5 0.000000 0.305174 0.000000
Si Si6 0.350306 0.191807 0.505342
Si Si7 0.359150 0.120059 0.858430
O O1 0.491927 0.383590 0.329173
O O2 0.524500 0.305349 0.186081
O O3 0.500000 0.370371 0.000000
O O4 0.744628 0.372174 0.052744
O O5 0.741200 0.926317 0.568689
O O6 0.766964 0.840772 0.547335
O O7 0.735109 0.884814 0.285483
O O8 0.099955 0.500000 0.710635
O O9 0.000000 0.549487 0.500000
O O10 0.974736 0.579363 0.810859
O O11 0.620713 0.231406 0.909936
O O12 0.600176 0.235834 0.608034
O O13 0.758019 0.293364 0.698393
O O14 0.038944 0.336755 0.141315
O O15 0.500000 0.166011 0.500000
#
# Coordination Sequence:
#
# PCOD9180295 Si02
#       7
#     8   8   8   8   4   8   8
#     4   9  18  34  49  72 102 136 171 208 263 297
#     4   9  17  34  54  74  98 133 169 215 266 301
#     4   9  17  33  58  84 100 126 173 217 262 316
#     4  10  21  31  45  72  98 135 179 214 241 302
#     4  12  22  32  47  76 108 140 181 200 252 314
#     4  10  19  32  48  66  97 133 173 215 252 285
#     4  10  21  33  53  74 106 140 163 218 263 308
#
# _framework density 24.235312
#
# number of rings (size 3 to 8) (size 9 to 14) (size 15 to 20)
#    0.000    2.308    0.769    3.231    2.154    0.615 
#    0.000    1.154    0.000    4.615    0.000    1.077 
#    0.000    0.000    0.000    0.000    0.000    0.000 
#
# Total GULP energy -144933.591271 kJ/mol
# GULP energy per Si atom -5574.368895 kJ/mol
# Density = 2.418015 g / cm^3
# Si number density = 24.235312 Si / 1000 Ang^3
#
#
#
# Elastic Constant Matrix: (Units=GPa)
#
#
# Indices 1 2 3 4 5 6 
#
# 1 68.4050 29.7317 35.3926 0.0000 -25.7822 0.0000
# 2 29.7317 178.5758 86.7886 0.0000 -35.0898 0.0000
# 3 35.3926 86.7886 155.3035 0.0000 -36.4581 0.0000
# 4 0.0000 0.0000 0.0000 35.6676 0.0000 -5.6270
# 5 -25.7822 -35.0898 -36.4581 0.0000 56.7538 0.0000
# 6 0.0000 0.0000 0.0000 -5.6270 0.0000 22.0718
#
#
#
# Elastic Compliance Matrix: (Units=1/GPa)
#
#
# Indices 1 2 3 4 5 6 
#
# 1 0.018576 -0.000683 -0.002319 0.000000 0.006526 0.000000
# 2 -0.000683 0.007988 -0.003794 0.000000 0.002191 0.000000
# 3 -0.002319 -0.003794 0.009762 0.000000 0.002872 0.000000
# 4 0.000000 0.000000 0.000000 0.029211 0.000000 0.007447
# 5 0.006526 0.002191 0.002872 0.000000 0.023784 0.000000
# 6 0.000000 0.000000 0.000000 0.007447 0.000000 0.047205
#
#
# Mechanical properties :
#
#
# Convention : Reuss Voigt Hill
#
# Bulk Modulus (GPa) = 43.98963 78.45667 61.22315
# Shear Modulus (GPa) = 31.70642 39.59006 35.64824
#
# Velocity S-wave (km/s) = 3.62093 4.04613 3.83942
# Velocity P-wave (km/s) = 5.97260 7.36691 6.70609
#
# Compressibility (1/GPa) = 0.02273263
#
# Stress axis : x y z
#
# Youngs Moduli (GPa) = 53.83425 125.18733 102.43977
#
# Poissons Ratio (x) = 0.08551 0.23761
# Poissons Ratio (y) = 0.03677 0.38864
# Poissons Ratio (z) = 0.12487 0.47494
#
# Static dielectric constant tensor:
#      x y z
#    x 1.982800 0.000000 0.038360 
#    y 0.000000 1.895300 0.000000 
#    z 0.038360 0.000000 2.157310 
# 
# From -- ./inp_files/137397.got.cif
#   From: 2010.05.17/outbox.cif.g08.bks.cpg/sg12_69_cif.got.tgz:137397.got - 2010.06.03 13:09:07.
