data_PCOD9180588
_publ_section_title
;
Structure prediction by ZEFSAII (Michael W. Deem and Ramdas Pophale) SiO2 
 PCOD9180588
Probable space group: C 2/M
;
_chemical_formula_sum "Si O2"
_cell_formula_units_Z 64
_cell_length_a 17.894275
_cell_length_b 9.696733
_cell_length_c 21.599169
_cell_angle_alpha 90.000000
_cell_angle_beta 58.337855
_cell_angle_gamma 90.000000
_cell_volume 3189.971652
_symmetry_space_group_name_H-M "C 2/M"
_symmetry_group_IT_number 12
_symmetry_cell_setting 'monoclinic'
loop_
_space_group_symop_operation_xyz
x,y,z
-x,y,-z
-x,-y,-z
x,-y,z
1/2+x,1/2+y,z
1/2-x,1/2+y,-z
1/2-x,1/2-y,-z
1/2+x,1/2-y,z
loop_
_atom_site_type_symbol
_atom_site_label
_atom_site_fract_x
_atom_site_fract_y
_atom_site_fract_z
Si Si1 0.493440 0.155137 0.076604
Si Si2 0.728531 0.348821 0.107210
Si Si3 0.653823 0.652196 0.003628
Si Si4 0.385170 0.660313 0.206174
Si Si5 0.269756 0.840618 0.341072
Si Si6 0.080998 0.339233 0.618367
Si Si7 0.035676 0.842547 0.246869
Si Si8 0.594280 0.338643 0.490718
O O1 0.580100 0.239736 0.055415
O O2 0.413884 0.244760 0.136819
O O3 0.491837 0.000000 0.102834
O O4 0.500000 0.147767 0.000000
O O5 0.764226 0.500000 0.112597
O O6 0.709486 0.364426 0.042073
O O7 0.635895 0.323465 0.181210
O O8 0.792657 0.218647 0.076435
O O9 0.617903 0.500000 0.003822
O O10 0.370868 0.500000 0.197639
O O11 0.304029 0.732857 0.275770
O O12 0.468154 0.666675 0.218231
O O13 0.337023 0.829984 0.369782
O O14 0.172628 0.812412 0.408312
O O15 0.274270 0.000000 0.316625
O O16 0.063615 0.500000 0.614416
O O17 0.102395 0.258302 0.546533
O O18 0.999363 0.264920 0.687764
O O19 0.028445 0.000000 0.273969
O O20 0.500000 0.318670 0.500000
O O21 0.601702 0.500000 0.506199
#
# Coordination Sequence:
#
# PCOD9180588 Si02
#       8
#     8   8   8   8   8   8   8   8
#     4  11  23  37  53  74 104 144 186 227 274 328
#     4   9  17  31  50  75 105 136 171 214 268 323
#     4  10  19  32  50  75 102 133 176 221 269 320
#     4  10  19  34  56  82 107 136 179 228 279 325
#     4   9  19  36  58  85 113 143 184 228 274 330
#     4  10  20  33  54  85 115 143 181 231 280 323
#     4   9  17  32  53  78 109 141 177 222 271 325
#     4  10  21  38  59  82 112 152 189 220 266 330
#
# _framework density 20.062874000000001
#
# number of rings (size 3 to 8) (size 9 to 14) (size 15 to 20)
#    0.000    2.250    1.250    1.875    0.000    3.750 
#    0.000    1.250    0.000    3.000    0.000    0.000 
#    0.000    0.000    0.000    0.000    0.000    0.000 
#
# Total GULP energy -178545.688481 kJ/mol
# GULP energy per Si atom -5579.552765 kJ/mol
# Density = 2.001721 g / cm^3
# Si number density = 20.062874 Si / 1000 Ang^3
#
#
#
# Elastic Constant Matrix: (Units=GPa)
#
#
# Indices 1 2 3 4 5 6 
#
# 1 18.3287 35.2239 22.3974 0.0000 -10.7842 0.0000
# 2 35.2239 171.0834 92.5420 0.0000 -16.7466 0.0000
# 3 22.3974 92.5420 119.3650 0.0000 -32.8273 0.0000
# 4 0.0000 0.0000 0.0000 57.6318 0.0000 -53.0470
# 5 -10.7842 -16.7466 -32.8273 0.0000 22.0944 0.0000
# 6 0.0000 0.0000 0.0000 -53.0470 0.0000 139.7232
#
#
#
# Elastic Compliance Matrix: (Units=1/GPa)
#
#
# Indices 1 2 3 4 5 6 
#
# 1 0.128179 -0.028695 0.015929 0.000000 0.064481 0.000000
# 2 -0.028695 0.017115 -0.013813 0.000000 -0.021556 0.000000
# 3 0.015929 -0.013813 0.025967 0.000000 0.035886 0.000000
# 4 0.000000 0.000000 0.000000 0.026672 0.000000 0.010126
# 5 0.064481 -0.021556 0.035886 0.000000 0.113713 0.000000
# 6 0.000000 0.000000 0.000000 0.010126 0.000000 0.011002
#
#
# Mechanical properties :
#
#
# Convention : Reuss Voigt Hill
#
# Bulk Modulus (GPa) = 8.46719 67.67817 38.07268
# Shear Modulus (GPa) = 12.04317 54.46415 33.25366
#
# Velocity S-wave (km/s) = 2.45270 5.21591 4.07562
# Velocity P-wave (km/s) = 3.50007 8.37141 6.41603
#
# Compressibility (1/GPa) = 0.11810296
#
# Stress axis : x y z
#
# Youngs Moduli (GPa) = 7.80157 58.42988 38.51043
#
# Poissons Ratio (x) = 1.67664 -0.61342
# Poissons Ratio (y) = 0.22387 0.53194
# Poissons Ratio (z) = -0.12427 0.80708
#
# Static dielectric constant tensor:
#      x y z
#    x 1.745910 0.000000 0.001260 
#    y 0.000000 1.750730 0.000000 
#    z 0.001260 0.000000 1.696300 
# 
# From -- ./inp_files/346071.got.cif
#   From: 2010.05.17/outbox.cif.g08.bks.cpg/sg12_174_cif.got.tgz:346071.got - 2010.06.03 13:09:07.
