data_PCOD9180435
_publ_section_title
;
Structure prediction by ZEFSAII (Michael W. Deem and Ramdas Pophale) SiO2 
 PCOD9180435
Probable space group: C 2/M
;
_chemical_formula_sum "Si O2"
_cell_formula_units_Z 60
_cell_length_a 23.922904
_cell_length_b 13.911911
_cell_length_c 22.590011
_cell_angle_alpha 90.000000
_cell_angle_beta 25.476035
_cell_angle_gamma 90.000000
_cell_volume 3233.854198
_symmetry_space_group_name_H-M "C 2/M"
_symmetry_group_IT_number 12
_symmetry_cell_setting 'monoclinic'
loop_
_space_group_symop_operation_xyz
x,y,z
-x,y,-z
-x,-y,-z
x,-y,z
1/2+x,1/2+y,z
1/2-x,1/2+y,-z
1/2-x,1/2-y,-z
1/2+x,1/2-y,z
loop_
_atom_site_type_symbol
_atom_site_label
_atom_site_fract_x
_atom_site_fract_y
_atom_site_fract_z
Si Si1 0.245942 0.389211 0.726640
Si Si2 0.953451 0.884930 0.181984
Si Si3 0.757631 0.884707 0.134594
Si Si4 0.759542 0.384899 0.525639
Si Si5 0.010135 0.711613 0.620550
Si Si6 0.161247 0.110613 0.496417
Si Si7 0.860162 0.191180 0.154130
Si Si8 0.000000 0.225306 0.500000
O O1 0.220954 0.500000 0.766708
O O2 0.266842 0.384198 0.635587
O O3 0.146175 0.306529 0.840631
O O4 0.379261 0.346340 0.625919
O O5 0.881960 0.860829 0.311374
O O6 0.856332 0.843180 0.224960
O O7 0.955078 0.000000 0.173872
O O8 0.103340 0.854102 0.027506
O O9 0.630411 0.832265 0.231045
O O10 0.764671 0.853823 0.197200
O O11 0.745655 0.000000 0.141265
O O12 0.773998 0.500000 0.514949
O O13 0.875749 0.341716 0.453088
O O14 0.752841 0.357327 0.463020
O O15 0.035098 0.822565 0.613430
O O16 0.027680 0.712498 0.532197
O O17 0.125545 0.000000 0.540757
O O18 0.000000 0.154686 0.000000
#
# Coordination Sequence:
#
# PCOD9180435 Si02
#       8
#     8   8   8   8   8   8   8   4
#     4  10  19  33  53  76 101 135 174 214 256 302
#     4   9  18  33  54  74 103 142 176 204 253 318
#     4  10  20  34  50  75 108 141 169 208 260 316
#     4  10  20  35  55  81 104 136 177 219 257 303
#     4  11  20  33  53  80 108 137 170 219 262 302
#     4   9  20  36  55  75 103 138 179 218 257 304
#     4  10  19  33  50  73 106 141 174 206 251 314
#     4  10  19  32  49  74 108 136 167 202 267 314
#
# _framework density 18.553712000000001
#
# number of rings (size 3 to 8) (size 9 to 14) (size 15 to 20)
#    0.000    2.133    1.333    3.000    0.000    2.400 
#    0.000    1.333    0.000    0.000    0.000    3.733 
#    0.000    0.000    0.000    0.000    0.000    0.000 
#
# Total GULP energy -167092.444064 kJ/mol
# GULP energy per Si atom -5569.748135 kJ/mol
# Density = 1.851148 g / cm^3
# Si number density = 18.553712 Si / 1000 Ang^3
#
#
#
# Elastic Constant Matrix: (Units=GPa)
#
#
# Indices 1 2 3 4 5 6 
#
# 1 96.5914 27.7325 26.4501 0.0004 -18.4586 -0.0001
# 2 27.7325 59.1250 23.0314 0.0006 -10.7472 -0.0003
# 3 26.4501 23.0314 54.4058 0.0005 -25.3947 -0.0002
# 4 0.0004 0.0006 0.0005 24.2951 -0.0002 -4.7230
# 5 -18.4586 -10.7472 -25.3947 -0.0002 19.7696 0.0001
# 6 -0.0001 -0.0003 -0.0002 -4.7230 0.0001 26.9401
#
#
#
# Elastic Compliance Matrix: (Units=1/GPa)
#
#
# Indices 1 2 3 4 5 6 
#
# 1 0.013610 -0.004559 0.000219 0.000000 0.010511 0.000000
# 2 -0.004559 0.021780 -0.008651 0.000000 -0.003528 0.000000
# 3 0.000219 -0.008651 0.049538 0.000000 0.059136 0.000000
# 4 0.000000 0.000000 0.000000 0.042613 0.000000 0.007471
# 5 0.010511 -0.003528 0.059136 0.000000 0.134441 0.000000
# 6 0.000000 0.000000 0.000000 0.007471 0.000000 0.038429
#
#
# Mechanical properties :
#
#
# Convention : Reuss Voigt Hill
#
# Bulk Modulus (GPa) = 16.96398 40.50559 28.73478
# Shear Modulus (GPa) = 14.44913 23.06151 18.75532
#
# Velocity S-wave (km/s) = 2.79368 3.52939 3.18286
# Velocity P-wave (km/s) = 4.42371 6.20385 5.38781
#
# Compressibility (1/GPa) = 0.05894843
#
# Stress axis : x y z
#
# Youngs Moduli (GPa) = 73.47320 45.91373 20.18636
#
# Poissons Ratio (x) = 0.20931 -0.00442
# Poissons Ratio (y) = 0.33494 0.17463
# Poissons Ratio (z) = -0.01610 0.39718
#
# Static dielectric constant tensor:
#      x y z
#    x 1.683270 0.000000 0.017420 
#    y 0.000000 1.654140 0.000000 
#    z 0.017420 0.000000 1.653350 
# 
# From -- ./inp_files/322118.got.cif
#   From: 2010.05.17/outbox.cif.g08.bks.cpg/sg12_162_cif.got.tgz:322118.got - 2010.06.03 13:09:07.
