data_PCOD9180872
_publ_section_title
;
Structure prediction by ZEFSAII (Michael W. Deem and Ramdas Pophale) SiO2 
 PCOD9180872
Probable space group: C 2/M
;
_chemical_formula_sum "Si O2"
_cell_formula_units_Z 64
_cell_length_a 29.193202
_cell_length_b 8.896840
_cell_length_c 32.013739
_cell_angle_alpha 90.000000
_cell_angle_beta 152.851555
_cell_angle_gamma 90.000000
_cell_volume 3794.040356
_symmetry_space_group_name_H-M "C 2/M"
_symmetry_group_IT_number 12
_symmetry_cell_setting 'monoclinic'
loop_
_space_group_symop_operation_xyz
x,y,z
-x,y,-z
-x,-y,-z
x,-y,z
1/2+x,1/2+y,z
1/2-x,1/2+y,-z
1/2-x,1/2-y,-z
1/2+x,1/2-y,z
loop_
_atom_site_type_symbol
_atom_site_label
_atom_site_fract_x
_atom_site_fract_y
_atom_site_fract_z
Si Si1 0.325220 0.819036 0.168602
Si Si2 0.612516 0.178831 0.691372
Si Si3 0.887162 0.819061 0.396955
Si Si4 0.248369 0.680124 0.361634
Si Si5 0.464400 0.320297 0.688200
Si Si6 0.951511 0.819130 0.774355
Si Si7 0.321297 0.319364 0.022554
Si Si8 0.388570 0.820796 0.544579
O O1 0.322236 0.778395 0.215049
O O2 0.422678 0.739292 0.228195
O O3 0.228430 0.782697 0.062432
O O4 0.342198 0.000000 0.180394
O O5 0.638539 0.259801 0.669703
O O6 0.497099 0.211383 0.611167
O O7 0.620318 0.000000 0.691607
O O8 0.810776 0.771602 0.371274
O O9 0.000000 0.767224 0.500000
O O10 0.888326 0.000000 0.397013
O O11 0.249935 0.500000 0.365014
O O12 0.135686 0.740969 0.270427
O O13 0.304766 0.746848 0.447767
O O14 0.462321 0.500000 0.681681
O O15 0.436503 0.283065 0.713098
O O16 0.395967 0.245110 0.597174
O O17 0.944632 0.000000 0.773148
O O18 0.063730 0.771362 0.878378
O O19 0.319345 0.500000 0.025811
O O20 0.250000 0.250000 0.000000
O O21 0.375337 0.000000 0.535552
#
# Coordination Sequence:
#
# PCOD9180872 Si02
#       8
#     8   8   8   8   8   8   8   8
#     4   9  18  32  52  80 110 137 171 217 262 308
#     4   9  18  31  51  80 106 133 169 210 261 313
#     4  10  20  35  54  77 104 133 171 220 266 310
#     4  11  23  37  54  76 103 140 179 218 268 317
#     4  10  19  32  51  76 107 141 179 214 254 309
#     4  10  22  37  52  76 108 143 179 218 262 310
#     4  10  19  34  56  80 108 140 177 220 263 306
#     4  10  20  34  52  76 107 141 177 214 257 310
#
# _framework density 16.868561
#
# number of rings (size 3 to 8) (size 9 to 14) (size 15 to 20)
#    0.000    2.125    2.500    1.875    0.000    5.250 
#    0.000    0.000    0.000    0.750    0.000    5.250 
#    0.000    0.000    0.000    0.000    0.000    0.000 
#
# Total GULP energy -178575.895782 kJ/mol
# GULP energy per Si atom -5580.496743 kJ/mol
# Density = 1.683017 g / cm^3
# Si number density = 16.868561 Si / 1000 Ang^3
#
#
#
# Elastic Constant Matrix: (Units=GPa)
#
#
# Indices 1 2 3 4 5 6 
#
# 1 113.4133 33.6615 73.8343 0.0001 -0.7411 0.0001
# 2 33.6615 20.9637 32.5413 0.0000 2.4216 0.0004
# 3 73.8343 32.5413 118.6395 0.0001 -1.6738 0.0001
# 4 0.0001 0.0000 0.0001 23.8792 0.0000 -0.0837
# 5 -0.7411 2.4216 -1.6738 0.0000 23.6890 0.0000
# 6 0.0001 0.0004 0.0001 -0.0837 0.0000 28.3269
#
#
#
# Elastic Compliance Matrix: (Units=1/GPa)
#
#
# Indices 1 2 3 4 5 6 
#
# 1 0.019173 -0.021938 -0.005880 0.000000 0.002427 0.000000
# 2 -0.021938 0.110665 -0.016887 0.000000 -0.013192 -0.000001
# 3 -0.005880 -0.016887 0.016759 0.000000 0.002726 0.000000
# 4 0.000000 0.000000 0.000000 0.041878 0.000000 0.000124
# 5 0.002427 -0.013192 0.002726 0.000000 0.043831 0.000000
# 6 0.000000 -0.000001 0.000000 0.000124 0.000000 0.035303
#
#
# Mechanical properties :
#
#
# Convention : Reuss Voigt Hill
#
# Bulk Modulus (GPa) = 17.48702 59.23229 38.35965
# Shear Modulus (GPa) = 13.29501 22.71097 18.00299
#
# Velocity S-wave (km/s) = 2.81045 3.67324 3.27043
# Velocity P-wave (km/s) = 4.57391 7.29250 6.08692
#
# Compressibility (1/GPa) = 0.05718528
#
# Stress axis : x y z
#
# Youngs Moduli (GPa) = 52.15723 9.03628 59.66989
#
# Poissons Ratio (x) = 0.19824 0.35088
# Poissons Ratio (y) = 1.14424 1.00765
# Poissons Ratio (z) = 0.30671 0.15260
#
# Static dielectric constant tensor:
#      x y z
#    x 1.558500 0.000000 -0.009640 
#    y 0.000000 1.565460 0.000000 
#    z -0.009640 0.000000 1.575290 
# 
# From -- ./inp_files/244011.got.cif
#   From: 2010.05.17/outbox.cif.g08.bks.cpg/sg12_123_cif.got.tgz:244011.got - 2010.06.03 13:09:07.
