data_PCOD9181239
_publ_section_title
;
Structure prediction by ZEFSAII (Michael W. Deem and Ramdas Pophale) SiO2 
 PCOD9181239
Probable space group: C 2/M
;
_chemical_formula_sum "Si O2"
_cell_formula_units_Z 64
_cell_length_a 29.753470
_cell_length_b 7.606741
_cell_length_c 14.535096
_cell_angle_alpha 90.000000
_cell_angle_beta 120.547172
_cell_angle_gamma 90.000000
_cell_volume 2833.111906
_symmetry_space_group_name_H-M "C 2/M"
_symmetry_group_IT_number 12
_symmetry_cell_setting 'monoclinic'
loop_
_space_group_symop_operation_xyz
x,y,z
-x,y,-z
-x,-y,-z
x,-y,z
1/2+x,1/2+y,z
1/2-x,1/2+y,-z
1/2-x,1/2-y,-z
1/2+x,1/2-y,z
loop_
_atom_site_type_symbol
_atom_site_label
_atom_site_fract_x
_atom_site_fract_y
_atom_site_fract_z
Si Si1 0.298222 0.708335 0.616409
Si Si2 0.382132 0.211453 0.960943
Si Si3 0.093312 0.203502 0.353904
Si Si4 0.044158 0.711874 0.118648
Si Si5 0.797711 0.788814 0.119058
Si Si6 0.411868 0.292964 0.185690
Si Si7 0.490321 0.716067 0.595159
Si Si8 0.272332 0.209298 0.799475
O O1 0.305216 0.500000 0.629629
O O2 0.250000 0.750000 0.500000
O O3 0.352585 0.782123 0.629852
O O4 0.281639 0.765161 0.701518
O O5 0.403874 0.259473 0.884037
O O6 0.323497 0.280620 0.905185
O O7 0.382494 0.000000 0.965090
O O8 0.417103 0.272319 0.081632
O O9 0.051241 0.211732 0.226864
O O10 0.063293 0.277141 0.411707
O O11 0.104829 0.000000 0.387121
O O12 0.039761 0.500000 0.123650
O O13 0.000000 0.767652 0.000000
O O14 0.854517 0.717672 0.150249
O O15 0.778630 0.726037 0.200127
O O16 0.802931 0.000000 0.125365
O O17 0.750000 0.750000 0.000000
O O18 0.410732 0.500000 0.205056
O O19 0.460503 0.221583 0.292935
O O20 0.500000 0.767140 0.500000
O O21 0.488905 0.500000 0.596179
O O22 0.272622 0.000000 0.813659
#
# Coordination Sequence:
#
# PCOD9181239 Si02
#       8
#     8   8   8   8   8   8   8   8
#     4  11  24  40  60  86 114 148 189 234 283 336
#     4  10  19  32  52  78 112 151 181 220 280 333
#     4  10  21  37  59  85 110 142 184 231 280 327
#     4  10  20  33  52  80 113 151 188 222 273 335
#     4  10  20  33  52  80 114 151 188 229 280 334
#     4  10  20  33  55  85 111 144 190 236 279 328
#     4   9  19  37  59  82 109 142 184 233 280 327
#     4  10  20  36  56  79 112 153 189 228 279 331
#
# _framework density 22.590001000000001
#
# number of rings (size 3 to 8) (size 9 to 14) (size 15 to 20)
#    0.000    2.000    2.500    1.125    0.000    3.250 
#    0.000    3.750    0.000    1.500    0.000    0.000 
#    0.000    0.000    0.000    0.000    0.000    0.000 
#
# Total GULP energy -178601.417891 kJ/mol
# GULP energy per Si atom -5581.294309 kJ/mol
# Density = 2.253859 g / cm^3
# Si number density = 22.590001 Si / 1000 Ang^3
#
#
#
# Elastic Constant Matrix: (Units=GPa)
#
#
# Indices 1 2 3 4 5 6 
#
# 1 138.9761 -0.0805 48.5901 0.0000 -25.3859 0.0000
# 2 -0.0805 44.5010 -18.0097 0.0000 0.1309 0.0000
# 3 48.5901 -18.0097 107.2069 0.0000 -16.1573 0.0000
# 4 0.0000 0.0000 0.0000 14.7931 0.0000 1.6603
# 5 -25.3859 0.1309 -16.1573 0.0000 34.1177 0.0000
# 6 0.0000 0.0000 0.0000 1.6603 0.0000 8.2200
#
#
#
# Elastic Compliance Matrix: (Units=1/GPa)
#
#
# Indices 1 2 3 4 5 6 
#
# 1 0.009470 -0.001517 -0.003752 0.000000 0.005275 0.000000
# 2 -0.001517 0.024477 0.004970 0.000000 0.001131 0.000000
# 3 -0.003752 0.004970 0.012319 0.000000 0.003023 0.000000
# 4 0.000000 0.000000 0.000000 0.069167 0.000000 -0.013971
# 5 0.005275 0.001131 0.003023 0.000000 0.034663 0.000000
# 6 0.000000 0.000000 0.000000 -0.013971 0.000000 0.124476
#
#
# Mechanical properties :
#
#
# Convention : Reuss Voigt Hill
#
# Bulk Modulus (GPa) = 21.89739 39.07595 30.48667
# Shear Modulus (GPa) = 17.21812 28.77177 22.99495
#
# Velocity S-wave (km/s) = 2.76379 3.57270 3.19396
# Velocity P-wave (km/s) = 4.46085 5.86126 5.20834
#
# Compressibility (1/GPa) = 0.04566754
#
# Stress axis : x y z
#
# Youngs Moduli (GPa) = 105.59675 40.85528 81.17711
#
# Poissons Ratio (x) = 0.06197 0.30457
# Poissons Ratio (y) = 0.16017 -0.40343
# Poissons Ratio (z) = 0.39619 -0.20304
#
# Static dielectric constant tensor:
#      x y z
#    x 1.905290 0.000000 0.014120 
#    y 0.000000 1.827890 0.000000 
#    z 0.014120 0.000000 1.796580 
# 
# From -- ./inp_files/249149.got.cif
#   From: 2010.05.17/outbox.cif.g08.bks.cpg/sg12_125_cif.got.tgz:249149.got - 2010.06.03 13:09:07.
