data_PCOD9181619
_publ_section_title
;
Structure prediction by ZEFSAII (Michael W. Deem and Ramdas Pophale) SiO2 
 PCOD9181619
Probable space group: C 2/M
;
_chemical_formula_sum "Si O2"
_cell_formula_units_Z 48
_cell_length_a 17.651199
_cell_length_b 12.086367
_cell_length_c 12.864998
_cell_angle_alpha 90.000000
_cell_angle_beta 113.129554
_cell_angle_gamma 90.000000
_cell_volume 2523.990105
_symmetry_space_group_name_H-M "C 2/M"
_symmetry_group_IT_number 12
_symmetry_cell_setting 'monoclinic'
loop_
_space_group_symop_operation_xyz
x,y,z
-x,y,-z
-x,-y,-z
x,-y,z
1/2+x,1/2+y,z
1/2-x,1/2+y,-z
1/2-x,1/2-y,-z
1/2+x,1/2-y,z
loop_
_atom_site_type_symbol
_atom_site_label
_atom_site_fract_x
_atom_site_fract_y
_atom_site_fract_z
Si Si1 0.911549 0.672077 0.435720
Si Si2 0.425253 0.377986 0.605328
Si Si3 0.419456 0.872791 0.027930
Si Si4 0.740321 0.125633 0.204133
Si Si5 0.409177 0.712980 0.217927
Si Si6 0.237374 0.809396 0.383739
O O1 0.917306 0.783944 0.511480
O O2 0.907432 0.701782 0.312960
O O3 0.822168 0.623341 0.413812
O O4 0.000000 0.616649 0.500000
O O5 0.423480 0.500000 0.556114
O O6 0.510024 0.358863 0.713033
O O7 0.349671 0.368204 0.645836
O O8 0.416522 0.782006 0.116567
O O9 0.422382 0.000000 0.070501
O O10 0.500000 0.857517 0.000000
O O11 0.338418 0.863586 0.912869
O O12 0.824044 0.146445 0.184445
O O13 0.734290 0.216804 0.291758
O O14 0.741631 0.000000 0.247480
O O15 0.250000 0.750000 0.500000
#
# Coordination Sequence:
#
# PCOD9181619 Si02
#       6
#     8   8   8   8   8   8
#     4   8  17  31  50  75 105 137 171 211 256 307
#     4  10  19  32  53  81 111 141 174 215 264 316
#     4  10  21  37  57  77 101 139 181 220 264 315
#     4  10  20  35  56  80 104 138 183 222 261 311
#     4  10  19  33  55  80 107 135 173 223 266 310
#     4   9  18  31  50  78 110 140 172 213 260 311
#
# _framework density 19.017506999999998
#
# number of rings (size 3 to 8) (size 9 to 14) (size 15 to 20)
#    0.000    2.500    0.000    2.000    0.000    9.000 
#    0.000    3.333    0.000   27.000    0.000    0.000 
#    0.000    0.000    0.000    0.000    0.000    0.000 
#
# Total GULP energy -133698.936550 kJ/mol
# GULP energy per Si atom -5570.789023 kJ/mol
# Density = 1.897422 g / cm^3
# Si number density = 19.017507 Si / 1000 Ang^3
#
#
#
# Elastic Constant Matrix: (Units=GPa)
#
#
# Indices 1 2 3 4 5 6 
#
# 1 167.0906 24.1060 33.7164 0.0000 17.2906 0.0000
# 2 24.1060 99.1660 36.9324 0.0000 -7.3653 0.0000
# 3 33.7164 36.9324 70.1230 0.0000 3.0936 0.0000
# 4 0.0000 0.0000 0.0000 -8.5113 0.0000 -13.0704
# 5 17.2906 -7.3653 3.0936 0.0000 30.8491 0.0000
# 6 0.0000 0.0000 0.0000 -13.0704 0.0000 6.0311
#
#
#
# Elastic Compliance Matrix: (Units=1/GPa)
#
#
# Indices 1 2 3 4 5 6 
#
# 1 0.007083 -0.001009 -0.002701 0.000000 -0.003940 0.000000
# 2 -0.001009 0.013117 -0.006616 0.000000 0.004361 0.000000
# 3 -0.002701 -0.006616 0.019131 0.000000 -0.001984 0.000000
# 4 0.000000 0.000000 0.000000 -0.027146 0.000000 -0.058831
# 5 -0.003940 0.004361 -0.001984 0.000000 0.035864 0.000000
# 6 0.000000 0.000000 0.000000 -0.058831 0.000000 0.038310
#
#
# Mechanical properties :
#
#
# Convention : Reuss Voigt Hill
#
# Bulk Modulus (GPa) = 53.53043 58.43214 55.98129
# Shear Modulus (GPa) = 44.15541 21.78210 32.96875
#
# Velocity S-wave (km/s) = 4.82376 3.38800 4.16817
# Velocity P-wave (km/s) = 7.69636 6.78947 7.25710
#
# Compressibility (1/GPa) = 0.01868096
#
# Stress axis : x y z
#
# Youngs Moduli (GPa) = 141.18459 76.23617 52.27070
#
# Poissons Ratio (x) = 0.07689 0.14116
# Poissons Ratio (y) = 0.14240 0.34582
# Poissons Ratio (z) = 0.38128 0.50437
#
# Static dielectric constant tensor:
#      x y z
#    x 1.722420 0.000000 0.026560 
#    y 0.000000 1.691920 0.000000 
#    z 0.026560 0.000000 1.607990 
# 
# From -- ./inp_files/154214.got.cif
#   From: 2010.05.17/outbox.cif.g08.bks.cpg/sg12_78_cif.got.tgz:154214.got - 2010.06.03 13:09:07.
