data_PCOD9181169
_publ_section_title
;
Structure prediction by ZEFSAII (Michael W. Deem and Ramdas Pophale) SiO2 
 PCOD9181169
Probable space group: C 2/M
;
_chemical_formula_sum "Si O2"
_cell_formula_units_Z 48
_cell_length_a 29.900838
_cell_length_b 7.778824
_cell_length_c 15.667132
_cell_angle_alpha 90.000000
_cell_angle_beta 30.944590
_cell_angle_gamma 90.000000
_cell_volume 1873.813568
_symmetry_space_group_name_H-M "C 2/M"
_symmetry_group_IT_number 12
_symmetry_cell_setting 'monoclinic'
loop_
_space_group_symop_operation_xyz
x,y,z
-x,y,-z
-x,-y,-z
x,-y,z
1/2+x,1/2+y,z
1/2-x,1/2+y,-z
1/2-x,1/2-y,-z
1/2+x,1/2-y,z
loop_
_atom_site_type_symbol
_atom_site_label
_atom_site_fract_x
_atom_site_fract_y
_atom_site_fract_z
Si Si1 0.557352 0.799979 0.823080
Si Si2 0.798355 0.798113 0.299010
Si Si3 0.313886 0.293965 0.818499
Si Si4 0.040889 0.788934 0.299540
Si Si5 0.655709 0.292584 0.413910
Si Si6 0.591573 0.698330 0.039314
O O1 0.656803 0.777844 0.690161
O O2 0.509877 0.702995 0.824234
O O3 0.542002 0.000000 0.832566
O O4 0.500000 0.745030 0.000000
O O5 0.700563 0.772928 0.426602
O O6 0.815344 0.000000 0.278480
O O7 0.852660 0.721878 0.128721
O O8 0.316759 0.500000 0.807213
O O9 0.408496 0.236386 0.698503
O O10 0.295155 0.231678 0.753402
O O11 0.250000 0.250000 0.000000
O O12 0.942461 0.736039 0.444106
O O13 0.094712 0.726903 0.128507
O O14 0.040307 0.000000 0.300190
O O15 0.657723 0.500000 0.415628
O O16 0.618137 0.500000 0.001241
#
# Coordination Sequence:
#
# PCOD9181169 Si02
#       6
#     8   8   8   8   8   8
#     4   9  17  30  50  76 104 132 168 214 257 298
#     4  10  19  32  52  77 105 135 169 210 257 307
#     4  10  20  35  56  80 104 133 171 212 253 299
#     4   9  18  34  54  75 102 137 173 208 251 304
#     4  10  20  34  53  76 103 136 173 211 251 299
#     4   9  17  31  52  75 100 133 172 212 255 303
#
# _framework density 25.616208
#
# number of rings (size 3 to 8) (size 9 to 14) (size 15 to 20)
#    0.000    2.500    0.000    2.500    0.000    6.667 
#    0.000    3.333    0.000    2.000    0.000    0.000 
#    0.000    0.000    0.000    0.000    0.000    0.000 
#
# Total GULP energy -134109.326970 kJ/mol
# GULP energy per Si atom -5587.888624 kJ/mol
# Density = 2.555790 g / cm^3
# Si number density = 25.616208 Si / 1000 Ang^3
#
#
#
# Elastic Constant Matrix: (Units=GPa)
#
#
# Indices 1 2 3 4 5 6 
#
# 1 162.3140 9.7504 19.4376 0.0000 -11.1361 0.0000
# 2 9.7504 53.9166 -4.9287 -0.0005 0.4343 0.0000
# 3 19.4376 -4.9287 73.7538 -0.0002 -15.2087 0.0000
# 4 0.0000 -0.0005 -0.0002 14.7415 0.0000 -9.2482
# 5 -11.1361 0.4343 -15.2087 0.0000 46.6002 0.0000
# 6 0.0000 0.0000 0.0000 -9.2482 0.0000 20.2285
#
#
#
# Elastic Compliance Matrix: (Units=1/GPa)
#
#
# Indices 1 2 3 4 5 6 
#
# 1 0.006503 -0.001329 -0.001586 0.000000 0.001049 0.000000
# 2 -0.001329 0.018936 0.001623 0.000001 0.000036 0.000000
# 3 -0.001586 0.001623 0.015014 0.000000 0.004506 0.000000
# 4 0.000000 0.000001 0.000000 0.095117 0.000000 0.043486
# 5 0.001049 0.000036 0.004506 0.000000 0.023180 0.000000
# 6 0.000000 0.000000 0.000000 0.043486 0.000000 0.069317
#
#
# Mechanical properties :
#
#
# Convention : Reuss Voigt Hill
#
# Bulk Modulus (GPa) = 26.40798 37.61141 32.00969
# Shear Modulus (GPa) = 20.55294 34.02906 27.29100
#
# Velocity S-wave (km/s) = 2.83564 3.64870 3.26756
# Velocity P-wave (km/s) = 4.58831 5.69783 5.17290
#
# Compressibility (1/GPa) = 0.03786734
#
# Stress axis : x y z
#
# Youngs Moduli (GPa) = 153.78295 52.81035 66.60299
#
# Poissons Ratio (x) = 0.07021 0.10566
# Poissons Ratio (y) = 0.20444 -0.10810
# Poissons Ratio (z) = 0.24396 -0.08572
#
# Static dielectric constant tensor:
#      x y z
#    x 2.021080 0.000000 -0.008950 
#    y 0.000000 1.918070 0.000000 
#    z -0.008950 0.000000 2.169100 
# 
# From -- ./inp_files/244629.got.cif
#   From: 2010.05.17/outbox.cif.g08.bks.cpg/sg12_123_cif.got.tgz:244629.got - 2010.06.03 13:09:07.
