data_PCOD9181149
_publ_section_title
;
Structure prediction by ZEFSAII (Michael W. Deem and Ramdas Pophale) SiO2 
 PCOD9181149
Probable space group: C 2/M
;
_chemical_formula_sum "Si O2"
_cell_formula_units_Z 40
_cell_length_a 27.887985
_cell_length_b 8.588285
_cell_length_c 11.796984
_cell_angle_alpha 90.000000
_cell_angle_beta 54.063491
_cell_angle_gamma 90.000000
_cell_volume 2287.712594
_symmetry_space_group_name_H-M "C 2/M"
_symmetry_group_IT_number 12
_symmetry_cell_setting 'monoclinic'
loop_
_space_group_symop_operation_xyz
x,y,z
-x,y,-z
-x,-y,-z
x,-y,z
1/2+x,1/2+y,z
1/2-x,1/2+y,-z
1/2-x,1/2-y,-z
1/2+x,1/2-y,z
loop_
_atom_site_type_symbol
_atom_site_label
_atom_site_fract_x
_atom_site_fract_y
_atom_site_fract_z
Si Si1 0.300849 0.186179 0.578963
Si Si2 0.174071 0.313805 0.713717
Si Si3 0.030313 0.810608 0.285726
Si Si4 0.407955 0.311810 0.570397
Si Si5 0.056850 0.188373 0.994906
O O1 0.235315 0.255189 0.683416
O O2 0.323415 0.236273 0.422164
O O3 0.347717 0.243035 0.606096
O O4 0.297051 0.000000 0.585268
O O5 0.172573 0.500000 0.718717
O O6 0.116853 0.247605 0.855249
O O7 0.073980 0.763801 0.327207
O O8 0.963744 0.764349 0.413925
O O9 0.030228 0.000000 0.285023
O O10 0.048667 0.757291 0.135858
O O11 0.404504 0.500000 0.572628
O O12 0.058139 0.000000 0.993542
O O13 0.000000 0.237253 0.000000
#
# Coordination Sequence:
#
# PCOD9181149 Si02
#       5
#     8   8   8   8   8
#     4  10  20  34  52  74  99 127 164 209 251 291
#     4  10  21  35  51  73 100 130 165 204 247 295
#     4   8  16  30  50  77 104 131 164 201 241 290
#     4   9  16  31  54  75  99 132 168 202 240 289
#     4  10  19  32  52  77 104 132 162 199 245 293
#
# _framework density 17.484714
#
# number of rings (size 3 to 8) (size 9 to 14) (size 15 to 20)
#    0.000    2.600    0.000    3.600    0.000    4.400 
#    0.000    5.000    0.000    0.000    0.000    0.000 
#    0.000    0.000    0.000    0.000    0.000    0.000 
#
# Total GULP energy -111572.833189 kJ/mol
# GULP energy per Si atom -5578.641659 kJ/mol
# Density = 1.744492 g / cm^3
# Si number density = 17.484714 Si / 1000 Ang^3
#
#
#
# Elastic Constant Matrix: (Units=GPa)
#
#
# Indices 1 2 3 4 5 6 
#
# 1 165.8665 26.4114 94.0436 0.0000 -12.6949 0.0000
# 2 26.4114 14.6284 26.1818 0.0000 -0.6298 0.0000
# 3 94.0436 26.1818 149.0996 0.0000 -7.6135 0.0000
# 4 0.0000 0.0000 0.0000 24.1968 0.0000 -6.9878
# 5 -12.6949 -0.6298 -7.6135 0.0000 18.3967 0.0000
# 6 0.0000 0.0000 0.0000 -6.9878 0.0000 24.8777
#
#
#
# Elastic Compliance Matrix: (Units=1/GPa)
#
#
# Indices 1 2 3 4 5 6 
#
# 1 0.010791 -0.011011 -0.004609 0.000000 0.005162 0.000000
# 2 -0.011011 0.111205 -0.013052 0.000000 -0.009193 0.000000
# 3 -0.004609 -0.013052 0.011974 0.000000 0.001328 0.000000
# 4 0.000000 0.000000 0.000000 0.044976 0.000000 0.012633
# 5 0.005162 -0.009193 0.001328 0.000000 0.058155 0.000000
# 6 0.000000 0.000000 0.000000 0.012633 0.000000 0.043745
#
#
# Mechanical properties :
#
#
# Convention : Reuss Voigt Hill
#
# Bulk Modulus (GPa) = 13.05046 69.20757 41.12901
# Shear Modulus (GPa) = 13.74645 25.69140 19.71893
#
# Velocity S-wave (km/s) = 2.80696 3.83739 3.36189
# Velocity P-wave (km/s) = 4.24093 7.70076 6.21640
#
# Compressibility (1/GPa) = 0.07662565
#
# Stress axis : x y z
#
# Youngs Moduli (GPa) = 92.67402 8.99241 83.51617
#
# Poissons Ratio (x) = 0.09901 0.38492
# Poissons Ratio (y) = 1.02042 1.09005
# Poissons Ratio (z) = 0.42713 0.11737
#
# Static dielectric constant tensor:
#      x y z
#    x 1.577430 0.000000 0.020720 
#    y 0.000000 1.595770 0.000000 
#    z 0.020720 0.000000 1.578880 
# 
# From -- ./inp_files/162364.got.cif
#   From: 2010.05.17/outbox.cif.g08.bks.cpg/sg12_82_cif.got.tgz:162364.got - 2010.06.03 13:09:07.
