data_PCOD9181105
_publ_section_title
;
Structure prediction by ZEFSAII (Michael W. Deem and Ramdas Pophale) SiO2 
 PCOD9181105
Probable space group: C 2/M
;
_chemical_formula_sum "Si O2"
_cell_formula_units_Z 48
_cell_length_a 16.383101
_cell_length_b 14.529495
_cell_length_c 11.878490
_cell_angle_alpha 90.000000
_cell_angle_beta 122.748162
_cell_angle_gamma 90.000000
_cell_volume 2378.115631
_symmetry_space_group_name_H-M "C 2/M"
_symmetry_group_IT_number 12
_symmetry_cell_setting 'monoclinic'
loop_
_space_group_symop_operation_xyz
x,y,z
-x,y,-z
-x,-y,-z
x,-y,z
1/2+x,1/2+y,z
1/2-x,1/2+y,-z
1/2-x,1/2-y,-z
1/2+x,1/2-y,z
loop_
_atom_site_type_symbol
_atom_site_label
_atom_site_fract_x
_atom_site_fract_y
_atom_site_fract_z
Si Si1 0.949978 0.103039 0.349482
Si Si2 0.157017 0.103982 0.071324
Si Si3 0.714247 0.739639 0.759164
Si Si4 0.170651 0.693704 0.365112
Si Si5 0.954419 0.858708 0.794455
Si Si6 0.389065 0.101154 0.459606
O O1 0.865678 0.172089 0.249036
O O2 0.000000 0.138825 0.500000
O O3 0.032838 0.097742 0.317625
O O4 0.912247 0.000000 0.342102
O O5 0.224357 0.194444 0.111993
O O6 0.125954 0.103617 0.180148
O O7 0.190539 0.000000 0.065067
O O8 0.056988 0.124524 0.931324
O O9 0.776178 0.678550 0.715395
O O10 0.661311 0.816698 0.644336
O O11 0.250000 0.750000 0.500000
O O12 0.079332 0.756042 0.259825
O O13 0.129912 0.618302 0.421599
O O14 0.500000 0.102873 0.500000
O O15 0.349735 0.000000 0.400769
#
# Coordination Sequence:
#
# PCOD9181105 Si02
#       6
#     8   8   8   8   8   8
#     4  11  22  35  54  79 109 144 179 219 268 320
#     4  10  20  35  57  81 106 139 179 224 268 311
#     4  10  20  34  51  77 108 138 174 217 267 319
#     4   9  18  32  51  74 103 137 170 213 264 313
#     4  10  19  35  56  78 107 139 178 223 266 313
#     4  10  19  32  52  76 104 138 176 219 265 315
#
# _framework density 20.184048000000001
#
# number of rings (size 3 to 8) (size 9 to 14) (size 15 to 20)
#    0.000    2.000    0.000    6.000    0.000    1.333 
#    0.000    5.000    0.000    1.000    0.000    4.667 
#    0.000    0.000    0.000    0.000    0.000    0.000 
#
# Total GULP energy -133644.396112 kJ/mol
# GULP energy per Si atom -5568.516505 kJ/mol
# Density = 2.013811 g / cm^3
# Si number density = 20.184048 Si / 1000 Ang^3
#
#
#
# Elastic Constant Matrix: (Units=GPa)
#
#
# Indices 1 2 3 4 5 6 
#
# 1 70.3522 24.3947 6.8900 0.0000 -7.0750 0.0000
# 2 24.3947 77.5681 3.5038 0.0000 10.6844 0.0000
# 3 6.8900 3.5038 42.6211 0.0000 0.8667 0.0000
# 4 0.0000 0.0000 0.0000 37.7933 0.0000 -19.7265
# 5 -7.0750 10.6844 0.8667 0.0000 25.8111 0.0000
# 6 0.0000 0.0000 0.0000 -19.7265 0.0000 18.0182
#
#
#
# Elastic Compliance Matrix: (Units=1/GPa)
#
#
# Indices 1 2 3 4 5 6 
#
# 1 0.017430 -0.006406 -0.002444 0.000000 0.007512 0.000000
# 2 -0.006406 0.016069 -0.000115 0.000000 -0.008404 0.000000
# 3 -0.002444 -0.000115 0.023896 0.000000 -0.001425 0.000000
# 4 0.000000 0.000000 0.000000 0.061741 0.000000 0.067595
# 5 0.007512 -0.008404 -0.001425 0.000000 0.044329 0.000000
# 6 0.000000 0.000000 0.000000 0.067595 0.000000 0.129503
#
#
# Mechanical properties :
#
#
# Convention : Reuss Voigt Hill
#
# Bulk Modulus (GPa) = 25.33775 28.90204 27.11990
# Shear Modulus (GPa) = 15.42958 26.70803 21.06880
#
# Velocity S-wave (km/s) = 2.76786 3.64156 3.23435
# Velocity P-wave (km/s) = 4.77445 5.65965 5.23579
#
# Compressibility (1/GPa) = 0.03946680
#
# Stress axis : x y z
#
# Youngs Moduli (GPa) = 57.37161 62.23044 41.84793
#
# Poissons Ratio (x) = 0.39865 0.10227
# Poissons Ratio (y) = 0.36752 0.00479
# Poissons Ratio (z) = 0.14021 0.00713
#
# Static dielectric constant tensor:
#      x y z
#    x 1.753550 0.000000 -0.016960 
#    y 0.000000 1.739580 0.000000 
#    z -0.016960 0.000000 1.777730 
# 
# From -- ./inp_files/143855.got.cif
#   From: 2010.05.17/outbox.cif.g08.bks.cpg/sg12_72_cif.got.tgz:143855.got - 2010.06.03 13:09:07.
