data_PCOD9181790
_publ_section_title
;
Structure prediction by ZEFSAII (Michael W. Deem and Ramdas Pophale) SiO2 
 PCOD9181790
Probable space group: C 2/M
;
_chemical_formula_sum "Si O2"
_cell_formula_units_Z 52
_cell_length_a 11.970187
_cell_length_b 35.416552
_cell_length_c 8.567836
_cell_angle_alpha 90.000000
_cell_angle_beta 36.455594
_cell_angle_gamma 90.000000
_cell_volume 2158.294524
_symmetry_space_group_name_H-M "C 2/M"
_symmetry_group_IT_number 12
_symmetry_cell_setting 'monoclinic'
loop_
_space_group_symop_operation_xyz
x,y,z
-x,y,-z
-x,-y,-z
x,-y,z
1/2+x,1/2+y,z
1/2-x,1/2+y,-z
1/2-x,1/2-y,-z
1/2+x,1/2-y,z
loop_
_atom_site_type_symbol
_atom_site_label
_atom_site_fract_x
_atom_site_fract_y
_atom_site_fract_z
Si Si1 0.274367 0.206127 0.439739
Si Si2 0.200524 0.676248 0.915569
Si Si3 0.716395 0.171227 0.247964
Si Si4 0.340856 0.958343 0.406878
Si Si5 0.713497 0.583873 0.829132
Si Si6 0.928827 0.042294 0.736727
Si Si7 0.500000 0.105004 0.000000
O O1 0.250000 0.250000 0.500000
O O2 0.495662 0.195600 0.172366
O O3 0.198693 0.185570 0.682461
O O4 0.202458 0.194150 0.347382
O O5 0.290419 0.679591 0.988161
O O6 0.145514 0.633538 0.922881
O O7 0.500000 0.185152 0.500000
O O8 0.714925 0.126112 0.258654
O O9 0.334359 0.944331 0.589731
O O10 0.412017 0.923804 0.222781
O O11 0.120390 0.962271 0.615520
O O12 0.425582 0.000000 0.286008
O O13 0.500000 0.585430 0.000000
O O14 0.707852 0.567069 0.008330
O O15 0.000000 0.061403 0.500000
O O16 0.855930 0.000000 0.782644
#
# Coordination Sequence:
#
# PCOD9181790 Si02
#       7
#     8   8   8   8   8   8   4
#     4   9  18  36  59  81 113 142 178 226 275 337
#     4   9  20  36  58  86 108 152 187 221 284 345
#     4  10  20  37  61  86 114 150 192 227 283 349
#     4  10  19  32  54  80 110 152 196 238 290 337
#     4  10  20  36  56  80 113 151 193 242 289 335
#     4   9  19  34  51  74 108 150 194 238 286 336
#     4  10  19  34  58  84 118 150 188 240 290 336
#
# _framework density 24.093098000000001
#
# number of rings (size 3 to 8) (size 9 to 14) (size 15 to 20)
#    0.000    2.615    0.000    3.462    2.154    2.462 
#    2.769    0.000    0.000    1.846    0.000    0.000 
#    0.000    0.000    0.000    0.000    0.000    0.000 
#
# Total GULP energy -145095.480465 kJ/mol
# GULP energy per Si atom -5580.595402 kJ/mol
# Density = 2.403826 g / cm^3
# Si number density = 24.093098 Si / 1000 Ang^3
#
#
#
# Elastic Constant Matrix: (Units=GPa)
#
#
# Indices 1 2 3 4 5 6 
#
# 1 112.9308 20.1980 60.1453 0.0000 32.3927 0.0000
# 2 20.1980 169.3351 77.2542 0.0000 38.4602 0.0000
# 3 60.1453 77.2542 145.3294 0.0000 60.4930 0.0000
# 4 0.0000 0.0000 0.0000 -778.3083 0.0000 -130.8600
# 5 32.3927 38.4602 60.4930 0.0000 62.3432 0.0000
# 6 0.0000 0.0000 0.0000 -130.8600 0.0000 -6.1697
#
#
#
# Elastic Compliance Matrix: (Units=1/GPa)
#
#
# Indices 1 2 3 4 5 6 
#
# 1 0.011730 0.001201 -0.004442 0.000000 -0.002526 0.000000
# 2 0.001201 0.007985 -0.004079 0.000000 -0.001592 0.000000
# 3 -0.004442 -0.004079 0.014895 0.000000 -0.009629 0.000000
# 4 0.000000 0.000000 0.000000 0.000501 0.000000 -0.010620
# 5 -0.002526 -0.001592 -0.009629 0.000000 0.027679 0.000000
# 6 0.000000 0.000000 0.000000 -0.010620 0.000000 0.063162
#
#
# Mechanical properties :
#
#
# Convention : Reuss Voigt Hill
#
# Bulk Modulus (GPa) = 50.07141 82.53225 66.30183
# Shear Modulus (GPa) = 33.95642 -126.42711 -46.23534
#
# Velocity S-wave (km/s) = 3.75825 -7.25178 -4.38542
# Velocity P-wave (km/s) = 6.29763 5.98229 1.39146
#
# Compressibility (1/GPa) = 0.01997148
#
# Stress axis : x y z
#
# Youngs Moduli (GPa) = 85.24973 125.24070 67.13441
#
# Poissons Ratio (x) = -0.15040 0.29818
# Poissons Ratio (y) = -0.10237 0.27383
# Poissons Ratio (z) = 0.37864 0.51083
#
# Static dielectric constant tensor:
#      x y z
#    x 2.069380 0.000000 0.021150 
#    y 0.000000 1.847720 0.000000 
#    z 0.021150 0.000000 1.955820 
# 
# From -- ./inp_files/68542.got.cif
#   From: 2010.05.17/outbox.cif.g08.bks.cpg/sg12_35_cif.got.tgz:68542.got - 2010.06.03 13:09:07.
