data_PCOD9181163
_publ_section_title
;
Structure prediction by ZEFSAII (Michael W. Deem and Ramdas Pophale) SiO2 
 PCOD9181163
Probable space group: C 2/M
;
_chemical_formula_sum "Si O2"
_cell_formula_units_Z 64
_cell_length_a 31.707477
_cell_length_b 8.617715
_cell_length_c 15.872755
_cell_angle_alpha 90.000000
_cell_angle_beta 122.869853
_cell_angle_gamma 90.000000
_cell_volume 3642.810468
_symmetry_space_group_name_H-M "C 2/M"
_symmetry_group_IT_number 12
_symmetry_cell_setting 'monoclinic'
loop_
_space_group_symop_operation_xyz
x,y,z
-x,y,-z
-x,-y,-z
x,-y,z
1/2+x,1/2+y,z
1/2-x,1/2+y,-z
1/2-x,1/2-y,-z
1/2+x,1/2-y,z
loop_
_atom_site_type_symbol
_atom_site_label
_atom_site_fract_x
_atom_site_fract_y
_atom_site_fract_z
Si Si1 0.382212 0.187315 0.921003
Si Si2 0.214598 0.814243 0.267573
Si Si3 0.976992 0.815081 0.351253
Si Si4 0.679448 0.313860 0.590424
Si Si5 0.544359 0.812085 0.853747
Si Si6 0.574014 0.185151 0.536545
Si Si7 0.936434 0.686710 0.807474
Si Si8 0.839365 0.813288 0.619562
O O1 0.328078 0.259162 0.843435
O O2 0.418182 0.232378 0.881233
O O3 0.378052 0.000000 0.915144
O O4 0.409123 0.233218 0.036643
O O5 0.269221 0.743876 0.312397
O O6 0.194695 0.760805 0.338595
O O7 0.217409 0.000000 0.270683
O O8 0.956483 0.761023 0.239238
O O9 0.945097 0.742224 0.393058
O O10 0.033860 0.754780 0.426844
O O11 0.976489 0.000000 0.358149
O O12 0.677050 0.500000 0.590372
O O13 0.629543 0.244923 0.577645
O O14 0.679453 0.262260 0.492138
O O15 0.492563 0.766317 0.844441
O O16 0.544378 0.000000 0.846387
O O17 0.571840 0.000000 0.530000
O O18 0.934439 0.500000 0.801441
O O19 0.895310 0.753644 0.698913
O O20 0.839975 0.000000 0.621345
#
# Coordination Sequence:
#
# PCOD9181163 Si02
#       8
#     8   8   8   8   8   8   8   8
#     4   9  18  33  51  72 102 140 179 218 258 299
#     4  10  20  34  50  72 103 139 179 218 256 299
#     4  11  22  37  56  80 109 137 167 206 255 308
#     4  11  21  34  53  77 104 136 174 213 258 308
#     4  10  19  32  52  77 104 137 177 216 256 305
#     4  11  22  38  58  80 106 135 168 207 255 308
#     4   9  17  29  48  74 104 138 175 213 253 301
#     4   9  19  32  47  71 105 140 173 211 253 302
#
# _framework density 17.568852
#
# number of rings (size 3 to 8) (size 9 to 14) (size 15 to 20)
#    0.000    2.000    0.000    5.250    0.000    6.000 
#    0.000    0.000    0.000    4.500    0.000    0.000 
#    0.000    0.000    0.000    0.000    0.000    0.000 
#
# Total GULP energy -178711.673477 kJ/mol
# GULP energy per Si atom -5584.739796 kJ/mol
# Density = 1.752886 g / cm^3
# Si number density = 17.568852 Si / 1000 Ang^3
#
#
#
# Elastic Constant Matrix: (Units=GPa)
#
#
# Indices 1 2 3 4 5 6 
#
# 1 86.6842 22.6963 51.2354 0.0000 24.1865 0.0000
# 2 22.6963 48.1311 29.3372 0.0000 6.1924 0.0000
# 3 51.2354 29.3372 125.0086 0.0000 11.9596 0.0000
# 4 0.0000 0.0000 0.0000 25.7247 0.0000 3.1900
# 5 24.1865 6.1924 11.9596 0.0000 21.4290 0.0000
# 6 0.0000 0.0000 0.0000 3.1900 0.0000 25.2974
#
#
#
# Elastic Compliance Matrix: (Units=1/GPa)
#
#
# Indices 1 2 3 4 5 6 
#
# 1 0.021746 -0.003984 -0.006063 0.000000 -0.020009 0.000000
# 2 -0.003984 0.025311 -0.004265 0.000000 -0.000437 0.000000
# 3 -0.006063 -0.004265 0.011317 0.000000 0.001760 0.000000
# 4 0.000000 0.000000 0.000000 0.039491 0.000000 -0.004980
# 5 -0.020009 -0.000437 0.001760 0.000000 0.068394 0.000000
# 6 0.000000 0.000000 0.000000 -0.004980 0.000000 0.040158
#
#
# Mechanical properties :
#
#
# Convention : Reuss Voigt Hill
#
# Bulk Modulus (GPa) = 33.61500 51.81795 42.71647
# Shear Modulus (GPa) = 20.41160 24.92724 22.66942
#
# Velocity S-wave (km/s) = 3.41223 3.77082 3.59600
# Velocity P-wave (km/s) = 5.89060 6.96542 6.45044
#
# Compressibility (1/GPa) = 0.02974863
#
# Stress axis : x y z
#
# Youngs Moduli (GPa) = 45.98536 39.50783 88.36120
#
# Poissons Ratio (x) = 0.15741 0.53577
# Poissons Ratio (y) = 0.18322 0.37689
# Poissons Ratio (z) = 0.27883 0.16852
#
# Static dielectric constant tensor:
#      x y z
#    x 1.587090 0.000000 -0.004870 
#    y 0.000000 1.589510 0.000000 
#    z -0.004870 0.000000 1.590250 
# 
# From -- ./inp_files/249202.got.cif
#   From: 2010.05.17/outbox.cif.g08.bks.cpg/sg12_125_cif.got.tgz:249202.got - 2010.06.03 13:09:07.
