data_PCOD9181375
_publ_section_title
;
Structure prediction by ZEFSAII (Michael W. Deem and Ramdas Pophale) SiO2 
 PCOD9181375
Probable space group: C 2/M
;
_chemical_formula_sum "Si O2"
_cell_formula_units_Z 64
_cell_length_a 29.909278
_cell_length_b 17.654000
_cell_length_c 12.765467
_cell_angle_alpha 90.000000
_cell_angle_beta 26.452427
_cell_angle_gamma 90.000000
_cell_volume 3002.542737
_symmetry_space_group_name_H-M "C 2/M"
_symmetry_group_IT_number 12
_symmetry_cell_setting 'monoclinic'
loop_
_space_group_symop_operation_xyz
x,y,z
-x,y,-z
-x,-y,-z
x,-y,z
1/2+x,1/2+y,z
1/2-x,1/2+y,-z
1/2-x,1/2-y,-z
1/2+x,1/2-y,z
loop_
_atom_site_type_symbol
_atom_site_label
_atom_site_fract_x
_atom_site_fract_y
_atom_site_fract_z
Si Si1 0.382755 0.792518 0.639694
Si Si2 0.251802 0.083705 0.273567
Si Si3 0.505967 0.913517 0.252011
Si Si4 0.654662 0.088492 0.591834
Si Si5 0.400047 0.360625 0.741602
Si Si6 0.199855 0.308011 0.682500
Si Si7 0.701917 0.690793 0.850955
Si Si8 0.217627 0.416334 0.020598
O O1 0.467462 0.842889 0.402849
O O2 0.398487 0.712549 0.665496
O O3 0.290191 0.785049 0.749820
O O4 0.353531 0.849033 0.796158
O O5 0.216617 0.142364 0.432559
O O6 0.228580 0.098666 0.202334
O O7 0.220243 0.000000 0.367635
O O8 0.374504 0.088013 0.016604
O O9 0.443259 0.907379 0.276244
O O10 0.517521 0.000000 0.657435
O O11 0.641978 0.135220 0.726139
O O12 0.743708 0.127532 0.335854
O O13 0.675183 0.000000 0.570549
O O14 0.500000 0.402505 0.500000
O O15 0.303787 0.412359 0.925537
O O16 0.388694 0.334819 0.884781
O O17 0.250000 0.250000 0.500000
O O18 0.161033 0.256095 0.859492
O O19 0.171370 0.500000 0.111471
#
# Coordination Sequence:
#
# PCOD9181375 Si02
#       8
#     8   8   8   8   8   8   8   8
#     4  10  19  33  54  79 112 148 180 219 271 331
#     4  10  20  33  53  78 108 141 178 224 271 325
#     4   9  19  32  50  81 114 144 176 218 273 330
#     4   9  18  34  55  79 107 141 179 224 277 325
#     4  11  23  35  55  83 113 148 185 228 274 322
#     4  10  19  32  53  74 104 141 183 224 268 325
#     4   9  19  35  52  77 110 145 182 223 265 324
#     4  10  21  37  56  78 108 149 189 226 269 321
#
# _framework density 21.315266999999999
#
# number of rings (size 3 to 8) (size 9 to 14) (size 15 to 20)
#    0.000    2.250    0.000    3.750    3.500    3.750 
#    0.000    3.750    2.750    0.000    0.000    0.000 
#    0.000    6.500    0.000    0.000    0.000    0.000 
#
# Total GULP energy -178284.126178 kJ/mol
# GULP energy per Si atom -5571.378943 kJ/mol
# Density = 2.126675 g / cm^3
# Si number density = 21.315267 Si / 1000 Ang^3
#
#
#
# Elastic Constant Matrix: (Units=GPa)
#
#
# Indices 1 2 3 4 5 6 
#
# 1 58.0751 28.7622 11.6076 0.0000 27.8945 0.0000
# 2 28.7622 114.2627 11.3528 0.0000 18.2511 0.0000
# 3 11.6076 11.3528 51.8372 0.0000 15.8832 0.0000
# 4 0.0000 0.0000 0.0000 4.3509 0.0000 15.6277
# 5 27.8945 18.2511 15.8832 0.0000 31.9345 0.0000
# 6 0.0000 0.0000 0.0000 15.6277 0.0000 30.0179
#
#
#
# Elastic Compliance Matrix: (Units=1/GPa)
#
#
# Indices 1 2 3 4 5 6 
#
# 1 0.031271 -0.003901 0.001815 0.000000 -0.025988 0.000000
# 2 -0.003901 0.010128 -0.000726 0.000000 -0.002020 0.000000
# 3 0.001815 -0.000726 0.022891 0.000000 -0.012556 0.000000
# 4 0.000000 0.000000 0.000000 -0.264193 0.000000 0.137542
# 5 -0.025988 -0.002020 -0.012556 0.000000 0.061414 0.000000
# 6 0.000000 0.000000 0.000000 0.137542 0.000000 -0.038293
#
#
# Mechanical properties :
#
#
# Convention : Reuss Voigt Hill
#
# Bulk Modulus (GPa) = 17.04537 36.40224 26.72381
# Shear Modulus (GPa) = -32.98075 24.75749 -4.11163
#
# Velocity S-wave (km/s) = -3.93782 3.41176 -1.39038
# Velocity P-wave (km/s) = 3.55824 5.71273 3.16024
#
# Compressibility (1/GPa) = 0.05866695
#
# Stress axis : x y z
#
# Youngs Moduli (GPa) = 31.97879 98.73153 43.68561
#
# Poissons Ratio (x) = 0.38512 -0.07928
# Poissons Ratio (y) = 0.12474 0.03170
# Poissons Ratio (z) = -0.05804 0.07165
#
# Static dielectric constant tensor:
#      x y z
#    x 1.843190 0.000000 -0.000970 
#    y 0.000000 1.849550 0.000000 
#    z -0.000970 0.000000 1.788640 
# 
# From -- ./inp_files/190004.got.cif
#   From: 2010.05.17/outbox.cif.g08.bks.cpg/sg12_96_cif.got.tgz:190004.got - 2010.06.03 13:09:07.
