data_PCOD9181421
_publ_section_title
;
Structure prediction by ZEFSAII (Michael W. Deem and Ramdas Pophale) SiO2 
 PCOD9181421
Probable space group: C 2/M
;
_chemical_formula_sum "Si O2"
_cell_formula_units_Z 50
_cell_length_a 8.867157
_cell_length_b 17.594364
_cell_length_c 24.384363
_cell_angle_alpha 90.000000
_cell_angle_beta 35.867643
_cell_angle_gamma 90.000000
_cell_volume 2228.968117
_symmetry_space_group_name_H-M "C 2/M"
_symmetry_group_IT_number 12
_symmetry_cell_setting 'monoclinic'
loop_
_space_group_symop_operation_xyz
x,y,z
-x,y,-z
-x,-y,-z
x,-y,z
1/2+x,1/2+y,z
1/2-x,1/2+y,-z
1/2-x,1/2-y,-z
1/2+x,1/2-y,z
loop_
_atom_site_type_symbol
_atom_site_label
_atom_site_fract_x
_atom_site_fract_y
_atom_site_fract_z
Si Si1 0.149574 0.589560 0.273147
Si Si2 0.506765 0.783507 0.397913
Si Si3 0.282450 0.850291 0.964506
Si Si4 0.000000 0.000000 0.000000
Si Si5 0.287849 0.412747 0.844812
Si Si6 0.773893 0.309570 0.845306
Si Si7 0.975149 0.817819 0.703928
O O1 0.099548 0.500000 0.295536
O O2 0.449494 0.605534 0.200339
O O3 0.131529 0.615627 0.215546
O O4 0.986192 0.645420 0.361130
O O5 0.250000 0.750000 0.500000
O O6 0.716273 0.810241 0.380551
O O7 0.606897 0.714029 0.330267
O O8 0.529705 0.864892 0.928852
O O9 0.463054 0.691069 0.937676
O O10 0.353100 0.812803 0.885136
O O11 0.169402 0.932867 0.980771
O O12 0.231189 0.500000 0.872161
O O13 0.371417 0.397545 0.756531
O O14 0.876067 0.240422 0.779596
#
# Coordination Sequence:
#
# PCOD9181421 Si02
#       7
#     8   8   8   2   8   8   8
#     4   9  20  35  54  80 111 140 170 219 275 319
#     4  10  20  37  60  81 103 137 174 220 274 335
#     4  10  19  32  53  77 104 148 188 217 254 298
#     4   8  16  28  44  70 100 132 178 214 240 284
#     4  10  20  34  52  77 108 140 179 222 264 312
#     4   9  20  33  53  77 107 147 182 219 259 308
#     4  10  20  37  56  80 107 137 178 222 273 322
#
# _framework density 22.431905
#
# number of rings (size 3 to 8) (size 9 to 14) (size 15 to 20)
#    0.000    2.560    0.800    1.440    4.480    1.280 
#    0.000    5.600    0.000   11.520    0.000    0.000 
#    0.000    0.000    0.000    0.000    0.000    0.000 
#
# Total GULP energy -139379.890111 kJ/mol
# GULP energy per Si atom -5575.195604 kJ/mol
# Density = 2.238085 g / cm^3
# Si number density = 22.431905 Si / 1000 Ang^3
#
#
#
# Elastic Constant Matrix: (Units=GPa)
#
#
# Indices 1 2 3 4 5 6 
#
# 1 68.2254 16.2879 34.9139 0.0015 5.2320 -0.0021
# 2 16.2879 77.9027 38.6861 -0.0020 6.5461 -0.0003
# 3 34.9139 38.6861 117.8722 0.0484 -3.7702 -0.0119
# 4 0.0015 -0.0020 0.0484 24.1688 0.0010 -10.7957
# 5 5.2320 6.5461 -3.7702 0.0010 32.3674 -0.0038
# 6 -0.0021 -0.0003 -0.0119 -10.7957 -0.0038 20.4711
#
#
#
# Elastic Compliance Matrix: (Units=1/GPa)
#
#
# Indices 1 2 3 4 5 6 
#
# 1 0.017711 -0.000922 -0.005048 0.000011 -0.003264 0.000004
# 2 -0.000922 0.015839 -0.005042 0.000013 -0.003642 0.000003
# 3 -0.005048 -0.005042 0.011736 -0.000027 0.003203 -0.000007
# 4 0.000011 0.000013 -0.000027 0.054126 -0.000006 0.028544
# 5 -0.003264 -0.003642 0.003203 -0.000006 0.032532 0.000004
# 6 0.000004 0.000003 -0.000007 0.028544 0.000004 0.063902
#
#
# Mechanical properties :
#
#
# Convention : Reuss Voigt Hill
#
# Bulk Modulus (GPa) = 42.98700 49.30846 46.14773
# Shear Modulus (GPa) = 22.16075 27.00895 24.58485
#
# Velocity S-wave (km/s) = 3.14652 3.47370 3.31415
# Velocity P-wave (km/s) = 5.69260 6.17397 5.93816
#
# Compressibility (1/GPa) = 0.02326285
#
# Stress axis : x y z
#
# Youngs Moduli (GPa) = 56.46225 63.13518 85.20693
#
# Poissons Ratio (x) = 0.05821 0.43011
# Poissons Ratio (y) = 0.05206 0.42960
# Poissons Ratio (z) = 0.28501 0.31832
#
# Static dielectric constant tensor:
#      x y z
#    x 1.875520 0.000010 -0.024710 
#    y 0.000010 1.865550 -0.000010 
#    z -0.024710 -0.000010 1.871520 
# 
# From -- ./inp_files/356516.got.cif
#   From: 2010.05.17/outbox.cif.g08.bks.cpg/sg12_179_cif.got.tgz:356516.got - 2010.06.03 13:09:07.
