data_PCOD9181780
_publ_section_title
;
Structure prediction by ZEFSAII (Michael W. Deem and Ramdas Pophale) SiO2 
 PCOD9181780
Probable space group: C 2/M
;
_chemical_formula_sum "Si O2"
_cell_formula_units_Z 56
_cell_length_a 14.661443
_cell_length_b 9.419706
_cell_length_c 24.879917
_cell_angle_alpha 90.000000
_cell_angle_beta 59.404417
_cell_angle_gamma 90.000000
_cell_volume 2957.711423
_symmetry_space_group_name_H-M "C 2/M"
_symmetry_group_IT_number 12
_symmetry_cell_setting 'monoclinic'
loop_
_space_group_symop_operation_xyz
x,y,z
-x,y,-z
-x,-y,-z
x,-y,z
1/2+x,1/2+y,z
1/2-x,1/2+y,-z
1/2-x,1/2-y,-z
1/2+x,1/2-y,z
loop_
_atom_site_type_symbol
_atom_site_label
_atom_site_fract_x
_atom_site_fract_y
_atom_site_fract_z
Si Si1 0.158983 0.668206 0.097241
Si Si2 0.929131 0.333390 0.681439
Si Si3 0.586995 0.162967 0.543548
Si Si4 0.208832 0.835860 0.699010
Si Si5 0.776728 0.837007 0.574637
Si Si6 0.528072 0.331774 0.224538
Si Si7 0.100159 0.831958 0.007693
O O1 0.137808 0.500000 0.105505
O O2 0.108763 0.747378 0.162940
O O3 0.108755 0.738378 0.058816
O O4 0.286329 0.687433 0.055673
O O5 0.956730 0.500000 0.683453
O O6 0.803359 0.321574 0.712879
O O7 0.967422 0.232318 0.717031
O O8 0.983219 0.295130 0.608291
O O9 0.680741 0.167863 0.560132
O O10 0.625374 0.257737 0.482884
O O11 0.576180 0.000000 0.529113
O O12 0.235740 0.738731 0.640286
O O13 0.093239 0.807626 0.757487
O O14 0.208953 0.000000 0.680010
O O15 0.802597 0.000000 0.577647
O O16 0.549483 0.500000 0.217700
O O17 0.091827 0.000000 0.024409
O O18 0.000000 0.796836 0.000000
#
# Coordination Sequence:
#
# PCOD9181780 Si02
#       7
#     8   8   8   8   8   8   8
#     4  10  21  37  60  88 118 154 189 226 272 323
#     4  10  21  39  59  79 105 144 191 233 278 336
#     4   9  18  33  54  77 103 139 180 227 284 342
#     4  10  22  38  57  79 107 145 187 231 282 336
#     4  10  19  32  54  80 106 138 179 230 284 339
#     4  11  23  39  58  82 115 151 187 232 278 325
#     4   9  19  38  63  90 120 152 188 229 270 316
#
# _framework density 18.933557
#
# number of rings (size 3 to 8) (size 9 to 14) (size 15 to 20)
#    0.000    2.143    1.429    1.286    0.000    4.857 
#    0.000    8.571    0.000    0.000    0.000    0.000 
#    0.000    0.000    0.000    0.000    0.000    0.000 
#
# Total GULP energy -156347.006858 kJ/mol
# GULP energy per Si atom -5583.821674 kJ/mol
# Density = 1.889046 g / cm^3
# Si number density = 18.933557 Si / 1000 Ang^3
#
#
#
# Elastic Constant Matrix: (Units=GPa)
#
#
# Indices 1 2 3 4 5 6 
#
# 1 83.9929 34.5026 18.2031 0.0000 -9.3124 0.0000
# 2 34.5026 75.4279 45.4790 0.0000 -11.5648 0.0000
# 3 18.2031 45.4790 65.5913 0.0000 -13.8500 0.0000
# 4 0.0000 0.0000 0.0000 36.8146 0.0000 3.8780
# 5 -9.3124 -11.5648 -13.8500 0.0000 13.7797 0.0000
# 6 0.0000 0.0000 0.0000 3.8780 0.0000 14.1976
#
#
#
# Elastic Compliance Matrix: (Units=1/GPa)
#
#
# Indices 1 2 3 4 5 6 
#
# 1 0.015115 -0.007253 0.002165 0.000000 0.006304 0.000000
# 2 -0.007253 0.026448 -0.016088 0.000000 0.001125 0.000000
# 3 0.002165 -0.016088 0.029524 0.000000 0.017636 0.000000
# 4 0.000000 0.000000 0.000000 0.027968 0.000000 -0.007639
# 5 0.006304 0.001125 0.017636 0.000000 0.095501 0.000000
# 6 0.000000 0.000000 0.000000 -0.007639 0.000000 0.072521
#
#
# Mechanical properties :
#
#
# Convention : Reuss Voigt Hill
#
# Bulk Modulus (GPa) = 34.79979 46.82016 40.80998
# Shear Modulus (GPa) = 15.67374 21.41355 18.54365
#
# Velocity S-wave (km/s) = 2.88032 3.36666 3.13294
# Velocity P-wave (km/s) = 5.42969 6.31624 5.88967
#
# Compressibility (1/GPa) = 0.02873580
#
# Stress axis : x y z
#
# Youngs Moduli (GPa) = 66.16040 37.81015 33.87125
#
# Poissons Ratio (x) = 0.27424 -0.07334
# Poissons Ratio (y) = 0.47986 0.54491
# Poissons Ratio (z) = -0.14326 0.60828
#
# Static dielectric constant tensor:
#      x y z
#    x 1.684350 0.000000 -0.018400 
#    y 0.000000 1.636260 0.000000 
#    z -0.018400 0.000000 1.634730 
# 
# From -- ./inp_files/338497.got.cif
#   From: 2010.05.17/outbox.cif.g08.bks.cpg/sg12_170_cif.got.tgz:338497.got - 2010.06.03 13:09:07.
