data_PCOD9181144
_publ_section_title
;
Structure prediction by ZEFSAII (Michael W. Deem and Ramdas Pophale) SiO2 
 PCOD9181144
Probable space group: C 2/M
;
_chemical_formula_sum "Si O2"
_cell_formula_units_Z 64
_cell_length_a 31.647488
_cell_length_b 7.335465
_cell_length_c 17.024198
_cell_angle_alpha 90.000000
_cell_angle_beta 136.031835
_cell_angle_gamma 90.000000
_cell_volume 2743.814901
_symmetry_space_group_name_H-M "C 2/M"
_symmetry_group_IT_number 12
_symmetry_cell_setting 'monoclinic'
loop_
_space_group_symop_operation_xyz
x,y,z
-x,y,-z
-x,-y,-z
x,-y,z
1/2+x,1/2+y,z
1/2-x,1/2+y,-z
1/2-x,1/2-y,-z
1/2+x,1/2-y,z
loop_
_atom_site_type_symbol
_atom_site_label
_atom_site_fract_x
_atom_site_fract_y
_atom_site_fract_z
Si Si1 0.793780 0.206068 0.436844
Si Si2 0.828893 0.278370 0.660093
Si Si3 0.585874 0.277135 0.481523
Si Si4 0.889137 0.777934 0.312824
Si Si5 0.958999 0.779768 0.249196
Si Si6 0.069166 0.722625 0.089068
Si Si7 0.253688 0.282264 0.098273
Si Si8 0.369209 0.787692 0.986951
O O1 0.817949 0.204318 0.558821
O O2 0.726255 0.283693 0.356706
O O3 0.848386 0.288562 0.460071
O O4 0.785368 0.000000 0.395320
O O5 0.824880 0.500000 0.649469
O O6 0.892406 0.226864 0.783054
O O7 0.586950 0.500000 0.479328
O O8 0.578906 0.225520 0.563192
O O9 0.528845 0.219081 0.352383
O O10 0.923211 0.719506 0.279620
O O11 0.818919 0.716473 0.216488
O O12 0.889122 0.000000 0.311365
O O13 0.921587 0.721417 0.123098
O O14 0.958897 0.000000 0.248411
O O15 0.068224 0.500000 0.085216
O O16 0.104305 0.787709 0.058492
O O17 0.000000 0.784427 0.000000
O O18 0.253962 0.500000 0.108929
O O19 0.250000 0.250000 0.000000
O O20 0.193499 0.210231 0.061373
O O21 0.356552 0.000000 0.954073
#
# Coordination Sequence:
#
# PCOD9181144 Si02
#       8
#     8   8   8   8   8   8   8   8
#     4   9  18  32  51  75  99 125 159 205 254 294
#     4   9  18  33  53  72  96 128 163 202 248 299
#     4   9  18  30  50  76  99 126 166 210 244 286
#     4   9  17  30  50  74 100 129 164 204 243 287
#     4  10  19  33  52  74 101 133 167 202 248 300
#     4   9  19  34  52  75 101 132 171 211 249 295
#     4  10  19  32  52  77 103 133 168 207 250 298
#     4  10  21  34  52  77 103 133 171 210 249 298
#
# _framework density 23.325189999999999
#
# number of rings (size 3 to 8) (size 9 to 14) (size 15 to 20)
#    0.000    2.625    1.250    0.375    3.500    1.500 
#    0.000    0.625    0.000    4.500    0.000    0.000 
#    0.000    0.000    0.000    0.000    0.000    0.000 
#
# Total GULP energy -178801.129920 kJ/mol
# GULP energy per Si atom -5587.535310 kJ/mol
# Density = 2.327210 g / cm^3
# Si number density = 23.325190 Si / 1000 Ang^3
#
#
#
# Elastic Constant Matrix: (Units=GPa)
#
#
# Indices 1 2 3 4 5 6 
#
# 1 61.2352 0.4483 -2.9380 0.0000 6.2264 0.0000
# 2 0.4483 93.0585 -10.7947 0.0000 3.7266 0.0000
# 3 -2.9380 -10.7947 58.8812 0.0000 22.9475 0.0000
# 4 0.0000 0.0000 0.0000 32.8175 0.0000 1.7680
# 5 6.2264 3.7266 22.9475 0.0000 31.7083 0.0000
# 6 0.0000 0.0000 0.0000 1.7680 0.0000 -1.4406
#
#
#
# Elastic Compliance Matrix: (Units=1/GPa)
#
#
# Indices 1 2 3 4 5 6 
#
# 1 0.017059 0.000514 0.003168 0.000000 -0.005703 0.000000
# 2 0.000514 0.011339 0.003709 0.000000 -0.004118 0.000000
# 3 0.003168 0.003709 0.025397 0.000000 -0.019438 0.000000
# 4 0.000000 0.000000 0.000000 0.028582 0.000000 0.035077
# 5 -0.005703 -0.004118 -0.019438 0.000000 0.047208 0.000000
# 6 0.000000 0.000000 0.000000 0.035077 0.000000 -0.651103
#
#
# Mechanical properties :
#
#
# Convention : Reuss Voigt Hill
#
# Bulk Modulus (GPa) = 14.58255 20.73400 17.65827
# Shear Modulus (GPa) = -9.73821 27.71434 8.98807
#
# Velocity S-wave (km/s) = -2.04549 3.45073 1.96513
# Velocity P-wave (km/s) = 0.82867 4.97846 3.56874
#
# Compressibility (1/GPa) = 0.06857513
#
# Stress axis : x y z
#
# Youngs Moduli (GPa) = 58.62167 88.19426 39.37502
#
# Poissons Ratio (x) = -0.04530 -0.12473
# Poissons Ratio (y) = -0.03011 -0.14605
# Poissons Ratio (z) = -0.18570 -0.32712
#
# Static dielectric constant tensor:
#      x y z
#    x 1.858670 0.000000 0.024780 
#    y 0.000000 1.917140 0.000000 
#    z 0.024780 0.000000 1.828250 
# 
# From -- ./inp_files/250047.got.cif
#   From: 2010.05.17/outbox.cif.g08.bks.cpg/sg12_126_cif.got.tgz:250047.got - 2010.06.03 13:09:07.
