data_PCOD9181847
_publ_section_title
;
Structure prediction by ZEFSAII (Michael W. Deem and Ramdas Pophale) SiO2 
 PCOD9181847
Probable space group: C 2/M
;
_chemical_formula_sum "Si O2"
_cell_formula_units_Z 50
_cell_length_a 14.868860
_cell_length_b 7.284599
_cell_length_c 18.666927
_cell_angle_alpha 90.000000
_cell_angle_beta 64.551595
_cell_angle_gamma 90.000000
_cell_volume 1825.705488
_symmetry_space_group_name_H-M "C 2/M"
_symmetry_group_IT_number 12
_symmetry_cell_setting 'monoclinic'
loop_
_space_group_symop_operation_xyz
x,y,z
-x,y,-z
-x,-y,-z
x,-y,z
1/2+x,1/2+y,z
1/2-x,1/2+y,-z
1/2-x,1/2-y,-z
1/2+x,1/2-y,z
loop_
_atom_site_type_symbol
_atom_site_label
_atom_site_fract_x
_atom_site_fract_y
_atom_site_fract_z
Si Si1 0.095626 0.294388 0.629612
Si Si2 0.910593 0.220577 0.973396
Si Si3 0.300533 0.294385 0.589892
Si Si4 0.500000 0.500000 0.500000
Si Si5 0.554786 0.278149 0.808238
Si Si6 0.111710 0.290052 0.294766
Si Si7 0.228974 0.223310 0.861975
O O1 0.096591 0.500000 0.596328
O O2 0.205250 0.209152 0.582627
O O3 0.077623 0.295400 0.722101
O O4 0.991135 0.198591 0.645081
O O5 0.811236 0.288169 0.047425
O O6 0.902493 0.000000 0.970728
O O7 0.000000 0.254971 0.000000
O O8 0.953528 0.286431 0.882975
O O9 0.262766 0.500000 0.619616
O O10 0.409673 0.339221 0.521641
O O11 0.317934 0.204628 0.660561
O O12 0.551481 0.500000 0.803779
O O13 0.643780 0.232894 0.832670
O O14 0.088329 0.500000 0.284484
O O15 0.169433 0.207126 0.208011
O O16 0.234377 0.000000 0.862665
#
# Coordination Sequence:
#
# PCOD9181847 Si02
#       7
#     8   8   8   2   8   8   8
#     4  10  20  32  50  77 110 136 164 210 266 304
#     4   7  11  20  38  65  95 128 175 218 251 285
#     4   9  19  38  59  75 103 138 167 198 246 316
#     4   8  20  40  66  72 100 140 174 180 252 328
#     4   9  15  26  47  72  97 134 182 221 244 291
#     4  10  19  32  54  82 106 131 171 216 254 294
#     4   8  13  24  44  70  97 132 173 218 254 290
#
# _framework density 27.386672999999998
#
# number of rings (size 3 to 8) (size 9 to 14) (size 15 to 20)
#    0.480    2.720    1.600    1.920    0.000    0.640 
#    0.000    2.000    0.000    5.280    0.000    0.000 
#    0.000    0.000    0.000    0.000    0.000    0.000 
#
# Total GULP energy -139264.873382 kJ/mol
# GULP energy per Si atom -5570.594935 kJ/mol
# Density = 2.732434 g / cm^3
# Si number density = 27.386673 Si / 1000 Ang^3
#
#
#
# Elastic Constant Matrix: (Units=GPa)
#
#
# Indices 1 2 3 4 5 6 
#
# 1 125.9077 -0.8114 34.7173 -0.0001 -37.1306 0.0001
# 2 -0.8114 127.3022 -4.0225 -0.0001 -9.6534 0.0003
# 3 34.7173 -4.0225 202.7167 0.0000 -52.5185 0.0000
# 4 -0.0001 -0.0001 0.0000 8.2296 0.0000 -3.7363
# 5 -37.1306 -9.6534 -52.5185 0.0000 59.1425 0.0000
# 6 0.0001 0.0003 0.0000 -3.7363 0.0000 23.1333
#
#
#
# Elastic Compliance Matrix: (Units=1/GPa)
#
#
# Indices 1 2 3 4 5 6 
#
# 1 0.009783 0.000528 -0.000067 0.000000 0.006169 0.000000
# 2 0.000528 0.008047 0.000643 0.000000 0.002216 0.000000
# 3 -0.000067 0.000643 0.006460 0.000000 0.005799 0.000000
# 4 0.000000 0.000000 0.000000 0.131128 0.000000 0.021178
# 5 0.006169 0.002216 0.005799 0.000000 0.026293 0.000000
# 6 0.000000 0.000000 0.000000 0.021178 0.000000 0.046648
#
#
# Mechanical properties :
#
#
# Convention : Reuss Voigt Hill
#
# Bulk Modulus (GPa) = 37.73651 57.29928 47.51790
# Shear Modulus (GPa) = 21.27817 46.50396 33.89107
#
# Velocity S-wave (km/s) = 2.79041 4.12521 3.52163
# Velocity P-wave (km/s) = 4.91843 6.60739 5.82445
#
# Compressibility (1/GPa) = 0.02649953
#
# Stress axis : x y z
#
# Youngs Moduli (GPa) = 102.21370 124.26860 154.80775
#
# Poissons Ratio (x) = -0.06562 0.01034
# Poissons Ratio (y) = -0.05397 -0.09961
# Poissons Ratio (z) = 0.00683 -0.07996
#
# Static dielectric constant tensor:
#      x y z
#    x 2.224030 0.000000 -0.066410 
#    y 0.000000 2.072530 0.000000 
#    z -0.066410 0.000000 2.205430 
# 
# From -- ./inp_files/337781.got.cif
#   From: 2010.05.17/outbox.cif.g08.bks.cpg/sg12_169_cif.got.tgz:337781.got - 2010.06.03 13:09:07.
