data_PCOD9181161
_publ_section_title
;
Structure prediction by ZEFSAII (Michael W. Deem and Ramdas Pophale) SiO2 
 PCOD9181161
Probable space group: C 2/M
;
_chemical_formula_sum "Si O2"
_cell_formula_units_Z 48
_cell_length_a 19.609756
_cell_length_b 7.411898
_cell_length_c 31.301644
_cell_angle_alpha 90.000000
_cell_angle_beta 28.919520
_cell_angle_gamma 90.000000
_cell_volume 2200.075859
_symmetry_space_group_name_H-M "C 2/M"
_symmetry_group_IT_number 12
_symmetry_cell_setting 'monoclinic'
loop_
_space_group_symop_operation_xyz
x,y,z
-x,y,-z
-x,-y,-z
x,-y,z
1/2+x,1/2+y,z
1/2-x,1/2+y,-z
1/2-x,1/2-y,-z
1/2+x,1/2-y,z
loop_
_atom_site_type_symbol
_atom_site_label
_atom_site_fract_x
_atom_site_fract_y
_atom_site_fract_z
Si Si1 0.439027 0.287136 0.753404
Si Si2 0.634396 0.220407 0.954163
Si Si3 0.092915 0.285408 0.071500
Si Si4 0.385624 0.782032 0.258283
Si Si5 0.082765 0.783753 0.587444
Si Si6 0.565910 0.279762 0.418721
O O1 0.417564 0.500000 0.758333
O O2 0.286833 0.216203 0.853188
O O3 0.552604 0.267719 0.729273
O O4 0.500644 0.214831 0.674792
O O5 0.643919 0.000000 0.950574
O O6 0.500000 0.267801 0.000000
O O7 0.593087 0.286272 0.023709
O O8 0.065724 0.500000 0.084017
O O9 0.988832 0.213922 0.164574
O O10 0.250000 0.250000 0.000000
O O11 0.228578 0.723724 0.332561
O O12 0.385615 0.000000 0.258053
O O13 0.250000 0.750000 0.500000
O O14 0.016232 0.718605 0.578932
O O15 0.066271 0.000000 0.596135
O O16 0.500000 0.223279 0.500000
O O17 0.561915 0.500000 0.420063
#
# Coordination Sequence:
#
# PCOD9181161 Si02
#       6
#     8   8   8   8   8   8
#     4  10  20  34  53  78 106 137 170 210 260 307
#     4   9  18  31  50  75 105 138 172 211 254 302
#     4  10  19  32  52  77 104 137 174 211 252 300
#     4  10  20  33  54  79 104 136 175 214 252 301
#     4  10  21  36  56  79 105 135 170 211 257 308
#     4   9  18  33  53  77 103 132 168 213 258 302
#
# _framework density 21.817428
#
# number of rings (size 3 to 8) (size 9 to 14) (size 15 to 20)
#    0.000    2.333    1.667    1.000    2.333    2.000 
#    0.000    0.833    0.000    5.000    0.000    0.000 
#    0.000    0.000    0.000    0.000    0.000    0.000 
#
# Total GULP energy -133981.208504 kJ/mol
# GULP energy per Si atom -5582.550354 kJ/mol
# Density = 2.176777 g / cm^3
# Si number density = 21.817428 Si / 1000 Ang^3
#
#
#
# Elastic Constant Matrix: (Units=GPa)
#
#
# Indices 1 2 3 4 5 6 
#
# 1 238.2824 -4.6691 120.2753 -0.0102 18.3283 -0.0332
# 2 -4.6691 72.3323 0.9397 0.0036 7.4237 0.0086
# 3 120.2753 0.9397 189.4815 -0.0060 16.8173 0.0017
# 4 -0.0102 0.0036 -0.0060 9.4884 0.0012 -4.8273
# 5 18.3283 7.4237 16.8173 0.0012 43.4561 -0.0017
# 6 -0.0332 0.0086 0.0017 -4.8273 -0.0017 10.0371
#
#
#
# Elastic Compliance Matrix: (Units=1/GPa)
#
#
# Indices 1 2 3 4 5 6 
#
# 1 0.006253 0.000581 -0.003862 0.000019 -0.001242 0.000030
# 2 0.000581 0.014130 -0.000210 -0.000013 -0.002578 -0.000017
# 3 -0.003862 -0.000210 0.007852 -0.000008 -0.001374 -0.000018
# 4 0.000019 -0.000013 -0.000008 0.139534 -0.000004 0.067109
# 5 -0.001242 -0.002578 -0.001374 -0.000004 0.024508 0.000001
# 6 0.000030 -0.000017 -0.000018 0.067109 0.000001 0.131906
#
#
# Mechanical properties :
#
#
# Convention : Reuss Voigt Hill
#
# Bulk Modulus (GPa) = 47.05184 81.46532 64.25858
# Shear Modulus (GPa) = 14.78204 38.16634 26.47419
#
# Velocity S-wave (km/s) = 2.60577 4.18706 3.48723
# Velocity P-wave (km/s) = 5.53772 7.79718 6.76248
#
# Compressibility (1/GPa) = 0.02125315
#
# Stress axis : x y z
#
# Youngs Moduli (GPa) = 159.92648 70.77195 127.35916
#
# Poissons Ratio (x) = -0.04114 0.49183
# Poissons Ratio (y) = -0.09296 0.02678
# Poissons Ratio (z) = 0.61759 0.01488
#
# Static dielectric constant tensor:
#      x y z
#    x 1.770380 0.000010 -0.008280 
#    y 0.000010 1.836330 -0.000010 
#    z -0.008280 -0.000010 1.776550 
# 
# From -- ./inp_files/244593.got.cif
#   From: 2010.05.17/outbox.cif.g08.bks.cpg/sg12_123_cif.got.tgz:244593.got - 2010.06.03 13:09:07.
