data_PCOD9181433
_publ_section_title
;
Structure prediction by ZEFSAII (Michael W. Deem and Ramdas Pophale) SiO2 
 PCOD9181433
Probable space group: C 2/M
;
_chemical_formula_sum "Si O2"
_cell_formula_units_Z 56
_cell_length_a 28.369056
_cell_length_b 7.453322
_cell_length_c 13.936177
_cell_angle_alpha 90.000000
_cell_angle_beta 119.657798
_cell_angle_gamma 90.000000
_cell_volume 2560.685884
_symmetry_space_group_name_H-M "C 2/M"
_symmetry_group_IT_number 12
_symmetry_cell_setting 'monoclinic'
loop_
_space_group_symop_operation_xyz
x,y,z
-x,y,-z
-x,-y,-z
x,-y,z
1/2+x,1/2+y,z
1/2-x,1/2+y,-z
1/2-x,1/2-y,-z
1/2+x,1/2-y,z
loop_
_atom_site_type_symbol
_atom_site_label
_atom_site_fract_x
_atom_site_fract_y
_atom_site_fract_z
Si Si1 0.775788 0.720076 0.738330
Si Si2 0.440945 0.711442 0.414803
Si Si3 0.342674 0.712595 0.443427
Si Si4 0.129041 0.283994 0.308068
Si Si5 0.915930 0.717101 0.168967
Si Si6 0.489302 0.780731 0.879850
Si Si7 0.299400 0.785531 0.978056
O O1 0.776024 0.500000 0.737572
O O2 0.716982 0.782274 0.642823
O O3 0.823859 0.778794 0.716214
O O4 0.786629 0.779406 0.858056
O O5 0.500000 0.787938 0.500000
O O6 0.443314 0.500000 0.441358
O O7 0.391152 0.787471 0.426599
O O8 0.429119 0.729417 0.290604
O O9 0.339835 0.500000 0.421052
O O10 0.356832 0.737229 0.568766
O O11 0.127945 0.500000 0.300704
O O12 0.069461 0.220788 0.216699
O O13 0.915449 0.500000 0.166167
O O14 0.856651 0.782065 0.076574
O O15 0.962718 0.776999 0.142854
O O16 0.489259 0.000000 0.879379
O O17 0.500000 0.725118 0.000000
O O18 0.304849 0.000000 0.975988
O O19 0.250000 0.750000 0.000000
#
# Coordination Sequence:
#
# PCOD9181433 Si02
#       7
#     8   8   8   8   8   8   8
#     4   9  18  33  52  73  99 133 168 202 248 305
#     4  10  21  36  53  73 101 140 177 206 247 305
#     4  10  20  34  51  71  99 134 168 205 250 297
#     4  10  19  32  53  77  99 128 166 206 248 296
#     4  10  20  33  53  80 104 129 166 214 258 293
#     4   9  17  31  52  77 103 130 162 202 250 302
#     4  10  20  35  54  76 103 134 170 209 250 300
#
# _framework density 21.869142
#
# number of rings (size 3 to 8) (size 9 to 14) (size 15 to 20)
#    0.000    2.286    0.000    3.000    0.000    6.000 
#    0.000    1.429    0.000    3.429    0.000    0.000 
#    0.000    0.000    0.000    0.000    0.000    0.000 
#
# Total GULP energy -156543.318662 kJ/mol
# GULP energy per Si atom -5590.832809 kJ/mol
# Density = 2.181937 g / cm^3
# Si number density = 21.869142 Si / 1000 Ang^3
#
#
#
# Elastic Constant Matrix: (Units=GPa)
#
#
# Indices 1 2 3 4 5 6 
#
# 1 260.0350 -3.4778 129.9788 0.0000 9.9637 0.0000
# 2 -3.4778 60.5176 -25.2797 0.0000 7.2759 0.0000
# 3 129.9788 -25.2797 185.9758 0.0000 13.8878 0.0000
# 4 0.0000 0.0000 0.0000 50.0168 0.0000 -14.8304
# 5 9.9637 7.2759 13.8878 0.0000 51.7791 0.0000
# 6 0.0000 0.0000 0.0000 -14.8304 0.0000 2.9196
#
#
#
# Elastic Compliance Matrix: (Units=1/GPa)
#
#
# Indices 1 2 3 4 5 6 
#
# 1 0.006039 -0.001541 -0.004449 0.000000 0.000248 0.000000
# 2 -0.001541 0.018435 0.003831 0.000000 -0.003321 0.000000
# 3 -0.004449 0.003831 0.009167 0.000000 -0.002141 0.000000
# 4 0.000000 0.000000 0.000000 -0.039499 0.000000 -0.200644
# 5 0.000248 -0.003321 -0.002141 0.000000 0.020306 0.000000
# 6 0.000000 0.000000 0.000000 -0.200644 0.000000 -0.676688
#
#
# Mechanical properties :
#
#
# Convention : Reuss Voigt Hill
#
# Bulk Modulus (GPa) = 34.10228 78.77456 56.43842
# Shear Modulus (GPa) = -7.71429 47.96356 20.12464
#
# Velocity S-wave (km/s) = -1.88020 4.68825 3.03682
# Velocity P-wave (km/s) = 3.30365 8.08736 6.17736
#
# Compressibility (1/GPa) = 0.02932355
#
# Stress axis : x y z
#
# Youngs Moduli (GPa) = 165.58203 54.24411 109.08716
#
# Poissons Ratio (x) = 0.08360 0.48531
# Poissons Ratio (y) = 0.25518 -0.41791
# Poissons Ratio (z) = 0.73665 -0.20781
#
# Static dielectric constant tensor:
#      x y z
#    x 1.771890 0.000000 0.016770 
#    y 0.000000 1.763390 0.000000 
#    z 0.016770 0.000000 1.723970 
# 
# From -- ./inp_files/181059.got.cif
#   From: 2010.05.17/outbox.cif.g08.bks.cpg/sg12_91_cif.got.tgz:181059.got - 2010.06.03 13:09:07.
