data_PCOD9181706
_publ_section_title
;
Structure prediction by ZEFSAII (Michael W. Deem and Ramdas Pophale) SiO2 
 PCOD9181706
Probable space group: C 2/M
;
_chemical_formula_sum "Si O2"
_cell_formula_units_Z 48
_cell_length_a 19.076255
_cell_length_b 26.621927
_cell_length_c 7.410041
_cell_angle_alpha 90.000000
_cell_angle_beta 147.122107
_cell_angle_gamma 90.000000
_cell_volume 2042.835616
_symmetry_space_group_name_H-M "C 2/M"
_symmetry_group_IT_number 12
_symmetry_cell_setting 'monoclinic'
loop_
_space_group_symop_operation_xyz
x,y,z
-x,y,-z
-x,-y,-z
x,-y,z
1/2+x,1/2+y,z
1/2-x,1/2+y,-z
1/2-x,1/2-y,-z
1/2+x,1/2-y,z
loop_
_atom_site_type_symbol
_atom_site_label
_atom_site_fract_x
_atom_site_fract_y
_atom_site_fract_z
Si Si1 0.672517 0.151432 0.987352
Si Si2 0.202064 0.871050 0.265880
Si Si3 0.960626 0.192087 0.627715
Si Si4 0.574338 0.193159 0.403139
Si Si5 0.273517 0.441345 0.028466
Si Si6 0.132666 0.055202 0.397628
O O1 0.634455 0.186381 0.733235
O O2 0.559856 0.163101 0.883796
O O3 0.818459 0.168831 0.340491
O O4 0.669619 0.094238 0.906081
O O5 0.200157 0.911611 0.097903
O O6 0.069019 0.840406 0.962691
O O7 0.317460 0.832160 0.485632
O O8 0.215671 0.902916 0.477273
O O9 0.954021 0.248623 0.686153
O O10 0.000000 0.192534 0.500000
O O11 0.243256 0.500000 0.932832
O O12 0.384828 0.439429 0.424750
O O13 0.192697 0.000000 0.504453
O O14 0.000000 0.055659 0.000000
#
# Coordination Sequence:
#
# PCOD9181706 Si02
#       6
#     8   8   8   8   8   8
#     4  10  19  32  53  85 121 155 197 246 297 356
#     4  11  23  38  64  93 119 162 207 247 298 371
#     4  12  18  32  59  93 120 158 205 250 303 359
#     4  10  20  33  56  88 122 158 203 246 298 363
#     4  10  21  38  60  88 121 158 199 249 305 360
#     4  10  22  39  61  91 126 157 198 260 312 356
#
# _framework density 23.496752000000001
#
# number of rings (size 3 to 8) (size 9 to 14) (size 15 to 20)
#    0.000    1.500    5.000    3.000    0.000    0.000 
#    0.000   12.500    0.000   17.000    0.000    0.000 
#    0.000    0.000    0.000    0.000    0.000    0.000 
#
# Total GULP energy -134230.342775 kJ/mol
# GULP energy per Si atom -5592.930949 kJ/mol
# Density = 2.344327 g / cm^3
# Si number density = 23.496752 Si / 1000 Ang^3
#
#
#
# Elastic Constant Matrix: (Units=GPa)
#
#
# Indices 1 2 3 4 5 6 
#
# 1 110.7778 62.9481 63.3629 0.0000 0.9887 0.0000
# 2 62.9481 223.4555 54.2198 0.0000 18.6003 0.0000
# 3 63.3629 54.2198 98.1109 0.0000 23.7923 0.0000
# 4 0.0000 0.0000 0.0000 63.6189 0.0000 41.0669
# 5 0.9887 18.6003 23.7923 0.0000 57.4035 0.0000
# 6 0.0000 0.0000 0.0000 41.0669 0.0000 65.1824
#
#
#
# Elastic Compliance Matrix: (Units=1/GPa)
#
#
# Indices 1 2 3 4 5 6 
#
# 1 0.016298 -0.002488 -0.010315 0.000000 0.004801 0.000000
# 2 -0.002488 0.005563 -0.001157 0.000000 -0.001280 0.000000
# 3 -0.010315 -0.001157 0.019300 0.000000 -0.007447 0.000000
# 4 0.000000 0.000000 0.000000 0.026493 0.000000 -0.016692
# 5 0.004801 -0.001280 -0.007447 0.000000 0.020839 0.000000
# 6 0.000000 0.000000 0.000000 -0.016692 0.000000 0.025858
#
#
# Mechanical properties :
#
#
# Convention : Reuss Voigt Hill
#
# Bulk Modulus (GPa) = 75.52553 88.15620 81.84087
# Shear Modulus (GPa) = 34.08669 54.02854 44.05762
#
# Velocity S-wave (km/s) = 3.81294 4.80041 4.33488
# Velocity P-wave (km/s) = 7.18313 8.26591 7.74347
#
# Compressibility (1/GPa) = 0.01324056
#
# Stress axis : x y z
#
# Youngs Moduli (GPa) = 61.35751 179.74626 51.81451
#
# Poissons Ratio (x) = 0.44720 0.53446
# Poissons Ratio (y) = 0.15265 0.05997
# Poissons Ratio (z) = 0.63290 0.20802
#
# Static dielectric constant tensor:
#      x y z
#    x 1.897160 0.000000 -0.049700 
#    y 0.000000 1.915960 0.000000 
#    z -0.049700 0.000000 1.937910 
# 
# From -- ./inp_files/91262.got.cif
#   From: 2010.05.17/outbox.cif.g08.bks.cpg/sg12_46_cif.got.tgz:91262.got - 2010.06.03 13:09:07.
