data_PCOD9181955
_publ_section_title
;
Structure prediction by ZEFSAII (Michael W. Deem and Ramdas Pophale) SiO2 
 PCOD9181955
Probable space group: C 2/M
;
_chemical_formula_sum "Si O2"
_cell_formula_units_Z 48
_cell_length_a 18.490432
_cell_length_b 17.465373
_cell_length_c 14.929394
_cell_angle_alpha 90.000000
_cell_angle_beta 26.937715
_cell_angle_gamma 90.000000
_cell_volume 2184.168042
_symmetry_space_group_name_H-M "C 2/M"
_symmetry_group_IT_number 12
_symmetry_cell_setting 'monoclinic'
loop_
_space_group_symop_operation_xyz
x,y,z
-x,y,-z
-x,-y,-z
x,-y,z
1/2+x,1/2+y,z
1/2-x,1/2+y,-z
1/2-x,1/2-y,-z
1/2+x,1/2-y,z
loop_
_atom_site_type_symbol
_atom_site_label
_atom_site_fract_x
_atom_site_fract_y
_atom_site_fract_z
Si Si1 0.105317 0.413568 0.793802
Si Si2 0.167510 0.391705 0.223919
Si Si3 0.853385 0.768255 0.796799
Si Si4 0.783990 0.417044 0.638852
Si Si5 0.298519 0.083229 0.020576
Si Si6 0.725752 0.251949 0.421204
O O1 0.182482 0.500000 0.701411
O O2 0.196427 0.332250 0.697316
O O3 0.983801 0.407369 0.843012
O O4 0.000000 0.416615 0.000000
O O5 0.182943 0.301515 0.227175
O O6 0.256053 0.424038 0.211691
O O7 0.227103 0.410705 0.058344
O O8 0.979249 0.412058 0.425518
O O9 0.038277 0.762145 0.611677
O O10 0.750000 0.750000 0.000000
O O11 0.798886 0.850183 0.824820
O O12 0.741526 0.500000 0.642214
O O13 0.726300 0.334304 0.665693
O O14 0.248773 0.000000 0.106764
O O15 0.750000 0.250000 0.500000
#
# Coordination Sequence:
#
# PCOD9181955 Si02
#       6
#     8   8   8   8   8   8
#     4  10  23  42  64  90 124 171 217 260 321 390
#     4   9  17  31  54  82 115 150 191 243 298 365
#     4   9  19  34  56  87 119 154 203 251 309 370
#     4  10  19  32  54  86 117 149 194 245 303 366
#     4  10  19  35  60  85 114 156 203 252 309 372
#     4  11  23  39  61  91 123 166 210 258 314 378
#
# _framework density 21.976331999999999
#
# number of rings (size 3 to 8) (size 9 to 14) (size 15 to 20)
#    0.000    2.167    0.000    5.000    2.333    2.667 
#    0.000    0.000    0.000    3.500    0.000    0.000 
#    0.000    0.000    0.000    0.000    0.000    0.000 
#
# Total GULP energy -133641.179538 kJ/mol
# GULP energy per Si atom -5568.382481 kJ/mol
# Density = 2.192631 g / cm^3
# Si number density = 21.976332 Si / 1000 Ang^3
#
#
#
# Elastic Constant Matrix: (Units=GPa)
#
#
# Indices 1 2 3 4 5 6 
#
# 1 65.7797 46.3590 2.3359 -0.0053 15.7022 0.0023
# 2 46.3590 288.1894 46.1462 -0.0050 -10.2479 0.0027
# 3 2.3359 46.1462 24.4976 -0.0076 5.6505 0.0048
# 4 -0.0053 -0.0050 -0.0076 -9.1431 0.0048 31.1245
# 5 15.7022 -10.2479 5.6505 0.0048 14.4058 -0.0018
# 6 0.0023 0.0027 0.0048 31.1245 -0.0018 -10.7889
#
#
#
# Elastic Compliance Matrix: (Units=1/GPa)
#
#
# Indices 1 2 3 4 5 6 
#
# 1 0.045528 -0.017928 0.048177 -0.000004 -0.081275 0.000028
# 2 -0.017928 0.013014 -0.032377 0.000003 0.041499 -0.000015
# 3 0.048177 -0.032377 0.126043 -0.000010 -0.124984 0.000050
# 4 -0.000004 0.000003 -0.000010 0.012400 0.000011 0.035772
# 5 -0.081275 0.041499 -0.124984 0.000011 0.236551 -0.000071
# 6 0.000028 -0.000015 0.000050 0.035772 -0.000071 0.010508
#
#
# Mechanical properties :
#
#
# Convention : Reuss Voigt Hill
#
# Bulk Modulus (GPa) = 5.54544 63.12765 34.33654
# Shear Modulus (GPa) = 9.83459 17.80313 13.81886
#
# Velocity S-wave (km/s) = 2.11773 2.84932 2.51032
# Velocity P-wave (km/s) = 2.91695 6.29385 4.90515
#
# Compressibility (1/GPa) = 0.18032833
#
# Stress axis : x y z
#
# Youngs Moduli (GPa) = 21.96470 76.84081 7.93378
#
# Poissons Ratio (x) = 1.37761 -0.38222
# Poissons Ratio (y) = 0.39379 0.25687
# Poissons Ratio (z) = -1.05819 2.48786
#
# Static dielectric constant tensor:
#      x y z
#    x 1.844820 0.000000 0.036530 
#    y 0.000000 1.931000 0.000000 
#    z 0.036530 0.000000 1.791470 
# 
# From -- ./inp_files/226735.got.cif
#   From: 2010.05.17/outbox.cif.g08.bks.cpg/sg12_114_cif.got.tgz:226735.got - 2010.06.03 13:09:07.
