data_PCOD9182376
_publ_section_title
;
Structure prediction by ZEFSAII (Michael W. Deem and Ramdas Pophale) SiO2 
 PCOD9182376
Probable space group: C 2/M
;
_chemical_formula_sum "Si O2"
_cell_formula_units_Z 56
_cell_length_a 9.349039
_cell_length_b 19.605134
_cell_length_c 11.849649
_cell_angle_alpha 90.000000
_cell_angle_beta 92.943560
_cell_angle_gamma 90.000000
_cell_volume 2169.046628
_symmetry_space_group_name_H-M "C 2/M"
_symmetry_group_IT_number 12
_symmetry_cell_setting 'monoclinic'
loop_
_space_group_symop_operation_xyz
x,y,z
-x,y,-z
-x,-y,-z
x,-y,z
1/2+x,1/2+y,z
1/2-x,1/2+y,-z
1/2-x,1/2-y,-z
1/2+x,1/2-y,z
loop_
_atom_site_type_symbol
_atom_site_label
_atom_site_fract_x
_atom_site_fract_y
_atom_site_fract_z
Si Si1 0.034602 0.575311 0.269947
Si Si2 0.125857 0.673874 0.597624
Si Si3 0.164034 0.076073 0.972137
Si Si4 0.708716 0.423135 0.535786
Si Si5 0.988554 0.074803 0.262653
Si Si6 0.457080 0.278462 0.207841
Si Si7 0.155579 0.321510 0.095024
O O1 0.010302 0.500000 0.228453
O O2 0.156865 0.576089 0.371683
O O3 0.083085 0.622822 0.171918
O O4 0.899598 0.607711 0.325859
O O5 0.265503 0.646885 0.534020
O O6 0.091402 0.736205 0.681996
O O7 0.000000 0.680465 0.500000
O O8 0.140472 0.070673 0.835181
O O9 0.284399 0.132098 0.005842
O O10 0.198125 0.000000 0.014739
O O11 0.000000 0.092941 0.000000
O O12 0.711404 0.500000 0.482645
O O13 0.573589 0.421252 0.614012
O O14 0.042515 0.151565 0.240892
O O15 0.061068 0.000000 0.251380
O O16 0.305460 0.293938 0.146209
O O17 0.547266 0.239344 0.116370
#
# Coordination Sequence:
#
# PCOD9182376 Si02
#       7
#     8   8   8   8   8   8   8
#     4   9  14  25  44  66  91 118 156 202 240 279
#     4   9  18  27  41  73  96 123 159 207 253 290
#     4   9  16  29  53  82 104 122 156 206 246 281
#     4   9  14  24  42  65  93 122 161 203 241 285
#     4   9  17  31  49  67  91 129 170 201 239 293
#     4  10  20  34  50  70  98 130 166 203 245 291
#     4  10  19  33  50  74 101 132 161 196 246 296
#
# _framework density 25.817793000000002
#
# number of rings (size 3 to 8) (size 9 to 14) (size 15 to 20)
#    0.000    2.714    2.857    0.857    0.000    2.286 
#    0.000    2.857    0.000    5.571    0.000    0.000 
#    0.000   10.857    0.000    0.000    0.000    0.000 
#
# Total GULP energy -155935.315562 kJ/mol
# GULP energy per Si atom -5569.118413 kJ/mol
# Density = 2.575903 g / cm^3
# Si number density = 25.817793 Si / 1000 Ang^3
#
#
#
# Elastic Constant Matrix: (Units=GPa)
#
#
# Indices 1 2 3 4 5 6 
#
# 1 49.9856 39.6729 41.1881 0.0000 -8.0632 0.0000
# 2 39.6729 199.7298 51.2156 0.0000 -16.5666 0.0000
# 3 41.1881 51.2156 82.6002 0.0000 -20.0536 0.0000
# 4 0.0000 0.0000 0.0000 -161.8993 0.0000 -26.1434
# 5 -8.0632 -16.5666 -20.0536 0.0000 26.0355 0.0000
# 6 0.0000 0.0000 0.0000 -26.1434 0.0000 27.4613
#
#
#
# Elastic Compliance Matrix: (Units=1/GPa)
#
#
# Indices 1 2 3 4 5 6 
#
# 1 0.035701 -0.003099 -0.016820 0.000000 -0.003871 0.000000
# 2 -0.003099 0.006251 -0.001965 0.000000 0.001504 0.000000
# 3 -0.016820 -0.001965 0.024778 0.000000 0.012625 0.000000
# 4 0.000000 0.000000 0.000000 -0.005354 0.000000 -0.005097
# 5 -0.003871 0.001504 0.012625 0.000000 0.047891 0.000000
# 6 0.000000 0.000000 0.000000 -0.005097 0.000000 0.031563
#
#
# Mechanical properties :
#
#
# Convention : Reuss Voigt Hill
#
# Bulk Modulus (GPa) = 43.55449 66.27431 54.91440
# Shear Modulus (GPa) = 26.00735 -8.33123 8.83806
#
# Velocity S-wave (km/s) = 3.17731 -1.79832 1.85221
# Velocity P-wave (km/s) = 5.51062 4.62751 5.08826
#
# Compressibility (1/GPa) = 0.02295975
#
# Stress axis : x y z
#
# Youngs Moduli (GPa) = 28.01031 159.97167 40.35919
#
# Poissons Ratio (x) = 0.49581 0.67885
# Poissons Ratio (y) = 0.08681 0.07932
# Poissons Ratio (z) = 0.47114 0.31440
#
# Static dielectric constant tensor:
#      x y z
#    x 2.158230 0.000000 -0.036870 
#    y 0.000000 2.145570 0.000000 
#    z -0.036870 0.000000 2.141040 
# 
# From -- ./inp_files/207228.got.cif
#   From: 2010.05.17/outbox.cif.g08.bks.cpg/sg12_104_cif.got.tgz:207228.got - 2010.06.03 13:09:07.
