data_PCOD9182473
_publ_section_title
;
Structure prediction by ZEFSAII (Michael W. Deem and Ramdas Pophale) SiO2 
 PCOD9182473
Probable space group: C 2/M
;
_chemical_formula_sum "Si O2"
_cell_formula_units_Z 64
_cell_length_a 23.340230
_cell_length_b 13.397814
_cell_length_c 12.562411
_cell_angle_alpha 90.000000
_cell_angle_beta 110.672541
_cell_angle_gamma 90.000000
_cell_volume 3675.432680
_symmetry_space_group_name_H-M "C 2/M"
_symmetry_group_IT_number 12
_symmetry_cell_setting 'monoclinic'
loop_
_space_group_symop_operation_xyz
x,y,z
-x,y,-z
-x,-y,-z
x,-y,z
1/2+x,1/2+y,z
1/2-x,1/2+y,-z
1/2-x,1/2-y,-z
1/2+x,1/2-y,z
loop_
_atom_site_type_symbol
_atom_site_label
_atom_site_fract_x
_atom_site_fract_y
_atom_site_fract_z
Si Si1 0.921368 0.295783 0.227732
Si Si2 0.357575 0.884784 0.378174
Si Si3 0.333240 0.616237 0.927782
Si Si4 0.334889 0.383865 0.177533
Si Si5 0.928789 0.286344 0.984493
Si Si6 0.251346 0.748145 0.273568
Si Si7 0.356743 0.885622 0.746560
Si Si8 0.454444 0.115476 0.620660
O O1 0.875965 0.364117 0.267901
O O2 0.895845 0.183834 0.226389
O O3 0.988898 0.314154 0.316764
O O4 0.921426 0.319393 0.102319
O O5 0.303101 0.809219 0.370124
O O6 0.417444 0.864072 0.488609
O O7 0.340614 0.000000 0.383999
O O8 0.339435 0.500000 0.904725
O O9 0.396223 0.678091 0.954935
O O10 0.283212 0.671595 0.823477
O O11 0.315757 0.623715 0.040993
O O12 0.344189 0.500000 0.208766
O O13 0.285037 0.332501 0.220380
O O14 0.891603 0.355956 0.878420
O O15 0.000000 0.284122 0.000000
O O16 0.199770 0.689332 0.304504
O O17 0.405351 0.876921 0.683425
O O18 0.335700 0.000000 0.737823
O O19 0.476706 0.000000 0.631249
#
# Coordination Sequence:
#
# PCOD9182473 Si02
#       8
#     8   8   8   8   8   8   8   8
#     4  10  19  33  55  78 105 133 165 211 258 303
#     4  10  21  35  54  78 100 132 173 215 257 295
#     4   9  18  31  49  74 104 137 170 207 251 299
#     4   9  18  32  51  75 104 138 172 207 249 302
#     4  10  19  33  51  77 107 134 166 203 252 312
#     4  10  19  33  52  73 103 135 171 213 251 299
#     4  10  21  34  52  77 105 138 168 205 254 304
#     4  10  20  35  54  76 103 133 171 213 255 302
#
# _framework density 17.412915999999999
#
# number of rings (size 3 to 8) (size 9 to 14) (size 15 to 20)
#    0.000    2.250    1.250    1.875    0.000    4.000 
#    0.000    0.000    0.000    6.750    0.000    0.000 
#    0.000    0.000    0.000    0.000    0.000    0.000 
#
# Total GULP energy -178484.955613 kJ/mol
# GULP energy per Si atom -5577.654863 kJ/mol
# Density = 1.737328 g / cm^3
# Si number density = 17.412916 Si / 1000 Ang^3
#
#
#
# Elastic Constant Matrix: (Units=GPa)
#
#
# Indices 1 2 3 4 5 6 
#
# 1 48.2340 10.3933 8.3519 0.0000 1.9141 0.0000
# 2 10.3933 73.4740 20.1149 0.0000 3.0162 0.0000
# 3 8.3519 20.1149 51.3213 0.0000 -2.3155 0.0000
# 4 0.0000 0.0000 0.0000 20.8024 0.0000 4.6913
# 5 1.9141 3.0162 -2.3155 0.0000 16.5339 0.0000
# 6 0.0000 0.0000 0.0000 4.6913 0.0000 17.9244
#
#
#
# Elastic Compliance Matrix: (Units=1/GPa)
#
#
# Indices 1 2 3 4 5 6 
#
# 1 0.021793 -0.002215 -0.002791 0.000000 -0.002510 0.000000
# 2 -0.002215 0.015692 -0.005945 0.000000 -0.003439 0.000000
# 3 -0.002791 -0.005945 0.022475 0.000000 0.004555 0.000000
# 4 0.000000 0.000000 0.000000 0.051087 0.000000 -0.013371
# 5 -0.002510 -0.003439 0.004555 0.000000 0.062038 0.000000
# 6 0.000000 0.000000 0.000000 -0.013371 0.000000 0.059289
#
#
# Mechanical properties :
#
#
# Convention : Reuss Voigt Hill
#
# Bulk Modulus (GPa) = 26.27698 27.86105 27.06901
# Shear Modulus (GPa) = 18.72919 19.99675 19.36297
#
# Velocity S-wave (km/s) = 3.28318 3.39246 3.33827
# Velocity P-wave (km/s) = 5.43099 5.60179 5.51705
#
# Compressibility (1/GPa) = 0.03805613
#
# Stress axis : x y z
#
# Youngs Moduli (GPa) = 45.88716 63.72510 44.49390
#
# Poissons Ratio (x) = 0.14118 0.12420
# Poissons Ratio (y) = 0.10166 0.26452
# Poissons Ratio (z) = 0.12809 0.37885
#
# Static dielectric constant tensor:
#      x y z
#    x 1.594800 0.000000 -0.007630 
#    y 0.000000 1.573150 0.000000 
#    z -0.007630 0.000000 1.590570 
# 
# From -- ./inp_files/167289.got.cif
#   From: 2010.05.17/outbox.cif.g08.bks.cpg/sg12_84_cif.got.tgz:167289.got - 2010.06.03 13:09:07.
