data_PCOD9182695
_publ_section_title
;
Structure prediction by ZEFSAII (Michael W. Deem and Ramdas Pophale) SiO2 
 PCOD9182695
Probable space group: C 2/M
;
_chemical_formula_sum "Si O2"
_cell_formula_units_Z 64
_cell_length_a 19.349507
_cell_length_b 7.403794
_cell_length_c 20.476247
_cell_angle_alpha 90.000000
_cell_angle_beta 83.932721
_cell_angle_gamma 90.000000
_cell_volume 2916.990651
_symmetry_space_group_name_H-M "C 2/M"
_symmetry_group_IT_number 12
_symmetry_cell_setting 'monoclinic'
loop_
_space_group_symop_operation_xyz
x,y,z
-x,y,-z
-x,-y,-z
x,-y,z
1/2+x,1/2+y,z
1/2-x,1/2+y,-z
1/2-x,1/2-y,-z
1/2+x,1/2-y,z
loop_
_atom_site_type_symbol
_atom_site_label
_atom_site_fract_x
_atom_site_fract_y
_atom_site_fract_z
Si Si1 0.163317 0.280397 0.080614
Si Si2 0.572231 0.293821 0.965973
Si Si3 0.977399 0.788919 0.571708
Si Si4 0.655784 0.781755 0.343349
Si Si5 0.915125 0.287578 0.782973
Si Si6 0.451946 0.282406 0.302659
Si Si7 0.299874 0.720313 0.280610
Si Si8 0.193888 0.220658 0.870019
O O1 0.161977 0.500000 0.076079
O O2 0.116125 0.219308 0.146689
O O3 0.242173 0.225053 0.089586
O O4 0.127472 0.207123 0.019574
O O5 0.554594 0.500000 0.948634
O O6 0.618548 0.215284 0.902542
O O7 0.500000 0.211723 0.000000
O O8 0.895252 0.776467 0.593991
O O9 0.000000 0.710688 0.500000
O O10 0.014879 0.713057 0.632819
O O11 0.996659 0.000000 0.568376
O O12 0.621787 0.715168 0.278589
O O13 0.735393 0.723203 0.331828
O O14 0.654179 0.000000 0.343580
O O15 0.899101 0.500000 0.785272
O O16 0.996437 0.263878 0.761795
O O17 0.450630 0.500000 0.305653
O O18 0.374329 0.218270 0.298406
O O19 0.300009 0.500000 0.280375
O O20 0.290395 0.774061 0.205929
O O21 0.192496 0.000000 0.871489
#
# Coordination Sequence:
#
# PCOD9182695 Si02
#       8
#     8   8   8   8   8   8   8   8
#     4  10  19  33  53  70  92 128 164 195 245 304
#     4  10  22  35  49  72  99 126 162 208 251 288
#     4   9  18  33  50  71 104 139 164 191 237 291
#     4   9  16  30  52  75  96 121 163 206 236 278
#     4   9  17  30  48  71  95 123 157 198 245 290
#     4   9  18  30  50  75  97 128 166 199 236 285
#     4   9  16  29  51  75  97 123 161 207 247 287
#     4   9  17  32  51  70  95 128 161 198 250 299
#
# _framework density 21.940421000000001
#
# number of rings (size 3 to 8) (size 9 to 14) (size 15 to 20)
#    0.000    2.750    1.250    0.375    1.750    1.000 
#    0.000    1.250    0.000    1.500    0.000    0.000 
#    0.000    0.000    0.000    0.000    0.000    0.000 
#
# Total GULP energy -178605.014340 kJ/mol
# GULP energy per Si atom -5581.406698 kJ/mol
# Density = 2.189048 g / cm^3
# Si number density = 21.940421 Si / 1000 Ang^3
#
#
#
# Elastic Constant Matrix: (Units=GPa)
#
#
# Indices 1 2 3 4 5 6 
#
# 1 129.6889 -19.0292 32.3809 0.0000 -21.4545 0.0000
# 2 -19.0292 70.9114 -7.6495 0.0000 3.3411 0.0000
# 3 32.3809 -7.6495 73.3417 0.0000 -31.0273 0.0000
# 4 0.0000 0.0000 0.0000 6.8686 0.0000 -1.9648
# 5 -21.4545 3.3411 -31.0273 0.0000 33.7459 0.0000
# 6 0.0000 0.0000 0.0000 -1.9648 0.0000 -26.8673
#
#
#
# Elastic Compliance Matrix: (Units=1/GPa)
#
#
# Indices 1 2 3 4 5 6 
#
# 1 0.009174 0.002043 -0.002382 0.000000 0.003440 0.000000
# 2 0.002043 0.014718 0.000926 0.000000 0.000693 0.000000
# 3 -0.002382 0.000926 0.023082 0.000000 0.019616 0.000000
# 4 0.000000 0.000000 0.000000 0.142608 0.000000 -0.010429
# 5 0.003440 0.000693 0.019616 0.000000 0.049787 0.000000
# 6 0.000000 0.000000 0.000000 -0.010429 0.000000 -0.036457
#
#
# Mechanical properties :
#
#
# Convention : Reuss Voigt Hill
#
# Bulk Modulus (GPa) = 20.76916 31.70515 26.23715
# Shear Modulus (GPa) = 22.95828 20.63210 21.79519
#
# Velocity S-wave (km/s) = 3.23831 3.06987 3.15521
# Velocity P-wave (km/s) = 4.84447 5.20071 5.02575
#
# Compressibility (1/GPa) = 0.04814831
#
# Stress axis : x y z
#
# Youngs Moduli (GPa) = 108.99879 67.94590 43.32439
#
# Poissons Ratio (x) = -0.13881 0.10320
# Poissons Ratio (y) = -0.22268 -0.04014
# Poissons Ratio (z) = 0.25964 -0.06295
#
# Static dielectric constant tensor:
#      x y z
#    x 1.803890 0.000000 -0.019790 
#    y 0.000000 1.860590 0.000000 
#    z -0.019790 0.000000 1.789050 
# 
# From -- ./inp_files/314191.got.cif
#   From: 2010.05.17/outbox.cif.g08.bks.cpg/sg12_158_cif.got.tgz:314191.got - 2010.06.03 13:09:07.
