data_PCOD9182417
_publ_section_title
;
Structure prediction by ZEFSAII (Michael W. Deem and Ramdas Pophale) SiO2 
 PCOD9182417
Probable space group: C 2/M
;
_chemical_formula_sum "Si O2"
_cell_formula_units_Z 56
_cell_length_a 19.714608
_cell_length_b 8.827334
_cell_length_c 28.902641
_cell_angle_alpha 90.000000
_cell_angle_beta 141.071969
_cell_angle_gamma 90.000000
_cell_volume 3160.476142
_symmetry_space_group_name_H-M "C 2/M"
_symmetry_group_IT_number 12
_symmetry_cell_setting 'monoclinic'
loop_
_space_group_symop_operation_xyz
x,y,z
-x,y,-z
-x,-y,-z
x,-y,z
1/2+x,1/2+y,z
1/2-x,1/2+y,-z
1/2-x,1/2-y,-z
1/2+x,1/2-y,z
loop_
_atom_site_type_symbol
_atom_site_label
_atom_site_fract_x
_atom_site_fract_y
_atom_site_fract_z
Si Si1 0.349773 0.680206 0.950871
Si Si2 0.424087 0.318689 0.314503
Si Si3 0.151530 0.680220 0.419291
Si Si4 0.127119 0.819789 0.819828
Si Si5 0.881993 0.180872 0.699025
Si Si6 0.558866 0.181552 0.095841
Si Si7 0.717813 0.818194 0.264296
O O1 0.360376 0.500000 0.957027
O O2 0.227270 0.731080 0.894242
O O3 0.383356 0.744162 0.918056
O O4 0.437567 0.754651 0.031527
O O5 0.442578 0.500000 0.326759
O O6 0.537110 0.234353 0.379531
O O7 0.379579 0.288933 0.239012
O O8 0.332855 0.276769 0.302957
O O9 0.158107 0.500000 0.422853
O O10 0.250000 0.750000 0.500000
O O11 0.151444 0.741811 0.366721
O O12 0.008192 0.780066 0.775286
O O13 0.144754 0.000000 0.834813
O O14 0.809983 0.235628 0.703149
O O15 0.877249 0.000000 0.690485
O O16 0.626778 0.216972 0.177578
O O17 0.558187 0.000000 0.089088
O O18 0.717139 0.000000 0.270905
#
# Coordination Sequence:
#
# PCOD9182417 Si02
#       7
#     8   8   8   8   8   8   8
#     4  11  20  29  47  78 107 136 185 242 280 315
#     4   9  18  35  58  84 112 144 184 226 270 325
#     4  11  22  39  63  89 115 145 181 221 266 320
#     4   9  17  34  54  74 104 146 187 224 275 332
#     4  10  22  38  58  83 114 147 181 225 275 327
#     4  10  19  33  51  72 105 148 184 223 280 335
#     4  10  20  36  57  82 112 147 185 225 276 333
#
# _framework density 17.718848999999999
#
# number of rings (size 3 to 8) (size 9 to 14) (size 15 to 20)
#    0.000    2.000    1.429    5.143    0.000    4.571 
#    0.000    1.429    0.000    4.286    0.000    0.000 
#    0.000    0.000    0.000    0.000    0.000    0.000 
#
# Total GULP energy -156334.775781 kJ/mol
# GULP energy per Si atom -5583.384849 kJ/mol
# Density = 1.767852 g / cm^3
# Si number density = 17.718849 Si / 1000 Ang^3
#
#
#
# Elastic Constant Matrix: (Units=GPa)
#
#
# Indices 1 2 3 4 5 6 
#
# 1 112.0058 49.4986 52.8362 0.0000 13.3239 0.0000
# 2 49.4986 86.9310 66.4494 0.0000 9.0535 0.0000
# 3 52.8362 66.4494 131.1590 0.0000 17.4330 0.0000
# 4 0.0000 0.0000 0.0000 23.4180 0.0000 6.7047
# 5 13.3239 9.0535 17.4330 0.0000 15.8885 0.0000
# 6 0.0000 0.0000 0.0000 6.7047 0.0000 25.1118
#
#
#
# Elastic Compliance Matrix: (Units=1/GPa)
#
#
# Indices 1 2 3 4 5 6 
#
# 1 0.012791 -0.005434 -0.001622 0.000000 -0.005850 0.000000
# 2 -0.005434 0.021084 -0.008782 0.000000 0.002179 0.000000
# 3 -0.001622 -0.008782 0.013910 0.000000 -0.008897 0.000000
# 4 0.000000 0.000000 0.000000 0.046236 0.000000 -0.012345
# 5 -0.005850 0.002179 -0.008897 0.000000 0.076365 0.000000
# 6 0.000000 0.000000 0.000000 -0.012345 0.000000 0.043118
#
#
# Mechanical properties :
#
#
# Convention : Reuss Voigt Hill
#
# Bulk Modulus (GPa) = 62.08273 74.18492 68.13382
# Shear Modulus (GPa) = 19.95622 23.63777 21.79700
#
# Velocity S-wave (km/s) = 3.35964 3.65642 3.51117
# Velocity P-wave (km/s) = 7.08260 7.73205 7.41444
#
# Compressibility (1/GPa) = 0.01610754
#
# Stress axis : x y z
#
# Youngs Moduli (GPa) = 78.18283 47.43033 71.89205
#
# Poissons Ratio (x) = 0.25773 0.11661
# Poissons Ratio (y) = 0.42483 0.63138
# Poissons Ratio (z) = 0.12682 0.41655
#
# Static dielectric constant tensor:
#      x y z
#    x 1.596040 0.000000 0.018330 
#    y 0.000000 1.590120 0.000000 
#    z 0.018330 0.000000 1.596220 
# 
# From -- ./inp_files/377766.got.cif
#   From: 2010.05.17/outbox.cif.g08.bks.cpg/sg12_189_cif.got.tgz:377766.got - 2010.06.03 13:09:07.
