data_PCOD9182238
_publ_section_title
;
Structure prediction by ZEFSAII (Michael W. Deem and Ramdas Pophale) SiO2 
 PCOD9182238
Probable space group: C 2/M
;
_chemical_formula_sum "Si O2"
_cell_formula_units_Z 56
_cell_length_a 13.942608
_cell_length_b 18.254307
_cell_length_c 13.158320
_cell_angle_alpha 90.000000
_cell_angle_beta 52.099953
_cell_angle_gamma 90.000000
_cell_volume 2642.608442
_symmetry_space_group_name_H-M "C 2/M"
_symmetry_group_IT_number 12
_symmetry_cell_setting 'monoclinic'
loop_
_space_group_symop_operation_xyz
x,y,z
-x,y,-z
-x,-y,-z
x,-y,z
1/2+x,1/2+y,z
1/2-x,1/2+y,-z
1/2-x,1/2-y,-z
1/2+x,1/2-y,z
loop_
_atom_site_type_symbol
_atom_site_label
_atom_site_fract_x
_atom_site_fract_y
_atom_site_fract_z
Si Si1 0.665461 0.700260 0.483480
Si Si2 0.710631 0.585930 0.101261
Si Si3 0.641518 0.087707 0.606509
Si Si4 0.466556 0.587930 0.132936
Si Si5 0.697991 0.088140 0.345304
Si Si6 0.109826 0.646034 0.185682
Si Si7 0.618417 0.292668 0.287576
O O1 0.750000 0.750000 0.500000
O O2 0.730796 0.621238 0.441312
O O3 0.526386 0.693768 0.610178
O O4 0.659416 0.732085 0.373121
O O5 0.726441 0.500000 0.111895
O O6 0.580573 0.597907 0.131012
O O7 0.697813 0.636912 0.207151
O O8 0.811633 0.613165 0.956285
O O9 0.630366 0.108160 0.493464
O O10 0.531620 0.127240 0.735717
O O11 0.634728 0.000000 0.621384
O O12 0.451401 0.500000 0.131288
O O13 0.337764 0.615503 0.257400
O O14 0.500000 0.618115 0.000000
O O15 0.645764 0.109538 0.270296
O O16 0.698825 0.000000 0.347163
O O17 0.134527 0.731186 0.190947
#
# Coordination Sequence:
#
# PCOD9182238 Si02
#       7
#     8   8   8   8   8   8   8
#     4  11  23  47  69  95 133 174 219 279 336 396
#     4  11  23  41  63  93 135 178 223 277 330 397
#     4  11  23  38  64  96 130 172 222 276 334 397
#     4   9  16  31  54  85 121 164 210 261 325 379
#     4  10  19  32  57  94 128 166 216 273 334 391
#     4  12  22  39  62  94 135 171 218 275 340 395
#     4  11  26  42  70  97 127 177 227 272 335 402
#
# _framework density 21.191184
#
# number of rings (size 3 to 8) (size 9 to 14) (size 15 to 20)
#    0.000    1.286    2.857    3.857    2.000    3.429 
#    0.000    2.143    0.000    1.714    0.000    0.000 
#    0.000    0.000    0.000    0.000    0.000    0.000 
#
# Total GULP energy -156485.403549 kJ/mol
# GULP energy per Si atom -5588.764412 kJ/mol
# Density = 2.114295 g / cm^3
# Si number density = 21.191184 Si / 1000 Ang^3
#
#
#
# Elastic Constant Matrix: (Units=GPa)
#
#
# Indices 1 2 3 4 5 6 
#
# 1 59.9527 15.1189 27.3691 0.0000 -9.2627 0.0000
# 2 15.1189 97.5993 42.3010 0.0000 5.0924 0.0000
# 3 27.3691 42.3010 114.5475 0.0000 -15.5530 0.0000
# 4 0.0000 0.0000 0.0000 26.7465 0.0000 -0.3292
# 5 -9.2627 5.0924 -15.5530 0.0000 26.9363 0.0000
# 6 0.0000 0.0000 0.0000 -0.3292 0.0000 33.0837
#
#
#
# Elastic Compliance Matrix: (Units=1/GPa)
#
#
# Indices 1 2 3 4 5 6 
#
# 1 0.019433 -0.001870 -0.003252 0.000000 0.005158 0.000000
# 2 -0.001870 0.013125 -0.005235 0.000000 -0.006147 0.000000
# 3 -0.003252 -0.005235 0.012394 0.000000 0.007028 0.000000
# 4 0.000000 0.000000 0.000000 0.037393 0.000000 0.000372
# 5 0.005158 -0.006147 0.007028 0.000000 0.044118 0.000000
# 6 0.000000 0.000000 0.000000 0.000372 0.000000 0.030230
#
#
# Mechanical properties :
#
#
# Convention : Reuss Voigt Hill
#
# Bulk Modulus (GPa) = 41.25633 49.07528 45.16581
# Shear Modulus (GPa) = 26.95602 29.84066 28.39834
#
# Velocity S-wave (km/s) = 3.57044 3.75662 3.66471
# Velocity P-wave (km/s) = 6.04220 6.48266 6.26630
#
# Compressibility (1/GPa) = 0.02423870
#
# Stress axis : x y z
#
# Youngs Moduli (GPa) = 51.45878 76.18921 80.68120
#
# Poissons Ratio (x) = 0.14246 0.26240
# Poissons Ratio (y) = 0.09622 0.42235
# Poissons Ratio (z) = 0.16736 0.39884
#
# Static dielectric constant tensor:
#      x y z
#    x 1.763610 0.000000 0.012760 
#    y 0.000000 1.799760 0.000000 
#    z 0.012760 0.000000 1.757860 
# 
# From -- ./inp_files/216315.got.cif
#   From: 2010.05.17/outbox.cif.g08.bks.cpg/sg12_109_cif.got.tgz:216315.got - 2010.06.03 13:09:07.
