data_PCOD9182809
_publ_section_title
;
Structure prediction by ZEFSAII (Michael W. Deem and Ramdas Pophale) SiO2 
 PCOD9182809
Probable space group: C 2/M
;
_chemical_formula_sum "Si O2"
_cell_formula_units_Z 64
_cell_length_a 12.679801
_cell_length_b 24.272247
_cell_length_c 26.596616
_cell_angle_alpha 90.000000
_cell_angle_beta 27.709671
_cell_angle_gamma 90.000000
_cell_volume 3806.219274
_symmetry_space_group_name_H-M "C 2/M"
_symmetry_group_IT_number 12
_symmetry_cell_setting 'monoclinic'
loop_
_space_group_symop_operation_xyz
x,y,z
-x,y,-z
-x,-y,-z
x,-y,z
1/2+x,1/2+y,z
1/2-x,1/2+y,-z
1/2-x,1/2-y,-z
1/2+x,1/2-y,z
loop_
_atom_site_type_symbol
_atom_site_label
_atom_site_fract_x
_atom_site_fract_y
_atom_site_fract_z
Si Si1 0.136789 0.830484 0.762213
Si Si2 0.504028 0.737540 0.376725
Si Si3 0.069554 0.787874 0.047865
Si Si4 0.026349 0.435941 0.735786
Si Si5 0.297853 0.670147 0.623239
Si Si6 0.401253 0.258786 0.779129
Si Si7 0.192650 0.902605 0.959130
Si Si8 0.868289 0.936044 0.181050
O O1 0.359435 0.792644 0.664136
O O2 0.157991 0.896041 0.759650
O O3 0.053196 0.817022 0.853660
O O4 0.969958 0.805405 0.790479
O O5 0.603511 0.685700 0.364450
O O6 0.542405 0.725850 0.302003
O O7 0.250000 0.750000 0.500000
O O8 0.864266 0.756911 0.106501
O O9 0.250000 0.750000 0.000000
O O10 0.190275 0.836233 0.965681
O O11 0.087661 0.500000 0.706273
O O12 0.916777 0.424014 0.837139
O O13 0.835038 0.424496 0.773473
O O14 0.226985 0.392502 0.644330
O O15 0.500000 0.687105 0.500000
O O16 0.067262 0.706184 0.716558
O O17 0.000000 0.918006 0.000000
O O18 0.101739 0.926322 0.050407
O O19 0.855994 0.000000 0.199879
#
# Coordination Sequence:
#
# PCOD9182809 Si02
#       8
#     8   8   8   8   8   8   8   8
#     4   9  20  32  49  77 104 134 173 215 260 312
#     4  10  19  33  53  76 103 135 174 210 264 320
#     4  10  21  30  48  77 108 141 168 207 263 318
#     4  10  20  32  51  76 104 139 177 219 265 312
#     4  11  21  33  54  75 107 140 167 218 269 314
#     4  10  20  35  50  76 110 135 176 214 262 320
#     4   9  17  29  49  73 103 133 169 212 254 307
#     4   9  17  33  53  76 103 138 182 221 253 306
#
# _framework density 16.814585000000001
#
# number of rings (size 3 to 8) (size 9 to 14) (size 15 to 20)
#    0.000    2.250    1.250    3.375    7.000    1.750 
#    0.000    0.000    0.000    0.750    0.000    2.625 
#    0.000    0.000    0.000    0.000    0.000    0.000 
#
# Total GULP energy -178207.240328 kJ/mol
# GULP energy per Si atom -5568.976260 kJ/mol
# Density = 1.677631 g / cm^3
# Si number density = 16.814585 Si / 1000 Ang^3
#
#
#
# Elastic Constant Matrix: (Units=GPa)
#
#
# Indices 1 2 3 4 5 6 
#
# 1 86.1810 45.8673 18.1972 -0.0008 -0.7249 -0.0129
# 2 45.8673 105.9439 23.6159 -0.0492 -7.4071 -0.0647
# 3 18.1972 23.6159 48.5313 0.0058 -7.4099 -0.0549
# 4 -0.0008 -0.0492 0.0058 12.9691 -0.0686 -0.8501
# 5 -0.7249 -7.4071 -7.4099 -0.0686 23.0762 0.0044
# 6 -0.0129 -0.0647 -0.0549 -0.8501 0.0044 20.7670
#
#
#
# Elastic Compliance Matrix: (Units=1/GPa)
#
#
# Indices 1 2 3 4 5 6 
#
# 1 0.015557 -0.006198 -0.003204 -0.000036 -0.002530 -0.000019
# 2 -0.006198 0.013131 -0.003630 0.000068 0.002855 0.000030
# 3 -0.003204 -0.003630 0.024585 0.000014 0.006629 0.000051
# 4 -0.000036 0.000068 0.000014 0.077315 0.000254 0.003165
# 5 -0.002530 0.002855 0.006629 0.000254 0.046301 0.000025
# 6 -0.000019 0.000030 0.000051 0.003165 0.000025 0.048283
#
#
# Mechanical properties :
#
#
# Convention : Reuss Voigt Hill
#
# Bulk Modulus (GPa) = 36.75058 46.22409 41.48734
# Shear Modulus (GPa) = 19.20817 21.56085 20.38451
#
# Velocity S-wave (km/s) = 3.38354 3.58477 3.48560
# Velocity P-wave (km/s) = 6.09658 6.68463 6.39736
#
# Compressibility (1/GPa) = 0.02721046
#
# Stress axis : x y z
#
# Youngs Moduli (GPa) = 64.27784 76.15466 40.67540
#
# Poissons Ratio (x) = 0.47202 0.13030
# Poissons Ratio (y) = 0.39841 0.14764
# Poissons Ratio (z) = 0.20591 0.27643
#
# Static dielectric constant tensor:
#      x y z
#    x 1.575360 0.000180 -0.004010 
#    y 0.000180 1.763860 -0.001450 
#    z -0.004010 -0.001450 1.630350 
# 
# From -- ./inp_files/136669.got.cif
#   From: 2010.05.17/outbox.cif.g08.bks.cpg/sg12_69_cif.got.tgz:136669.got - 2010.06.03 13:09:07.
