data_PCOD9182775
_publ_section_title
;
Structure prediction by ZEFSAII (Michael W. Deem and Ramdas Pophale) SiO2 
 PCOD9182775
Probable space group: C 2/M
;
_chemical_formula_sum "Si O2"
_cell_formula_units_Z 56
_cell_length_a 19.390605
_cell_length_b 7.710482
_cell_length_c 19.666869
_cell_angle_alpha 90.000000
_cell_angle_beta 67.737093
_cell_angle_gamma 90.000000
_cell_volume 2721.219059
_symmetry_space_group_name_H-M "C 2/M"
_symmetry_group_IT_number 12
_symmetry_cell_setting 'monoclinic'
loop_
_space_group_symop_operation_xyz
x,y,z
-x,y,-z
-x,-y,-z
x,-y,z
1/2+x,1/2+y,z
1/2-x,1/2+y,-z
1/2-x,1/2-y,-z
1/2+x,1/2-y,z
loop_
_atom_site_type_symbol
_atom_site_label
_atom_site_fract_x
_atom_site_fract_y
_atom_site_fract_z
Si Si1 0.873171 0.704696 0.736959
Si Si2 0.565650 0.197549 0.429340
Si Si3 0.707435 0.691847 0.448956
Si Si4 0.835684 0.802648 0.310092
Si Si5 0.994091 0.789515 0.215221
Si Si6 0.052675 0.212784 0.918588
Si Si7 0.711399 0.302249 0.829496
O O1 0.858304 0.500000 0.728319
O O2 0.907883 0.776220 0.653136
O O3 0.793552 0.778616 0.791847
O O4 0.933362 0.723519 0.773813
O O5 0.500000 0.277746 0.500000
O O6 0.639361 0.194809 0.448151
O O7 0.540889 0.000000 0.422795
O O8 0.676755 0.500000 0.469975
O O9 0.750000 0.750000 0.500000
O O10 0.771585 0.695071 0.368577
O O11 0.919751 0.736276 0.284326
O O12 0.817883 0.811975 0.237008
O O13 0.831473 0.000000 0.338898
O O14 0.981823 0.734755 0.141541
O O15 0.995130 0.000000 0.215357
O O16 0.138611 0.274399 0.893781
O O17 0.055816 0.000000 0.916497
O O18 0.000000 0.265651 0.000000
O O19 0.721180 0.500000 0.852178
#
# Coordination Sequence:
#
# PCOD9182775 Si02
#       7
#     8   8   8   8   8   8   8
#     4  10  19  33  53  75 106 142 174 213 263 323
#     4  10  22  40  58  77 105 142 181 222 269 320
#     4  12  25  38  55  78 105 137 177 223 271 319
#     4   9  17  35  55  72  98 135 177 220 263 308
#     4   9  19  32  52  80 108 136 173 222 263 303
#     4   8  14  28  52  79 104 135 177 217 253 303
#     4   8  14  28  51  73  97 134 174 209 255 309
#
# _framework density 20.579013
#
# number of rings (size 3 to 8) (size 9 to 14) (size 15 to 20)
#    0.000    2.571    1.429    3.000    2.000    1.429 
#    0.000    0.714    0.000    0.429    0.000    0.000 
#    0.000    0.000    0.000    0.000    0.000    0.000 
#
# Total GULP energy -156034.821101 kJ/mol
# GULP energy per Si atom -5572.672182 kJ/mol
# Density = 2.053217 g / cm^3
# Si number density = 20.579013 Si / 1000 Ang^3
#
#
#
# Elastic Constant Matrix: (Units=GPa)
#
#
# Indices 1 2 3 4 5 6 
#
# 1 146.3213 -4.5638 66.7372 0.0006 -32.0576 -0.0015
# 2 -4.5638 39.8699 5.7723 0.0018 -3.5748 -0.0038
# 3 66.7372 5.7723 122.8798 0.0005 -36.4022 -0.0008
# 4 0.0006 0.0018 0.0005 47.6656 0.0002 -59.6532
# 5 -32.0576 -3.5748 -36.4022 0.0002 35.6620 -0.0003
# 6 -0.0015 -0.0038 -0.0008 -59.6532 -0.0003 115.4399
#
#
#
# Elastic Compliance Matrix: (Units=1/GPa)
#
#
# Indices 1 2 3 4 5 6 
#
# 1 0.009792 0.002139 -0.003938 0.000000 0.004997 0.000000
# 2 0.002139 0.025810 -0.001488 0.000000 0.002991 0.000001
# 3 -0.003938 -0.001488 0.013265 0.000000 0.009851 0.000000
# 4 0.000000 0.000000 0.000000 0.059383 0.000000 0.030686
# 5 0.004997 0.002991 0.009851 0.000000 0.042888 0.000000
# 6 0.000000 0.000001 0.000000 0.030686 0.000000 0.024519
#
#
# Mechanical properties :
#
#
# Convention : Reuss Voigt Hill
#
# Bulk Modulus (GPa) = 23.64490 49.44026 36.54258
# Shear Modulus (GPa) = 25.46739 55.82851 40.64795
#
# Velocity S-wave (km/s) = 3.52169 5.21419 4.44916
# Velocity P-wave (km/s) = 5.29633 7.76705 6.64749
#
# Compressibility (1/GPa) = 0.04229242
#
# Stress axis : x y z
#
# Youngs Moduli (GPa) = 102.12406 38.74457 75.38518
#
# Poissons Ratio (x) = -0.08288 0.29690
# Poissons Ratio (y) = -0.21845 0.11218
# Poissons Ratio (z) = 0.40221 0.05766
#
# Static dielectric constant tensor:
#      x y z
#    x 1.719560 0.000000 -0.034350 
#    y 0.000000 1.779760 0.000000 
#    z -0.034350 0.000000 1.775960 
# 
# From -- ./inp_files/319034.got.cif
#   From: 2010.05.17/outbox.cif.g08.bks.cpg/sg12_160_cif.got.tgz:319034.got - 2010.06.03 13:09:07.
