data_PCOD9182569
_publ_section_title
;
Structure prediction by ZEFSAII (Michael W. Deem and Ramdas Pophale) SiO2 
 PCOD9182569
Probable space group: C 2/M
;
_chemical_formula_sum "Si O2"
_cell_formula_units_Z 56
_cell_length_a 13.263964
_cell_length_b 21.862358
_cell_length_c 14.005263
_cell_angle_alpha 90.000000
_cell_angle_beta 46.872292
_cell_angle_gamma 90.000000
_cell_volume 2964.042081
_symmetry_space_group_name_H-M "C 2/M"
_symmetry_group_IT_number 12
_symmetry_cell_setting 'monoclinic'
loop_
_space_group_symop_operation_xyz
x,y,z
-x,y,-z
-x,-y,-z
x,-y,z
1/2+x,1/2+y,z
1/2-x,1/2+y,-z
1/2-x,1/2-y,-z
1/2+x,1/2-y,z
loop_
_atom_site_type_symbol
_atom_site_label
_atom_site_fract_x
_atom_site_fract_y
_atom_site_fract_z
Si Si1 0.402563 0.350824 0.975640
Si Si2 0.243450 0.249787 0.805869
Si Si3 0.089065 0.346183 0.797625
Si Si4 0.680851 0.070526 0.008162
Si Si5 0.006466 0.175660 0.606111
Si Si6 0.880382 0.220432 0.297383
Si Si7 0.683932 0.569395 0.288632
O O1 0.307420 0.297367 0.082885
O O2 0.304307 0.400676 0.990948
O O3 0.500000 0.373148 0.000000
O O4 0.503491 0.319445 0.833371
O O5 0.130821 0.303671 0.861773
O O6 0.384479 0.284293 0.733039
O O7 0.243648 0.219271 0.699836
O O8 0.222752 0.389964 0.700432
O O9 0.954344 0.387290 0.893973
O O10 0.078170 0.292245 0.726929
O O11 0.651235 0.000000 0.054030
O O12 0.730901 0.069682 0.865843
O O13 0.136107 0.192134 0.587368
O O14 0.957546 0.105474 0.639521
O O15 0.000000 0.193006 0.500000
O O16 0.664923 0.500000 0.331894
#
# Coordination Sequence:
#
# PCOD9182569 Si02
#       7
#     8   8   8   8   8   8   8
#     4  10  19  33  52  75 102 135 165 201 249 305
#     4   8  20  32  49  79 101 128 159 208 255 295
#     4   9  19  31  52  79 101 125 163 201 262 299
#     4  11  21  30  49  75 107 138 162 199 246 302
#     4  11  21  34  52  74 101 135 170 209 249 296
#     4   9  19  32  52  77 101 128 161 208 256 302
#     4  10  21  35  48  71 106 135 168 208 241 294
#
# _framework density 18.893118999999999
#
# number of rings (size 3 to 8) (size 9 to 14) (size 15 to 20)
#    0.857    1.429    1.429    1.714    6.000    3.429 
#    0.000    0.000    0.000    0.000    0.000    0.000 
#    0.000    2.857    0.000    0.000    0.000    0.000 
#
# Total GULP energy -155975.484975 kJ/mol
# GULP energy per Si atom -5570.553035 kJ/mol
# Density = 1.885012 g / cm^3
# Si number density = 18.893119 Si / 1000 Ang^3
#
#
#
# Elastic Constant Matrix: (Units=GPa)
#
#
# Indices 1 2 3 4 5 6 
#
# 1 77.3678 36.0089 11.6701 0.0000 10.6165 0.0000
# 2 36.0089 112.1730 13.4879 0.0000 2.6492 0.0000
# 3 11.6701 13.4879 29.5294 0.0000 7.7404 0.0000
# 4 0.0000 0.0000 0.0000 11.3622 0.0000 3.4057
# 5 10.6165 2.6492 7.7404 0.0000 26.6610 0.0000
# 6 0.0000 0.0000 0.0000 3.4057 0.0000 19.1817
#
#
#
# Elastic Compliance Matrix: (Units=1/GPa)
#
#
# Indices 1 2 3 4 5 6 
#
# 1 0.016287 -0.004756 -0.002909 0.000000 -0.005168 0.000000
# 2 -0.004756 0.010825 -0.003549 0.000000 0.001849 0.000000
# 3 -0.002909 -0.003549 0.039224 0.000000 -0.009877 0.000000
# 4 0.000000 0.000000 0.000000 0.092958 0.000000 -0.016505
# 5 -0.005168 0.001849 -0.009877 0.000000 0.042250 0.000000
# 6 0.000000 0.000000 0.000000 -0.016505 0.000000 0.055063
#
#
# Mechanical properties :
#
#
# Convention : Reuss Voigt Hill
#
# Bulk Modulus (GPa) = 22.77586 37.93379 30.35483
# Shear Modulus (GPa) = 17.02571 21.96785 19.49678
#
# Velocity S-wave (km/s) = 3.00519 3.41360 3.21589
# Velocity P-wave (km/s) = 4.91150 5.97148 5.46724
#
# Compressibility (1/GPa) = 0.04390613
#
# Stress axis : x y z
#
# Youngs Moduli (GPa) = 61.39819 92.38052 25.49433
#
# Poissons Ratio (x) = 0.43941 0.07417
# Poissons Ratio (y) = 0.29204 0.09049
# Poissons Ratio (z) = 0.17863 0.32788
#
# Static dielectric constant tensor:
#      x y z
#    x 1.718510 0.000000 0.002630 
#    y 0.000000 1.660430 0.000000 
#    z 0.002630 0.000000 1.697850 
# 
# From -- ./inp_files/216312.got.cif
#   From: 2010.05.17/outbox.cif.g08.bks.cpg/sg12_109_cif.got.tgz:216312.got - 2010.06.03 13:09:07.
