data_PCOD9182889
_publ_section_title
;
Structure prediction by ZEFSAII (Michael W. Deem and Ramdas Pophale) SiO2 
 PCOD9182889
Probable space group: C 2/M
;
_chemical_formula_sum "Si O2"
_cell_formula_units_Z 64
_cell_length_a 19.239102
_cell_length_b 13.685868
_cell_length_c 24.119967
_cell_angle_alpha 90.000000
_cell_angle_beta 30.718571
_cell_angle_gamma 90.000000
_cell_volume 3244.166225
_symmetry_space_group_name_H-M "C 2/M"
_symmetry_group_IT_number 12
_symmetry_cell_setting 'monoclinic'
loop_
_space_group_symop_operation_xyz
x,y,z
-x,y,-z
-x,-y,-z
x,-y,z
1/2+x,1/2+y,z
1/2-x,1/2+y,-z
1/2-x,1/2-y,-z
1/2+x,1/2-y,z
loop_
_atom_site_type_symbol
_atom_site_label
_atom_site_fract_x
_atom_site_fract_y
_atom_site_fract_z
Si Si1 0.287537 0.730086 0.395203
Si Si2 0.448864 0.609110 0.764918
Si Si3 0.829247 0.781121 0.236837
Si Si4 0.115299 0.110947 0.061591
Si Si5 0.275085 0.247415 0.088262
Si Si6 0.518166 0.111394 0.921062
Si Si7 0.594042 0.884640 0.603561
Si Si8 0.220384 0.612240 0.212973
O O1 0.399829 0.649244 0.335824
O O2 0.285958 0.735288 0.329964
O O3 0.341404 0.830477 0.386688
O O4 0.151694 0.685079 0.514969
O O5 0.439150 0.500000 0.749087
O O6 0.394601 0.609632 0.865417
O O7 0.353781 0.688056 0.801479
O O8 0.861562 0.678797 0.184314
O O9 0.725525 0.843369 0.270972
O O10 0.972055 0.841906 0.140213
O O11 0.129048 0.000000 0.032460
O O12 0.236433 0.177627 0.954858
O O13 0.317532 0.319244 0.108998
O O14 0.381324 0.165797 0.996518
O O15 0.527944 0.000000 0.895545
O O16 0.500000 0.111462 0.000000
O O17 0.430041 0.884005 0.711187
O O18 0.633826 0.000000 0.572516
O O19 0.264378 0.500000 0.183702
#
# Coordination Sequence:
#
# PCOD9182889 Si02
#       8
#     8   8   8   8   8   8   8   8
#     4  10  21  40  62  85 115 149 192 242 294 350
#     4  10  19  33  53  78 106 145 191 234 284 343
#     4  10  21  37  58  85 118 154 193 237 287 345
#     4   9  19  32  50  77 112 148 186 231 283 343
#     4  11  19  33  51  78 113 152 190 236 284 339
#     4  10  20  35  54  80 114 157 200 234 277 336
#     4  10  22  40  63  89 115 149 193 244 299 351
#     4  11  22  36  57  86 118 151 192 240 294 349
#
# _framework density 19.727719
#
# number of rings (size 3 to 8) (size 9 to 14) (size 15 to 20)
#    0.000    1.875    2.500    1.875    0.000    2.500 
#    0.000    3.125    0.000    0.000    0.000    2.625 
#    0.000    0.000    0.000    0.000    0.000    0.000 
#
# Total GULP energy -178388.775957 kJ/mol
# GULP energy per Si atom -5574.649249 kJ/mol
# Density = 1.968282 g / cm^3
# Si number density = 19.727719 Si / 1000 Ang^3
#
#
#
# Elastic Constant Matrix: (Units=GPa)
#
#
# Indices 1 2 3 4 5 6 
#
# 1 52.3190 36.0466 0.9715 0.0001 11.9019 -0.0001
# 2 36.0466 165.6624 15.2196 -0.0004 6.6876 -0.0001
# 3 0.9715 15.2196 30.4703 -0.0011 7.7165 0.0000
# 4 0.0001 -0.0004 -0.0011 25.6463 0.0003 -0.8273
# 5 11.9019 6.6876 7.7165 0.0003 24.0105 0.0000
# 6 -0.0001 -0.0001 0.0000 -0.8273 0.0000 24.8835
#
#
#
# Elastic Compliance Matrix: (Units=1/GPa)
#
#
# Indices 1 2 3 4 5 6 
#
# 1 0.025793 -0.005572 0.005231 0.000000 -0.012915 0.000000
# 2 -0.005572 0.007545 -0.004091 0.000000 0.001975 0.000000
# 3 0.005231 -0.004091 0.038170 0.000002 -0.013721 0.000000
# 4 0.000000 0.000000 0.000002 0.039034 -0.000001 0.001298
# 5 -0.012915 0.001975 -0.013721 -0.000001 0.051910 0.000000
# 6 0.000000 0.000000 0.000000 0.001298 0.000000 0.040230
#
#
# Mechanical properties :
#
#
# Convention : Reuss Voigt Hill
#
# Bulk Modulus (GPa) = 15.96287 39.21411 27.58849
# Shear Modulus (GPa) = 21.51212 27.98898 24.75055
#
# Velocity S-wave (km/s) = 3.30578 3.77074 3.54589
# Velocity P-wave (km/s) = 4.76236 6.23528 5.54792
#
# Compressibility (1/GPa) = 0.06264538
#
# Stress axis : x y z
#
# Youngs Moduli (GPa) = 38.77003 132.54120 26.19839
#
# Poissons Ratio (x) = 0.73847 -0.13705
# Poissons Ratio (y) = 0.21601 0.10718
# Poissons Ratio (z) = -0.20282 0.54224
#
# Static dielectric constant tensor:
#      x y z
#    x 1.735230 0.000000 -0.017680 
#    y 0.000000 1.707660 0.000000 
#    z -0.017680 0.000000 1.726460 
# 
# From -- ./inp_files/366001.got.cif
#   From: 2010.05.17/outbox.cif.g08.bks.cpg/sg12_184_cif.got.tgz:366001.got - 2010.06.03 13:09:07.
