data_PCOD9182743
_publ_section_title
;
Structure prediction by ZEFSAII (Michael W. Deem and Ramdas Pophale) SiO2 
 PCOD9182743
Probable space group: C 2/M
;
_chemical_formula_sum "Si O2"
_cell_formula_units_Z 48
_cell_length_a 15.162846
_cell_length_b 7.669394
_cell_length_c 19.976533
_cell_angle_alpha 90.000000
_cell_angle_beta 72.665003
_cell_angle_gamma 90.000000
_cell_volume 2217.551721
_symmetry_space_group_name_H-M "C 2/M"
_symmetry_group_IT_number 12
_symmetry_cell_setting 'monoclinic'
loop_
_space_group_symop_operation_xyz
x,y,z
-x,y,-z
-x,-y,-z
x,-y,z
1/2+x,1/2+y,z
1/2-x,1/2+y,-z
1/2-x,1/2-y,-z
1/2+x,1/2-y,z
loop_
_atom_site_type_symbol
_atom_site_label
_atom_site_fract_x
_atom_site_fract_y
_atom_site_fract_z
Si Si1 0.588758 0.207225 0.518891
Si Si2 0.708599 0.711358 0.107397
Si Si3 0.601211 0.292200 0.999168
Si Si4 0.599619 0.707242 0.260520
Si Si5 0.899249 0.289835 0.332109
Si Si6 0.802110 0.789742 0.631850
O O1 0.500000 0.281296 0.500000
O O2 0.597057 0.276721 0.591900
O O3 0.672525 0.234262 0.448825
O O4 0.575801 0.000000 0.528930
O O5 0.705712 0.500000 0.107384
O O6 0.815195 0.761717 0.071911
O O7 0.663594 0.775120 0.186526
O O8 0.645352 0.774466 0.059217
O O9 0.590454 0.500000 0.009858
O O10 0.500000 0.223940 0.000000
O O11 0.615012 0.500000 0.259549
O O12 0.491545 0.736153 0.273612
O O13 0.627427 0.776952 0.327676
O O14 0.898437 0.500000 0.333583
O O15 0.800974 0.233532 0.325589
O O16 0.805339 0.000000 0.629980
#
# Coordination Sequence:
#
# PCOD9182743 Si02
#       6
#     8   8   8   8   8   8
#     4  10  19  33  53  74  98 129 169 216 260 298
#     4   9  19  35  53  76 107 136 165 204 248 295
#     4   9  18  34  56  80 104 132 168 206 244 291
#     4  10  21  36  52  74 105 137 167 204 251 302
#     4  10  21  36  52  73 101 133 170 213 256 300
#     4  10  21  35  52  74 100 132 171 211 254 303
#
# _framework density 21.645492000000001
#
# number of rings (size 3 to 8) (size 9 to 14) (size 15 to 20)
#    0.000    2.333    1.667    0.500    0.000    4.000 
#    0.000    0.000    0.000    0.000    0.000    0.000 
#    0.000    0.000    0.000    0.000    0.000    0.000 
#
# Total GULP energy -133941.125598 kJ/mol
# GULP energy per Si atom -5580.880233 kJ/mol
# Density = 2.159623 g / cm^3
# Si number density = 21.645492 Si / 1000 Ang^3
#
#
#
# Elastic Constant Matrix: (Units=GPa)
#
#
# Indices 1 2 3 4 5 6 
#
# 1 111.8836 -4.0169 21.8763 0.0000 -25.7984 0.0000
# 2 -4.0169 33.1595 -8.6865 0.0000 7.3371 0.0000
# 3 21.8763 -8.6865 84.5390 0.0000 -27.2739 0.0000
# 4 0.0000 0.0000 0.0000 17.4150 0.0000 -9.6778
# 5 -25.7984 7.3371 -27.2739 0.0000 23.5735 0.0000
# 6 0.0000 0.0000 0.0000 -9.6778 0.0000 16.5285
#
#
#
# Elastic Compliance Matrix: (Units=1/GPa)
#
#
# Indices 1 2 3 4 5 6 
#
# 1 0.012204 -0.001574 0.001830 0.000000 0.015964 0.000000
# 2 -0.001574 0.032592 -0.000115 0.000000 -0.012000 0.000000
# 3 0.001830 -0.000115 0.019149 0.000000 0.024193 0.000000
# 4 0.000000 0.000000 0.000000 0.085117 0.000000 0.049838
# 5 0.015964 -0.012000 0.024193 0.000000 0.091617 0.000000
# 6 0.000000 0.000000 0.000000 0.049838 0.000000 0.089682
#
#
# Mechanical properties :
#
#
# Convention : Reuss Voigt Hill
#
# Bulk Modulus (GPa) = 15.57004 27.54756 21.55880
# Shear Modulus (GPa) = 14.22520 26.19735 20.21128
#
# Velocity S-wave (km/s) = 2.56635 3.48270 3.05903
# Velocity P-wave (km/s) = 3.99880 5.37834 4.73904
#
# Compressibility (1/GPa) = 0.06422591
#
# Stress axis : x y z
#
# Youngs Moduli (GPa) = 81.93713 30.68270 52.22311
#
# Poissons Ratio (x) = 0.04831 -0.09559
# Poissons Ratio (y) = 0.12900 0.00602
# Poissons Ratio (z) = -0.14997 0.00354
#
# Static dielectric constant tensor:
#      x y z
#    x 1.808300 0.000000 0.009530 
#    y 0.000000 1.803640 0.000000 
#    z 0.009530 0.000000 1.782530 
# 
# From -- ./inp_files/268209.got.cif
#   From: 2010.05.17/outbox.cif.g08.bks.cpg/sg12_135_cif.got.tgz:268209.got - 2010.06.03 13:09:07.
