data_PCOD9182535
_publ_section_title
;
Structure prediction by ZEFSAII (Michael W. Deem and Ramdas Pophale) SiO2 
 PCOD9182535
Probable space group: C 2/M
;
_chemical_formula_sum "Si O2"
_cell_formula_units_Z 48
_cell_length_a 30.182653
_cell_length_b 7.294696
_cell_length_c 8.617672
_cell_angle_alpha 90.000000
_cell_angle_beta 88.190151
_cell_angle_gamma 90.000000
_cell_volume 1896.434578
_symmetry_space_group_name_H-M "C 2/M"
_symmetry_group_IT_number 12
_symmetry_cell_setting 'monoclinic'
loop_
_space_group_symop_operation_xyz
x,y,z
-x,y,-z
-x,-y,-z
x,-y,z
1/2+x,1/2+y,z
1/2-x,1/2+y,-z
1/2-x,1/2-y,-z
1/2+x,1/2-y,z
loop_
_atom_site_type_symbol
_atom_site_label
_atom_site_fract_x
_atom_site_fract_y
_atom_site_fract_z
Si Si1 0.564988 0.724153 0.660095
Si Si2 0.144037 0.207524 0.849866
Si Si3 0.104303 0.222654 0.328917
Si Si4 0.190943 0.776685 0.152960
Si Si5 0.272988 0.783204 0.332205
Si Si6 0.979459 0.777162 0.840191
O O1 0.566193 0.500000 0.659457
O O2 0.598379 0.786926 0.791997
O O3 0.584541 0.784415 0.494273
O O4 0.514813 0.775030 0.703921
O O5 0.178624 0.202401 0.703058
O O6 0.132991 0.000000 0.900602
O O7 0.171325 0.287489 0.990975
O O8 0.154057 0.277593 0.283695
O O9 0.069837 0.280707 0.199049
O O10 0.104454 0.000000 0.331200
O O11 0.238901 0.713478 0.203921
O O12 0.193532 0.000000 0.149140
O O13 0.250000 0.750000 0.500000
O O14 0.278288 0.000000 0.315126
O O15 0.978391 0.000000 0.845770
O O16 0.000000 0.715347 0.000000
#
# Coordination Sequence:
#
# PCOD9182535 Si02
#       6
#     8   8   8   8   8   8
#     4   9  16  25  40  63  92 127 162 198 242 290
#     4  10  19  33  52  73  99 130 164 201 246 295
#     4   9  15  24  38  59  91 127 161 197 242 293
#     4   9  18  31  48  70  97 130 164 203 249 295
#     4  11  22  36  53  74 100 129 164 203 245 291
#     4   9  15  22  34  56  89 127 163 198 239 288
#
# _framework density 25.310654
#
# number of rings (size 3 to 8) (size 9 to 14) (size 15 to 20)
#    0.000    2.500    0.000    3.500    0.000    8.667 
#    0.000    0.833    0.000    0.000    0.000    0.000 
#    0.000   18.000    0.000    0.000    0.000    0.167 
#
# Total GULP energy -134270.027849 kJ/mol
# GULP energy per Si atom -5594.584494 kJ/mol
# Density = 2.525305 g / cm^3
# Si number density = 25.310654 Si / 1000 Ang^3
#
#
#
# Elastic Constant Matrix: (Units=GPa)
#
#
# Indices 1 2 3 4 5 6 
#
# 1 98.2608 -5.2745 -20.7700 0.0000 3.6122 0.0000
# 2 -5.2745 112.8251 -7.3661 0.0000 4.2267 0.0000
# 3 -20.7700 -7.3661 63.1981 0.0000 -0.0371 0.0000
# 4 0.0000 0.0000 0.0000 -8.8584 0.0000 -5.1921
# 5 3.6122 4.2267 -0.0371 0.0000 45.0820 0.0000
# 6 0.0000 0.0000 0.0000 -5.1921 0.0000 -8.0561
#
#
#
# Elastic Compliance Matrix: (Units=1/GPa)
#
#
# Indices 1 2 3 4 5 6 
#
# 1 0.011041 0.000795 0.003721 0.000000 -0.000956 0.000000
# 2 0.000795 0.009020 0.001312 0.000000 -0.000908 0.000000
# 3 0.003721 0.001312 0.017199 0.000000 -0.000407 0.000000
# 4 0.000000 0.000000 0.000000 -0.181419 0.000000 0.116924
# 5 -0.000956 -0.000908 -0.000407 0.000000 0.022343 0.000000
# 6 0.000000 0.000000 0.000000 0.116924 0.000000 -0.199487
#
#
# Mechanical properties :
#
#
# Convention : Reuss Voigt Hill
#
# Bulk Modulus (GPa) = 20.44330 23.05144 21.74737
# Shear Modulus (GPa) = -15.79018 26.14646 5.17814
#
# Velocity S-wave (km/s) = -2.50042 3.21755 1.43188
# Velocity P-wave (km/s) = 0.49156 4.78860 3.36817
#
# Compressibility (1/GPa) = 0.04891577
#
# Stress axis : x y z
#
# Youngs Moduli (GPa) = 90.56899 110.86321 58.14362
#
# Poissons Ratio (x) = -0.08813 -0.21634
# Poissons Ratio (y) = -0.07199 -0.07629
# Poissons Ratio (z) = -0.33699 -0.14546
#
# Static dielectric constant tensor:
#      x y z
#    x 1.905380 0.000000 0.001900 
#    y 0.000000 2.038090 0.000000 
#    z 0.001900 0.000000 1.998830 
# 
# From -- ./inp_files/101991.got.cif
#   From: 2010.05.17/outbox.cif.g08.bks.cpg/sg12_51_cif.got.tgz:101991.got - 2010.06.03 13:09:07.
