data_PCOD9182827
_publ_section_title
;
Structure prediction by ZEFSAII (Michael W. Deem and Ramdas Pophale) SiO2 
 PCOD9182827
Probable space group: C 2/M
;
_chemical_formula_sum "Si O2"
_cell_formula_units_Z 40
_cell_length_a 14.595991
_cell_length_b 20.829436
_cell_length_c 8.278631
_cell_angle_alpha 90.000000
_cell_angle_beta 130.839280
_cell_angle_gamma 90.000000
_cell_volume 1904.168988
_symmetry_space_group_name_H-M "C 2/M"
_symmetry_group_IT_number 12
_symmetry_cell_setting 'monoclinic'
loop_
_space_group_symop_operation_xyz
x,y,z
-x,y,-z
-x,-y,-z
x,-y,z
1/2+x,1/2+y,z
1/2-x,1/2+y,-z
1/2-x,1/2-y,-z
1/2+x,1/2-y,z
loop_
_atom_site_type_symbol
_atom_site_label
_atom_site_fract_x
_atom_site_fract_y
_atom_site_fract_z
Si Si1 0.365877 0.075225 0.277619
Si Si2 0.641975 0.071780 0.119198
Si Si3 0.049940 0.237915 0.716061
Si Si4 0.778514 0.810997 0.834796
Si Si5 0.120550 0.300176 0.250435
O O1 0.500000 0.090578 0.500000
O O2 0.265947 0.117961 0.251867
O O3 0.347978 0.000000 0.285775
O O4 0.353283 0.085558 0.068339
O O5 0.685419 0.133088 0.275900
O O6 0.694540 0.000000 0.209396
O O7 0.500000 0.066390 0.000000
O O8 0.164669 0.281288 0.800760
O O9 0.000000 0.203545 0.500000
O O10 0.943177 0.284767 0.654064
O O11 0.102746 0.191915 0.914506
O O12 0.807313 0.762644 0.723199
O O13 0.000000 0.301796 0.000000
#
# Coordination Sequence:
#
# PCOD9182827 Si02
#       5
#     8   8   8   8   8
#     4  10  20  34  54  80 108 138 175 221 272 327
#     4   9  16  28  47  71 104 141 170 206 261 318
#     4  10  20  34  53  78 107 138 181 228 266 317
#     4  10  19  33  53  76 108 143 176 222 280 324
#     4   9  18  32  50  76 108 140 180 222 269 321
#
# _framework density 21.006539
#
# number of rings (size 3 to 8) (size 9 to 14) (size 15 to 20)
#    0.000    2.400    0.000    5.400    0.000    0.800 
#    0.000    6.000    0.000    6.600    0.000    0.000 
#    0.000    2.400    0.000    0.000    0.000    1.000 
#
# Total GULP energy -111495.823187 kJ/mol
# GULP energy per Si atom -5574.791159 kJ/mol
# Density = 2.095873 g / cm^3
# Si number density = 21.006539 Si / 1000 Ang^3
#
#
#
# Elastic Constant Matrix: (Units=GPa)
#
#
# Indices 1 2 3 4 5 6 
#
# 1 77.3072 61.6269 15.4028 0.0000 -8.3379 0.0000
# 2 61.6269 134.8546 38.0333 0.0000 -4.6877 0.0000
# 3 15.4028 38.0333 96.1323 0.0000 -7.7526 0.0000
# 4 0.0000 0.0000 0.0000 14.7343 0.0000 9.6844
# 5 -8.3379 -4.6877 -7.7526 0.0000 22.3117 0.0000
# 6 0.0000 0.0000 0.0000 9.6844 0.0000 34.1255
#
#
#
# Elastic Compliance Matrix: (Units=1/GPa)
#
#
# Indices 1 2 3 4 5 6 
#
# 1 0.021168 -0.009728 0.000957 0.000000 0.006199 0.000000
# 2 -0.009728 0.012826 -0.003695 0.000000 -0.002225 0.000000
# 3 0.000957 -0.003695 0.012014 0.000000 0.003756 0.000000
# 4 0.000000 0.000000 0.000000 0.083431 0.000000 -0.023677
# 5 0.006199 -0.002225 0.003756 0.000000 0.047974 0.000000
# 6 0.000000 0.000000 0.000000 -0.023677 0.000000 0.036023
#
#
# Mechanical properties :
#
#
# Convention : Reuss Voigt Hill
#
# Bulk Modulus (GPa) = 47.44824 59.82448 53.63636
# Shear Modulus (GPa) = 20.37552 27.11637 23.74595
#
# Velocity S-wave (km/s) = 3.11780 3.59674 3.36580
# Velocity P-wave (km/s) = 5.96635 6.76680 6.37914
#
# Compressibility (1/GPa) = 0.02107560
#
# Stress axis : x y z
#
# Youngs Moduli (GPa) = 47.24058 77.96797 83.23787
#
# Poissons Ratio (x) = 0.75848 -0.07966
# Poissons Ratio (y) = 0.45956 0.30757
# Poissons Ratio (z) = -0.04521 0.28810
#
# Static dielectric constant tensor:
#      x y z
#    x 1.786650 0.000000 -0.067310 
#    y 0.000000 1.829030 0.000000 
#    z -0.067310 0.000000 1.861380 
# 
# From -- ./inp_files/63799.got.cif
#   From: 2010.05.17/outbox.cif.g08.bks.cpg/sg12_32_cif.got.tgz:63799.got - 2010.06.03 13:09:07.
