data_PCOD9182410
_publ_section_title
;
Structure prediction by ZEFSAII (Michael W. Deem and Ramdas Pophale) SiO2 
 PCOD9182410
Probable space group: C 2/M
;
_chemical_formula_sum "Si O2"
_cell_formula_units_Z 64
_cell_length_a 15.653481
_cell_length_b 22.629346
_cell_length_c 9.087797
_cell_angle_alpha 90.000000
_cell_angle_beta 54.985710
_cell_angle_gamma 90.000000
_cell_volume 2636.514754
_symmetry_space_group_name_H-M "C 2/M"
_symmetry_group_IT_number 12
_symmetry_cell_setting 'monoclinic'
loop_
_space_group_symop_operation_xyz
x,y,z
-x,y,-z
-x,-y,-z
x,-y,z
1/2+x,1/2+y,z
1/2-x,1/2+y,-z
1/2-x,1/2-y,-z
1/2+x,1/2-y,z
loop_
_atom_site_type_symbol
_atom_site_label
_atom_site_fract_x
_atom_site_fract_y
_atom_site_fract_z
Si Si1 0.515164 0.808583 0.782748
Si Si2 0.518573 0.067850 0.709566
Si Si3 0.659039 0.741887 0.470151
Si Si4 0.673288 0.801780 0.877326
Si Si5 0.318736 0.930348 0.697717
Si Si6 0.379485 0.567265 0.950983
Si Si7 0.063186 0.885895 0.591156
Si Si8 0.757068 0.065407 0.759312
O O1 0.515901 0.877823 0.819151
O O2 0.574147 0.792953 0.574018
O O3 0.591170 0.782626 0.831821
O O4 0.395431 0.789937 0.911234
O O5 0.627371 0.075844 0.513587
O O6 0.416413 0.080792 0.709902
O O7 0.510970 0.000000 0.764313
O O8 0.750000 0.750000 0.500000
O O9 0.719883 0.732597 0.257543
O O10 0.601417 0.680926 0.563643
O O11 0.699268 0.871467 0.829087
O O12 0.299404 0.000000 0.735348
O O13 0.206784 0.903602 0.853919
O O14 0.404899 0.500000 0.970764
O O15 0.488156 0.598142 0.800761
O O16 0.318633 0.563795 0.854197
O O17 0.163321 0.926849 0.457043
O O18 0.000000 0.890839 0.500000
O O19 0.705136 0.000000 0.798061
#
# Coordination Sequence:
#
# PCOD9182410 Si02
#       8
#     8   8   8   8   8   8   8   8
#     4  10  19  33  51  71  91 126 166 211 255 294
#     4   9  17  30  47  69  99 131 163 201 248 302
#     4   9  19  37  53  66  95 136 172 204 251 301
#     4   9  19  33  51  70  96 123 165 212 247 296
#     4   8  15  28  44  65  98 136 164 192 237 297
#     4   9  15  25  46  74 104 134 163 196 245 304
#     4   9  17  30  48  73 106 129 164 215 255 292
#     4   9  16  27  47  74 104 135 157 187 249 314
#
# _framework density 24.274470000000001
#
# number of rings (size 3 to 8) (size 9 to 14) (size 15 to 20)
#    0.000    3.000    0.000    1.875    0.000    3.500 
#    4.500    1.250    0.000    3.000    0.000    0.000 
#    0.000   11.500    0.000    0.000    0.000    0.000 
#
# Total GULP energy -178248.077280 kJ/mol
# GULP energy per Si atom -5570.252415 kJ/mol
# Density = 2.421922 g / cm^3
# Si number density = 24.274470 Si / 1000 Ang^3
#
#
#
# Elastic Constant Matrix: (Units=GPa)
#
#
# Indices 1 2 3 4 5 6 
#
# 1 41.8435 7.1142 27.5857 0.0000 -10.7413 0.0000
# 2 7.1142 65.6938 51.1860 0.0000 -13.4947 0.0000
# 3 27.5857 51.1860 187.7796 0.0000 -59.4795 0.0000
# 4 0.0000 0.0000 0.0000 12.4960 0.0000 -5.6947
# 5 -10.7413 -13.4947 -59.4795 0.0000 24.7143 0.0000
# 6 0.0000 0.0000 0.0000 -5.6947 0.0000 27.3924
#
#
#
# Elastic Compliance Matrix: (Units=1/GPa)
#
#
# Indices 1 2 3 4 5 6 
#
# 1 0.026953 -0.000279 -0.000931 0.000000 0.009322 0.000000
# 2 -0.000279 0.019811 -0.008294 0.000000 -0.009264 0.000000
# 3 -0.000931 -0.008294 0.025919 0.000000 0.057444 0.000000
# 4 0.000000 0.000000 0.000000 0.088401 0.000000 0.018378
# 5 0.009322 -0.009264 0.057444 0.000000 0.177706 0.000000
# 6 0.000000 0.000000 0.000000 0.018378 0.000000 0.040327
#
#
# Mechanical properties :
#
#
# Convention : Reuss Voigt Hill
#
# Bulk Modulus (GPa) = 18.63024 51.89875 35.26450
# Shear Modulus (GPa) = 12.01878 26.88259 19.45069
#
# Velocity S-wave (km/s) = 2.22754 3.33144 2.83376
# Velocity P-wave (km/s) = 3.78252 6.01867 5.02652
#
# Compressibility (1/GPa) = 0.05367616
#
# Stress axis : x y z
#
# Youngs Moduli (GPa) = 37.10225 50.47576 38.58246
#
# Poissons Ratio (x) = 0.01406 0.03591
# Poissons Ratio (y) = 0.01034 0.31999
# Poissons Ratio (z) = 0.03454 0.41863
#
# Static dielectric constant tensor:
#      x y z
#    x 1.987900 0.000000 0.002420 
#    y 0.000000 1.925060 0.000000 
#    z 0.002420 0.000000 2.090920 
# 
# From -- ./inp_files/169658.got.cif
#   From: 2010.05.17/outbox.cif.g08.bks.cpg/sg12_85_cif.got.tgz:169658.got - 2010.06.03 13:09:07.
