data_PCOD9182496
_publ_section_title
;
Structure prediction by ZEFSAII (Michael W. Deem and Ramdas Pophale) SiO2 
 PCOD9182496
Probable space group: C 2/M
;
_chemical_formula_sum "Si O2"
_cell_formula_units_Z 64
_cell_length_a 13.279996
_cell_length_b 29.530171
_cell_length_c 8.474949
_cell_angle_alpha 90.000000
_cell_angle_beta 71.289014
_cell_angle_gamma 90.000000
_cell_volume 3147.887522
_symmetry_space_group_name_H-M "C 2/M"
_symmetry_group_IT_number 12
_symmetry_cell_setting 'monoclinic'
loop_
_space_group_symop_operation_xyz
x,y,z
-x,y,-z
-x,-y,-z
x,-y,z
1/2+x,1/2+y,z
1/2-x,1/2+y,-z
1/2-x,1/2-y,-z
1/2+x,1/2-y,z
loop_
_atom_site_type_symbol
_atom_site_label
_atom_site_fract_x
_atom_site_fract_y
_atom_site_fract_z
Si Si1 0.115364 0.181360 0.793912
Si Si2 0.560232 0.775174 0.707630
Si Si3 0.794589 0.946879 0.337098
Si Si4 0.740389 0.822499 0.800930
Si Si5 0.161402 0.728068 0.313958
Si Si6 0.698177 0.615257 0.975401
Si Si7 0.882456 0.117394 0.501872
Si Si8 0.461558 0.548554 0.836939
O O1 0.056366 0.228638 0.807989
O O2 0.241014 0.193960 0.719518
O O3 0.113408 0.151448 0.951013
O O4 0.089334 0.148510 0.663650
O O5 0.632429 0.811339 0.761424
O O6 0.441737 0.789834 0.724781
O O7 0.620327 0.762134 0.512972
O O8 0.769011 0.917536 0.190131
O O9 0.783056 0.915809 0.498310
O O10 0.922949 0.947908 0.294184
O O11 0.759961 0.000000 0.347488
O O12 0.792919 0.772680 0.795733
O O13 0.827119 0.848604 0.652419
O O14 0.722669 0.853524 0.964041
O O15 0.631943 0.583802 0.127391
O O16 0.000000 0.101055 0.500000
O O17 0.415534 0.500000 0.817666
O O18 0.500000 0.548803 0.000000
#
# Coordination Sequence:
#
# PCOD9182496 Si02
#       8
#     8   8   8   8   8   8   8   8
#     4  10  19  34  48  72  98 134 174 208 236 301
#     4  10  19  33  52  70  97 136 168 212 259 284
#     4   9  19  34  49  69 101 139 168 194 249 310
#     4  11  20  33  48  76 101 129 176 212 241 290
#     4  10  19  34  52  69  98 140 167 208 259 289
#     4  10  20  30  48  70 102 133 163 204 245 285
#     4  11  19  30  51  73  99 129 172 213 237 279
#     4   8  14  28  45  64  94 132 162 187 234 297
#
# _framework density 20.331095000000001
#
# number of rings (size 3 to 8) (size 9 to 14) (size 15 to 20)
#    0.000    2.125    2.500    3.375    0.000    6.250 
#    0.000    3.125    0.000    0.000    0.000    0.000 
#    0.000   28.000    0.000    0.000    0.000    0.000 
#
# Total GULP energy -178187.606501 kJ/mol
# GULP energy per Si atom -5568.362703 kJ/mol
# Density = 2.028482 g / cm^3
# Si number density = 20.331095 Si / 1000 Ang^3
#
#
#
# Elastic Constant Matrix: (Units=GPa)
#
#
# Indices 1 2 3 4 5 6 
#
# 1 84.3375 18.4696 20.5669 0.0000 24.5479 0.0000
# 2 18.4696 92.8272 31.4100 0.0000 17.5546 0.0000
# 3 20.5669 31.4100 39.2263 0.0000 19.1841 0.0000
# 4 0.0000 0.0000 0.0000 4.2802 0.0000 -0.6625
# 5 24.5479 17.5546 19.1841 0.0000 27.7511 0.0000
# 6 0.0000 0.0000 0.0000 -0.6625 0.0000 8.2023
#
#
#
# Elastic Compliance Matrix: (Units=1/GPa)
#
#
# Indices 1 2 3 4 5 6 
#
# 1 0.016097 -0.000065 -0.002182 0.000000 -0.012690 0.000000
# 2 -0.000065 0.014834 -0.011003 0.000000 -0.001720 0.000000
# 3 -0.002182 -0.011003 0.046984 0.000000 -0.023589 0.000000
# 4 0.000000 0.000000 0.000000 0.236589 0.000000 0.019108
# 5 -0.012690 -0.001720 -0.023589 0.000000 0.064655 0.000000
# 6 0.000000 0.000000 0.000000 0.019108 0.000000 0.123460
#
#
# Mechanical properties :
#
#
# Convention : Reuss Voigt Hill
#
# Bulk Modulus (GPa) = 19.44925 39.69822 29.57373
# Shear Modulus (GPa) = 9.15320 17.77637 13.46478
#
# Velocity S-wave (km/s) = 2.12411 2.96014 2.57626
# Velocity P-wave (km/s) = 3.95004 5.59030 4.84016
#
# Compressibility (1/GPa) = 0.05141587
#
# Stress axis : x y z
#
# Youngs Moduli (GPa) = 62.12358 67.41298 21.28368
#
# Poissons Ratio (x) = 0.00436 0.04644
# Poissons Ratio (y) = 0.00402 0.23418
# Poissons Ratio (z) = 0.13556 0.74174
#
# Static dielectric constant tensor:
#      x y z
#    x 1.713490 0.000000 -0.029040 
#    y 0.000000 1.809980 0.000000 
#    z -0.029040 0.000000 1.943190 
# 
# From -- ./inp_files/67876.got.cif
#   From: 2010.05.17/outbox.cif.g08.bks.cpg/sg12_34_cif.got.tgz:67876.got - 2010.06.03 13:09:07.
