data_PCOD9182482
_publ_section_title
;
Structure prediction by ZEFSAII (Michael W. Deem and Ramdas Pophale) SiO2 
 PCOD9182482
Probable space group: C 2/M
;
_chemical_formula_sum "Si O2"
_cell_formula_units_Z 50
_cell_length_a 18.062646
_cell_length_b 17.120729
_cell_length_c 12.456967
_cell_angle_alpha 90.000000
_cell_angle_beta 33.061776
_cell_angle_gamma 90.000000
_cell_volume 2101.575031
_symmetry_space_group_name_H-M "C 2/M"
_symmetry_group_IT_number 12
_symmetry_cell_setting 'monoclinic'
loop_
_space_group_symop_operation_xyz
x,y,z
-x,y,-z
-x,-y,-z
x,-y,z
1/2+x,1/2+y,z
1/2-x,1/2+y,-z
1/2-x,1/2-y,-z
1/2+x,1/2-y,z
loop_
_atom_site_type_symbol
_atom_site_label
_atom_site_fract_x
_atom_site_fract_y
_atom_site_fract_z
Si Si1 0.895032 0.614190 0.254968
Si Si2 0.641153 0.734922 0.258619
Si Si3 0.122723 0.085332 0.704783
Si Si4 0.701960 0.860127 0.339634
Si Si5 0.000000 0.500000 0.500000
Si Si6 0.952907 0.245649 0.304429
Si Si7 0.308973 0.915825 0.114488
O O1 0.777444 0.582206 0.472132
O O2 0.921993 0.706665 0.233951
O O3 0.847966 0.594627 0.192562
O O4 0.040139 0.583185 0.117921
O O5 0.500000 0.728058 0.500000
O O6 0.718889 0.808725 0.212645
O O7 0.594073 0.751173 0.195047
O O8 0.720281 0.655113 0.181944
O O9 0.156250 0.108103 0.786563
O O10 0.066602 0.155432 0.700327
O O11 0.058845 0.000000 0.770590
O O12 0.596806 0.929786 0.439128
O O13 0.645662 0.794415 0.493811
O O14 0.242570 0.000000 0.178761
#
# Coordination Sequence:
#
# PCOD9182482 Si02
#       7
#     8   8   8   8   2   8   8
#     4  10  20  35  53  76 108 140 178 223 260 307
#     4  10  20  36  55  77 111 139 173 218 268 322
#     4  11  20  32  56  84 110 140 174 219 264 318
#     4  10  19  33  51  80 107 136 170 221 270 306
#     4  12  16  32  56  80 106 128 178 228 266 302
#     4  10  20  35  54  79 111 139 175 211 270 321
#     4  11  22  36  54  79 106 144 181 216 263 316
#
# _framework density 23.791678999999998
#
# number of rings (size 3 to 8) (size 9 to 14) (size 15 to 20)
#    0.000    1.600    3.200    6.720    0.000    1.600 
#    0.000    0.000    0.000    0.000    2.080    2.240 
#    0.000    0.000    0.000    0.000    0.000    0.000 
#
# Total GULP energy -139257.863935 kJ/mol
# GULP energy per Si atom -5570.314557 kJ/mol
# Density = 2.373753 g / cm^3
# Si number density = 23.791679 Si / 1000 Ang^3
#
#
#
# Elastic Constant Matrix: (Units=GPa)
#
#
# Indices 1 2 3 4 5 6 
#
# 1 77.8917 53.7885 5.3953 0.0000 -3.8486 -0.0001
# 2 53.7885 213.4571 1.4403 0.0000 5.3415 0.0000
# 3 5.3953 1.4403 32.2071 0.0000 -2.7822 -0.0001
# 4 0.0000 0.0000 0.0000 10.4126 0.0000 7.9952
# 5 -3.8486 5.3415 -2.7822 0.0000 12.3672 0.0001
# 6 -0.0001 0.0000 -0.0001 7.9952 0.0001 -119.5700
#
#
#
# Elastic Compliance Matrix: (Units=1/GPa)
#
#
# Indices 1 2 3 4 5 6 
#
# 1 0.016217 -0.004234 -0.001972 0.000000 0.006432 0.000000
# 2 -0.004234 0.005846 0.000118 0.000000 -0.003816 0.000000
# 3 -0.001972 0.000118 0.031937 0.000000 0.006520 0.000000
# 4 0.000000 0.000000 0.000000 0.091348 0.000000 0.006108
# 5 0.006432 -0.003816 0.006520 0.000000 0.085976 0.000000
# 6 0.000000 0.000000 0.000000 0.006108 0.000000 -0.007955
#
#
# Mechanical properties :
#
#
# Convention : Reuss Voigt Hill
#
# Bulk Modulus (GPa) = 23.90900 49.42269 36.66584
# Shear Modulus (GPa) = 20.04125 -1.82927 9.10599
#
# Velocity S-wave (km/s) = 2.90550 -0.87780 1.95849
# Velocity P-wave (km/s) = 4.61812 4.44869 4.53419
#
# Compressibility (1/GPa) = 0.04182526
#
# Stress axis : x y z
#
# Youngs Moduli (GPa) = 61.66557 171.04570 31.31136
#
# Poissons Ratio (x) = 0.72421 0.06173
# Poissons Ratio (y) = 0.26109 -0.00370
# Poissons Ratio (z) = 0.12158 -0.02021
#
# Static dielectric constant tensor:
#      x y z
#    x 1.945440 0.000000 0.085780 
#    y 0.000000 1.959810 0.000000 
#    z 0.085780 0.000000 2.075330 
# 
# From -- ./inp_files/226281.got.cif
#   From: 2010.05.17/outbox.cif.g08.bks.cpg/sg12_114_cif.got.tgz:226281.got - 2010.06.03 13:09:07.
