data_PCOD9182395
_publ_section_title
;
Structure prediction by ZEFSAII (Michael W. Deem and Ramdas Pophale) SiO2 
 PCOD9182395
Probable space group: C 2/M
;
_chemical_formula_sum "Si O2"
_cell_formula_units_Z 58
_cell_length_a 16.322591
_cell_length_b 15.924854
_cell_length_c 13.078586
_cell_angle_alpha 90.000000
_cell_angle_beta 128.169014
_cell_angle_gamma 90.000000
_cell_volume 2672.720464
_symmetry_space_group_name_H-M "C 2/M"
_symmetry_group_IT_number 12
_symmetry_cell_setting 'monoclinic'
loop_
_space_group_symop_operation_xyz
x,y,z
-x,y,-z
-x,-y,-z
x,-y,z
1/2+x,1/2+y,z
1/2-x,1/2+y,-z
1/2-x,1/2-y,-z
1/2+x,1/2-y,z
loop_
_atom_site_type_symbol
_atom_site_label
_atom_site_fract_x
_atom_site_fract_y
_atom_site_fract_z
Si Si1 0.659770 0.904542 0.043233
Si Si2 0.164221 0.350735 0.607924
Si Si3 0.456380 0.235646 0.665201
Si Si4 0.500000 0.000000 0.500000
Si Si5 0.876087 0.090447 0.392217
Si Si6 0.348469 0.405775 0.602534
Si Si7 0.811164 0.236129 0.193073
Si Si8 0.080900 0.406871 0.212195
O O1 0.726485 0.820496 0.065471
O O2 0.642827 0.900251 0.153611
O O3 0.697582 0.000000 0.044527
O O4 0.541868 0.901968 0.910420
O O5 0.092658 0.286344 0.484286
O O6 0.250553 0.386934 0.597800
O O7 0.221053 0.306878 0.748712
O O8 0.088987 0.425825 0.583610
O O9 0.428261 0.329546 0.676811
O O10 0.581031 0.227482 0.768736
O O11 0.401949 0.168919 0.697823
O O12 0.823678 0.097530 0.462413
O O13 0.852062 0.162449 0.297120
O O14 0.000000 0.090830 0.500000
O O15 0.848112 0.000000 0.327058
O O16 0.388988 0.500000 0.653063
O O17 0.099054 0.500000 0.272119
#
# Coordination Sequence:
#
# PCOD9182395 Si02
#       8
#     8   8   8   2   8   8   8   8
#     4   9  20  40  62  88 113 144 186 246 304 347
#     4  12  24  40  55  84 118 161 200 234 286 348
#     4  12  23  36  57  86 119 152 199 236 286 351
#     4  12  24  44  56  72 128 164 200 236 272 344
#     4  10  19  33  50  79 120 153 181 225 287 348
#     4  11  23  36  55  82 117 155 198 239 286 348
#     4  12  21  35  57  83 118 152 190 234 290 344
#     4   9  21  40  62  86 114 145 194 245 293 345
#
# _framework density 21.700734000000001
#
# number of rings (size 3 to 8) (size 9 to 14) (size 15 to 20)
#    0.000    1.241    4.828    2.483    2.897    1.103 
#    0.000    0.000    0.000    0.000    1.793    1.931 
#    0.000    0.000    0.000    0.000    0.000    0.000 
#
# Total GULP energy -161588.438549 kJ/mol
# GULP energy per Si atom -5572.015122 kJ/mol
# Density = 2.165134 g / cm^3
# Si number density = 21.700734 Si / 1000 Ang^3
#
#
#
# Elastic Constant Matrix: (Units=GPa)
#
#
# Indices 1 2 3 4 5 6 
#
# 1 60.8757 31.4092 -6.1351 0.0000 10.0420 0.0000
# 2 31.4092 137.3963 9.0209 0.0000 -5.6120 0.0000
# 3 -6.1351 9.0209 35.4040 0.0000 15.5114 0.0000
# 4 0.0000 0.0000 0.0000 24.3028 0.0000 13.4003
# 5 10.0420 -5.6120 15.5114 0.0000 21.2254 0.0000
# 6 0.0000 0.0000 0.0000 13.4003 0.0000 35.2491
#
#
#
# Elastic Compliance Matrix: (Units=1/GPa)
#
#
# Indices 1 2 3 4 5 6 
#
# 1 0.028358 -0.009120 0.020847 0.000000 -0.031063 0.000000
# 2 -0.009120 0.010700 -0.010939 0.000000 0.015138 0.000000
# 3 0.020847 -0.010939 0.059183 0.000000 -0.056006 0.000000
# 4 0.000000 0.000000 0.000000 0.052060 0.000000 -0.019791
# 5 -0.031063 0.015138 -0.056006 0.000000 0.106740 0.000000
# 6 0.000000 0.000000 0.000000 -0.019791 0.000000 0.035893
#
#
# Mechanical properties :
#
#
# Convention : Reuss Voigt Hill
#
# Bulk Modulus (GPa) = 10.01841 33.58510 21.80176
# Shear Modulus (GPa) = 15.40215 29.44754 22.42484
#
# Velocity S-wave (km/s) = 2.66701 3.68772 3.21809
# Velocity P-wave (km/s) = 3.75640 5.80021 4.88636
#
# Compressibility (1/GPa) = 0.09981620
#
# Stress axis : x y z
#
# Youngs Moduli (GPa) = 35.26391 93.46108 16.89679
#
# Poissons Ratio (x) = 0.85238 -0.35225
# Poissons Ratio (y) = 0.32161 0.18483
# Poissons Ratio (z) = -0.73516 1.02237
#
# Static dielectric constant tensor:
#      x y z
#    x 1.819560 0.000000 0.021440 
#    y 0.000000 1.800250 0.000000 
#    z 0.021440 0.000000 1.860210 
# 
# From -- ./inp_files/215236.got.cif
#   From: 2010.05.17/outbox.cif.g08.bks.cpg/sg12_108_cif.got.tgz:215236.got - 2010.06.03 13:09:07.
