data_PCOD9182613
_publ_section_title
;
Structure prediction by ZEFSAII (Michael W. Deem and Ramdas Pophale) SiO2 
 PCOD9182613
Probable space group: C 2/M
;
_chemical_formula_sum "Si O2"
_cell_formula_units_Z 56
_cell_length_a 13.165654
_cell_length_b 28.747667
_cell_length_c 9.757324
_cell_angle_alpha 90.000000
_cell_angle_beta 63.928553
_cell_angle_gamma 90.000000
_cell_volume 3317.198056
_symmetry_space_group_name_H-M "C 2/M"
_symmetry_group_IT_number 12
_symmetry_cell_setting 'monoclinic'
loop_
_space_group_symop_operation_xyz
x,y,z
-x,y,-z
-x,-y,-z
x,-y,z
1/2+x,1/2+y,z
1/2-x,1/2+y,-z
1/2-x,1/2-y,-z
1/2+x,1/2-y,z
loop_
_atom_site_type_symbol
_atom_site_label
_atom_site_fract_x
_atom_site_fract_y
_atom_site_fract_z
Si Si1 0.140118 0.000000 0.579879
Si Si2 0.632721 0.784694 0.723759
Si Si3 0.865192 0.000000 0.734146
Si Si4 0.132582 0.088557 0.087116
Si Si5 0.244930 0.812182 0.615819
Si Si6 0.117021 0.278844 0.228142
Si Si7 0.732245 0.686717 0.102766
Si Si8 0.859906 0.910624 0.238638
O O1 0.175669 0.000000 0.399144
O O2 0.174551 0.045919 0.644945
O O3 0.002761 0.000000 0.654518
O O4 0.718804 0.806849 0.562749
O O5 0.657658 0.729236 0.705312
O O6 0.504349 0.792409 0.756624
O O7 0.666831 0.805442 0.849340
O O8 0.831845 0.045476 0.839554
O O9 0.185440 0.135368 0.116013
O O10 0.996139 0.093143 0.170591
O O11 0.164678 0.081462 0.908239
O O12 0.355618 0.798557 0.638802
O O13 0.196971 0.862485 0.680769
O O14 0.136176 0.223298 0.207474
O O15 0.217399 0.298788 0.073616
#
# Coordination Sequence:
#
# PCOD9182613 Si02
#       8
#     4   8   4   8   8   8   8   8
#     4   9  19  33  51  77 104 133 162 204 260 314
#     4  10  21  33  50  73 108 140 170 214 251 291
#     4   9  19  33  51  77 106 129 162 208 262 308
#     4  10  19  33  52  77 105 135 167 210 253 305
#     4  10  20  34  50  76 103 139 177 203 252 308
#     4  10  19  35  50  73 106 139 173 212 246 295
#     4  10  20  32  52  78 102 135 177 206 252 301
#     4  10  19  33  53  75 105 137 169 205 253 309
#
# _framework density 16.881716999999998
#
# number of rings (size 3 to 8) (size 9 to 14) (size 15 to 20)
#    0.000    2.143    1.429    2.143    2.000    1.714 
#    0.000    1.429    0.000    0.000    0.000    6.000 
#    0.000    0.000    0.000    0.000    0.000    0.000 
#
# Total GULP energy -156143.364666 kJ/mol
# GULP energy per Si atom -5576.548738 kJ/mol
# Density = 1.684329 g / cm^3
# Si number density = 16.881717 Si / 1000 Ang^3
#
#
#
# Elastic Constant Matrix: (Units=GPa)
#
#
# Indices 1 2 3 4 5 6 
#
# 1 35.1817 18.4287 2.3441 0.0000 4.2078 0.0000
# 2 18.4287 156.5342 58.3683 0.0000 12.1867 0.0000
# 3 2.3441 58.3683 67.7144 0.0000 18.0182 0.0000
# 4 0.0000 0.0000 0.0000 21.3164 0.0000 5.7973
# 5 4.2078 12.1867 18.0182 0.0000 17.9580 0.0000
# 6 0.0000 0.0000 0.0000 5.7973 0.0000 13.0679
#
#
#
# Elastic Compliance Matrix: (Units=1/GPa)
#
#
# Indices 1 2 3 4 5 6 
#
# 1 0.031971 -0.005255 0.006094 0.000000 -0.010040 0.000000
# 2 -0.005255 0.010354 -0.009824 0.000000 0.004061 0.000000
# 3 0.006094 -0.009824 0.029509 0.000000 -0.024369 0.000000
# 4 0.000000 0.000000 0.000000 0.053349 0.000000 -0.023667
# 5 -0.010040 0.004061 -0.024369 0.000000 0.079733 0.000000
# 6 0.000000 0.000000 0.000000 -0.023667 0.000000 0.087023
#
#
# Mechanical properties :
#
#
# Convention : Reuss Voigt Hill
#
# Bulk Modulus (GPa) = 18.56460 46.41251 32.48855
# Shear Modulus (GPa) = 15.25031 22.48774 18.86903
#
# Velocity S-wave (km/s) = 3.00886 3.65372 3.34686
# Velocity P-wave (km/s) = 4.80538 6.73439 5.84995
#
# Compressibility (1/GPa) = 0.05386597
#
# Stress axis : x y z
#
# Youngs Moduli (GPa) = 31.27824 96.58267 33.88787
#
# Poissons Ratio (x) = 0.50751 -0.20652
# Poissons Ratio (y) = 0.16436 0.33290
# Poissons Ratio (z) = -0.19062 0.94879
#
# Static dielectric constant tensor:
#      x y z
#    x 1.553480 0.000000 0.011840 
#    y 0.000000 1.553310 0.000000 
#    z 0.011840 0.000000 1.574540 
# 
# From -- ./inp_files/66878.got.cif
#   From: 2010.05.17/outbox.cif.g08.bks.cpg/sg12_34_cif.got.tgz:66878.got - 2010.06.03 13:09:07.
