data_PCOD9182437
_publ_section_title
;
Structure prediction by ZEFSAII (Michael W. Deem and Ramdas Pophale) SiO2 
 PCOD9182437
Probable space group: C 2/M
;
_chemical_formula_sum "Si O2"
_cell_formula_units_Z 64
_cell_length_a 30.748963
_cell_length_b 8.746379
_cell_length_c 15.308962
_cell_angle_alpha 90.000000
_cell_angle_beta 100.972788
_cell_angle_gamma 90.000000
_cell_volume 4041.951802
_symmetry_space_group_name_H-M "C 2/M"
_symmetry_group_IT_number 12
_symmetry_cell_setting 'monoclinic'
loop_
_space_group_symop_operation_xyz
x,y,z
-x,y,-z
-x,-y,-z
x,-y,z
1/2+x,1/2+y,z
1/2-x,1/2+y,-z
1/2-x,1/2-y,-z
1/2+x,1/2-y,z
loop_
_atom_site_type_symbol
_atom_site_label
_atom_site_fract_x
_atom_site_fract_y
_atom_site_fract_z
Si Si1 0.377287 0.183688 0.755063
Si Si2 0.038004 0.182647 0.707307
Si Si3 0.694386 0.817893 0.568306
Si Si4 0.056652 0.682773 0.380579
Si Si5 0.438316 0.682206 0.920061
Si Si6 0.788016 0.316322 0.627923
Si Si7 0.898816 0.817558 0.429380
Si Si8 0.531558 0.817415 0.892292
O O1 0.409625 0.218630 0.685635
O O2 0.396640 0.266379 0.846922
O O3 0.327652 0.226857 0.707883
O O4 0.378779 0.000000 0.768401
O O5 0.074361 0.220949 0.648094
O O6 0.046461 0.262961 0.802981
O O7 0.990116 0.237364 0.654907
O O8 0.037240 0.000000 0.719310
O O9 0.741082 0.763307 0.625272
O O10 0.696842 0.779086 0.465561
O O11 0.651822 0.736862 0.592377
O O12 0.689686 0.000000 0.573671
O O13 0.050540 0.500000 0.379860
O O14 0.077846 0.737948 0.479078
O O15 0.442476 0.500000 0.924495
O O16 0.482093 0.752165 0.890457
O O17 0.439155 0.749879 0.017905
O O18 0.782339 0.500000 0.629188
O O19 0.900865 0.000000 0.442316
O O20 0.529992 0.000000 0.897058
#
# Coordination Sequence:
#
# PCOD9182437 Si02
#       8
#     8   8   8   8   8   8   8   8
#     4  10  19  33  51  75 105 137 171 207 252 305
#     4  11  23  37  51  72 101 137 178 216 254 299
#     4  10  19  33  51  74 100 130 172 214 254 301
#     4  11  21  34  51  73 103 138 177 214 249 294
#     4  11  21  33  52  76 103 133 167 209 256 307
#     4   9  18  33  51  72 101 133 166 208 257 302
#     4  11  23  36  51  71 102 140 177 214 254 300
#     4  11  21  35  53  73  99 133 171 213 257 302
#
# _framework density 15.833933999999999
#
# number of rings (size 3 to 8) (size 9 to 14) (size 15 to 20)
#    0.000    1.500    2.500    4.875    0.000    5.000 
#    0.000    0.000    0.000    0.000    0.000    0.875 
#    0.000    0.000    0.000    0.000    0.000    0.000 
#
# Total GULP energy -178752.889624 kJ/mol
# GULP energy per Si atom -5586.027801 kJ/mol
# Density = 1.579789 g / cm^3
# Si number density = 15.833934 Si / 1000 Ang^3
#
#
#
# Elastic Constant Matrix: (Units=GPa)
#
#
# Indices 1 2 3 4 5 6 
#
# 1 86.5707 39.9391 61.4939 0.0000 11.1158 0.0000
# 2 39.9391 70.6503 48.3901 0.0000 4.9907 0.0000
# 3 61.4939 48.3901 105.0786 0.0000 14.3675 0.0000
# 4 0.0000 0.0000 0.0000 26.9223 0.0000 4.3700
# 5 11.1158 4.9907 14.3675 0.0000 23.3857 0.0000
# 6 0.0000 0.0000 0.0000 4.3700 0.0000 21.7787
#
#
#
# Elastic Compliance Matrix: (Units=1/GPa)
#
#
# Indices 1 2 3 4 5 6 
#
# 1 0.021123 -0.005178 -0.009558 0.000000 -0.003063 0.000000
# 2 -0.005178 0.021998 -0.007418 0.000000 0.002324 0.000000
# 3 -0.009558 -0.007418 0.019311 0.000000 -0.005738 0.000000
# 4 0.000000 0.000000 0.000000 0.038395 0.000000 -0.007704
# 5 -0.003063 0.002324 -0.005738 0.000000 0.047246 0.000000
# 6 0.000000 0.000000 0.000000 -0.007704 0.000000 0.047462
#
#
# Mechanical properties :
#
#
# Convention : Reuss Voigt Hill
#
# Bulk Modulus (GPa) = 55.17649 62.43842 58.80746
# Shear Modulus (GPa) = 20.33482 21.91576 21.12529
#
# Velocity S-wave (km/s) = 3.58754 3.72439 3.65660
# Velocity P-wave (km/s) = 7.21687 7.61667 7.41946
#
# Compressibility (1/GPa) = 0.01812366
#
# Stress axis : x y z
#
# Youngs Moduli (GPa) = 47.34225 45.45904 51.78442
#
# Poissons Ratio (x) = 0.23538 0.49496
# Poissons Ratio (y) = 0.24513 0.38413
# Poissons Ratio (z) = 0.45250 0.33721
#
# Static dielectric constant tensor:
#      x y z
#    x 1.511220 0.000000 0.007170 
#    y 0.000000 1.528930 0.000000 
#    z 0.007170 0.000000 1.520530 
# 
# From -- ./inp_files/248463.got.cif
#   From: 2010.05.17/outbox.cif.g08.bks.cpg/sg12_125_cif.got.tgz:248463.got - 2010.06.03 13:09:07.
