data_PCOD9182098
_publ_section_title
;
Structure prediction by ZEFSAII (Michael W. Deem and Ramdas Pophale) SiO2 
 PCOD9182098
Probable space group: C 2/M
;
_chemical_formula_sum "Si O2"
_cell_formula_units_Z 64
_cell_length_a 18.454985
_cell_length_b 29.073461
_cell_length_c 10.258394
_cell_angle_alpha 90.000000
_cell_angle_beta 40.146505
_cell_angle_gamma 90.000000
_cell_volume 3548.765503
_symmetry_space_group_name_H-M "C 2/M"
_symmetry_group_IT_number 12
_symmetry_cell_setting 'monoclinic'
loop_
_space_group_symop_operation_xyz
x,y,z
-x,y,-z
-x,-y,-z
x,-y,z
1/2+x,1/2+y,z
1/2-x,1/2+y,-z
1/2-x,1/2-y,-z
1/2+x,1/2-y,z
loop_
_atom_site_type_symbol
_atom_site_label
_atom_site_fract_x
_atom_site_fract_y
_atom_site_fract_z
Si Si1 0.416824 0.051710 0.843217
Si Si2 0.280030 0.856836 0.425554
Si Si3 0.082569 0.129938 0.260181
Si Si4 0.518415 0.206726 0.817826
Si Si5 0.317045 0.853800 0.070871
Si Si6 0.707415 0.447483 0.938573
Si Si7 0.180447 0.446271 0.481337
Si Si8 0.542111 0.687021 0.793122
O O1 0.327579 0.052696 0.848108
O O2 0.547916 0.056661 0.626690
O O3 0.405759 0.000000 0.918847
O O4 0.378843 0.096460 0.975945
O O5 0.379901 0.827545 0.352928
O O6 0.285228 0.848610 0.264698
O O7 0.296760 0.910240 0.435915
O O8 0.162438 0.836958 0.631888
O O9 0.203311 0.147905 0.144716
O O10 0.000000 0.125467 0.500000
O O11 0.029659 0.161269 0.219554
O O12 0.117791 0.082416 0.140673
O O13 0.545960 0.259211 0.748488
O O14 0.500000 0.204598 0.000000
O O15 0.405692 0.185641 0.911368
O O16 0.668638 0.500000 0.985691
O O17 0.739412 0.432099 0.749018
O O18 0.201756 0.500000 0.483090
O O19 0.500000 0.684716 0.000000
#
# Coordination Sequence:
#
# PCOD9182098 Si02
#       8
#     8   8   8   8   8   8   8   8
#     4   9  17  31  55  84 117 152 189 237 296 352
#     4  11  20  36  59  84 120 155 193 240 290 352
#     4  11  22  40  62  86 116 160 197 244 293 345
#     4   9  20  37  60  87 113 152 196 242 298 348
#     4  10  20  37  59  86 120 151 193 245 294 350
#     4   9  19  35  56  82 116 156 200 239 284 348
#     4  10  19  32  55  88 121 153 190 241 296 345
#     4  11  23  40  62  85 113 157 201 241 290 349
#
# _framework density 18.03444
#
# number of rings (size 3 to 8) (size 9 to 14) (size 15 to 20)
#    0.000    2.000    2.500    1.500    0.000    2.750 
#    0.000    1.875    5.500    2.250    0.000    0.000 
#    0.000    0.000    0.000    0.000    0.000    0.000 
#
# Total GULP energy -178294.629942 kJ/mol
# GULP energy per Si atom -5571.707186 kJ/mol
# Density = 1.799339 g / cm^3
# Si number density = 18.034440 Si / 1000 Ang^3
#
#
#
# Elastic Constant Matrix: (Units=GPa)
#
#
# Indices 1 2 3 4 5 6 
#
# 1 61.0552 32.5838 37.0962 0.0000 -16.1182 0.0000
# 2 32.5838 81.0471 39.3753 0.0000 -16.7033 0.0000
# 3 37.0962 39.3753 64.6073 0.0000 -6.6340 0.0000
# 4 0.0000 0.0000 0.0000 16.3507 0.0000 10.1100
# 5 -16.1182 -16.7033 -6.6340 0.0000 20.5075 0.0000
# 6 0.0000 0.0000 0.0000 10.1100 0.0000 11.3498
#
#
#
# Elastic Compliance Matrix: (Units=1/GPa)
#
#
# Indices 1 2 3 4 5 6 
#
# 1 0.031229 -0.001349 -0.015206 0.000000 0.018527 0.000000
# 2 -0.001349 0.020481 -0.010451 0.000000 0.012241 0.000000
# 3 -0.015206 -0.010451 0.029456 0.000000 -0.010935 0.000000
# 4 0.000000 0.000000 0.000000 0.136145 0.000000 -0.121273
# 5 0.018527 0.012241 -0.010935 0.000000 0.069756 0.000000
# 6 0.000000 0.000000 0.000000 -0.121273 0.000000 0.196132
#
#
# Mechanical properties :
#
#
# Convention : Reuss Voigt Hill
#
# Bulk Modulus (GPa) = 36.82824 47.20222 42.01523
# Shear Modulus (GPa) = 9.15312 16.15191 12.65252
#
# Velocity S-wave (km/s) = 2.25530 2.99593 2.65160
# Velocity P-wave (km/s) = 5.21989 6.18042 5.72035
#
# Compressibility (1/GPa) = 0.02715308
#
# Stress axis : x y z
#
# Youngs Moduli (GPa) = 32.02196 48.82602 33.94933
#
# Poissons Ratio (x) = 0.06587 0.51624
# Poissons Ratio (y) = 0.04320 0.35479
# Poissons Ratio (z) = 0.48693 0.51027
#
# Static dielectric constant tensor:
#      x y z
#    x 1.609790 0.000000 -0.000750 
#    y 0.000000 1.618870 0.000000 
#    z -0.000750 0.000000 1.619000 
# 
# From -- ./inp_files/80694.got.cif
#   From: 2010.05.17/outbox.cif.g08.bks.cpg/sg12_41_cif.got.tgz:80694.got - 2010.06.03 13:09:07.
