data_PCOD9182918
_publ_section_title
;
Structure prediction by ZEFSAII (Michael W. Deem and Ramdas Pophale) SiO2 
 PCOD9182918
Probable space group: C 2/M
;
_chemical_formula_sum "Si O2"
_cell_formula_units_Z 56
_cell_length_a 15.174029
_cell_length_b 28.056539
_cell_length_c 10.997488
_cell_angle_alpha 90.000000
_cell_angle_beta 137.148358
_cell_angle_gamma 90.000000
_cell_volume 3184.217919
_symmetry_space_group_name_H-M "C 2/M"
_symmetry_group_IT_number 12
_symmetry_cell_setting 'monoclinic'
loop_
_space_group_symop_operation_xyz
x,y,z
-x,y,-z
-x,-y,-z
x,-y,z
1/2+x,1/2+y,z
1/2-x,1/2+y,-z
1/2-x,1/2-y,-z
1/2+x,1/2-y,z
loop_
_atom_site_type_symbol
_atom_site_label
_atom_site_fract_x
_atom_site_fract_y
_atom_site_fract_z
Si Si1 0.876726 0.773454 0.690616
Si Si2 0.362917 0.555303 0.422465
Si Si3 0.606906 0.945313 0.002780
Si Si4 0.263943 0.357156 0.459830
Si Si5 0.080568 0.265015 0.706626
Si Si6 0.312466 0.792147 0.838903
Si Si7 0.542925 0.146977 0.814826
O O1 0.750000 0.750000 0.500000
O O2 0.849175 0.829098 0.645109
O O3 0.875194 0.749316 0.819961
O O4 0.997531 0.757659 0.732031
O O5 0.500000 0.568559 0.500000
O O6 0.371392 0.500000 0.470618
O O7 0.247277 0.558141 0.206859
O O8 0.320103 0.591400 0.484579
O O9 0.584389 0.000000 0.941963
O O10 0.500000 0.934250 0.000000
O O11 0.592855 0.906465 0.883508
O O12 0.262497 0.327160 0.331216
O O13 0.113132 0.355731 0.345714
O O14 0.210248 0.235178 0.819687
O O15 0.094348 0.320519 0.756893
O O16 0.000000 0.261541 0.500000
O O17 0.407444 0.824524 0.015103
#
# Coordination Sequence:
#
# PCOD9182918 Si02
#       7
#     8   8   8   8   8   8   8
#     4  10  20  33  50  70 102 145 180 212 263 321
#     4  10  21  33  50  77 109 140 175 223 274 329
#     4  10  19  33  53  79 106 136 177 225 280 327
#     4  11  19  32  53  70 104 146 171 216 271 317
#     4  12  22  35  51  74 107 148 184 217 274 328
#     4  11  21  35  48  77 108 137 183 222 261 322
#     4  12  21  34  54  78 105 141 180 227 268 320
#
# _framework density 17.586736999999999
#
# number of rings (size 3 to 8) (size 9 to 14) (size 15 to 20)
#    0.000    1.143    8.571    0.857    2.000    0.000 
#    0.000    0.000    0.000    0.429    0.000    1.000 
#    0.000    0.000    0.000   23.143    0.000    0.000 
#
# Total GULP energy -156247.685236 kJ/mol
# GULP energy per Si atom -5580.274473 kJ/mol
# Density = 1.754671 g / cm^3
# Si number density = 17.586737 Si / 1000 Ang^3
#
#
#
# Elastic Constant Matrix: (Units=GPa)
#
#
# Indices 1 2 3 4 5 6 
#
# 1 76.3841 17.1915 14.8652 0.0000 18.5385 0.0000
# 2 17.1915 97.3807 15.5276 0.0000 7.7437 0.0000
# 3 14.8652 15.5276 48.0224 0.0000 12.4678 0.0000
# 4 0.0000 0.0000 0.0000 25.6639 0.0000 -2.2529
# 5 18.5385 7.7437 12.4678 0.0000 21.8561 0.0000
# 6 0.0000 0.0000 0.0000 -2.2529 0.0000 34.1745
#
#
#
# Elastic Compliance Matrix: (Units=1/GPa)
#
#
# Indices 1 2 3 4 5 6 
#
# 1 0.016882 -0.001743 -0.001297 0.000000 -0.012962 0.000000
# 2 -0.001743 0.011095 -0.002830 0.000000 -0.000838 0.000000
# 3 -0.001297 -0.002830 0.025348 0.000000 -0.012357 0.000000
# 4 0.000000 0.000000 0.000000 0.039192 0.000000 0.002584
# 5 -0.012962 -0.000838 -0.012357 0.000000 0.064095 0.000000
# 6 0.000000 0.000000 0.000000 0.002584 0.000000 0.029432
#
#
# Mechanical properties :
#
#
# Convention : Reuss Voigt Hill
#
# Bulk Modulus (GPa) = 24.04701 35.21730 29.63216
# Shear Modulus (GPa) = 23.62438 27.95244 25.78841
#
# Velocity S-wave (km/s) = 3.66909 3.99106 3.83346
# Velocity P-wave (km/s) = 5.62607 6.42701 6.03983
#
# Compressibility (1/GPa) = 0.04158521
#
# Stress axis : x y z
#
# Youngs Moduli (GPa) = 59.23348 90.13404 39.45017
#
# Poissons Ratio (x) = 0.15709 0.05117
# Poissons Ratio (y) = 0.10323 0.11165
# Poissons Ratio (z) = 0.07683 0.25510
#
# Static dielectric constant tensor:
#      x y z
#    x 1.606740 0.000000 0.007900 
#    y 0.000000 1.649700 0.000000 
#    z 0.007900 0.000000 1.631870 
# 
# From -- ./inp_files/150136.got.cif
#   From: 2010.05.17/outbox.cif.g08.bks.cpg/sg12_76_cif.got.tgz:150136.got - 2010.06.03 13:09:07.
