data_PCOD9182484
_publ_section_title
;
Structure prediction by ZEFSAII (Michael W. Deem and Ramdas Pophale) SiO2 
 PCOD9182484
Probable space group: C 2/M
;
_chemical_formula_sum "Si O2"
_cell_formula_units_Z 64
_cell_length_a 14.055157
_cell_length_b 19.885535
_cell_length_c 23.953005
_cell_angle_alpha 90.000000
_cell_angle_beta 30.979263
_cell_angle_gamma 90.000000
_cell_volume 3445.963056
_symmetry_space_group_name_H-M "C 2/M"
_symmetry_group_IT_number 12
_symmetry_cell_setting 'monoclinic'
loop_
_space_group_symop_operation_xyz
x,y,z
-x,y,-z
-x,-y,-z
x,-y,z
1/2+x,1/2+y,z
1/2-x,1/2+y,-z
1/2-x,1/2-y,-z
1/2+x,1/2-y,z
loop_
_atom_site_type_symbol
_atom_site_label
_atom_site_fract_x
_atom_site_fract_y
_atom_site_fract_z
Si Si1 0.768842 0.294287 0.400755
Si Si2 0.518216 0.335626 0.291287
Si Si3 0.529392 0.728851 0.865843
Si Si4 0.149751 0.127928 0.884413
Si Si5 0.887068 0.207872 0.643583
Si Si6 0.156245 0.578419 0.461313
Si Si7 0.253890 0.235841 0.093216
Si Si8 0.539652 0.075659 0.648184
O O1 0.923784 0.238257 0.332325
O O2 0.709585 0.307110 0.366668
O O3 0.589731 0.267705 0.524356
O O4 0.836283 0.365372 0.389249
O O5 0.577099 0.346766 0.325874
O O6 0.353664 0.385499 0.357997
O O7 0.692998 0.326143 0.162763
O O8 0.535102 0.654270 0.888357
O O9 0.742576 0.743211 0.745966
O O10 0.408653 0.741359 0.871595
O O11 0.435988 0.771757 0.962915
O O12 0.217553 0.195266 0.885211
O O13 0.329835 0.088941 0.773642
O O14 0.000000 0.093228 0.000000
O O15 0.181458 0.500000 0.433572
O O16 0.071740 0.581169 0.565788
O O17 0.000000 0.609502 0.500000
O O18 0.594162 0.000000 0.637508
#
# Coordination Sequence:
#
# PCOD9182484 Si02
#       8
#     8   8   8   8   8   8   8   8
#     4  11  23  35  53  88 112 142 190 230 283 328
#     4  12  21  33  61  83 112 148 183 234 277 333
#     4  10  19  33  51  80 121 143 179 234 278 330
#     4  10  20  34  53  80 116 143 187 235 270 330
#     4  11  21  33  53  83 116 139 184 237 274 335
#     4  10  25  41  56  83 116 149 183 227 283 339
#     4  10  20  32  53  83 112 151 181 225 286 324
#     4  11  22  40  58  76 114 152 185 229 285 341
#
# _framework density 18.572457
#
# number of rings (size 3 to 8) (size 9 to 14) (size 15 to 20)
#    0.000    1.375    5.000    0.375    5.250    0.250 
#    0.000    1.875    0.000    0.000    0.000    2.625 
#    0.000    0.000    0.000    0.000    0.000    0.000 
#
# Total GULP energy -178305.683448 kJ/mol
# GULP energy per Si atom -5572.052608 kJ/mol
# Density = 1.853019 g / cm^3
# Si number density = 18.572457 Si / 1000 Ang^3
#
#
#
# Elastic Constant Matrix: (Units=GPa)
#
#
# Indices 1 2 3 4 5 6 
#
# 1 78.4645 17.8390 7.4919 0.0019 3.0190 -0.0014
# 2 17.8390 58.4576 18.8608 -0.0006 -1.9577 0.0002
# 3 7.4919 18.8608 120.7437 -0.0074 1.5990 0.0010
# 4 0.0019 -0.0006 -0.0074 20.5401 0.0011 -4.8747
# 5 3.0190 -1.9577 1.5990 0.0011 27.4379 0.0008
# 6 -0.0014 0.0002 0.0010 -4.8747 0.0008 17.1367
#
#
#
# Elastic Compliance Matrix: (Units=1/GPa)
#
#
# Indices 1 2 3 4 5 6 
#
# 1 0.013788 -0.004212 -0.000174 -0.000001 -0.001808 0.000001
# 2 -0.004212 0.019359 -0.002789 0.000000 0.002007 -0.000001
# 3 -0.000174 -0.002789 0.008738 0.000003 -0.000689 0.000000
# 4 -0.000001 0.000000 0.000003 0.052210 -0.000003 0.014852
# 5 -0.001808 0.002007 -0.000689 -0.000003 0.036828 -0.000003
# 6 0.000001 -0.000001 0.000000 0.014852 -0.000003 0.062579
#
#
# Mechanical properties :
#
#
# Convention : Reuss Voigt Hill
#
# Bulk Modulus (GPa) = 36.31760 38.44994 37.38377
# Shear Modulus (GPa) = 23.03825 27.25455 25.14640
#
# Velocity S-wave (km/s) = 3.52583 3.83491 3.68361
# Velocity P-wave (km/s) = 6.01434 6.35267 6.18582
#
# Compressibility (1/GPa) = 0.02753486
#
# Stress axis : x y z
#
# Youngs Moduli (GPa) = 72.52480 51.65570 114.44803
#
# Poissons Ratio (x) = 0.21758 0.01987
# Poissons Ratio (y) = 0.30549 0.31922
# Poissons Ratio (z) = 0.01259 0.14408
#
# Static dielectric constant tensor:
#      x y z
#    x 1.685380 0.000000 0.021480 
#    y 0.000000 1.624100 0.000000 
#    z 0.021480 0.000000 1.700630 
# 
# From -- ./inp_files/340788.got.cif
#   From: 2010.05.17/outbox.cif.g08.bks.cpg/sg12_171_cif.got.tgz:340788.got - 2010.06.03 13:09:07.
