data_PCOD9182922
_publ_section_title
;
Structure prediction by ZEFSAII (Michael W. Deem and Ramdas Pophale) SiO2 
 PCOD9182922
Probable space group: C 2/M
;
_chemical_formula_sum "Si O2"
_cell_formula_units_Z 48
_cell_length_a 9.026830
_cell_length_b 16.469847
_cell_length_c 16.352152
_cell_angle_alpha 90.000000
_cell_angle_beta 90.647345
_cell_angle_gamma 90.000000
_cell_volume 2430.927597
_symmetry_space_group_name_H-M "C 2/M"
_symmetry_group_IT_number 12
_symmetry_cell_setting 'monoclinic'
loop_
_space_group_symop_operation_xyz
x,y,z
-x,y,-z
-x,-y,-z
x,-y,z
1/2+x,1/2+y,z
1/2-x,1/2+y,-z
1/2-x,1/2-y,-z
1/2+x,1/2-y,z
loop_
_atom_site_type_symbol
_atom_site_label
_atom_site_fract_x
_atom_site_fract_y
_atom_site_fract_z
Si Si1 0.826327 0.500000 0.480237
Si Si2 0.903006 0.176948 0.229579
Si Si3 0.829494 0.165982 0.525543
Si Si4 0.836939 0.824336 0.038720
Si Si5 0.265845 0.000000 0.286603
Si Si6 0.267779 0.671031 0.717191
Si Si7 0.654489 0.500000 0.953199
Si Si8 0.916249 0.000000 0.241283
O O1 0.749187 0.583897 0.508774
O O2 0.807104 0.500000 0.381980
O O3 0.000000 0.500000 0.500000
O O4 0.849933 0.184903 0.136242
O O5 0.835175 0.251250 0.278044
O O6 0.081152 0.181356 0.231363
O O7 0.857506 0.088710 0.265808
O O8 0.750000 0.250000 0.500000
O O9 0.818417 0.160431 0.623807
O O10 0.000000 0.167378 0.500000
O O11 0.769314 0.914662 0.025122
O O12 0.750000 0.750000 0.000000
O O13 0.000000 0.824767 0.000000
O O14 0.313385 0.088145 0.254441
O O15 0.088166 0.000000 0.269670
O O16 0.607365 0.500000 0.857168
O O17 0.500000 0.500000 0.000000
#
# Coordination Sequence:
#
# PCOD9182922 Si02
#       8
#     4   8   8   8   4   8   4   4
#     4  10  21  37  58  84 116 148 183 229 285 348
#     4  10  19  34  55  79 106 139 176 222 271 322
#     4  11  22  38  59  84 113 149 190 236 285 338
#     4  10  19  33  53  79 107 139 177 219 266 322
#     4   8  18  35  54  75 104 138 176 218 264 321
#     4  10  20  36  56  79 106 138 178 223 271 324
#     4   8  16  30  51  75 103 139 178 214 260 322
#     4   8  16  32  54  76 102 137 180 221 263 319
#
# _framework density 19.745549
#
# number of rings (size 3 to 8) (size 9 to 14) (size 15 to 20)
#    0.000    2.333    0.000    2.750    0.000    2.667 
#    0.000    3.750    0.000    0.000    0.000    0.000 
#    0.000    0.000    0.000    0.000    0.000    0.000 
#
# Total GULP energy -133749.483340 kJ/mol
# GULP energy per Si atom -5572.895139 kJ/mol
# Density = 1.970061 g / cm^3
# Si number density = 19.745549 Si / 1000 Ang^3
#
#
#
# Elastic Constant Matrix: (Units=GPa)
#
#
# Indices 1 2 3 4 5 6 
#
# 1 68.9093 72.7159 4.5826 0.0000 4.8845 0.0000
# 2 72.7159 223.7299 24.3049 0.0000 12.6618 0.0000
# 3 4.5826 24.3049 26.4917 0.0000 5.2901 0.0000
# 4 0.0000 0.0000 0.0000 26.7182 0.0000 3.8063
# 5 4.8845 12.6618 5.2901 0.0000 28.4907 0.0000
# 6 0.0000 0.0000 0.0000 3.8063 0.0000 17.8962
#
#
#
# Elastic Compliance Matrix: (Units=1/GPa)
#
#
# Indices 1 2 3 4 5 6 
#
# 1 0.022346 -0.007558 0.003285 0.000000 -0.001082 0.000000
# 2 -0.007558 0.007576 -0.005431 0.000000 -0.001063 0.000000
# 3 0.003285 -0.005431 0.043402 0.000000 -0.006208 0.000000
# 4 0.000000 0.000000 0.000000 0.038597 0.000000 -0.008209
# 5 -0.001082 -0.001063 -0.006208 0.000000 0.036910 0.000000
# 6 0.000000 0.000000 0.000000 -0.008209 0.000000 0.057624
#
#
# Mechanical properties :
#
#
# Convention : Reuss Voigt Hill
#
# Bulk Modulus (GPa) = 18.54763 58.03755 38.29259
# Shear Modulus (GPa) = 20.50555 29.12286 24.81420
#
# Velocity S-wave (km/s) = 3.22606 3.84462 3.54884
# Velocity P-wave (km/s) = 4.82600 7.01175 6.01893
#
# Compressibility (1/GPa) = 0.05391524
#
# Stress axis : x y z
#
# Youngs Moduli (GPa) = 44.75062 131.98720 23.04031
#
# Poissons Ratio (x) = 0.99762 -0.07569
# Poissons Ratio (y) = 0.33825 0.12514
# Poissons Ratio (z) = -0.14701 0.71687
#
# Static dielectric constant tensor:
#      x y z
#    x 1.675090 0.000000 -0.022800 
#    y 0.000000 1.786980 0.000000 
#    z -0.022800 0.000000 1.726180 
# 
# From -- ./inp_files/255866.got.cif
#   From: 2010.05.17/outbox.cif.g08.bks.cpg/sg12_128_cif.got.tgz:255866.got - 2010.06.03 13:09:07.
