data_PCOD9183122
_publ_section_title
;
Structure prediction by ZEFSAII (Michael W. Deem and Ramdas Pophale) SiO2 
 PCOD9183122
Probable space group: C 2/M
;
_chemical_formula_sum "Si O2"
_cell_formula_units_Z 64
_cell_length_a 15.019525
_cell_length_b 7.355451
_cell_length_c 29.831037
_cell_angle_alpha 90.000000
_cell_angle_beta 132.908583
_cell_angle_gamma 90.000000
_cell_volume 2413.828738
_symmetry_space_group_name_H-M "C 2/M"
_symmetry_group_IT_number 12
_symmetry_cell_setting 'monoclinic'
loop_
_space_group_symop_operation_xyz
x,y,z
-x,y,-z
-x,-y,-z
x,-y,z
1/2+x,1/2+y,z
1/2-x,1/2+y,-z
1/2-x,1/2-y,-z
1/2+x,1/2-y,z
loop_
_atom_site_type_symbol
_atom_site_label
_atom_site_fract_x
_atom_site_fract_y
_atom_site_fract_z
Si Si1 0.124977 0.278840 0.017163
Si Si2 0.267146 0.721190 0.206220
Si Si3 0.742150 0.788104 0.297747
Si Si4 0.010765 0.719960 0.391940
Si Si5 0.374586 0.208963 0.656009
Si Si6 0.001289 0.715285 0.889597
Si Si7 0.865428 0.783222 0.150860
Si Si8 0.627314 0.219698 0.519989
O O1 0.133058 0.500000 0.020497
O O2 0.246275 0.213341 0.083231
O O3 0.103071 0.213535 0.958599
O O4 0.000000 0.232708 0.000000
O O5 0.275508 0.500000 0.211955
O O6 0.261799 0.791634 0.255034
O O7 0.361894 0.783391 0.200895
O O8 0.133153 0.771678 0.142185
O O9 0.652403 0.708146 0.304448
O O10 0.878731 0.777198 0.363580
O O11 0.708724 0.000000 0.280928
O O12 0.013198 0.500000 0.391404
O O13 0.034841 0.790552 0.349869
O O14 0.110027 0.777903 0.462391
O O15 0.245905 0.208590 0.585377
O O16 0.410119 0.000000 0.675080
O O17 0.002556 0.500000 0.895388
O O18 0.024718 0.748964 0.845338
O O19 0.854377 0.000000 0.150146
O O20 0.500000 0.269147 0.500000
O O21 0.636168 0.000000 0.524747
#
# Coordination Sequence:
#
# PCOD9183122 Si02
#       8
#     8   8   8   8   8   8   8   8
#     4   9  15  28  53  79 102 137 177 208 252 317
#     4   9  19  36  55  73 100 140 180 213 252 311
#     4  10  21  37  55  76 101 135 180 221 254 298
#     4  10  21  37  55  79 109 139 169 209 263 313
#     4  10  21  35  54  79 106 135 171 215 259 304
#     4  10  19  33  55  80 105 136 175 216 260 311
#     4  10  19  33  54  78 105 136 172 215 260 310
#     4  10  19  33  55  80 108 139 169 205 256 316
#
# _framework density 26.513894000000001
#
# number of rings (size 3 to 8) (size 9 to 14) (size 15 to 20)
#    0.000    2.250    2.500    0.750    0.000    2.250 
#    0.000    3.125    0.000    0.750    0.000    0.000 
#    0.000    0.000    0.000    0.000    0.000    0.000 
#
# Total GULP energy -178963.018771 kJ/mol
# GULP energy per Si atom -5592.594337 kJ/mol
# Density = 2.645355 g / cm^3
# Si number density = 26.513894 Si / 1000 Ang^3
#
#
#
# Elastic Constant Matrix: (Units=GPa)
#
#
# Indices 1 2 3 4 5 6 
#
# 1 166.7827 -0.7037 24.1438 0.0000 -29.3767 0.0000
# 2 -0.7037 104.4906 4.6305 0.0001 -0.0158 0.0000
# 3 24.1438 4.6305 86.8990 0.0000 -24.3478 0.0000
# 4 0.0000 0.0001 0.0000 -0.5272 0.0000 -4.6492
# 5 -29.3767 -0.0158 -24.3478 0.0000 44.7010 0.0000
# 6 0.0000 0.0000 0.0000 -4.6492 0.0000 -2.1114
#
#
#
# Elastic Compliance Matrix: (Units=1/GPa)
#
#
# Indices 1 2 3 4 5 6 
#
# 1 0.006823 0.000080 -0.000760 0.000000 0.004070 0.000000
# 2 0.000080 0.009598 -0.000611 0.000000 -0.000277 0.000000
# 3 -0.000760 -0.000611 0.013702 0.000000 0.006964 0.000000
# 4 0.000000 0.000000 0.000000 0.102988 0.000000 -0.226770
# 5 0.004070 -0.000277 0.006964 0.000000 0.028839 0.000000
# 6 0.000000 0.000000 0.000000 -0.226770 0.000000 0.025717
#
#
# Mechanical properties :
#
#
# Convention : Reuss Voigt Hill
#
# Bulk Modulus (GPa) = 36.30801 46.03484 41.17143
# Shear Modulus (GPa) = 25.07152 30.41924 27.74538
#
# Velocity S-wave (km/s) = 3.07840 3.39085 3.23839
# Velocity P-wave (km/s) = 5.13411 5.72107 5.43552
#
# Compressibility (1/GPa) = 0.02754213
#
# Stress axis : x y z
#
# Youngs Moduli (GPa) = 146.56193 104.19026 72.97969
#
# Poissons Ratio (x) = -0.00836 0.05543
# Poissons Ratio (y) = -0.01176 0.04461
# Poissons Ratio (z) = 0.11132 0.06369
#
# Static dielectric constant tensor:
#      x y z
#    x 2.062870 0.000000 -0.047660 
#    y 0.000000 2.003920 0.000000 
#    z -0.047660 0.000000 2.110120 
# 
# From -- ./inp_files/375615.got.cif
#   From: 2010.05.17/outbox.cif.g08.bks.cpg/sg12_188_cif.got.tgz:375615.got - 2010.06.03 13:09:07.
