data_PCOD9183136
_publ_section_title
;
Structure prediction by ZEFSAII (Michael W. Deem and Ramdas Pophale) SiO2 
 PCOD9183136
Probable space group: C 2/M
;
_chemical_formula_sum "Si O2"
_cell_formula_units_Z 64
_cell_length_a 8.729755
_cell_length_b 19.296769
_cell_length_c 22.657773
_cell_angle_alpha 90.000000
_cell_angle_beta 113.539286
_cell_angle_gamma 90.000000
_cell_volume 3499.226543
_symmetry_space_group_name_H-M "C 2/M"
_symmetry_group_IT_number 12
_symmetry_cell_setting 'monoclinic'
loop_
_space_group_symop_operation_xyz
x,y,z
-x,y,-z
-x,-y,-z
x,-y,z
1/2+x,1/2+y,z
1/2-x,1/2+y,-z
1/2-x,1/2-y,-z
1/2+x,1/2-y,z
loop_
_atom_site_type_symbol
_atom_site_label
_atom_site_fract_x
_atom_site_fract_y
_atom_site_fract_z
Si Si1 0.910560 0.332768 0.805302
Si Si2 0.790162 0.419281 0.184488
Si Si3 0.811093 0.225572 0.127551
Si Si4 0.993662 0.165677 0.430247
Si Si5 0.353670 0.813869 0.429602
Si Si6 0.743558 0.079812 0.321649
Si Si7 0.964058 0.155399 0.928841
Si Si8 0.390593 0.080590 0.328378
O O1 0.786689 0.321715 0.840745
O O2 0.803265 0.363016 0.734829
O O3 0.059461 0.388820 0.831622
O O4 0.023711 0.262446 0.818167
O O5 0.816559 0.500000 0.193882
O O6 0.618486 0.400482 0.127063
O O7 0.804791 0.392436 0.254198
O O8 0.876177 0.186442 0.079917
O O9 0.676316 0.284100 0.089418
O O10 0.886339 0.236607 0.409976
O O11 0.908327 0.105372 0.379662
O O12 0.000000 0.146646 0.500000
O O13 0.177326 0.182525 0.435180
O O14 0.500000 0.826961 0.500000
O O15 0.357253 0.869804 0.377926
O O16 0.587428 0.081099 0.342808
O O17 0.755513 0.000000 0.301357
O O18 0.000000 0.130287 0.000000
O O19 0.341819 0.000000 0.331746
#
# Coordination Sequence:
#
# PCOD9183136 Si02
#       8
#     8   8   8   8   8   8   8   8
#     4   9  18  34  55  80 109 138 175 219 269 323
#     4   9  19  36  55  75 107 147 182 219 265 317
#     4   9  19  33  53  82 108 136 173 219 273 325
#     4  11  23  38  56  79 108 141 179 225 271 319
#     4  11  22  38  59  82 110 142 181 224 271 323
#     4  10  21  37  57  79 107 143 180 221 269 321
#     4  10  19  33  54  78 107 140 178 224 271 321
#     4   9  19  37  58  80 108 143 180 219 269 325
#
# _framework density 18.289756000000001
#
# number of rings (size 3 to 8) (size 9 to 14) (size 15 to 20)
#    0.000    2.250    0.000    4.500    0.000    7.250 
#    0.000    2.500    0.000    0.750    0.000    0.000 
#    0.000    0.000    0.000    0.000    0.000    0.000 
#
# Total GULP energy -178367.503612 kJ/mol
# GULP energy per Si atom -5573.984488 kJ/mol
# Density = 1.824813 g / cm^3
# Si number density = 18.289756 Si / 1000 Ang^3
#
#
#
# Elastic Constant Matrix: (Units=GPa)
#
#
# Indices 1 2 3 4 5 6 
#
# 1 72.8756 -5.9784 23.1362 0.0000 -10.2944 0.0000
# 2 -5.9784 18.2614 20.6134 0.0000 -10.1387 0.0000
# 3 23.1362 20.6134 62.1798 0.0000 -4.1149 0.0000
# 4 0.0000 0.0000 0.0000 16.1740 0.0000 -1.1582
# 5 -10.2944 -10.1387 -4.1149 0.0000 21.9221 0.0000
# 6 0.0000 0.0000 0.0000 -1.1582 0.0000 13.1972
#
#
#
# Elastic Compliance Matrix: (Units=1/GPa)
#
#
# Indices 1 2 3 4 5 6 
#
# 1 0.043223 0.094445 -0.043701 0.000000 0.055774 0.000000
# 2 0.094445 0.333411 -0.134199 0.000000 0.173359 0.000000
# 3 -0.043701 -0.134199 0.072264 0.000000 -0.069023 0.000000
# 4 0.000000 0.000000 0.000000 0.062219 0.000000 0.005460
# 5 0.055774 0.173359 -0.069023 0.000000 0.139027 0.000000
# 6 0.000000 0.000000 0.000000 0.005460 0.000000 0.076253
#
#
# Mechanical properties :
#
#
# Convention : Reuss Voigt Hill
#
# Bulk Modulus (GPa) = 3.54626 25.42878 14.48752
# Shear Modulus (GPa) = 5.06431 17.96169 11.51300
#
# Velocity S-wave (km/s) = 1.66582 3.13719 2.51166
# Velocity P-wave (km/s) = 2.37551 5.20154 4.04346
#
# Compressibility (1/GPa) = 0.28198716
#
# Stress axis : x y z
#
# Youngs Moduli (GPa) = 23.13600 2.99930 13.83816
#
# Poissons Ratio (x) = -0.28327 0.60475
# Poissons Ratio (y) = -2.18509 1.85707
# Poissons Ratio (z) = 1.01108 0.40250
#
# Static dielectric constant tensor:
#      x y z
#    x 1.612890 0.000000 0.023250 
#    y 0.000000 1.642890 0.000000 
#    z 0.023250 0.000000 1.648270 
# 
# From -- ./inp_files/301734.got.cif
#   From: 2010.05.17/outbox.cif.g08.bks.cpg/sg12_151_cif.got.tgz:301734.got - 2010.06.03 13:09:07.
