data_PCOD9183866
_publ_section_title
;
Structure prediction by ZEFSAII (Michael W. Deem and Ramdas Pophale) SiO2 
 PCOD9183866
Probable space group: C 2/M
;
_chemical_formula_sum "Si O2"
_cell_formula_units_Z 40
_cell_length_a 19.994897
_cell_length_b 9.072036
_cell_length_c 12.345084
_cell_angle_alpha 90.000000
_cell_angle_beta 96.463396
_cell_angle_gamma 90.000000
_cell_volume 2225.096183
_symmetry_space_group_name_H-M "C 2/M"
_symmetry_group_IT_number 12
_symmetry_cell_setting 'monoclinic'
loop_
_space_group_symop_operation_xyz
x,y,z
-x,y,-z
-x,-y,-z
x,-y,z
1/2+x,1/2+y,z
1/2-x,1/2+y,-z
1/2-x,1/2-y,-z
1/2+x,1/2-y,z
loop_
_atom_site_type_symbol
_atom_site_label
_atom_site_fract_x
_atom_site_fract_y
_atom_site_fract_z
Si Si1 0.015839 0.323840 0.126291
Si Si2 0.713075 0.171137 0.696150
Si Si3 0.419109 0.324905 0.282052
Si Si4 0.856531 0.323424 0.717808
Si Si5 0.397004 0.170979 0.490814
O O1 0.004709 0.500000 0.137310
O O2 0.968327 0.239991 0.201577
O O3 0.092768 0.294482 0.174581
O O4 0.000000 0.283924 0.000000
O O5 0.656313 0.261202 0.751543
O O6 0.785856 0.242181 0.714503
O O7 0.680036 0.176276 0.569471
O O8 0.714216 0.000000 0.728955
O O9 0.419253 0.500000 0.283272
O O10 0.435777 0.261752 0.405579
O O11 0.845448 0.500000 0.707284
O O12 0.894179 0.277451 0.613271
O O13 0.418422 0.000000 0.490644
#
# Coordination Sequence:
#
# PCOD9183866 Si02
#       5
#     8   8   8   8   8
#     4  10  22  40  58  76 104 142 182 224 268 313
#     4   9  18  33  54  82 114 142 170 212 266 322
#     4  10  20  35  56  79 109 143 177 218 263 316
#     4  10  19  33  56  83 109 141 179 216 261 317
#     4   8  17  32  53  81 113 142 169 211 266 320
#
# _framework density 17.976751
#
# number of rings (size 3 to 8) (size 9 to 14) (size 15 to 20)
#    1.200    1.400    0.000    2.400    0.000    2.800 
#    0.000    5.000    0.000    0.000    0.000    0.000 
#    0.000    0.000    0.000    0.000    0.000    0.000 
#
# Total GULP energy -111397.489289 kJ/mol
# GULP energy per Si atom -5569.874464 kJ/mol
# Density = 1.793584 g / cm^3
# Si number density = 17.976751 Si / 1000 Ang^3
#
#
#
# Elastic Constant Matrix: (Units=GPa)
#
#
# Indices 1 2 3 4 5 6 
#
# 1 82.5398 31.4719 43.5313 0.0000 4.6465 0.0000
# 2 31.4719 54.9336 33.4928 0.0000 0.0349 0.0000
# 3 43.5313 33.4928 68.5765 0.0000 16.4610 0.0000
# 4 0.0000 0.0000 0.0000 9.2953 0.0000 -10.8221
# 5 4.6465 0.0349 16.4610 0.0000 19.0481 0.0000
# 6 0.0000 0.0000 0.0000 -10.8221 0.0000 29.2323
#
#
#
# Elastic Compliance Matrix: (Units=1/GPa)
#
#
# Indices 1 2 3 4 5 6 
#
# 1 0.019534 -0.004059 -0.011703 0.000000 0.005356 0.000000
# 2 -0.004059 0.029971 -0.015501 0.000000 0.014331 0.000000
# 3 -0.011703 -0.015501 0.036451 0.000000 -0.028617 0.000000
# 4 0.000000 0.000000 0.000000 0.189077 0.000000 0.069998
# 5 0.005356 0.014331 -0.028617 0.000000 0.075896 0.000000
# 6 0.000000 0.000000 0.000000 0.069998 0.000000 0.060123
#
#
# Mechanical properties :
#
#
# Convention : Reuss Voigt Hill
#
# Bulk Modulus (GPa) = 42.68132 47.00465 44.84298
# Shear Modulus (GPa) = 10.38662 18.01872 14.20267
#
# Velocity S-wave (km/s) = 2.40632 3.16940 2.81385
# Velocity P-wave (km/s) = 5.61378 6.29267 5.96289
#
# Compressibility (1/GPa) = 0.02342946
#
# Stress axis : x y z
#
# Youngs Moduli (GPa) = 51.19386 33.36505 27.43414
#
# Poissons Ratio (x) = 0.13544 0.32105
# Poissons Ratio (y) = 0.20781 0.42527
# Poissons Ratio (z) = 0.59910 0.51720
#
# Static dielectric constant tensor:
#      x y z
#    x 1.629790 0.000000 0.021650 
#    y 0.000000 1.598110 0.000000 
#    z 0.021650 0.000000 1.612050 
# 
# From -- ./inp_files/162515.got.cif
#   From: 2010.05.17/outbox.cif.g08.bks.cpg/sg12_82_cif.got.tgz:162515.got - 2010.06.03 13:09:07.
