data_PCOD9183514
_publ_section_title
;
Structure prediction by ZEFSAII (Michael W. Deem and Ramdas Pophale) SiO2 
 PCOD9183514
Probable space group: C 2/M
;
_chemical_formula_sum "Si O2"
_cell_formula_units_Z 56
_cell_length_a 20.282390
_cell_length_b 8.866107
_cell_length_c 17.776556
_cell_angle_alpha 90.000000
_cell_angle_beta 118.321008
_cell_angle_gamma 90.000000
_cell_volume 2814.052105
_symmetry_space_group_name_H-M "C 2/M"
_symmetry_group_IT_number 12
_symmetry_cell_setting 'monoclinic'
loop_
_space_group_symop_operation_xyz
x,y,z
-x,y,-z
-x,-y,-z
x,-y,z
1/2+x,1/2+y,z
1/2-x,1/2+y,-z
1/2-x,1/2-y,-z
1/2+x,1/2-y,z
loop_
_atom_site_type_symbol
_atom_site_label
_atom_site_fract_x
_atom_site_fract_y
_atom_site_fract_z
Si Si1 0.917841 0.676568 0.167688
Si Si2 0.965467 0.166922 0.673323
Si Si3 0.188065 0.680853 0.749747
Si Si4 0.683468 0.820484 0.416315
Si Si5 0.067843 0.169119 0.585915
Si Si6 0.505652 0.680346 0.090145
Si Si7 0.836783 0.679866 0.772319
O O1 0.909018 0.500000 0.148720
O O2 0.854102 0.722949 0.194136
O O3 0.996595 0.711526 0.252023
O O4 0.933290 0.763367 0.098480
O O5 0.891143 0.234938 0.598314
O O6 0.026060 0.148299 0.641891
O O7 0.952498 0.000000 0.700558
O O8 0.191090 0.500000 0.749409
O O9 0.140036 0.737684 0.650892
O O10 0.269798 0.752338 0.786059
O O11 0.750000 0.750000 0.500000
O O12 0.684486 0.791229 0.326891
O O13 0.679690 0.000000 0.425513
O O14 0.000000 0.237611 0.500000
O O15 0.087016 0.000000 0.565958
O O16 0.508275 0.500000 0.096148
O O17 0.583767 0.746623 0.163985
O O18 0.500000 0.725803 0.000000
O O19 0.841412 0.500000 0.784519
#
# Coordination Sequence:
#
# PCOD9183514 Si02
#       7
#     8   8   8   8   8   8   8
#     4  10  20  38  62  89 121 158 199 243 296 361
#     4  10  19  33  55  80 111 154 199 248 300 351
#     4  10  22  38  59  87 120 159 202 251 306 360
#     4  11  24  38  55  82 118 160 206 254 306 364
#     4   9  19  34  52  77 112 154 202 251 298 355
#     4  11  24  42  68  99 126 156 199 250 306 370
#     4  11  24  42  64  90 124 163 207 256 308 369
#
# _framework density 19.900127000000001
#
# number of rings (size 3 to 8) (size 9 to 14) (size 15 to 20)
#    0.000    1.714    1.429    2.571    2.000    5.429 
#    0.000    0.714    0.000    0.000    0.000    0.000 
#    0.000    0.000    0.000    0.000    0.000    0.000 
#
# Total GULP energy -156086.910919 kJ/mol
# GULP energy per Si atom -5574.532533 kJ/mol
# Density = 1.985483 g / cm^3
# Si number density = 19.900127 Si / 1000 Ang^3
#
#
#
# Elastic Constant Matrix: (Units=GPa)
#
#
# Indices 1 2 3 4 5 6 
#
# 1 87.9773 44.8971 23.2385 0.0000 12.2369 0.0000
# 2 44.8971 67.0984 21.6334 0.0000 -4.9663 0.0000
# 3 23.2385 21.6334 62.4464 0.0000 -11.5385 0.0000
# 4 0.0000 0.0000 0.0000 24.2437 0.0000 -0.9339
# 5 12.2369 -4.9663 -11.5385 0.0000 12.7555 0.0000
# 6 0.0000 0.0000 0.0000 -0.9339 0.0000 24.7241
#
#
#
# Elastic Compliance Matrix: (Units=1/GPa)
#
#
# Indices 1 2 3 4 5 6 
#
# 1 0.034615 -0.022307 -0.015482 0.000000 -0.055898 0.000000
# 2 -0.022307 0.031178 0.004440 0.000000 0.037555 0.000000
# 3 -0.015482 0.004440 0.027977 0.000000 0.041889 0.000000
# 4 0.000000 0.000000 0.000000 0.041308 0.000000 0.001560
# 5 -0.055898 0.037555 0.041889 0.000000 0.184537 0.000000
# 6 0.000000 0.000000 0.000000 0.001560 0.000000 0.040505
#
#
# Mechanical properties :
#
#
# Convention : Reuss Voigt Hill
#
# Bulk Modulus (GPa) = 36.94028 44.11779 40.52904
# Shear Modulus (GPa) = 11.47199 20.86154 16.16676
#
# Velocity S-wave (km/s) = 2.40360 3.24128 2.85335
# Velocity P-wave (km/s) = 5.12896 6.01877 5.59159
#
# Compressibility (1/GPa) = 0.02707072
#
# Stress axis : x y z
#
# Youngs Moduli (GPa) = 28.88924 32.07378 35.74341
#
# Poissons Ratio (x) = 0.71548 0.55338
# Poissons Ratio (y) = 0.64444 -0.15869
# Poissons Ratio (z) = 0.44726 -0.14239
#
# Static dielectric constant tensor:
#      x y z
#    x 1.739470 0.000000 -0.046450 
#    y 0.000000 1.701600 0.000000 
#    z -0.046450 0.000000 1.723260 
# 
# From -- ./inp_files/281689.got.cif
#   From: 2010.05.17/outbox.cif.g08.bks.cpg/sg12_141_cif.got.tgz:281689.got - 2010.06.03 13:09:07.
