data_PCOD9183292
_publ_section_title
;
Structure prediction by ZEFSAII (Michael W. Deem and Ramdas Pophale) SiO2 
 PCOD9183292
Probable space group: C 2/M
;
_chemical_formula_sum "Si O2"
_cell_formula_units_Z 58
_cell_length_a 22.837439
_cell_length_b 9.689776
_cell_length_c 15.352010
_cell_angle_alpha 90.000000
_cell_angle_beta 86.083453
_cell_angle_gamma 90.000000
_cell_volume 3389.307265
_symmetry_space_group_name_H-M "C 2/M"
_symmetry_group_IT_number 12
_symmetry_cell_setting 'monoclinic'
loop_
_space_group_symop_operation_xyz
x,y,z
-x,y,-z
-x,-y,-z
x,-y,z
1/2+x,1/2+y,z
1/2-x,1/2+y,-z
1/2-x,1/2-y,-z
1/2+x,1/2-y,z
loop_
_atom_site_type_symbol
_atom_site_label
_atom_site_fract_x
_atom_site_fract_y
_atom_site_fract_z
Si Si1 0.105162 0.337966 0.281690
Si Si2 0.659808 0.162058 0.839414
Si Si3 0.974552 0.254457 0.874430
Si Si4 0.483302 0.662651 0.601828
Si Si5 0.500000 0.000000 0.000000
Si Si6 0.700925 0.660729 0.183203
Si Si7 0.365266 0.342864 0.989341
Si Si8 0.574183 0.656051 0.744031
O O1 0.112679 0.500000 0.297936
O O2 0.064885 0.316299 0.199817
O O3 0.069848 0.258269 0.360672
O O4 0.165384 0.260887 0.250571
O O5 0.729477 0.176953 0.818459
O O6 0.643575 0.236937 0.931602
O O7 0.623573 0.236406 0.767031
O O8 0.645778 0.000000 0.846622
O O9 0.024771 0.164690 0.824642
O O10 0.001476 0.379499 0.924916
O O11 0.929679 0.173026 0.940940
O O12 0.500000 0.684294 0.500000
O O13 0.468303 0.500000 0.616109
O O14 0.539106 0.689740 0.659084
O O15 0.685409 0.500000 0.202809
O O16 0.679209 0.686973 0.086148
O O17 0.355940 0.500000 0.020302
O O18 0.597125 0.500000 0.736519
#
# Coordination Sequence:
#
# PCOD9183292 Si02
#       8
#     8   8   8   8   2   8   8   8
#     4  10  19  33  54  82 107 133 170 218 263 306
#     4  11  23  34  49  72 104 141 181 223 269 309
#     4  10  21  31  48  71 104 138 176 212 265 310
#     4   9  19  37  61  86 109 136 166 203 261 332
#     4  12  20  28  42  68 102 140 170 212 240 306
#     4   9  20  37  52  71 100 143 186 224 261 307
#     4  10  20  34  52  70  97 136 189 233 265 303
#     4  10  21  36  54  75 106 139 174 215 265 324
#
# _framework density 17.112641
#
# number of rings (size 3 to 8) (size 9 to 14) (size 15 to 20)
#    0.000    2.069    0.690    2.483    3.862    5.793 
#    0.000    2.069    0.000    0.828    0.000    0.000 
#    0.000    0.000    0.000    0.000    0.000    0.000 
#
# Total GULP energy -161627.878439 kJ/mol
# GULP energy per Si atom -5573.375119 kJ/mol
# Density = 1.707369 g / cm^3
# Si number density = 17.112641 Si / 1000 Ang^3
#
#
#
# Elastic Constant Matrix: (Units=GPa)
#
#
# Indices 1 2 3 4 5 6 
#
# 1 81.0000 58.4466 36.7288 0.0000 0.7629 0.0000
# 2 58.4466 124.3046 63.5584 0.0000 -0.6057 0.0000
# 3 36.7288 63.5584 90.3175 0.0000 -2.6760 0.0000
# 4 0.0000 0.0000 0.0000 18.7097 0.0000 -3.1604
# 5 0.7629 -0.6057 -2.6760 0.0000 13.3168 0.0000
# 6 0.0000 0.0000 0.0000 -3.1604 0.0000 19.5004
#
#
#
# Elastic Compliance Matrix: (Units=1/GPa)
#
#
# Indices 1 2 3 4 5 6 
#
# 1 0.019020 -0.007761 -0.002330 0.000000 -0.001911 0.000000
# 2 -0.007761 0.015753 -0.007942 0.000000 -0.000435 0.000000
# 3 -0.002330 -0.007942 0.017707 0.000000 0.003330 0.000000
# 4 0.000000 0.000000 0.000000 0.054953 0.000000 0.008906
# 5 -0.001911 -0.000435 0.003330 0.000000 0.075852 0.000000
# 6 0.000000 0.000000 0.000000 0.008906 0.000000 0.052724
#
#
# Mechanical properties :
#
#
# Convention : Reuss Voigt Hill
#
# Bulk Modulus (GPa) = 60.92376 68.12106 64.52241
# Shear Modulus (GPa) = 18.01494 19.43126 18.72310
#
# Velocity S-wave (km/s) = 3.24810 3.37336 3.31132
# Velocity P-wave (km/s) = 7.05307 7.42069 7.23921
#
# Compressibility (1/GPa) = 0.01641396
#
# Stress axis : x y z
#
# Youngs Moduli (GPa) = 52.57550 63.48053 56.47381
#
# Poissons Ratio (x) = 0.49269 0.13157
# Poissons Ratio (y) = 0.40805 0.44853
# Poissons Ratio (z) = 0.12249 0.50418
#
# Static dielectric constant tensor:
#      x y z
#    x 1.595560 0.000000 0.009370 
#    y 0.000000 1.574760 0.000000 
#    z 0.009370 0.000000 1.557020 
# 
# From -- ./inp_files/237549.got.cif
#   From: 2010.05.17/outbox.cif.g08.bks.cpg/sg12_119_cif.got.tgz:237549.got - 2010.06.03 13:09:07.
