data_PCOD9183147
_publ_section_title
;
Structure prediction by ZEFSAII (Michael W. Deem and Ramdas Pophale) SiO2 
 PCOD9183147
Probable space group: C 2/M
;
_chemical_formula_sum "Si O2"
_cell_formula_units_Z 64
_cell_length_a 9.445299
_cell_length_b 16.898809
_cell_length_c 29.367379
_cell_angle_alpha 90.000000
_cell_angle_beta 136.064264
_cell_angle_gamma 90.000000
_cell_volume 3252.394984
_symmetry_space_group_name_H-M "C 2/M"
_symmetry_group_IT_number 12
_symmetry_cell_setting 'monoclinic'
loop_
_space_group_symop_operation_xyz
x,y,z
-x,y,-z
-x,-y,-z
x,-y,z
1/2+x,1/2+y,z
1/2-x,1/2+y,-z
1/2-x,1/2-y,-z
1/2+x,1/2-y,z
loop_
_atom_site_type_symbol
_atom_site_label
_atom_site_fract_x
_atom_site_fract_y
_atom_site_fract_z
Si Si1 0.577082 0.843344 0.617080
Si Si2 0.750764 0.089581 0.281666
Si Si3 0.637661 0.314430 0.400366
Si Si4 0.414025 0.596478 0.765320
Si Si5 0.211750 0.097075 0.071445
Si Si6 0.356251 0.090241 0.849917
Si Si7 0.180103 0.403630 0.801736
Si Si8 0.333387 0.410118 0.499438
O O1 0.452041 0.771633 0.610594
O O2 0.671383 0.819328 0.589747
O O3 0.765928 0.870146 0.692134
O O4 0.399506 0.908472 0.572047
O O5 0.682038 0.085666 0.213272
O O6 0.551624 0.124975 0.259989
O O7 0.953454 0.137980 0.334362
O O8 0.787240 0.000000 0.306109
O O9 0.670311 0.355304 0.456894
O O10 0.420004 0.500000 0.761467
O O11 0.646481 0.627383 0.818514
O O12 0.318533 0.617521 0.791621
O O13 0.417081 0.124646 0.092914
O O14 0.233382 0.121258 0.129280
O O15 0.217479 0.000000 0.072090
O O16 0.000000 0.121896 0.000000
O O17 0.364073 0.000000 0.869881
O O18 0.166085 0.500000 0.799969
O O19 0.500000 0.383976 0.500000
O O20 0.390156 0.500000 0.525061
#
# Coordination Sequence:
#
# PCOD9183147 Si02
#       8
#     8   8   8   8   8   8   8   8
#     4  12  26  41  59  84 116 152 185 234 289 340
#     4   9  17  32  55  78 102 142 185 223 271 334
#     4  12  25  41  60  83 116 148 184 235 288 339
#     4  10  19  33  54  78 109 147 190 236 282 334
#     4   8  13  24  43  70 109 152 187 222 275 338
#     4   8  14  27  46  73 103 137 184 227 269 327
#     4   8  16  27  46  75 107 142 183 228 271 323
#     4  11  26  46  67  88 111 144 189 231 277 343
#
# _framework density 19.677806
#
# number of rings (size 3 to 8) (size 9 to 14) (size 15 to 20)
#    0.000    2.250    1.250    3.750    3.500    2.000 
#    0.000    0.625    0.000    3.750    0.000    0.000 
#    0.000   16.000    0.000    0.000    0.000    0.000 
#
# Total GULP energy -178395.427062 kJ/mol
# GULP energy per Si atom -5574.857096 kJ/mol
# Density = 1.963302 g / cm^3
# Si number density = 19.677806 Si / 1000 Ang^3
#
#
#
# Elastic Constant Matrix: (Units=GPa)
#
#
# Indices 1 2 3 4 5 6 
#
# 1 163.4827 14.4402 40.9923 0.0000 27.1527 0.0000
# 2 14.4402 31.6699 9.5876 0.0000 2.2883 0.0000
# 3 40.9923 9.5876 79.9642 0.0000 24.2979 0.0000
# 4 0.0000 0.0000 0.0000 58.3711 0.0000 11.9749
# 5 27.1527 2.2883 24.2979 0.0000 31.5833 0.0000
# 6 0.0000 0.0000 0.0000 11.9749 0.0000 14.8723
#
#
#
# Elastic Compliance Matrix: (Units=1/GPa)
#
#
# Indices 1 2 3 4 5 6 
#
# 1 0.007673 -0.002491 -0.002199 0.000000 -0.004724 0.000000
# 2 -0.002491 0.033591 -0.003474 0.000000 0.002381 0.000000
# 3 -0.002199 -0.003474 0.017486 0.000000 -0.011310 0.000000
# 4 0.000000 0.000000 0.000000 0.020522 0.000000 -0.016524
# 5 -0.004724 0.002381 -0.011310 0.000000 0.044253 0.000000
# 6 0.000000 0.000000 0.000000 -0.016524 0.000000 0.080544
#
#
# Mechanical properties :
#
#
# Convention : Reuss Voigt Hill
#
# Bulk Modulus (GPa) = 23.57280 45.01746 34.29513
# Shear Modulus (GPa) = 21.31851 34.97177 28.14514
#
# Velocity S-wave (km/s) = 3.29504 4.22028 3.78603
# Velocity P-wave (km/s) = 5.14605 6.83188 6.04799
#
# Compressibility (1/GPa) = 0.04242178
#
# Stress axis : x y z
#
# Youngs Moduli (GPa) = 130.32719 29.76953 57.18790
#
# Poissons Ratio (x) = 0.07417 0.12577
# Poissons Ratio (y) = 0.32470 0.19866
# Poissons Ratio (z) = 0.28662 0.10341
#
# Static dielectric constant tensor:
#      x y z
#    x 1.725350 0.000000 0.027580 
#    y 0.000000 1.733110 0.000000 
#    z 0.027580 0.000000 1.695590 
# 
# From -- ./inp_files/372973.got.cif
#   From: 2010.05.17/outbox.cif.g08.bks.cpg/sg12_187_cif.got.tgz:372973.got - 2010.06.03 13:09:07.
