data_PCOD9183196
_publ_section_title
;
Structure prediction by ZEFSAII (Michael W. Deem and Ramdas Pophale) SiO2 
 PCOD9183196
Probable space group: C 2/M
;
_chemical_formula_sum "Si O2"
_cell_formula_units_Z 64
_cell_length_a 30.511315
_cell_length_b 7.583501
_cell_length_c 15.419885
_cell_angle_alpha 90.000000
_cell_angle_beta 119.748109
_cell_angle_gamma 90.000000
_cell_volume 3097.698812
_symmetry_space_group_name_H-M "C 2/M"
_symmetry_group_IT_number 12
_symmetry_cell_setting 'monoclinic'
loop_
_space_group_symop_operation_xyz
x,y,z
-x,y,-z
-x,-y,-z
x,-y,z
1/2+x,1/2+y,z
1/2-x,1/2+y,-z
1/2-x,1/2-y,-z
1/2+x,1/2-y,z
loop_
_atom_site_type_symbol
_atom_site_label
_atom_site_fract_x
_atom_site_fract_y
_atom_site_fract_z
Si Si1 0.470754 0.283785 0.227511
Si Si2 0.112382 0.207521 0.986937
Si Si3 0.775013 0.789706 0.933084
Si Si4 0.639361 0.283392 0.556639
Si Si5 0.448667 0.714878 0.400735
Si Si6 0.914051 0.211407 0.671765
Si Si7 0.252392 0.704722 0.281171
Si Si8 0.859767 0.290684 0.798294
O O1 0.471895 0.500000 0.227424
O O2 0.433716 0.221562 0.114861
O O3 0.450619 0.230814 0.302506
O O4 0.528356 0.223428 0.272807
O O5 0.114125 0.000000 0.968875
O O6 0.167443 0.279757 0.014728
O O7 0.109386 0.226114 0.087574
O O8 0.745794 0.714190 0.821463
O O9 0.776227 0.000000 0.922144
O O10 0.750000 0.750000 0.000000
O O11 0.640193 0.500000 0.558691
O O12 0.600366 0.228759 0.593625
O O13 0.616893 0.225661 0.442386
O O14 0.696221 0.219888 0.629272
O O15 0.500000 0.770269 0.500000
O O16 0.448835 0.500000 0.401732
O O17 0.886290 0.251259 0.734084
O O18 0.916678 0.000000 0.665849
O O19 0.251196 0.500000 0.306722
O O20 0.197733 0.782190 0.253408
O O21 0.856202 0.500000 0.805330
#
# Coordination Sequence:
#
# PCOD9183196 Si02
#       8
#     8   8   8   8   8   8   8   8
#     4   9  17  29  49  80 108 130 164 212 261 303
#     4   9  19  35  54  76 101 133 173 215 258 302
#     4  10  20  33  51  76 105 137 173 211 255 304
#     4   9  17  29  50  79 107 134 167 208 257 306
#     4   9  14  24  45  76 110 133 156 204 262 306
#     4  10  19  33  54  80 105 131 169 216 261 306
#     4   9  19  35  53  74 102 136 175 214 253 300
#     4  10  21  37  53  71 101 139 175 215 260 304
#
# _framework density 20.660499000000002
#
# number of rings (size 3 to 8) (size 9 to 14) (size 15 to 20)
#    0.000    2.625    1.250    0.750    1.750    2.000 
#    0.000    3.750    0.000    0.000    0.000    0.875 
#    0.000    0.000    0.000    0.000    0.000    0.000 
#
# Total GULP energy -178602.505294 kJ/mol
# GULP energy per Si atom -5581.328290 kJ/mol
# Density = 2.061347 g / cm^3
# Si number density = 20.660499 Si / 1000 Ang^3
#
#
#
# Elastic Constant Matrix: (Units=GPa)
#
#
# Indices 1 2 3 4 5 6 
#
# 1 116.6131 -6.6668 118.1907 0.0000 -14.9095 0.0000
# 2 -6.6668 43.5760 -5.6555 0.0000 10.0837 0.0000
# 3 118.1907 -5.6555 196.4925 0.0000 19.7136 0.0000
# 4 0.0000 0.0000 0.0000 5.7636 0.0000 -0.2925
# 5 -14.9095 10.0837 19.7136 0.0000 36.5085 0.0000
# 6 0.0000 0.0000 0.0000 -0.2925 0.0000 4.2567
#
#
#
# Elastic Compliance Matrix: (Units=1/GPa)
#
#
# Indices 1 2 3 4 5 6 
#
# 1 0.041407 -0.005151 -0.028434 0.000000 0.033686 0.000000
# 2 -0.005151 0.025561 0.005025 0.000000 -0.011877 0.000000
# 3 -0.028434 0.005025 0.024995 0.000000 -0.026497 0.000000
# 4 0.000000 0.000000 0.000000 0.174109 0.000000 0.011963
# 5 0.033686 -0.011877 -0.026497 0.000000 0.058736 0.000000
# 6 0.000000 0.000000 0.000000 0.011963 0.000000 0.235748
#
#
# Mechanical properties :
#
#
# Convention : Reuss Voigt Hill
#
# Bulk Modulus (GPa) = 28.69886 63.15758 45.92822
# Shear Modulus (GPa) = 7.94547 26.02663 16.98605
#
# Velocity S-wave (km/s) = 1.96318 3.55312 2.87043
# Velocity P-wave (km/s) = 4.36573 6.88974 5.76750
#
# Compressibility (1/GPa) = 0.03484458
#
# Stress axis : x y z
#
# Youngs Moduli (GPa) = 24.15077 39.12202 40.00734
#
# Poissons Ratio (x) = 0.20150 1.13757
# Poissons Ratio (y) = 0.12439 -0.20105
# Poissons Ratio (z) = 0.68670 -0.19660
#
# Static dielectric constant tensor:
#      x y z
#    x 1.719930 0.000000 0.021750 
#    y 0.000000 1.801090 0.000000 
#    z 0.021750 0.000000 1.714620 
# 
# From -- ./inp_files/249236.got.cif
#   From: 2010.05.17/outbox.cif.g08.bks.cpg/sg12_125_cif.got.tgz:249236.got - 2010.06.03 13:09:07.
