data_PCOD9183390
_publ_section_title
;
Structure prediction by ZEFSAII (Michael W. Deem and Ramdas Pophale) SiO2 
 PCOD9183390
Probable space group: C 2/M
;
_chemical_formula_sum "Si O2"
_cell_formula_units_Z 64
_cell_length_a 18.555090
_cell_length_b 7.606685
_cell_length_c 21.577888
_cell_angle_alpha 90.000000
_cell_angle_beta 88.315315
_cell_angle_gamma 90.000000
_cell_volume 3044.245476
_symmetry_space_group_name_H-M "C 2/M"
_symmetry_group_IT_number 12
_symmetry_cell_setting 'monoclinic'
loop_
_space_group_symop_operation_xyz
x,y,z
-x,y,-z
-x,-y,-z
x,-y,z
1/2+x,1/2+y,z
1/2-x,1/2+y,-z
1/2-x,1/2-y,-z
1/2+x,1/2-y,z
loop_
_atom_site_type_symbol
_atom_site_label
_atom_site_fract_x
_atom_site_fract_y
_atom_site_fract_z
Si Si1 0.083114 0.284662 0.504710
Si Si2 0.825255 0.212669 0.863251
Si Si3 0.575692 0.216106 0.750768
Si Si4 0.839425 0.706983 0.132575
Si Si5 0.339277 0.789980 0.372473
Si Si6 0.912869 0.709472 0.737432
Si Si7 0.835590 0.208257 0.996712
Si Si8 0.670400 0.211714 0.381664
O O1 0.083865 0.500000 0.505060
O O2 0.118687 0.223606 0.567987
O O3 0.130239 0.226342 0.444721
O O4 0.000000 0.231269 0.500000
O O5 0.742453 0.278744 0.860919
O O6 0.869646 0.260673 0.801767
O O7 0.822381 0.000000 0.866662
O O8 0.858882 0.274278 0.928161
O O9 0.608649 0.276952 0.815341
O O10 0.626239 0.273546 0.692653
O O11 0.494201 0.276994 0.741612
O O12 0.574412 0.000000 0.751561
O O13 0.832536 0.500000 0.144760
O O14 0.865852 0.725186 0.061125
O O15 0.254585 0.754937 0.378946
O O16 0.348960 0.000000 0.372009
O O17 0.918684 0.500000 0.728249
O O18 0.869410 0.779119 0.679134
O O19 0.845250 0.000000 0.997771
O O20 0.750000 0.250000 0.000000
O O21 0.665058 0.000000 0.381737
#
# Coordination Sequence:
#
# PCOD9183390 Si02
#       8
#     8   8   8   8   8   8   8   8
#     4   9  17  31  53  78 102 132 169 205 242 287
#     4   9  18  32  50  73  99 126 158 200 247 293
#     4   9  18  33  51  72  97 127 168 209 242 286
#     4   9  17  31  51  72  96 126 161 204 246 287
#     4  10  19  33  55  76  97 132 171 203 242 294
#     4  10  20  33  50  71  97 131 166 203 247 291
#     4   9  17  30  49  73  99 126 160 201 243 290
#     4  10  20  33  50  76 106 129 161 211 251 284
#
# _framework density 21.023271000000001
#
# number of rings (size 3 to 8) (size 9 to 14) (size 15 to 20)
#    0.000    2.625    0.000    3.000    0.000    7.000 
#    0.000    2.500    0.000    6.750    0.000    0.000 
#    0.000    0.000    0.000    0.000    0.000    0.000 
#
# Total GULP energy -178584.330774 kJ/mol
# GULP energy per Si atom -5580.760337 kJ/mol
# Density = 2.097542 g / cm^3
# Si number density = 21.023271 Si / 1000 Ang^3
#
#
#
# Elastic Constant Matrix: (Units=GPa)
#
#
# Indices 1 2 3 4 5 6 
#
# 1 110.6224 6.7460 70.1466 0.0000 49.3780 0.0000
# 2 6.7460 36.3125 5.9608 0.0000 -0.0911 0.0000
# 3 70.1466 5.9608 182.6838 0.0000 55.8166 0.0000
# 4 0.0000 0.0000 0.0000 -17.3383 0.0000 4.9288
# 5 49.3780 -0.0911 55.8166 0.0000 10.9046 0.0000
# 6 0.0000 0.0000 0.0000 4.9288 0.0000 14.3227
#
#
#
# Elastic Compliance Matrix: (Units=1/GPa)
#
#
# Indices 1 2 3 4 5 6 
#
# 1 0.004757 0.000549 -0.008398 0.000000 0.021449 0.000000
# 2 0.000549 0.027302 0.000731 0.000000 -0.005997 0.000000
# 3 -0.008398 0.000731 0.005224 0.000000 0.011293 0.000000
# 4 0.000000 0.000000 0.000000 -0.052537 0.000000 0.018079
# 5 0.021449 -0.005997 0.011293 0.000000 -0.063277 0.000000
# 6 0.000000 0.000000 0.000000 0.018079 0.000000 0.063598
#
#
# Mechanical properties :
#
#
# Convention : Reuss Voigt Hill
#
# Bulk Modulus (GPa) = 43.39118 55.03618 49.21368
# Shear Modulus (GPa) = 715.55471 18.02884 366.79177
#
# Velocity S-wave (km/s) = 18.46895 2.93160 13.22302
# Velocity P-wave (km/s) = 21.80567 6.13959 16.01845
#
# Compressibility (1/GPa) = 0.02304616
#
# Stress axis : x y z
#
# Youngs Moduli (GPa) = 210.19710 36.62765 191.40999
#
# Poissons Ratio (x) = -0.02009 1.60750
# Poissons Ratio (y) = -0.11531 -0.13991
# Poissons Ratio (z) = 1.76528 -0.02677
#
# Static dielectric constant tensor:
#      x y z
#    x 1.710380 0.000000 0.016320 
#    y 0.000000 1.807280 0.000000 
#    z 0.016320 0.000000 1.760070 
# 
# From -- ./inp_files/314184.got.cif
#   From: 2010.05.17/outbox.cif.g08.bks.cpg/sg12_158_cif.got.tgz:314184.got - 2010.06.03 13:09:07.
