data_PCOD9183904
_publ_section_title
;
Structure prediction by ZEFSAII (Michael W. Deem and Ramdas Pophale) SiO2 
 PCOD9183904
Probable space group: C 2/M
;
_chemical_formula_sum "Si O2"
_cell_formula_units_Z 52
_cell_length_a 18.527617
_cell_length_b 12.823962
_cell_length_c 20.687258
_cell_angle_alpha 90.000000
_cell_angle_beta 145.212769
_cell_angle_gamma 90.000000
_cell_volume 2804.294518
_symmetry_space_group_name_H-M "C 2/M"
_symmetry_group_IT_number 12
_symmetry_cell_setting 'monoclinic'
loop_
_space_group_symop_operation_xyz
x,y,z
-x,y,-z
-x,-y,-z
x,-y,z
1/2+x,1/2+y,z
1/2-x,1/2+y,-z
1/2-x,1/2-y,-z
1/2+x,1/2-y,z
loop_
_atom_site_type_symbol
_atom_site_label
_atom_site_fract_x
_atom_site_fract_y
_atom_site_fract_z
Si Si1 0.680985 0.880024 0.838759
Si Si2 0.462259 0.378535 0.092984
Si Si3 0.719777 0.376140 0.630199
Si Si4 0.555056 0.238854 0.277323
Si Si5 0.725973 0.693386 0.780146
Si Si6 0.500000 0.769078 0.000000
Si Si7 0.540147 0.617537 0.382457
O O1 0.564059 0.833280 0.792108
O O2 0.702957 0.809159 0.791557
O O3 0.659345 0.000000 0.806018
O O4 0.809924 0.873220 0.975027
O O5 0.498982 0.500000 0.113351
O O6 0.510776 0.326934 0.194151
O O7 0.510836 0.306721 0.069886
O O8 0.736354 0.500000 0.653780
O O9 0.835087 0.329181 0.673718
O O10 0.714789 0.319682 0.695324
O O11 0.595735 0.362527 0.494622
O O12 0.592271 0.299028 0.370140
O O13 0.611820 0.627723 0.727228
O O14 0.869577 0.666718 0.906672
O O15 0.576864 0.500000 0.391308
#
# Coordination Sequence:
#
# PCOD9183904 Si02
#       7
#     8   8   8   8   8   4   8
#     4   9  20  36  57  83 116 156 184 220 281 340
#     4  10  19  33  56  83 115 152 186 223 278 338
#     4  11  22  38  59  83 111 150 191 231 283 331
#     4  11  20  36  58  85 116 142 189 236 278 326
#     4  10  20  37  60  82 113 146 191 230 274 334
#     4  10  19  36  55  86 118 144 181 234 283 330
#     4  10  22  39  59  82 112 150 191 231 277 334
#
# _framework density 18.542988999999999
#
# number of rings (size 3 to 8) (size 9 to 14) (size 15 to 20)
#    0.000    1.846    1.538    3.000    0.000    1.846 
#    0.000    1.538    0.000    9.231    0.000    0.000 
#    0.000    0.000    0.000    0.000    0.000    0.000 
#
# Total GULP energy -145081.541575 kJ/mol
# GULP energy per Si atom -5580.059291 kJ/mol
# Density = 1.850078 g / cm^3
# Si number density = 18.542989 Si / 1000 Ang^3
#
#
#
# Elastic Constant Matrix: (Units=GPa)
#
#
# Indices 1 2 3 4 5 6 
#
# 1 63.3002 -0.3230 19.2135 0.0000 4.2608 0.0000
# 2 -0.3230 42.1932 37.9329 0.0000 -2.7665 0.0000
# 3 19.2135 37.9329 71.3302 0.0000 -3.4826 0.0000
# 4 0.0000 0.0000 0.0000 23.8832 0.0000 -7.0298
# 5 4.2608 -2.7665 -3.4826 0.0000 31.9653 0.0000
# 6 0.0000 0.0000 0.0000 -7.0298 0.0000 8.7094
#
#
#
# Elastic Compliance Matrix: (Units=1/GPa)
#
#
# Indices 1 2 3 4 5 6 
#
# 1 0.019097 0.009022 -0.010081 0.000000 -0.002863 0.000000
# 2 0.009022 0.049728 -0.028878 0.000000 -0.000045 0.000000
# 3 -0.010081 -0.028878 0.032207 0.000000 0.002353 0.000000
# 4 0.000000 0.000000 0.000000 0.054918 0.000000 0.044326
# 5 -0.002863 -0.000045 0.002353 0.000000 0.031918 0.000000
# 6 0.000000 0.000000 0.000000 0.044326 0.000000 0.150596
#
#
# Mechanical properties :
#
#
# Convention : Reuss Voigt Hill
#
# Bulk Modulus (GPa) = 24.29689 32.27448 28.28568
# Shear Modulus (GPa) = 12.13426 20.91159 16.52293
#
# Velocity S-wave (km/s) = 2.56087 3.36182 2.98830
# Velocity P-wave (km/s) = 4.67713 5.70194 5.21477
#
# Compressibility (1/GPa) = 0.04115752
#
# Stress axis : x y z
#
# Youngs Moduli (GPa) = 52.36553 20.10922 31.04945
#
# Poissons Ratio (x) = -0.18143 0.31302
# Poissons Ratio (y) = -0.47244 0.89663
# Poissons Ratio (z) = 0.52792 0.58071
#
# Static dielectric constant tensor:
#      x y z
#    x 1.638110 0.000000 0.018280 
#    y 0.000000 1.615510 0.000000 
#    z 0.018280 0.000000 1.647570 
# 
# From -- ./inp_files/315625.got.cif
#   From: 2010.05.17/outbox.cif.g08.bks.cpg/sg12_158_cif.got.tgz:315625.got - 2010.06.03 13:09:07.
