data_PCOD9183517
_publ_section_title
;
Structure prediction by ZEFSAII (Michael W. Deem and Ramdas Pophale) SiO2 
 PCOD9183517
Probable space group: C 2/M
;
_chemical_formula_sum "Si O2"
_cell_formula_units_Z 64
_cell_length_a 29.159603
_cell_length_b 7.482091
_cell_length_c 14.690624
_cell_angle_alpha 90.000000
_cell_angle_beta 59.679956
_cell_angle_gamma 90.000000
_cell_volume 2766.723924
_symmetry_space_group_name_H-M "C 2/M"
_symmetry_group_IT_number 12
_symmetry_cell_setting 'monoclinic'
loop_
_space_group_symop_operation_xyz
x,y,z
-x,y,-z
-x,-y,-z
x,-y,z
1/2+x,1/2+y,z
1/2-x,1/2+y,-z
1/2-x,1/2-y,-z
1/2+x,1/2-y,z
loop_
_atom_site_type_symbol
_atom_site_label
_atom_site_fract_x
_atom_site_fract_y
_atom_site_fract_z
Si Si1 0.614800 0.713448 0.450533
Si Si2 0.799014 0.286100 0.884941
Si Si3 0.964008 0.703847 0.614045
Si Si4 0.296457 0.714672 0.380231
Si Si5 0.229550 0.289343 0.286165
Si Si6 0.086838 0.218403 0.674499
Si Si7 0.504530 0.712365 0.097805
Si Si8 0.587039 0.784302 0.158551
O O1 0.611566 0.500000 0.445619
O O2 0.592626 0.798002 0.380636
O O3 0.675935 0.765435 0.398220
O O4 0.582689 0.771122 0.572496
O O5 0.805403 0.500000 0.869525
O O6 0.783894 0.213793 0.799943
O O7 0.854122 0.219646 0.874379
O O8 0.750000 0.250000 0.000000
O O9 0.982428 0.500000 0.607323
O O10 0.953397 0.785542 0.722683
O O11 0.000000 0.792617 0.500000
O O12 0.300460 0.500000 0.370165
O O13 0.250000 0.750000 0.500000
O O14 0.276682 0.783630 0.301708
O O15 0.354806 0.777577 0.350592
O O16 0.239778 0.500000 0.263546
O O17 0.040456 0.282713 0.787625
O O18 0.086255 0.000000 0.674740
O O19 0.495336 0.500000 0.101495
O O20 0.561812 0.739194 0.087034
O O21 0.500000 0.784211 0.000000
O O22 0.587189 0.000000 0.165669
#
# Coordination Sequence:
#
# PCOD9183517 Si02
#       8
#     8   8   8   8   8   8   8   8
#     4  11  20  31  53  81 115 150 181 232 287 336
#     4  10  22  40  60  85 117 152 192 238 283 335
#     4  10  20  35  56  82 114 152 190 228 279 346
#     4  10  19  33  55  80 112 152 189 233 287 341
#     4  10  20  36  57  80 112 152 190 231 281 339
#     4   9  19  35  53  82 119 148 184 240 293 332
#     4  10  22  40  62  85 111 149 197 241 281 338
#     4  10  21  39  60  84 117 150 184 236 290 334
#
# _framework density 23.132054
#
# number of rings (size 3 to 8) (size 9 to 14) (size 15 to 20)
#    0.000    2.000    2.500    1.125    0.000    3.000 
#    0.000    3.750    0.000    0.000    0.000    0.000 
#    0.000    0.000    0.000    0.000    0.000    0.000 
#
# Total GULP energy -178776.139387 kJ/mol
# GULP energy per Si atom -5586.754356 kJ/mol
# Density = 2.307940 g / cm^3
# Si number density = 23.132054 Si / 1000 Ang^3
#
#
#
# Elastic Constant Matrix: (Units=GPa)
#
#
# Indices 1 2 3 4 5 6 
#
# 1 141.3616 3.2132 59.1361 0.0000 28.1093 0.0000
# 2 3.2132 60.4090 -4.7819 0.0000 10.2450 -0.0001
# 3 59.1361 -4.7819 134.3033 0.0000 23.8285 0.0000
# 4 0.0000 0.0000 0.0000 8.9239 0.0000 -7.5263
# 5 28.1093 10.2450 23.8285 0.0000 40.2184 0.0000
# 6 0.0000 -0.0001 0.0000 -7.5263 0.0000 13.7669
#
#
#
# Elastic Compliance Matrix: (Units=1/GPa)
#
#
# Indices 1 2 3 4 5 6 
#
# 1 0.009372 0.000018 -0.003311 0.000000 -0.004593 0.000000
# 2 0.000018 0.017600 0.001583 0.000000 -0.005434 0.000000
# 3 -0.003311 0.001583 0.009634 0.000000 -0.003797 0.000000
# 4 0.000000 0.000000 0.000000 0.207930 0.000000 0.113674
# 5 -0.004593 -0.005434 -0.003797 0.000000 0.031708 0.000000
# 6 0.000000 0.000000 0.000000 0.113674 0.000000 0.134783
#
#
# Mechanical properties :
#
#
# Convention : Reuss Voigt Hill
#
# Bulk Modulus (GPa) = 30.13384 50.13431 40.13407
# Shear Modulus (GPa) = 11.75065 31.14895 21.44980
#
# Velocity S-wave (km/s) = 2.25629 3.67355 3.04842
# Velocity P-wave (km/s) = 4.45454 6.30186 5.45694
#
# Compressibility (1/GPa) = 0.03318529
#
# Stress axis : x y z
#
# Youngs Moduli (GPa) = 106.69920 56.81935 103.80167
#
# Poissons Ratio (x) = -0.00104 0.34370
# Poissons Ratio (y) = -0.00196 -0.16428
# Poissons Ratio (z) = 0.35329 -0.08992
#
# Static dielectric constant tensor:
#      x y z
#    x 1.912030 0.000000 -0.000780 
#    y 0.000000 1.879820 0.000000 
#    z -0.000780 0.000000 1.862890 
# 
# From -- ./inp_files/248951.got.cif
#   From: 2010.05.17/outbox.cif.g08.bks.cpg/sg12_125_cif.got.tgz:248951.got - 2010.06.03 13:09:07.
