data_PCOD9183453
_publ_section_title
;
Structure prediction by ZEFSAII (Michael W. Deem and Ramdas Pophale) SiO2 
 PCOD9183453
Probable space group: C 2/M
;
_chemical_formula_sum "Si O2"
_cell_formula_units_Z 56
_cell_length_a 19.642919
_cell_length_b 8.654320
_cell_length_c 27.842229
_cell_angle_alpha 90.000000
_cell_angle_beta 139.936831
_cell_angle_gamma 90.000000
_cell_volume 3046.354651
_symmetry_space_group_name_H-M "C 2/M"
_symmetry_group_IT_number 12
_symmetry_cell_setting 'monoclinic'
loop_
_space_group_symop_operation_xyz
x,y,z
-x,y,-z
-x,-y,-z
x,-y,z
1/2+x,1/2+y,z
1/2-x,1/2+y,-z
1/2-x,1/2-y,-z
1/2+x,1/2-y,z
loop_
_atom_site_type_symbol
_atom_site_label
_atom_site_fract_x
_atom_site_fract_y
_atom_site_fract_z
Si Si1 0.269083 0.173622 0.788139
Si Si2 0.815478 0.813942 0.719770
Si Si3 0.568280 0.811743 0.582166
Si Si4 0.282132 0.182152 0.069114
Si Si5 0.113978 0.677171 0.048095
Si Si6 0.514785 0.684624 0.763411
Si Si7 0.049151 0.679650 0.677305
O O1 0.341956 0.229615 0.784004
O O2 0.325743 0.167530 0.869160
O O3 0.175411 0.296512 0.742556
O O4 0.227389 0.000000 0.755383
O O5 0.692537 0.769351 0.643645
O O6 0.902939 0.772751 0.727571
O O7 0.818191 0.000000 0.726974
O O8 0.500000 0.758942 0.500000
O O9 0.519902 0.761845 0.607748
O O10 0.566168 0.000000 0.581984
O O11 0.183533 0.224088 0.049862
O O12 0.387067 0.249600 0.152248
O O13 0.296704 0.000000 0.072640
O O14 0.250000 0.250000 0.000000
O O15 0.101445 0.500000 0.022589
O O16 0.000000 0.741825 0.000000
O O17 0.525886 0.500000 0.770075
O O18 0.515954 0.738071 0.708530
O O19 0.020955 0.500000 0.665889
#
# Coordination Sequence:
#
# PCOD9183453 Si02
#       7
#     8   8   8   8   8   8   8
#     4  10  19  33  55  79 107 142 180 230 280 326
#     4   9  20  35  55  82 112 146 188 230 275 333
#     4   8  15  32  58  85 112 144 186 232 276 329
#     4  12  26  42  60  82 112 150 191 236 286 336
#     4  10  22  39  57  81 111 142 183 231 282 334
#     4  11  22  38  57  81 115 151 189 234 281 332
#     4  10  19  33  56  83 109 145 188 227 274 333
#
# _framework density 18.382625999999998
#
# number of rings (size 3 to 8) (size 9 to 14) (size 15 to 20)
#    0.000    2.000    1.429    3.429    2.000    2.000 
#    0.000    0.714    0.000   10.714    0.000    0.000 
#    0.000    0.000    0.000    0.000    0.000    0.000 
#
# Total GULP energy -156039.382939 kJ/mol
# GULP energy per Si atom -5572.835105 kJ/mol
# Density = 1.834079 g / cm^3
# Si number density = 18.382626 Si / 1000 Ang^3
#
#
#
# Elastic Constant Matrix: (Units=GPa)
#
#
# Indices 1 2 3 4 5 6 
#
# 1 163.8058 44.6759 61.6490 0.0000 -23.2345 0.0000
# 2 44.6759 51.9576 28.4616 0.0000 -9.6886 -0.0001
# 3 61.6490 28.4616 81.4611 0.0000 -24.7532 0.0000
# 4 0.0000 0.0000 0.0000 12.7449 0.0000 -11.5321
# 5 -23.2345 -9.6886 -24.7532 0.0000 29.5635 0.0000
# 6 0.0000 -0.0001 0.0000 -11.5321 0.0000 -3.9989
#
#
#
# Elastic Compliance Matrix: (Units=1/GPa)
#
#
# Indices 1 2 3 4 5 6 
#
# 1 0.009642 -0.005267 -0.004934 0.000000 0.001721 0.000000
# 2 -0.005267 0.026707 -0.005289 0.000000 0.000184 0.000000
# 3 -0.004934 -0.005289 0.021665 0.000000 0.012529 0.000000
# 4 0.000000 0.000000 0.000000 0.021739 0.000000 -0.062690
# 5 0.001721 0.000184 0.012529 0.000000 0.045728 0.000000
# 6 0.000000 0.000000 0.000000 -0.062690 0.000000 -0.069282
#
#
# Mechanical properties :
#
#
# Convention : Reuss Voigt Hill
#
# Bulk Modulus (GPa) = 36.99079 62.97750 49.98415
# Shear Modulus (GPa) = 51.98005 18.49108 35.23557
#
# Velocity S-wave (km/s) = 5.32336 3.17503 4.38286
# Velocity P-wave (km/s) = 7.61252 6.91193 7.27067
#
# Compressibility (1/GPa) = 0.02703375
#
# Stress axis : x y z
#
# Youngs Moduli (GPa) = 103.70827 37.44304 46.15796
#
# Poissons Ratio (x) = 0.19723 0.22775
# Poissons Ratio (y) = 0.54627 0.24412
# Poissons Ratio (z) = 0.51170 0.19803
#
# Static dielectric constant tensor:
#      x y z
#    x 1.650580 0.000000 -0.015020 
#    y 0.000000 1.654870 0.000000 
#    z -0.015020 0.000000 1.652070 
# 
# From -- ./inp_files/280190.got.cif
#   From: 2010.05.17/outbox.cif.g08.bks.cpg/sg12_141_cif.got.tgz:280190.got - 2010.06.03 13:09:07.
