data_PCOD9183822
_publ_section_title
;
Structure prediction by ZEFSAII (Michael W. Deem and Ramdas Pophale) SiO2 
 PCOD9183822
Probable space group: C 2/M
;
_chemical_formula_sum "Si O2"
_cell_formula_units_Z 56
_cell_length_a 30.120822
_cell_length_b 9.541977
_cell_length_c 20.086986
_cell_angle_alpha 90.000000
_cell_angle_beta 32.653101
_cell_angle_gamma 90.000000
_cell_volume 3114.961817
_symmetry_space_group_name_H-M "C 2/M"
_symmetry_group_IT_number 12
_symmetry_cell_setting 'monoclinic'
loop_
_space_group_symop_operation_xyz
x,y,z
-x,y,-z
-x,-y,-z
x,-y,z
1/2+x,1/2+y,z
1/2-x,1/2+y,-z
1/2-x,1/2-y,-z
1/2+x,1/2-y,z
loop_
_atom_site_type_symbol
_atom_site_label
_atom_site_fract_x
_atom_site_fract_y
_atom_site_fract_z
Si Si1 0.816249 0.658139 0.003295
Si Si2 0.098399 0.662701 0.867182
Si Si3 0.235542 0.667682 0.587513
Si Si4 0.633261 0.343228 0.174639
Si Si5 0.840038 0.661881 0.561870
Si Si6 0.517544 0.841809 0.399617
Si Si7 0.700715 0.663557 0.842506
O O1 0.844903 0.500000 0.980175
O O2 0.727619 0.650247 0.079280
O O3 0.805142 0.746258 0.083893
O O4 0.873595 0.742242 0.880084
O O5 0.119472 0.500000 0.857467
O O6 0.145217 0.688307 0.737115
O O7 0.138291 0.770874 0.868064
O O8 0.000000 0.674869 0.000000
O O9 0.246470 0.500000 0.564973
O O10 0.250000 0.750000 0.500000
O O11 0.300623 0.732244 0.558523
O O12 0.605795 0.500000 0.193543
O O13 0.582343 0.273966 0.297637
O O14 0.828206 0.500000 0.553702
O O15 0.934821 0.681352 0.461311
O O16 0.788950 0.675463 0.695029
O O17 0.500000 0.835900 0.500000
O O18 0.548473 0.000000 0.345948
O O19 0.684813 0.500000 0.875717
#
# Coordination Sequence:
#
# PCOD9183822 Si02
#       7
#     8   8   8   8   8   8   8
#     4  10  20  35  54  75 103 142 180 217 268 324
#     4   9  19  37  58  81 109 142 182 225 273 333
#     4  10  20  36  59  83 109 145 186 231 282 337
#     4  10  21  35  52  76 106 138 179 227 269 312
#     4   9  19  35  55  80 110 144 182 221 266 326
#     4  10  20  35  55  79 109 146 183 219 267 324
#     4  10  19  33  56  82 107 137 176 223 267 314
#
# _framework density 17.977747999999998
#
# number of rings (size 3 to 8) (size 9 to 14) (size 15 to 20)
#    0.000    2.286    0.000    2.571    0.000    5.143 
#    2.571    0.000    0.000    0.000    0.000    0.000 
#    0.000    0.000    0.000    0.000    0.000    0.000 
#
# Total GULP energy -156090.433010 kJ/mol
# GULP energy per Si atom -5574.658322 kJ/mol
# Density = 1.793683 g / cm^3
# Si number density = 17.977748 Si / 1000 Ang^3
#
#
#
# Elastic Constant Matrix: (Units=GPa)
#
#
# Indices 1 2 3 4 5 6 
#
# 1 35.1147 34.1671 11.9859 0.0002 21.4296 0.0001
# 2 34.1671 141.4929 50.4994 0.0020 23.0873 -0.0006
# 3 11.9859 50.4994 51.3114 0.0026 13.5551 -0.0010
# 4 0.0002 0.0020 0.0026 24.2734 -0.0002 6.7272
# 5 21.4296 23.0873 13.5551 -0.0002 31.6561 -0.0001
# 6 0.0001 -0.0006 -0.0010 6.7272 -0.0001 30.6018
#
#
#
# Elastic Compliance Matrix: (Units=1/GPa)
#
#
# Indices 1 2 3 4 5 6 
#
# 1 0.057052 -0.010345 0.005710 -0.000001 -0.033522 0.000000
# 2 -0.010345 0.013187 -0.011130 0.000000 0.002151 0.000000
# 3 0.005710 -0.011130 0.031555 -0.000003 -0.009260 0.000001
# 4 -0.000001 0.000000 -0.000003 0.043870 0.000002 -0.009644
# 5 -0.033522 0.002151 -0.009260 0.000002 0.056678 0.000000
# 6 0.000000 0.000000 0.000001 -0.009644 0.000000 0.034798
#
#
# Mechanical properties :
#
#
# Convention : Reuss Voigt Hill
#
# Bulk Modulus (GPa) = 14.23205 46.80264 30.51734
# Shear Modulus (GPa) = 17.11790 26.05735 21.58763
#
# Velocity S-wave (km/s) = 3.08908 3.81126 3.46901
# Velocity P-wave (km/s) = 4.54498 6.74224 5.74955
#
# Compressibility (1/GPa) = 0.07026396
#
# Stress axis : x y z
#
# Youngs Moduli (GPa) = 17.52780 75.83327 31.69049
#
# Poissons Ratio (x) = 0.78448 -0.18094
# Poissons Ratio (y) = 0.18132 0.35272
# Poissons Ratio (z) = -0.10008 0.84403
#
# Static dielectric constant tensor:
#      x y z
#    x 1.596090 0.000000 -0.005470 
#    y 0.000000 1.616930 0.000000 
#    z -0.005470 0.000000 1.629350 
# 
# From -- ./inp_files/281617.got.cif
#   From: 2010.05.17/outbox.cif.g08.bks.cpg/sg12_141_cif.got.tgz:281617.got - 2010.06.03 13:09:07.
