data_PCOD9183918
_publ_section_title
;
Structure prediction by ZEFSAII (Michael W. Deem and Ramdas Pophale) SiO2 
 PCOD9183918
Probable space group: C 2/M
;
_chemical_formula_sum "Si O2"
_cell_formula_units_Z 64
_cell_length_a 31.032835
_cell_length_b 7.811771
_cell_length_c 23.241778
_cell_angle_alpha 90.000000
_cell_angle_beta 147.998028
_cell_angle_gamma 90.000000
_cell_volume 2985.890880
_symmetry_space_group_name_H-M "C 2/M"
_symmetry_group_IT_number 12
_symmetry_cell_setting 'monoclinic'
loop_
_space_group_symop_operation_xyz
x,y,z
-x,y,-z
-x,-y,-z
x,-y,z
1/2+x,1/2+y,z
1/2-x,1/2+y,-z
1/2-x,1/2-y,-z
1/2+x,1/2-y,z
loop_
_atom_site_type_symbol
_atom_site_label
_atom_site_fract_x
_atom_site_fract_y
_atom_site_fract_z
Si Si1 0.308195 0.200775 0.724310
Si Si2 0.667208 0.203787 0.873379
Si Si3 0.919741 0.292979 0.443842
Si Si4 0.132297 0.200527 0.491433
Si Si5 0.533029 0.708063 0.161052
Si Si6 0.872107 0.797074 0.921672
Si Si7 0.499917 0.705131 0.746617
Si Si8 0.787482 0.709678 0.201316
O O1 0.222214 0.275067 0.604883
O O2 0.379474 0.226683 0.759157
O O3 0.339895 0.273497 0.820755
O O4 0.295404 0.000000 0.720234
O O5 0.586750 0.261501 0.815571
O O6 0.676074 0.269810 0.817901
O O7 0.662172 0.000000 0.864097
O O8 0.750000 0.250000 0.000000
O O9 0.919284 0.500000 0.448990
O O10 0.914245 0.216789 0.500765
O O11 0.843227 0.240879 0.318313
O O12 0.000000 0.244259 0.500000
O O13 0.073930 0.274886 0.376188
O O14 0.143878 0.000000 0.490608
O O15 0.537375 0.500000 0.164304
O O16 0.507638 0.764143 0.196248
O O17 0.462172 0.768261 0.037171
O O18 0.803823 0.730552 0.888623
O O19 0.876568 0.000000 0.936892
O O20 0.491741 0.500000 0.739251
O O21 0.787213 0.500000 0.199689
#
# Coordination Sequence:
#
# PCOD9183918 Si02
#       8
#     8   8   8   8   8   8   8   8
#     4  11  23  38  57  86 120 150 187 240 300 356
#     4  11  22  38  60  88 121 157 198 242 290 343
#     4  10  19  33  56  84 111 145 192 238 279 332
#     4  10  22  39  58  83 119 156 189 236 297 355
#     4  10  22  39  61  84 109 150 201 246 291 348
#     4  10  19  36  60  84 111 148 194 239 288 349
#     4  10  22  42  62  83 116 157 200 244 291 346
#     4   9  18  33  55  82 113 149 189 233 279 338
#
# _framework density 21.434139999999999
#
# number of rings (size 3 to 8) (size 9 to 14) (size 15 to 20)
#    0.000    1.875    1.250    2.625    0.000    7.250 
#    0.000    3.750    0.000    0.000    0.000    0.000 
#    0.000    0.000    0.000    0.000    0.000    0.000 
#
# Total GULP energy -178778.094835 kJ/mol
# GULP energy per Si atom -5586.815464 kJ/mol
# Density = 2.138535 g / cm^3
# Si number density = 21.434140 Si / 1000 Ang^3
#
#
#
# Elastic Constant Matrix: (Units=GPa)
#
#
# Indices 1 2 3 4 5 6 
#
# 1 98.0034 -10.5932 37.6841 0.0000 10.9840 0.0000
# 2 -10.5932 19.2207 -1.3346 0.0000 1.1939 0.0000
# 3 37.6841 -1.3346 140.6917 0.0000 8.4309 0.0000
# 4 0.0000 0.0000 0.0000 16.4822 0.0000 2.1223
# 5 10.9840 1.1939 8.4309 0.0000 38.4232 0.0000
# 6 0.0000 0.0000 0.0000 2.1223 0.0000 24.6520
#
#
#
# Elastic Compliance Matrix: (Units=1/GPa)
#
#
# Indices 1 2 3 4 5 6 
#
# 1 0.012482 0.006857 -0.003092 0.000000 -0.003103 0.000000
# 2 0.006857 0.055945 -0.001099 0.000000 -0.003458 0.000000
# 3 -0.003092 -0.001099 0.007975 0.000000 -0.000832 0.000000
# 4 0.000000 0.000000 0.000000 0.061352 0.000000 -0.005282
# 5 -0.003103 -0.003458 -0.000832 0.000000 0.027203 0.000000
# 6 0.000000 0.000000 0.000000 -0.005282 0.000000 0.041019
#
#
# Mechanical properties :
#
#
# Convention : Reuss Voigt Hill
#
# Bulk Modulus (GPa) = 12.23480 34.38094 23.30787
# Shear Modulus (GPa) = 21.94057 31.38877 26.66467
#
# Velocity S-wave (km/s) = 3.20289 3.83094 3.53090
# Velocity P-wave (km/s) = 4.40437 5.97019 5.24603
#
# Compressibility (1/GPa) = 0.08173406
#
# Stress axis : x y z
#
# Youngs Moduli (GPa) = 80.11749 17.87476 125.38526
#
# Poissons Ratio (x) = -0.12257 0.38772
# Poissons Ratio (y) = -0.54937 0.13777
# Poissons Ratio (z) = 0.24774 0.01964
#
# Static dielectric constant tensor:
#      x y z
#    x 1.744840 0.000000 -0.000540 
#    y 0.000000 1.801690 0.000000 
#    z -0.000540 0.000000 1.787610 
# 
# From -- ./inp_files/353547.got.cif
#   From: 2010.05.17/outbox.cif.g08.bks.cpg/sg12_177_cif.got.tgz:353547.got - 2010.06.03 13:09:07.
