data_PCOD9183850
_publ_section_title
;
Structure prediction by ZEFSAII (Michael W. Deem and Ramdas Pophale) SiO2 
 PCOD9183850
Probable space group: C 2/M
;
_chemical_formula_sum "Si O2"
_cell_formula_units_Z 56
_cell_length_a 18.029246
_cell_length_b 9.012000
_cell_length_c 18.877801
_cell_angle_alpha 90.000000
_cell_angle_beta 77.268790
_cell_angle_gamma 90.000000
_cell_volume 2991.847295
_symmetry_space_group_name_H-M "C 2/M"
_symmetry_group_IT_number 12
_symmetry_cell_setting 'monoclinic'
loop_
_space_group_symop_operation_xyz
x,y,z
-x,y,-z
-x,-y,-z
x,-y,z
1/2+x,1/2+y,z
1/2-x,1/2+y,-z
1/2-x,1/2-y,-z
1/2+x,1/2-y,z
loop_
_atom_site_type_symbol
_atom_site_label
_atom_site_fract_x
_atom_site_fract_y
_atom_site_fract_z
Si Si1 0.736735 0.823921 0.704144
Si Si2 0.374880 0.823752 0.144864
Si Si3 0.410683 0.670339 0.996245
Si Si4 0.029639 0.674477 0.573949
Si Si5 0.412784 0.324419 0.706324
Si Si6 0.549689 0.175972 0.153013
Si Si7 0.308834 0.676980 0.432934
O O1 0.686478 0.782456 0.783028
O O2 0.825465 0.803536 0.701816
O O3 0.712381 0.731130 0.641205
O O4 0.723354 0.000000 0.693173
O O5 0.367315 0.738465 0.072444
O O6 0.459692 0.796803 0.157753
O O7 0.368986 0.000000 0.132462
O O8 0.389320 0.500000 0.987991
O O9 0.500000 0.673630 0.000000
O O10 0.406456 0.764583 0.925437
O O11 0.042532 0.500000 0.585773
O O12 0.107501 0.763341 0.566929
O O13 0.000000 0.689483 0.500000
O O14 0.967759 0.738901 0.640987
O O15 0.429689 0.500000 0.701115
O O16 0.425452 0.261345 0.782117
O O17 0.560319 0.000000 0.158960
O O18 0.305556 0.500000 0.438964
O O19 0.250000 0.750000 0.500000
#
# Coordination Sequence:
#
# PCOD9183850 Si02
#       7
#     8   8   8   8   8   8   8
#     4  10  22  40  60  84 118 155 192 238 289 343
#     4   9  18  34  56  81 109 145 188 233 286 345
#     4   9  17  30  51  80 112 143 182 236 290 342
#     4  11  24  42  64  89 118 153 193 236 283 338
#     4  11  23  38  58  85 117 153 193 238 288 341
#     4  10  19  33  56  82 111 149 192 238 288 347
#     4  12  25  41  64  91 120 153 191 236 285 340
#
# _framework density 18.717533
#
# number of rings (size 3 to 8) (size 9 to 14) (size 15 to 20)
#    0.000    1.714    0.000    4.714    0.000    8.571 
#    0.000    0.714    0.000    0.000    0.000    0.000 
#    0.000    0.000    0.000    0.000    0.000    0.000 
#
# Total GULP energy -156511.863330 kJ/mol
# GULP energy per Si atom -5589.709405 kJ/mol
# Density = 1.867493 g / cm^3
# Si number density = 18.717533 Si / 1000 Ang^3
#
#
#
# Elastic Constant Matrix: (Units=GPa)
#
#
# Indices 1 2 3 4 5 6 
#
# 1 67.7096 65.6411 62.2522 0.0000 -9.9677 0.0000
# 2 65.6411 126.7707 88.9489 0.0000 -2.7251 0.0000
# 3 62.2522 88.9489 160.4244 0.0000 -13.8953 0.0000
# 4 0.0000 0.0000 0.0000 38.7045 0.0000 -1.2378
# 5 -9.9677 -2.7251 -13.8953 0.0000 27.6638 0.0000
# 6 0.0000 0.0000 0.0000 -1.2378 0.0000 14.9378
#
#
#
# Elastic Compliance Matrix: (Units=1/GPa)
#
#
# Indices 1 2 3 4 5 6 
#
# 1 0.034025 -0.014223 -0.004575 0.000000 0.008560 0.000000
# 2 -0.014223 0.019015 -0.005547 0.000000 -0.006038 0.000000
# 3 -0.004575 -0.005547 0.011390 0.000000 0.003526 0.000000
# 4 0.000000 0.000000 0.000000 0.025905 0.000000 0.002147
# 5 0.008560 -0.006038 0.003526 0.000000 0.040409 0.000000
# 6 0.000000 0.000000 0.000000 0.002147 0.000000 0.067122
#
#
# Mechanical properties :
#
#
# Convention : Reuss Voigt Hill
#
# Bulk Modulus (GPa) = 63.53858 87.62099 75.57979
# Shear Modulus (GPa) = 19.85676 25.46539 22.66107
#
# Velocity S-wave (km/s) = 3.26062 3.69251 3.48327
# Velocity P-wave (km/s) = 6.94228 8.06805 7.52624
#
# Compressibility (1/GPa) = 0.01573847
#
# Stress axis : x y z
#
# Youngs Moduli (GPa) = 29.39049 52.58964 87.79787
#
# Poissons Ratio (x) = 0.74800 0.40171
# Poissons Ratio (y) = 0.41803 0.48699
# Poissons Ratio (z) = 0.13447 0.29170
#
# Static dielectric constant tensor:
#      x y z
#    x 1.626020 0.000000 -0.004900 
#    y 0.000000 1.626670 0.000000 
#    z -0.004900 0.000000 1.617320 
# 
# From -- ./inp_files/275338.got.cif
#   From: 2010.05.17/outbox.cif.g08.bks.cpg/sg12_138_cif.got.tgz:275338.got - 2010.06.03 13:09:07.
