data_PCOD9183932
_publ_section_title
;
Structure prediction by ZEFSAII (Michael W. Deem and Ramdas Pophale) SiO2 
 PCOD9183932
Probable space group: C 2/M
;
_chemical_formula_sum "Si O2"
_cell_formula_units_Z 48
_cell_length_a 16.214441
_cell_length_b 7.849966
_cell_length_c 25.634480
_cell_angle_alpha 90.000000
_cell_angle_beta 34.511948
_cell_angle_gamma 90.000000
_cell_volume 1848.647203
_symmetry_space_group_name_H-M "C 2/M"
_symmetry_group_IT_number 12
_symmetry_cell_setting 'monoclinic'
loop_
_space_group_symop_operation_xyz
x,y,z
-x,y,-z
-x,-y,-z
x,-y,z
1/2+x,1/2+y,z
1/2-x,1/2+y,-z
1/2-x,1/2-y,-z
1/2+x,1/2-y,z
loop_
_atom_site_type_symbol
_atom_site_label
_atom_site_fract_x
_atom_site_fract_y
_atom_site_fract_z
Si Si1 0.003263 0.805246 0.439368
Si Si2 0.763316 0.204633 0.054282
Si Si3 0.798189 0.807086 0.395297
Si Si4 0.554284 0.795182 0.783061
Si Si5 0.103777 0.302395 0.279860
Si Si6 0.921189 0.200605 0.109640
O O1 0.831709 0.804333 0.513999
O O2 0.000000 0.735082 0.500000
O O3 0.092648 0.709880 0.348490
O O4 0.056819 0.000000 0.413324
O O5 0.604689 0.258046 0.156967
O O6 0.770401 0.000000 0.055535
O O7 0.750000 0.250000 0.000000
O O8 0.921062 0.270355 0.990911
O O9 0.825454 0.759403 0.320732
O O10 0.956393 0.784151 0.337870
O O11 0.749848 0.000000 0.426089
O O12 0.570605 0.717142 0.831694
O O13 0.554743 0.000000 0.788234
O O14 0.095977 0.500000 0.267683
O O15 0.260614 0.230526 0.180107
O O16 0.916679 0.000000 0.098577
#
# Coordination Sequence:
#
# PCOD9183932 Si02
#       6
#     8   8   8   8   8   8
#     4  11  24  42  64  88 113 141 178 224 273 328
#     4   8  15  29  51  80 111 144 183 227 274 322
#     4  12  25  40  58  80 112 150 187 228 275 329
#     4  10  19  33  56  84 114 147 186 232 278 326
#     4  11  23  39  59  83 114 149 185 226 274 328
#     4   9  18  34  57  84 113 147 187 229 274 327
#
# _framework density 25.964934
#
# number of rings (size 3 to 8) (size 9 to 14) (size 15 to 20)
#    0.000    1.833    0.000    4.500    0.000    6.000 
#    0.000    0.833    0.000    5.000    0.000    0.000 
#    0.000    0.000    0.000    0.000    0.000    0.000 
#
# Total GULP energy -134295.322178 kJ/mol
# GULP energy per Si atom -5595.638424 kJ/mol
# Density = 2.590584 g / cm^3
# Si number density = 25.964934 Si / 1000 Ang^3
#
#
#
# Elastic Constant Matrix: (Units=GPa)
#
#
# Indices 1 2 3 4 5 6 
#
# 1 105.0459 4.5300 22.6863 0.0000 -17.0278 0.0003
# 2 4.5300 66.5767 -0.1473 0.0000 1.4520 0.0007
# 3 22.6863 -0.1473 175.6833 0.0000 -19.9900 0.0000
# 4 0.0000 0.0000 0.0000 11.7708 0.0000 -3.1938
# 5 -17.0278 1.4520 -19.9900 0.0000 56.9147 0.0000
# 6 0.0003 0.0007 0.0000 -3.1938 0.0000 18.9737
#
#
#
# Elastic Compliance Matrix: (Units=1/GPa)
#
#
# Indices 1 2 3 4 5 6 
#
# 1 0.010211 -0.000756 -0.001010 0.000000 0.002720 0.000000
# 2 -0.000756 0.015085 0.000042 0.000000 -0.000596 -0.000001
# 3 -0.001010 0.000042 0.006029 0.000000 0.001814 0.000000
# 4 0.000000 0.000000 0.000000 0.089022 0.000000 0.014985
# 5 0.002720 -0.000596 0.001814 0.000000 0.019036 0.000000
# 6 0.000000 -0.000001 0.000000 0.014985 0.000000 0.055227
#
#
# Mechanical properties :
#
#
# Convention : Reuss Voigt Hill
#
# Bulk Modulus (GPa) = 35.87098 44.60486 40.23792
# Shear Modulus (GPa) = 24.11388 38.88098 31.49743
#
# Velocity S-wave (km/s) = 3.05078 3.87388 3.48670
# Velocity P-wave (km/s) = 5.12395 6.10126 5.63384
#
# Compressibility (1/GPa) = 0.02787769
#
# Stress axis : x y z
#
# Youngs Moduli (GPa) = 97.93176 66.29181 165.86677
#
# Poissons Ratio (x) = 0.05014 0.16749
# Poissons Ratio (y) = 0.07407 -0.00705
# Poissons Ratio (z) = 0.09889 -0.00282
#
# Static dielectric constant tensor:
#      x y z
#    x 2.167970 0.000000 -0.041910 
#    y 0.000000 1.927040 0.000000 
#    z -0.041910 0.000000 2.020030 
# 
# From -- ./inp_files/274123.got.cif
#   From: 2010.05.17/outbox.cif.g08.bks.cpg/sg12_138_cif.got.tgz:274123.got - 2010.06.03 13:09:07.
