data_PCOD9183513
_publ_section_title
;
Structure prediction by ZEFSAII (Michael W. Deem and Ramdas Pophale) SiO2 
 PCOD9183513
Probable space group: C 2/M
;
_chemical_formula_sum "Si O2"
_cell_formula_units_Z 64
_cell_length_a 14.987245
_cell_length_b 7.463796
_cell_length_c 27.951050
_cell_angle_alpha 90.000000
_cell_angle_beta 128.550132
_cell_angle_gamma 90.000000
_cell_volume 2445.240231
_symmetry_space_group_name_H-M "C 2/M"
_symmetry_group_IT_number 12
_symmetry_cell_setting 'monoclinic'
loop_
_space_group_symop_operation_xyz
x,y,z
-x,y,-z
-x,-y,-z
x,-y,z
1/2+x,1/2+y,z
1/2-x,1/2+y,-z
1/2-x,1/2-y,-z
1/2+x,1/2-y,z
loop_
_atom_site_type_symbol
_atom_site_label
_atom_site_fract_x
_atom_site_fract_y
_atom_site_fract_z
Si Si1 0.482082 0.706175 0.843630
Si Si2 0.676332 0.212976 0.523124
Si Si3 0.738450 0.797644 0.344355
Si Si4 0.282213 0.283477 0.106761
Si Si5 0.249984 0.210688 0.201001
Si Si6 0.423904 0.216647 0.020988
Si Si7 0.017044 0.292442 0.603771
Si Si8 0.506055 0.779279 0.299328
O O1 0.712838 0.500000 0.893348
O O2 0.588392 0.788542 0.850716
O O3 0.355239 0.786671 0.803688
O O4 0.529383 0.707251 0.914035
O O5 0.750000 0.250000 0.500000
O O6 0.726023 0.298015 0.587582
O O7 0.550617 0.278589 0.464629
O O8 0.673950 0.000000 0.532951
O O9 0.846656 0.714221 0.354165
O O10 0.610888 0.718813 0.301350
O O11 0.732647 0.000000 0.325116
O O12 0.529721 0.500000 0.175417
O O13 0.221938 0.231564 0.135793
O O14 0.203555 0.224601 0.036526
O O15 0.377802 0.283950 0.247013
O O16 0.257190 0.000000 0.214927
O O17 0.426537 0.000000 0.026649
O O18 0.500000 0.261856 0.000000
O O19 0.984603 0.500000 0.594215
O O20 0.973902 0.217017 0.639446
O O21 0.507620 0.000000 0.298403
#
# Coordination Sequence:
#
# PCOD9183513 Si02
#       8
#     8   8   8   8   8   8   8   8
#     4  10  21  35  55  83 110 140 183 230 272 324
#     4  11  21  36  60  88 118 152 188 228 283 341
#     4  11  22  38  59  86 116 150 188 233 281 335
#     4  10  21  37  55  81 114 143 178 228 280 330
#     4  10  21  38  59  80 105 146 191 230 274 327
#     4  10  19  33  55  80 111 148 176 215 281 339
#     4  10  21  39  60  84 115 152 186 229 284 337
#     4   9  20  40  59  77 111 151 187 228 282 333
#
# _framework density 26.173299
#
# number of rings (size 3 to 8) (size 9 to 14) (size 15 to 20)
#    0.000    1.875    2.500    1.500    0.000    4.750 
#    0.000    3.125    0.000    0.000    0.000    0.000 
#    0.000    0.000    0.000    0.000    0.000    0.000 
#
# Total GULP energy -178993.403191 kJ/mol
# GULP energy per Si atom -5593.543850 kJ/mol
# Density = 2.611373 g / cm^3
# Si number density = 26.173299 Si / 1000 Ang^3
#
#
#
# Elastic Constant Matrix: (Units=GPa)
#
#
# Indices 1 2 3 4 5 6 
#
# 1 145.6436 1.2637 21.3931 0.0000 29.1029 0.0000
# 2 1.2637 90.9483 8.0123 0.0000 4.6533 0.0000
# 3 21.3931 8.0123 88.7286 0.0000 24.5748 0.0000
# 4 0.0000 0.0000 0.0000 14.8495 0.0000 -4.2796
# 5 29.1029 4.6533 24.5748 0.0000 58.6985 0.0000
# 6 0.0000 0.0000 0.0000 -4.2796 0.0000 12.8949
#
#
#
# Elastic Compliance Matrix: (Units=1/GPa)
#
#
# Indices 1 2 3 4 5 6 
#
# 1 0.007686 0.000150 -0.000914 0.000000 -0.003440 0.000000
# 2 0.000150 0.011100 -0.000876 0.000000 -0.000588 0.000000
# 3 -0.000914 -0.000876 0.012924 0.000000 -0.004888 0.000000
# 4 0.000000 0.000000 0.000000 0.074465 0.000000 0.024714
# 5 -0.003440 -0.000588 -0.004888 0.000000 0.020835 0.000000
# 6 0.000000 0.000000 0.000000 0.024714 0.000000 0.085752
#
#
# Mechanical properties :
#
#
# Convention : Reuss Voigt Hill
#
# Bulk Modulus (GPa) = 35.17352 42.96210 39.06781
# Shear Modulus (GPa) = 22.17108 36.93200 29.55154
#
# Velocity S-wave (km/s) = 2.91363 3.76048 3.36381
# Velocity P-wave (km/s) = 4.97864 5.94180 5.48142
#
# Compressibility (1/GPa) = 0.02843048
#
# Stress axis : x y z
#
# Youngs Moduli (GPa) = 130.09901 90.08695 77.37787
#
# Poissons Ratio (x) = -0.01349 0.07072
# Poissons Ratio (y) = -0.01948 0.06776
# Poissons Ratio (z) = 0.11891 0.07889
#
# Static dielectric constant tensor:
#      x y z
#    x 2.046630 0.000000 0.049150 
#    y 0.000000 1.961860 0.000000 
#    z 0.049150 0.000000 2.102450 
# 
# From -- ./inp_files/375651.got.cif
#   From: 2010.05.17/outbox.cif.g08.bks.cpg/sg12_188_cif.got.tgz:375651.got - 2010.06.03 13:09:07.
