data_PCOD9183677
_publ_section_title
;
Structure prediction by ZEFSAII (Michael W. Deem and Ramdas Pophale) SiO2 
 PCOD9183677
Probable space group: C 2/M
;
_chemical_formula_sum "Si O2"
_cell_formula_units_Z 64
_cell_length_a 33.326963
_cell_length_b 8.826180
_cell_length_c 21.003965
_cell_angle_alpha 90.000000
_cell_angle_beta 36.244504
_cell_angle_gamma 90.000000
_cell_volume 3652.817287
_symmetry_space_group_name_H-M "C 2/M"
_symmetry_group_IT_number 12
_symmetry_cell_setting 'monoclinic'
loop_
_space_group_symop_operation_xyz
x,y,z
-x,y,-z
-x,-y,-z
x,-y,z
1/2+x,1/2+y,z
1/2-x,1/2+y,-z
1/2-x,1/2-y,-z
1/2+x,1/2-y,z
loop_
_atom_site_type_symbol
_atom_site_label
_atom_site_fract_x
_atom_site_fract_y
_atom_site_fract_z
Si Si1 0.281322 0.682742 0.149787
Si Si2 0.928219 0.180979 0.910498
Si Si3 0.427880 0.820505 0.261995
Si Si4 0.431033 0.817747 0.767000
Si Si5 0.292725 0.680586 0.386886
Si Si6 0.083774 0.679628 0.570853
Si Si7 0.721814 0.320399 0.354125
Si Si8 0.291046 0.182054 0.888246
O O1 0.274995 0.500000 0.164217
O O2 0.251892 0.761501 0.249475
O O3 0.240480 0.730461 0.138531
O O4 0.360539 0.717719 0.036404
O O5 0.917730 0.237801 0.851508
O O6 0.996680 0.259627 0.847384
O O7 0.937123 0.000000 0.898684
O O8 0.369918 0.734303 0.297671
O O9 0.414483 0.795921 0.354851
O O10 0.423890 0.000000 0.255621
O O11 0.507317 0.779049 0.647903
O O12 0.370246 0.780153 0.797005
O O13 0.430784 0.000000 0.778368
O O14 0.287621 0.500000 0.395557
O O15 0.250000 0.750000 0.500000
O O16 0.261459 0.741907 0.361616
O O17 0.094375 0.500000 0.546298
O O18 0.143393 0.771681 0.461885
O O19 0.728387 0.500000 0.351122
O O20 0.284485 0.000000 0.899672
O O21 0.250000 0.250000 0.000000
#
# Coordination Sequence:
#
# PCOD9183677 Si02
#       8
#     8   8   8   8   8   8   8   8
#     4  10  22  39  57  81 117 157 193 234 290 348
#     4  10  19  33  55  84 116 151 189 233 287 338
#     4  10  20  35  58  87 117 149 187 234 283 334
#     4   9  18  32  55  84 114 146 188 236 285 339
#     4  12  23  38  61  88 117 148 188 237 284 338
#     4   9  18  34  55  80 113 150 186 231 283 338
#     4  12  25  39  58  83 113 153 194 237 288 342
#     4  10  19  34  57  86 115 148 191 240 287 338
#
# _framework density 17.520724000000001
#
# number of rings (size 3 to 8) (size 9 to 14) (size 15 to 20)
#    0.000    1.750    2.500    3.750    0.000    3.500 
#    0.000    1.250    0.000    7.500    0.000    0.000 
#    0.000    0.000    0.000    0.000    0.000    0.000 
#
# Total GULP energy -178699.787430 kJ/mol
# GULP energy per Si atom -5584.368357 kJ/mol
# Density = 1.748085 g / cm^3
# Si number density = 17.520724 Si / 1000 Ang^3
#
#
#
# Elastic Constant Matrix: (Units=GPa)
#
#
# Indices 1 2 3 4 5 6 
#
# 1 127.0350 56.5936 85.2491 0.0033 -11.4002 -0.0003
# 2 56.5936 86.9946 76.1392 -0.0064 -6.7437 -0.0004
# 3 85.2491 76.1392 135.3795 -0.0022 -12.5653 -0.0005
# 4 0.0033 -0.0064 -0.0022 30.2227 -0.0005 -0.5352
# 5 -11.4002 -6.7437 -12.5653 -0.0005 27.8413 0.0001
# 6 -0.0003 -0.0004 -0.0005 -0.5352 0.0001 24.6834
#
#
#
# Elastic Compliance Matrix: (Units=1/GPa)
#
#
# Indices 1 2 3 4 5 6 
#
# 1 0.014047 -0.002764 -0.007118 -0.000003 0.001870 0.000000
# 2 -0.002764 0.023184 -0.011358 0.000004 -0.000642 0.000000
# 3 -0.007118 -0.011358 0.018506 0.000000 0.002686 0.000000
# 4 -0.000003 0.000004 0.000000 0.033100 0.000000 0.000718
# 5 0.001870 -0.000642 0.002686 0.000000 0.037740 0.000000
# 6 0.000000 0.000000 0.000000 0.000718 0.000000 0.040529
#
#
# Mechanical properties :
#
#
# Convention : Reuss Voigt Hill
#
# Bulk Modulus (GPa) = 75.42649 87.26365 81.34507
# Shear Modulus (GPa) = 23.36382 25.31130 24.33756
#
# Velocity S-wave (km/s) = 3.65567 3.80498 3.73107
# Velocity P-wave (km/s) = 7.80781 8.31973 8.06783
#
# Compressibility (1/GPa) = 0.01325794
#
# Stress axis : x y z
#
# Youngs Moduli (GPa) = 71.18724 43.13299 54.03653
#
# Poissons Ratio (x) = 0.11922 0.38461
# Poissons Ratio (y) = 0.19676 0.61376
# Poissons Ratio (z) = 0.50669 0.48991
#
# Static dielectric constant tensor:
#      x y z
#    x 1.594950 0.000000 -0.028390 
#    y 0.000000 1.585440 0.000000 
#    z -0.028390 0.000000 1.576180 
# 
# From -- ./inp_files/295554.got.cif
#   From: 2010.05.17/outbox.cif.g08.bks.cpg/sg12_148_cif.got.tgz:295554.got - 2010.06.03 13:09:07.
