data_PCOD9184431
_publ_section_title
;
Structure prediction by ZEFSAII (Michael W. Deem and Ramdas Pophale) SiO2 
 PCOD9184431
Probable space group: C 2/M
;
_chemical_formula_sum "Si O2"
_cell_formula_units_Z 48
_cell_length_a 21.384336
_cell_length_b 17.912047
_cell_length_c 9.666087
_cell_angle_alpha 90.000000
_cell_angle_beta 131.082373
_cell_angle_gamma 90.000000
_cell_volume 2790.795420
_symmetry_space_group_name_H-M "C 2/M"
_symmetry_group_IT_number 12
_symmetry_cell_setting 'monoclinic'
loop_
_space_group_symop_operation_xyz
x,y,z
-x,y,-z
-x,-y,-z
x,-y,z
1/2+x,1/2+y,z
1/2-x,1/2+y,-z
1/2-x,1/2-y,-z
1/2+x,1/2-y,z
loop_
_atom_site_type_symbol
_atom_site_label
_atom_site_fract_x
_atom_site_fract_y
_atom_site_fract_z
Si Si1 0.219460 0.196992 0.829642
Si Si2 0.052600 0.411554 0.271764
Si Si3 0.069614 0.280364 0.479902
Si Si4 0.422867 0.588064 0.281576
Si Si5 0.885176 0.343148 0.919118
Si Si6 0.525531 0.689405 0.890389
O O1 0.158367 0.250043 0.653620
O O2 0.158736 0.130594 0.786902
O O3 0.295343 0.159833 0.857150
O O4 0.250000 0.250000 0.000000
O O5 0.064140 0.500000 0.292483
O O6 0.074351 0.366327 0.441109
O O7 0.105419 0.374640 0.222556
O O8 0.955813 0.391348 0.100871
O O9 0.000000 0.271838 0.500000
O O10 0.040195 0.233110 0.302998
O O11 0.500000 0.601447 0.500000
O O12 0.411407 0.500000 0.255567
O O13 0.441486 0.625809 0.161788
O O14 0.914178 0.257126 0.976250
O O15 0.500000 0.656218 0.000000
#
# Coordination Sequence:
#
# PCOD9184431 Si02
#       6
#     8   8   8   8   8   8
#     4  12  21  36  63  89 117 156 206 244 289 356
#     4  10  21  39  58  87 123 153 196 248 300 351
#     4  11  20  38  62  88 115 158 201 243 291 365
#     4  11  23  40  61  88 124 159 196 250 300 348
#     4  10  19  33  62  88 113 160 197 238 291 355
#     4  11  18  38  64  88 114 155 208 241 288 357
#
# _framework density 17.199397000000001
#
# number of rings (size 3 to 8) (size 9 to 14) (size 15 to 20)
#    0.000    1.167    8.333    2.000    0.000    2.667 
#    0.000    0.833    0.000    0.000    0.000    0.000 
#    0.000    0.000    0.000    0.000    0.000    0.000 
#
# Total GULP energy -133726.214726 kJ/mol
# GULP energy per Si atom -5571.925614 kJ/mol
# Density = 1.716025 g / cm^3
# Si number density = 17.199397 Si / 1000 Ang^3
#
#
#
# Elastic Constant Matrix: (Units=GPa)
#
#
# Indices 1 2 3 4 5 6 
#
# 1 155.8584 70.8689 72.0573 0.0000 4.0685 0.0000
# 2 70.8689 152.7778 47.0096 0.0000 -4.7887 0.0000
# 3 72.0573 47.0096 67.4702 0.0000 -8.9142 0.0000
# 4 0.0000 0.0000 0.0000 19.6895 0.0000 -16.6061
# 5 4.0685 -4.7887 -8.9142 0.0000 22.7951 0.0000
# 6 0.0000 0.0000 0.0000 -16.6061 0.0000 -11.6652
#
#
#
# Elastic Compliance Matrix: (Units=1/GPa)
#
#
# Indices 1 2 3 4 5 6 
#
# 1 0.014903 -0.002457 -0.015421 0.000000 -0.009206 0.000000
# 2 -0.002457 0.008743 -0.003340 0.000000 0.000969 0.000000
# 3 -0.015421 -0.003340 0.035735 0.000000 0.016025 0.000000
# 4 0.000000 0.000000 0.000000 0.023079 0.000000 -0.032854
# 5 -0.009206 0.000969 0.016025 0.000000 0.051983 0.000000
# 6 0.000000 0.000000 0.000000 -0.032854 0.000000 -0.038955
#
#
# Mechanical properties :
#
#
# Convention : Reuss Voigt Hill
#
# Bulk Modulus (GPa) = 59.01091 83.99756 71.50423
# Shear Modulus (GPa) = 34.82589 18.57523 26.70056
#
# Velocity S-wave (km/s) = 4.50469 3.28989 3.94434
# Velocity P-wave (km/s) = 7.83841 7.96082 7.89985
#
# Compressibility (1/GPa) = 0.01694602
#
# Stress axis : x y z
#
# Youngs Moduli (GPa) = 67.10143 114.37589 27.98381
#
# Poissons Ratio (x) = 0.28097 0.43153
# Poissons Ratio (y) = 0.16484 0.09347
# Poissons Ratio (z) = 1.03475 0.38203
#
# Static dielectric constant tensor:
#      x y z
#    x 1.637490 0.000000 -0.005740 
#    y 0.000000 1.576530 0.000000 
#    z -0.005740 0.000000 1.594970 
# 
# From -- ./inp_files/88147.got.cif
#   From: 2010.05.17/outbox.cif.g08.bks.cpg/sg12_45_cif.got.tgz:88147.got - 2010.06.03 13:09:07.
