data_PCOD9184057
_publ_section_title
;
Structure prediction by ZEFSAII (Michael W. Deem and Ramdas Pophale) SiO2 
 PCOD9184057
Probable space group: C 2/M
;
_chemical_formula_sum "Si O2"
_cell_formula_units_Z 60
_cell_length_a 13.949245
_cell_length_b 9.569392
_cell_length_c 21.246591
_cell_angle_alpha 90.000000
_cell_angle_beta 64.159138
_cell_angle_gamma 90.000000
_cell_volume 2552.529356
_symmetry_space_group_name_H-M "C 2/M"
_symmetry_group_IT_number 12
_symmetry_cell_setting 'monoclinic'
loop_
_space_group_symop_operation_xyz
x,y,z
-x,y,-z
-x,-y,-z
x,-y,z
1/2+x,1/2+y,z
1/2-x,1/2+y,-z
1/2-x,1/2-y,-z
1/2+x,1/2-y,z
loop_
_atom_site_type_symbol
_atom_site_label
_atom_site_fract_x
_atom_site_fract_y
_atom_site_fract_z
Si Si1 0.028913 0.659389 0.420821
Si Si2 0.061032 0.342273 0.129897
Si Si3 0.625076 0.843320 0.976772
Si Si4 0.819390 0.272663 0.402414
Si Si5 0.710070 0.500000 0.504050
Si Si6 0.150203 0.839804 0.288567
Si Si7 0.263415 0.657547 0.159452
Si Si8 0.059371 0.160643 0.743580
O O1 0.069962 0.500000 0.410856
O O2 0.108130 0.761405 0.362360
O O3 0.000000 0.701000 0.500000
O O4 0.919446 0.661139 0.412325
O O5 0.018098 0.500000 0.129565
O O6 0.148016 0.355714 0.159402
O O7 0.975781 0.234046 0.181352
O O8 0.124969 0.294566 0.049390
O O9 0.669869 0.742132 0.911165
O O10 0.673436 0.000000 0.958816
O O11 0.500000 0.854499 0.000000
O O12 0.725453 0.377385 0.445792
O O13 0.856661 0.250669 0.320560
O O14 0.799634 0.122495 0.438968
O O15 0.238926 0.748237 0.227975
O O16 0.045946 0.843548 0.271869
O O17 0.182344 0.000000 0.289761
O O18 0.302807 0.500000 0.158786
O O19 0.092765 0.000000 0.741861
#
# Coordination Sequence:
#
# PCOD9184057 Si02
#       8
#     8   8   8   8   4   8   8   8
#     4  10  20  34  54  77 108 139 175 221 270 317
#     4   9  19  33  54  82 105 132 176 218 262 308
#     4  10  21  37  56  76 109 146 175 209 257 315
#     4  10  19  34  52  78 101 143 176 221 266 318
#     4  10  20  32  54  72 108 136 184 216 262 318
#     4   9  18  32  53  80 104 136 172 220 269 307
#     4  10  19  33  57  83 108 133 173 222 264 312
#     4   9  17  30  51  77 105 129 170 223 265 306
#
# _framework density 23.506098000000001
#
# number of rings (size 3 to 8) (size 9 to 14) (size 15 to 20)
#    0.000    2.400    1.333    1.200    1.867    3.200 
#    0.000    0.000    5.867    0.000    0.000    0.000 
#    0.000    0.000    0.000    0.000    0.000    0.000 
#
# Total GULP energy -167249.090025 kJ/mol
# GULP energy per Si atom -5574.969667 kJ/mol
# Density = 2.345260 g / cm^3
# Si number density = 23.506098 Si / 1000 Ang^3
#
#
#
# Elastic Constant Matrix: (Units=GPa)
#
#
# Indices 1 2 3 4 5 6 
#
# 1 44.1874 1.6298 8.0829 0.0000 11.5530 0.0000
# 2 1.6298 197.6294 139.0471 0.0000 -21.1067 0.0000
# 3 8.0829 139.0471 218.5650 0.0000 11.6906 0.0000
# 4 0.0000 0.0000 0.0000 36.7940 0.0000 -0.2235
# 5 11.5530 -21.1067 11.6906 0.0000 24.9110 0.0000
# 6 0.0000 0.0000 0.0000 -0.2235 0.0000 0.1110
#
#
#
# Elastic Compliance Matrix: (Units=1/GPa)
#
#
# Indices 1 2 3 4 5 6 
#
# 1 0.026604 -0.003363 0.002018 0.000000 -0.016135 0.000000
# 2 -0.003363 0.013649 -0.009499 0.000000 0.017582 0.000000
# 3 0.002018 -0.009499 0.011308 0.000000 -0.014292 0.000000
# 4 0.000000 0.000000 0.000000 0.027515 0.000000 0.055393
# 5 -0.016135 0.017582 -0.014292 0.000000 0.069229 0.000000
# 6 0.000000 0.000000 0.000000 0.055393 0.000000 9.120121
#
#
# Mechanical properties :
#
#
# Convention : Reuss Voigt Hill
#
# Bulk Modulus (GPa) = 33.47347 84.21124 58.84236
# Shear Modulus (GPa) = 0.53763 33.13801 16.83782
#
# Velocity S-wave (km/s) = 0.47877 3.75875 2.67931
# Velocity P-wave (km/s) = 3.81797 7.39869 5.88717
#
# Compressibility (1/GPa) = 0.02987441
#
# Stress axis : x y z
#
# Youngs Moduli (GPa) = 37.58807 73.26618 88.43052
#
# Poissons Ratio (x) = 0.24637 -0.17849
# Poissons Ratio (y) = 0.12640 0.84002
# Poissons Ratio (z) = -0.07587 0.69597
#
# Static dielectric constant tensor:
#      x y z
#    x 2.004630 0.000000 0.035280 
#    y 0.000000 1.842620 0.000000 
#    z 0.035280 0.000000 1.877290 
# 
# From -- ./inp_files/314730.got.cif
#   From: 2010.05.17/outbox.cif.g08.bks.cpg/sg12_158_cif.got.tgz:314730.got - 2010.06.03 13:09:07.
