data_PCOD9184278
_publ_section_title
;
Structure prediction by ZEFSAII (Michael W. Deem and Ramdas Pophale) SiO2 
 PCOD9184278
Probable space group: C 2/M
;
_chemical_formula_sum "Si O2"
_cell_formula_units_Z 48
_cell_length_a 9.538915
_cell_length_b 17.049265
_cell_length_c 17.306462
_cell_angle_alpha 90.000000
_cell_angle_beta 54.996031
_cell_angle_gamma 90.000000
_cell_volume 2305.453598
_symmetry_space_group_name_H-M "C 2/M"
_symmetry_group_IT_number 12
_symmetry_cell_setting 'monoclinic'
loop_
_space_group_symop_operation_xyz
x,y,z
-x,y,-z
-x,-y,-z
x,-y,z
1/2+x,1/2+y,z
1/2-x,1/2+y,-z
1/2-x,1/2-y,-z
1/2+x,1/2-y,z
loop_
_atom_site_type_symbol
_atom_site_label
_atom_site_fract_x
_atom_site_fract_y
_atom_site_fract_z
Si Si1 0.725307 0.405839 0.595254
Si Si2 0.463462 0.094848 0.383135
Si Si3 0.092393 0.692373 0.887563
Si Si4 0.907290 0.093610 0.787533
Si Si5 0.552674 0.410197 0.902784
Si Si6 0.124115 0.671746 0.195218
O O1 0.711998 0.500000 0.591738
O O2 0.864433 0.393775 0.619473
O O3 0.541637 0.374934 0.681428
O O4 0.807428 0.380266 0.488505
O O5 0.481628 0.151203 0.303747
O O6 0.450176 0.000000 0.371142
O O7 0.211885 0.616180 0.840592
O O8 0.234552 0.761101 0.832592
O O9 0.955713 0.689741 0.862243
O O10 0.000000 0.694099 0.000000
O O11 0.971133 0.123588 0.851121
O O12 0.926095 0.000000 0.781285
O O13 0.493234 0.500000 0.923646
O O14 0.756244 0.405362 0.838168
O O15 0.500000 0.371256 0.000000
#
# Coordination Sequence:
#
# PCOD9184278 Si02
#       6
#     8   8   8   8   8   8
#     4   8  15  32  62  95 122 152 190 238 296 352
#     4   9  17  33  64  97 119 151 197 242 290 353
#     4  12  27  43  60  82 117 163 206 250 302 356
#     4  10  20  38  62  88 120 155 194 245 301 356
#     4  10  19  33  58  88 116 149 194 244 292 350
#     4  12  23  39  60  83 117 157 202 248 295 353
#
# _framework density 20.820198000000001
#
# number of rings (size 3 to 8) (size 9 to 14) (size 15 to 20)
#    0.000    1.833    1.667    4.500    0.000    1.667 
#    0.000    1.667    0.000    3.000    0.000    0.000 
#    0.000    0.000    0.000    0.000    0.000    0.000 
#
# Total GULP energy -133804.132921 kJ/mol
# GULP energy per Si atom -5575.172205 kJ/mol
# Density = 2.077281 g / cm^3
# Si number density = 20.820198 Si / 1000 Ang^3
#
#
#
# Elastic Constant Matrix: (Units=GPa)
#
#
# Indices 1 2 3 4 5 6 
#
# 1 46.9130 -14.1376 -19.2660 0.0000 2.2520 0.0000
# 2 -14.1376 9.6552 7.4048 0.0000 -0.0067 0.0000
# 3 -19.2660 7.4048 105.7258 0.0000 -1.2538 0.0000
# 4 0.0000 0.0000 0.0000 11.3940 0.0000 -11.4929
# 5 2.2520 -0.0067 -1.2538 0.0000 28.2209 0.0000
# 6 0.0000 0.0000 0.0000 -11.4929 0.0000 14.4958
#
#
#
# Elastic Compliance Matrix: (Units=1/GPa)
#
#
# Indices 1 2 3 4 5 6 
#
# 1 0.039462 0.055261 0.003285 0.000000 -0.002990 0.000000
# 2 0.055261 0.186838 -0.003069 0.000000 -0.004502 0.000000
# 3 0.003285 -0.003069 0.010274 0.000000 0.000194 0.000000
# 4 0.000000 0.000000 0.000000 0.438230 0.000000 0.347449
# 5 -0.002990 -0.004502 0.000194 0.000000 0.035681 0.000000
# 6 0.000000 0.000000 0.000000 0.347449 0.000000 0.344459
#
#
# Mechanical properties :
#
#
# Convention : Reuss Voigt Hill
#
# Bulk Modulus (GPa) = 2.87746 12.25514 7.56630
# Shear Modulus (GPa) = 4.71772 23.37499 14.04636
#
# Velocity S-wave (km/s) = 1.50694 3.35432 2.60022
# Velocity P-wave (km/s) = 2.10068 4.57175 3.55765
#
# Compressibility (1/GPa) = 0.34752843
#
# Stress axis : x y z
#
# Youngs Moduli (GPa) = 25.34079 5.35222 97.32985
#
# Poissons Ratio (x) = -0.29577 -0.31975
# Poissons Ratio (y) = -1.40035 0.29872
# Poissons Ratio (z) = -0.08325 0.01643
#
# Static dielectric constant tensor:
#      x y z
#    x 1.732010 0.000000 -0.022200 
#    y 0.000000 1.839160 0.000000 
#    z -0.022200 0.000000 1.847240 
# 
# From -- ./inp_files/257531.got.cif
#   From: 2010.05.17/outbox.cif.g08.bks.cpg/sg12_129_cif.got.tgz:257531.got - 2010.06.03 13:09:07.
