data_PCOD9184136
_publ_section_title
;
Structure prediction by ZEFSAII (Michael W. Deem and Ramdas Pophale) SiO2 
 PCOD9184136
Probable space group: C 2/M
;
_chemical_formula_sum "Si O2"
_cell_formula_units_Z 56
_cell_length_a 17.175157
_cell_length_b 21.326039
_cell_length_c 15.566570
_cell_angle_alpha 90.000000
_cell_angle_beta 28.849538
_cell_angle_gamma 90.000000
_cell_volume 2751.130534
_symmetry_space_group_name_H-M "C 2/M"
_symmetry_group_IT_number 12
_symmetry_cell_setting 'monoclinic'
loop_
_space_group_symop_operation_xyz
x,y,z
-x,y,-z
-x,-y,-z
x,-y,z
1/2+x,1/2+y,z
1/2-x,1/2+y,-z
1/2-x,1/2-y,-z
1/2+x,1/2-y,z
loop_
_atom_site_type_symbol
_atom_site_label
_atom_site_fract_x
_atom_site_fract_y
_atom_site_fract_z
Si Si1 0.937272 0.743249 0.153466
Si Si2 0.679953 0.071295 0.633233
Si Si3 0.180457 0.139198 0.351766
Si Si4 0.186411 0.132081 0.653135
Si Si5 0.646269 0.873869 0.991501
Si Si6 0.342690 0.574408 0.956393
Si Si7 0.803674 0.072336 0.183827
O O1 0.783747 0.699018 0.282902
O O2 0.885485 0.798820 0.265684
O O3 0.074676 0.696717 0.056548
O O4 0.000000 0.768257 0.000000
O O5 0.810988 0.090260 0.578235
O O6 0.693318 0.118965 0.540675
O O7 0.507852 0.082017 0.844262
O O8 0.697412 0.000000 0.587231
O O9 0.000000 0.155304 0.500000
O O10 0.271601 0.113873 0.179405
O O11 0.256998 0.112374 0.677503
O O12 0.032978 0.087773 0.780317
O O13 0.767703 0.886859 0.951396
O O14 0.316435 0.500000 0.969736
O O15 0.266558 0.592711 0.122569
O O16 0.753860 0.000000 0.242453
O O17 0.000000 0.073678 0.000000
#
# Coordination Sequence:
#
# PCOD9184136 Si02
#       7
#     8   8   8   8   8   8   8
#     4   9  20  39  60  85 120 159 197 240 296 348
#     4  11  23  38  59  88 121 157 193 237 301 359
#     4  10  22  41  63  87 114 150 199 249 293 350
#     4  11  20  35  58  84 117 153 198 243 286 347
#     4  10  22  39  58  84 121 157 193 244 299 349
#     4  10  19  33  57  86 114 152 201 245 290 347
#     4   8  15  29  50  77 108 142 185 238 286 328
#
# _framework density 20.355267999999999
#
# number of rings (size 3 to 8) (size 9 to 14) (size 15 to 20)
#    0.000    2.143    0.000    6.000    0.000    4.857 
#    0.000    6.429    0.000    2.571    0.000    0.000 
#    0.000    0.000    0.000    0.000    0.000    0.000 
#
# Total GULP energy -156334.989621 kJ/mol
# GULP energy per Si atom -5583.392486 kJ/mol
# Density = 2.030894 g / cm^3
# Si number density = 20.355268 Si / 1000 Ang^3
#
#
#
# Elastic Constant Matrix: (Units=GPa)
#
#
# Indices 1 2 3 4 5 6 
#
# 1 61.3548 19.3210 23.3057 -0.0192 26.8864 -0.0036
# 2 19.3210 65.6007 21.0665 -0.0245 16.8072 -0.0180
# 3 23.3057 21.0665 72.7067 -0.0173 13.6633 -0.0153
# 4 -0.0192 -0.0245 -0.0173 19.0759 0.0103 14.1254
# 5 26.8864 16.8072 13.6633 0.0103 25.7671 0.0064
# 6 -0.0036 -0.0180 -0.0153 14.1254 0.0064 13.9850
#
#
#
# Elastic Compliance Matrix: (Units=1/GPa)
#
#
# Indices 1 2 3 4 5 6 
#
# 1 0.031202 -0.000062 -0.004302 0.000124 -0.030236 -0.000108
# 2 -0.000062 0.019091 -0.003536 0.000032 -0.010513 -0.000007
# 3 -0.004302 -0.003536 0.016527 -0.000010 -0.001969 0.000024
# 4 0.000124 0.000032 -0.000010 0.207958 -0.000176 -0.210046
# 5 -0.030236 -0.010513 -0.001969 -0.000176 0.078260 0.000118
# 6 -0.000108 -0.000007 0.000024 -0.210046 0.000118 0.283659
#
#
# Mechanical properties :
#
#
# Convention : Reuss Voigt Hill
#
# Bulk Modulus (GPa) = 19.59960 36.33872 27.96916
# Shear Modulus (GPa) = 7.46822 20.83022 14.14922
#
# Velocity S-wave (km/s) = 1.91753 3.20243 2.63936
# Velocity P-wave (km/s) = 3.81473 5.61828 4.80194
#
# Compressibility (1/GPa) = 0.05102145
#
# Stress axis : x y z
#
# Youngs Moduli (GPa) = 32.04934 52.38076 60.50592
#
# Poissons Ratio (x) = 0.00323 0.26027
# Poissons Ratio (y) = 0.00198 0.21395
# Poissons Ratio (z) = 0.13786 0.18522
#
# Static dielectric constant tensor:
#      x y z
#    x 1.734990 -0.000020 0.019830 
#    y -0.000020 1.719140 0.000010 
#    z 0.019830 0.000010 1.757050 
# 
# From -- ./inp_files/227592.got.cif
#   From: 2010.05.17/outbox.cif.g08.bks.cpg/sg12_114_cif.got.tgz:227592.got - 2010.06.03 13:09:07.
