data_PCOD9184469
_publ_section_title
;
Structure prediction by ZEFSAII (Michael W. Deem and Ramdas Pophale) SiO2 
 PCOD9184469
Probable space group: C 2/M
;
_chemical_formula_sum "Si O2"
_cell_formula_units_Z 64
_cell_length_a 18.419522
_cell_length_b 21.381227
_cell_length_c 9.778991
_cell_angle_alpha 90.000000
_cell_angle_beta 87.574520
_cell_angle_gamma 90.000000
_cell_volume 3847.829071
_symmetry_space_group_name_H-M "C 2/M"
_symmetry_group_IT_number 12
_symmetry_cell_setting 'monoclinic'
loop_
_space_group_symop_operation_xyz
x,y,z
-x,y,-z
-x,-y,-z
x,-y,z
1/2+x,1/2+y,z
1/2-x,1/2+y,-z
1/2-x,1/2-y,-z
1/2+x,1/2-y,z
loop_
_atom_site_type_symbol
_atom_site_label
_atom_site_fract_x
_atom_site_fract_y
_atom_site_fract_z
Si Si1 0.591491 0.882543 0.313594
Si Si2 0.561151 0.927641 0.754691
Si Si3 0.382002 0.147602 0.999114
Si Si4 0.217517 0.807016 0.415810
Si Si5 0.306985 0.929730 0.467427
Si Si6 0.069660 0.788662 0.076434
Si Si7 0.934386 0.759222 0.610180
Si Si8 0.230669 0.810761 0.091366
O O1 0.508817 0.906215 0.325471
O O2 0.610256 0.880932 0.151829
O O3 0.647614 0.922426 0.396473
O O4 0.594080 0.811969 0.371696
O O5 0.632732 0.921426 0.656231
O O6 0.552079 0.000000 0.793424
O O7 0.571189 0.885989 0.888413
O O8 0.409051 0.219578 0.983269
O O9 0.297302 0.143949 0.049986
O O10 0.250000 0.750000 0.500000
O O11 0.250446 0.873239 0.457905
O O12 0.131055 0.802166 0.436792
O O13 0.233638 0.796946 0.253052
O O14 0.276515 0.000000 0.459133
O O15 0.047540 0.779689 0.236575
O O16 0.146213 0.826337 0.066297
O O17 0.000000 0.812887 0.000000
O O18 0.000000 0.760357 0.500000
O O19 0.250000 0.750000 0.000000
#
# Coordination Sequence:
#
# PCOD9184469 Si02
#       8
#     8   8   8   8   8   8   8   8
#     4  11  21  33  51  79 112 147 182 224 266 314
#     4  11  22  35  53  74 105 154 190 214 260 319
#     4  10  19  34  50  72 108 144 184 223 261 314
#     4  11  21  36  57  82 108 142 188 226 271 327
#     4  11  23  38  54  76 112 151 186 227 272 321
#     4   9  18  31  48  75 104 137 168 217 283 321
#     4  10  20  33  52  81 110 135 175 225 275 323
#     4   9  19  33  52  75 106 139 179 225 274 323
#
# _framework density 16.632756000000001
#
# number of rings (size 3 to 8) (size 9 to 14) (size 15 to 20)
#    0.000    1.750    2.500    4.125    0.000    4.500 
#    0.000    0.000    0.000    0.375    0.000    0.000 
#    0.000    3.000    0.000    0.000    0.000    0.000 
#
# Total GULP energy -178506.397457 kJ/mol
# GULP energy per Si atom -5578.324921 kJ/mol
# Density = 1.659490 g / cm^3
# Si number density = 16.632756 Si / 1000 Ang^3
#
#
#
# Elastic Constant Matrix: (Units=GPa)
#
#
# Indices 1 2 3 4 5 6 
#
# 1 89.1385 30.9348 47.1871 0.0000 11.2057 0.0000
# 2 30.9348 69.1316 26.6590 0.0000 13.0359 0.0000
# 3 47.1871 26.6590 76.3293 0.0000 6.0594 0.0000
# 4 0.0000 0.0000 0.0000 12.1692 0.0000 -0.1409
# 5 11.2057 13.0359 6.0594 0.0000 30.6526 0.0000
# 6 0.0000 0.0000 0.0000 -0.1409 0.0000 19.8504
#
#
#
# Elastic Compliance Matrix: (Units=1/GPa)
#
#
# Indices 1 2 3 4 5 6 
#
# 1 0.017969 -0.003781 -0.009544 0.000000 -0.003075 0.000000
# 2 -0.003781 0.018695 -0.003729 0.000000 -0.005831 0.000000
# 3 -0.009544 -0.003729 0.020218 0.000000 0.001078 0.000000
# 4 0.000000 0.000000 0.000000 0.082181 0.000000 0.000583
# 5 -0.003075 -0.005831 0.001078 0.000000 0.036014 0.000000
# 6 0.000000 0.000000 0.000000 0.000583 0.000000 0.050381
#
#
# Mechanical properties :
#
#
# Convention : Reuss Voigt Hill
#
# Bulk Modulus (GPa) = 43.90958 49.35125 46.63041
# Shear Modulus (GPa) = 18.71547 21.18900 19.95223
#
# Velocity S-wave (km/s) = 3.35807 3.57309 3.46725
# Velocity P-wave (km/s) = 6.44145 6.83799 6.64268
#
# Compressibility (1/GPa) = 0.02277407
#
# Stress axis : x y z
#
# Youngs Moduli (GPa) = 55.64988 53.49153 49.46009
#
# Poissons Ratio (x) = 0.20223 0.47206
# Poissons Ratio (y) = 0.21039 0.18445
# Poissons Ratio (z) = 0.53114 0.19948
#
# Static dielectric constant tensor:
#      x y z
#    x 1.590140 0.000000 0.002250 
#    y 0.000000 1.594250 0.000000 
#    z 0.002250 0.000000 1.569760 
# 
# From -- ./inp_files/77526.got.cif
#   From: 2010.05.17/outbox.cif.g08.bks.cpg/sg12_39_cif.got.tgz:77526.got - 2010.06.03 13:09:07.
