data_PCOD9184165
_publ_section_title
;
Structure prediction by ZEFSAII (Michael W. Deem and Ramdas Pophale) SiO2 
 PCOD9184165
Probable space group: C 2/M
;
_chemical_formula_sum "Si O2"
_cell_formula_units_Z 48
_cell_length_a 9.387416
_cell_length_b 21.013620
_cell_length_c 19.973422
_cell_angle_alpha 90.000000
_cell_angle_beta 150.019939
_cell_angle_gamma 90.000000
_cell_volume 1968.826933
_symmetry_space_group_name_H-M "C 2/M"
_symmetry_group_IT_number 12
_symmetry_cell_setting 'monoclinic'
loop_
_space_group_symop_operation_xyz
x,y,z
-x,y,-z
-x,-y,-z
x,-y,z
1/2+x,1/2+y,z
1/2-x,1/2+y,-z
1/2-x,1/2-y,-z
1/2+x,1/2-y,z
loop_
_atom_site_type_symbol
_atom_site_label
_atom_site_fract_x
_atom_site_fract_y
_atom_site_fract_z
Si Si1 0.550462 0.676216 0.268686
Si Si2 0.561597 0.433075 0.866514
Si Si3 0.908477 0.568271 0.646248
Si Si4 0.013747 0.572040 0.163549
Si Si5 0.790643 0.675852 0.505683
Si Si6 0.802911 0.708684 0.089622
O O1 0.367603 0.624758 0.153413
O O2 0.592313 0.657826 0.362647
O O3 0.437673 0.745187 0.201323
O O4 0.876635 0.672117 0.377093
O O5 0.629789 0.500000 0.860107
O O6 0.227240 0.431045 0.745873
O O7 0.721650 0.432795 0.001999
O O8 0.777607 0.500000 0.573373
O O9 0.745422 0.627669 0.548097
O O10 0.955854 0.570352 0.744285
O O11 0.147016 0.500000 0.199698
O O12 0.014088 0.650853 0.156925
O O13 0.750000 0.750000 0.500000
O O14 0.500000 0.687472 0.000000
O O15 0.750000 0.750000 0.000000
#
# Coordination Sequence:
#
# PCOD9184165 Si02
#       6
#     8   8   8   8   8   8
#     4  10  22  37  54  85 114 156 198 240 306 363
#     4   9  16  29  50  79 115 149 189 241 298 356
#     4   9  17  29  51  82 112 148 199 252 294 344
#     4  10  19  33  57  87 118 155 202 256 300 349
#     4  10  21  36  57  78 115 155 196 247 296 360
#     4  12  25  39  63  95 128 160 202 256 311 371
#
# _framework density 24.379999000000002
#
# number of rings (size 3 to 8) (size 9 to 14) (size 15 to 20)
#    0.000    2.000    1.667    2.500    4.667    4.333 
#    0.000    3.333    0.000    3.000    0.000    4.667 
#    0.000    0.000    0.000    0.000    0.000    0.000 
#
# Total GULP energy -133657.824730 kJ/mol
# GULP energy per Si atom -5569.076030 kJ/mol
# Density = 2.432451 g / cm^3
# Si number density = 24.379999 Si / 1000 Ang^3
#
#
#
# Elastic Constant Matrix: (Units=GPa)
#
#
# Indices 1 2 3 4 5 6 
#
# 1 71.5576 17.5637 45.7214 -0.0013 0.7986 -0.0008
# 2 17.5637 167.4097 72.9930 -0.0004 -30.2180 0.0014
# 3 45.7214 72.9930 118.8218 0.0016 -22.5234 -0.0015
# 4 -0.0013 -0.0004 0.0016 44.0441 0.0045 -13.3500
# 5 0.7986 -30.2180 -22.5234 0.0045 39.7519 0.0007
# 6 -0.0008 0.0014 -0.0015 -13.3500 0.0007 5.5420
#
#
#
# Elastic Compliance Matrix: (Units=1/GPa)
#
#
# Indices 1 2 3 4 5 6 
#
# 1 0.019566 0.001047 -0.009069 0.000006 -0.004736 0.000015
# 2 0.001047 0.008751 -0.005066 -0.000005 0.003761 -0.000015
# 3 -0.009069 -0.005066 0.016046 -0.000001 0.005423 0.000000
# 4 0.000006 -0.000005 -0.000001 0.084137 -0.000018 0.202676
# 5 -0.004736 0.003761 0.005423 -0.000018 0.031183 -0.000047
# 6 0.000015 -0.000015 0.000000 0.202676 -0.000047 0.668665
#
#
# Mechanical properties :
#
#
# Convention : Reuss Voigt Hill
#
# Bulk Modulus (GPa) = 54.98862 70.03838 62.51350
# Shear Modulus (GPa) = 5.81000 32.63502 19.22251
#
# Velocity S-wave (km/s) = 1.54540 3.66265 2.81099
# Velocity P-wave (km/s) = 5.07820 6.83205 6.01934
#
# Compressibility (1/GPa) = 0.01818558
#
# Stress axis : x y z
#
# Youngs Moduli (GPa) = 51.11026 114.27033 62.32217
#
# Poissons Ratio (x) = -0.11962 0.56523
# Poissons Ratio (y) = -0.05350 0.31571
# Poissons Ratio (z) = 0.46354 0.57887
#
# Static dielectric constant tensor:
#      x y z
#    x 1.959810 -0.000010 0.006490 
#    y -0.000010 0.878180 0.000020 
#    z 0.006490 0.000020 1.862260 
# 
# From -- ./inp_files/306833.got.cif
#   From: 2010.05.17/outbox.cif.g08.bks.cpg/sg12_154_cif.got.tgz:306833.got - 2010.06.03 13:09:07.
