data_PCOD9184234
_publ_section_title
;
Structure prediction by ZEFSAII (Michael W. Deem and Ramdas Pophale) SiO2 
 PCOD9184234
Probable space group: C 2/M
;
_chemical_formula_sum "Si O2"
_cell_formula_units_Z 60
_cell_length_a 12.025772
_cell_length_b 31.360013
_cell_length_c 10.662103
_cell_angle_alpha 90.000000
_cell_angle_beta 54.291035
_cell_angle_gamma 90.000000
_cell_volume 3265.005646
_symmetry_space_group_name_H-M "C 2/M"
_symmetry_group_IT_number 12
_symmetry_cell_setting 'monoclinic'
loop_
_space_group_symop_operation_xyz
x,y,z
-x,y,-z
-x,-y,-z
x,-y,z
1/2+x,1/2+y,z
1/2-x,1/2+y,-z
1/2-x,1/2-y,-z
1/2+x,1/2-y,z
loop_
_atom_site_type_symbol
_atom_site_label
_atom_site_fract_x
_atom_site_fract_y
_atom_site_fract_z
Si Si1 0.949186 0.950136 0.676551
Si Si2 0.153115 0.591277 0.879215
Si Si3 0.338900 0.854133 0.375120
Si Si4 0.715077 0.671366 0.088180
Si Si5 0.278953 0.312964 0.206654
Si Si6 0.872044 0.722365 0.174688
Si Si7 0.500000 0.161961 0.500000
Si Si8 0.078323 0.129200 0.707891
O O1 0.787831 0.938321 0.797236
O O2 0.000000 0.941234 0.500000
O O3 0.038344 0.919705 0.708409
O O4 0.969642 0.000000 0.687512
O O5 0.152957 0.612708 0.742445
O O6 0.182448 0.631474 0.953030
O O7 0.000000 0.573280 0.000000
O O8 0.373849 0.807769 0.294388
O O9 0.442200 0.864102 0.420179
O O10 0.187225 0.855693 0.532353
O O11 0.746254 0.707085 0.170802
O O12 0.564085 0.653695 0.209340
O O13 0.728207 0.687675 0.938246
O O14 0.362034 0.272492 0.203554
O O15 0.352155 0.356137 0.207431
O O16 0.128651 0.311641 0.365168
O O17 0.000000 0.713724 0.000000
#
# Coordination Sequence:
#
# PCOD9184234 Si02
#       8
#     8   8   8   8   8   8   4   8
#     4  10  20  37  61  88 112 139 183 232 284 342
#     4  10  19  33  58  84 114 146 178 229 277 333
#     4  10  20  36  52  79 110 143 192 225 280 324
#     4  10  20  34  55  77 108 150 190 228 272 325
#     4  11  22  36  52  77 109 148 193 227 279 327
#     4  11  22  34  53  74 109 146 191 240 271 317
#     4  10  22  34  52  70 103 140 180 232 271 328
#     4  10  21  35  57  81 110 148 181 232 276 341
#
# _framework density 18.376691000000001
#
# number of rings (size 3 to 8) (size 9 to 14) (size 15 to 20)
#    0.000    1.733    1.333    4.800    0.000    4.533 
#    0.000    0.000    1.467    6.400    0.000   13.533 
#    0.000    0.000    0.000    0.000    0.000    0.000 
#
# Total GULP energy -167380.239898 kJ/mol
# GULP energy per Si atom -5579.341330 kJ/mol
# Density = 1.833486 g / cm^3
# Si number density = 18.376691 Si / 1000 Ang^3
#
#
#
# Elastic Constant Matrix: (Units=GPa)
#
#
# Indices 1 2 3 4 5 6 
#
# 1 83.4637 28.5429 22.4714 0.0000 2.8009 0.0000
# 2 28.5429 79.0640 8.9327 0.0000 3.1683 0.0000
# 3 22.4714 8.9327 61.2969 0.0000 -18.6311 0.0000
# 4 0.0000 0.0000 0.0000 18.7008 0.0000 -2.6481
# 5 2.8009 3.1683 -18.6311 0.0000 37.7318 0.0000
# 6 0.0000 0.0000 0.0000 -2.6481 0.0000 14.0515
#
#
#
# Elastic Compliance Matrix: (Units=1/GPa)
#
#
# Indices 1 2 3 4 5 6 
#
# 1 0.015354 -0.004705 -0.006082 0.000000 -0.003748 0.000000
# 2 -0.004705 0.014483 -0.000764 0.000000 -0.001244 0.000000
# 3 -0.006082 -0.000764 0.022134 0.000000 0.011445 0.000000
# 4 0.000000 0.000000 0.000000 0.054940 0.000000 0.010354
# 5 -0.003748 -0.001244 0.011445 0.000000 0.032537 0.000000
# 6 0.000000 0.000000 0.000000 0.010354 0.000000 0.073118
#
#
# Mechanical properties :
#
#
# Convention : Reuss Voigt Hill
#
# Bulk Modulus (GPa) = 34.64068 38.19095 36.41581
# Shear Modulus (GPa) = 20.38406 25.02198 22.70302
#
# Velocity S-wave (km/s) = 3.33413 3.69401 3.51867
# Velocity P-wave (km/s) = 5.80630 6.24673 6.03054
#
# Compressibility (1/GPa) = 0.02886780
#
# Stress axis : x y z
#
# Youngs Moduli (GPa) = 65.13080 69.04725 45.18014
#
# Poissons Ratio (x) = 0.32490 0.27479
# Poissons Ratio (y) = 0.30647 0.03450
# Poissons Ratio (z) = 0.39613 0.05272
#
# Static dielectric constant tensor:
#      x y z
#    x 1.669820 0.000000 -0.015700 
#    y 0.000000 1.618670 0.000000 
#    z -0.015700 0.000000 1.646470 
# 
# From -- ./inp_files/137597.got.cif
#   From: 2010.05.17/outbox.cif.g08.bks.cpg/sg12_69_cif.got.tgz:137597.got - 2010.06.03 13:09:07.
