data_PCOD9184939
_publ_section_title
;
Structure prediction by ZEFSAII (Michael W. Deem and Ramdas Pophale) SiO2 
 PCOD9184939
Probable space group: C 2/M
;
_chemical_formula_sum "Si O2"
_cell_formula_units_Z 64
_cell_length_a 15.094207
_cell_length_b 14.964251
_cell_length_c 14.188415
_cell_angle_alpha 90.000000
_cell_angle_beta 66.908824
_cell_angle_gamma 90.000000
_cell_volume 2948.025573
_symmetry_space_group_name_H-M "C 2/M"
_symmetry_group_IT_number 12
_symmetry_cell_setting 'monoclinic'
loop_
_space_group_symop_operation_xyz
x,y,z
-x,y,-z
-x,-y,-z
x,-y,z
1/2+x,1/2+y,z
1/2-x,1/2+y,-z
1/2-x,1/2-y,-z
1/2+x,1/2-y,z
loop_
_atom_site_type_symbol
_atom_site_label
_atom_site_fract_x
_atom_site_fract_y
_atom_site_fract_z
Si Si1 0.187229 0.404630 0.643456
Si Si2 0.976362 0.753160 0.905464
Si Si3 0.095618 0.857632 0.505873
Si Si4 0.382179 0.898302 0.814246
Si Si5 0.346847 0.222440 0.663319
Si Si6 0.129908 0.786871 0.687907
Si Si7 0.712759 0.350962 0.005618
Si Si8 0.210938 0.097016 0.214029
O O1 0.147100 0.500000 0.629805
O O2 0.299095 0.398280 0.562716
O O3 0.133246 0.313911 0.643070
O O4 0.198619 0.402484 0.752586
O O5 0.934560 0.670014 0.863219
O O6 0.900984 0.834698 0.950939
O O7 0.064854 0.788060 0.807067
O O8 0.000000 0.721156 0.000000
O O9 0.102838 0.761659 0.449741
O O10 0.091941 0.848277 0.619491
O O11 0.000000 0.899595 0.500000
O O12 0.390059 0.856209 0.707137
O O13 0.415446 0.000000 0.806478
O O14 0.270082 0.893085 0.895135
O O15 0.239599 0.196500 0.674126
O O16 0.342318 0.310894 0.734325
O O17 0.736897 0.397556 0.094214
O O18 0.750000 0.250000 0.000000
O O19 0.161915 0.000000 0.251245
#
# Coordination Sequence:
#
# PCOD9184939 Si02
#       8
#     8   8   8   8   8   8   8   8
#     4   9  20  35  57  85 116 148 187 242 295 347
#     4  11  23  36  60  86 118 155 195 250 294 344
#     4  10  20  35  62  86 114 151 196 238 290 352
#     4  11  23  38  60  86 119 158 198 240 291 355
#     4  10  19  38  59  86 116 153 196 239 294 350
#     4  10  21  37  61  86 114 156 194 240 293 355
#     4  10  19  34  55  79 111 151 194 235 285 343
#     4   9  16  30  56  81 104 141 189 236 285 335
#
# _framework density 21.709444000000001
#
# number of rings (size 3 to 8) (size 9 to 14) (size 15 to 20)
#    0.000    2.250    2.500    3.375    7.000    1.000 
#    0.000    2.500    0.000    8.250    0.000    0.000 
#    0.000    0.000    0.000    0.000    0.000    0.000 
#
# Total GULP energy -178420.805017 kJ/mol
# GULP energy per Si atom -5575.650157 kJ/mol
# Density = 2.166003 g / cm^3
# Si number density = 21.709444 Si / 1000 Ang^3
#
#
#
# Elastic Constant Matrix: (Units=GPa)
#
#
# Indices 1 2 3 4 5 6 
#
# 1 74.0384 5.1313 34.3451 0.0000 -3.7343 0.0000
# 2 5.1313 51.0083 8.0588 0.0000 18.7536 0.0000
# 3 34.3451 8.0588 87.3753 0.0000 13.6707 0.0000
# 4 0.0000 0.0000 0.0000 4.8415 0.0000 -2.9879
# 5 -3.7343 18.7536 13.6707 0.0000 37.7229 0.0000
# 6 0.0000 0.0000 0.0000 -2.9879 0.0000 -2.0522
#
#
#
# Elastic Compliance Matrix: (Units=1/GPa)
#
#
# Indices 1 2 3 4 5 6 
#
# 1 0.017479 -0.002702 -0.007529 0.000000 0.005802 0.000000
# 2 -0.002702 0.024418 0.000796 0.000000 -0.012695 0.000000
# 3 -0.007529 0.000796 0.015382 0.000000 -0.006715 0.000000
# 4 0.000000 0.000000 0.000000 0.108792 0.000000 -0.158399
# 5 0.005802 -0.012695 -0.006715 0.000000 0.035828 0.000000
# 6 0.000000 0.000000 0.000000 -0.158399 0.000000 -0.256661
#
#
# Mechanical properties :
#
#
# Convention : Reuss Voigt Hill
#
# Bulk Modulus (GPa) = 26.03551 34.16583 30.10067
# Shear Modulus (GPa) = -216.56582 19.09489 -98.73546
#
# Velocity S-wave (km/s) = -9.99865 2.96897 -6.75123
# Velocity P-wave (km/s) = 11.01266 5.24642 6.84667
#
# Compressibility (1/GPa) = 0.03840908
#
# Stress axis : x y z
#
# Youngs Moduli (GPa) = 57.21129 40.95304 65.01238
#
# Poissons Ratio (x) = 0.11066 0.48949
# Poissons Ratio (y) = 0.15459 -0.05177
# Poissons Ratio (z) = 0.43075 -0.03261
#
# Static dielectric constant tensor:
#      x y z
#    x 1.861760 0.000000 -0.046930 
#    y 0.000000 1.098130 0.000000 
#    z -0.046930 0.000000 1.803480 
# 
# From -- ./inp_files/226096.got.cif
#   From: 2010.05.17/outbox.cif.g08.bks.cpg/sg12_114_cif.got.tgz:226096.got - 2010.06.03 13:09:07.
