data_PCOD9184228
_publ_section_title
;
Structure prediction by ZEFSAII (Michael W. Deem and Ramdas Pophale) SiO2 
 PCOD9184228
Probable space group: C 2/M
;
_chemical_formula_sum "Si O2"
_cell_formula_units_Z 64
_cell_length_a 23.477068
_cell_length_b 19.711766
_cell_length_c 20.539031
_cell_angle_alpha 90.000000
_cell_angle_beta 159.767146
_cell_angle_gamma 90.000000
_cell_volume 3287.152852
_symmetry_space_group_name_H-M "C 2/M"
_symmetry_group_IT_number 12
_symmetry_cell_setting 'monoclinic'
loop_
_space_group_symop_operation_xyz
x,y,z
-x,y,-z
-x,-y,-z
x,-y,z
1/2+x,1/2+y,z
1/2-x,1/2+y,-z
1/2-x,1/2-y,-z
1/2+x,1/2-y,z
loop_
_atom_site_type_symbol
_atom_site_label
_atom_site_fract_x
_atom_site_fract_y
_atom_site_fract_z
Si Si1 0.928305 0.425179 0.487001
Si Si2 0.194697 0.311289 0.564559
Si Si3 0.142380 0.680942 0.880246
Si Si4 0.216276 0.674304 0.099135
Si Si5 0.571011 0.683750 0.503333
Si Si6 0.781209 0.922566 0.928104
Si Si7 0.952709 0.809108 0.027575
Si Si8 0.806444 0.576888 0.805804
O O1 0.865203 0.500000 0.401020
O O2 0.803549 0.381767 0.394171
O O3 0.000000 0.389009 0.500000
O O4 0.091624 0.431540 0.704449
O O5 0.157451 0.252165 0.575721
O O6 0.385052 0.300078 0.752235
O O7 0.037383 0.312154 0.347434
O O8 0.256985 0.626302 0.964875
O O9 0.250000 0.750000 0.000000
O O10 0.113432 0.661548 0.924135
O O11 0.408406 0.677642 0.285485
O O12 0.208279 0.612774 0.140549
O O13 0.160782 0.743719 0.076310
O O14 0.500000 0.688219 0.500000
O O15 0.699586 0.622281 0.641736
O O16 0.848129 0.000000 0.008675
O O17 0.867700 0.877952 0.963691
O O18 0.000000 0.809815 0.000000
O O19 0.254063 0.500000 0.258946
O O20 0.000000 0.577937 0.000000
#
# Coordination Sequence:
#
# PCOD9184228 Si02
#       8
#     8   8   8   8   8   8   8   8
#     4   9  17  32  54  79 110 151 197 242 288 343
#     4  11  21  33  57  87 117 156 200 245 303 357
#     4  11  21  42  63  84 115 158 212 256 291 354
#     4  11  21  38  62  85 119 154 206 252 296 361
#     4  10  19  33  58  83 112 152 199 250 298 354
#     4  10  22  39  58  83 118 157 196 245 294 349
#     4  12  23  36  58  92 127 159 194 245 313 369
#     4  10  22  40  61  91 127 156 192 256 324 374
#
# _framework density 19.469736999999999
#
# number of rings (size 3 to 8) (size 9 to 14) (size 15 to 20)
#    0.000    1.500    2.500    4.500    0.000    4.000 
#    0.000    0.000    0.000    1.500    0.000    0.000 
#    0.000    0.000    0.000    0.000    0.000    0.000 
#
# Total GULP energy -178182.412501 kJ/mol
# GULP energy per Si atom -5568.200391 kJ/mol
# Density = 1.942542 g / cm^3
# Si number density = 19.469737 Si / 1000 Ang^3
#
#
#
# Elastic Constant Matrix: (Units=GPa)
#
#
# Indices 1 2 3 4 5 6 
#
# 1 60.9603 37.2986 12.7321 -0.0030 -12.7670 -0.0029
# 2 37.2986 109.2828 35.5959 -0.0011 -2.0869 -0.0029
# 3 12.7321 35.5959 98.2894 -0.0107 -3.1823 -0.0089
# 4 -0.0030 -0.0011 -0.0107 33.2614 -0.0078 -7.4444
# 5 -12.7670 -2.0869 -3.1823 -0.0078 27.9695 -0.0039
# 6 -0.0029 -0.0029 -0.0089 -7.4444 -0.0039 13.9446
#
#
#
# Elastic Compliance Matrix: (Units=1/GPa)
#
#
# Indices 1 2 3 4 5 6 
#
# 1 0.023243 -0.007785 0.000134 0.000006 0.010044 0.000009
# 2 -0.007785 0.012985 -0.003792 -0.000003 -0.003016 -0.000004
# 3 0.000134 -0.003792 0.011565 0.000006 0.001094 0.000010
# 4 0.000006 -0.000003 0.000006 0.034145 0.000015 0.018228
# 5 0.010044 -0.003016 0.001094 0.000015 0.040237 0.000022
# 6 0.000009 -0.000004 0.000010 0.018228 0.000022 0.081444
#
#
# Mechanical properties :
#
#
# Convention : Reuss Voigt Hill
#
# Bulk Modulus (GPa) = 40.14854 48.86507 44.50681
# Shear Modulus (GPa) = 21.29412 27.22882 24.26147
#
# Velocity S-wave (km/s) = 3.31071 3.74374 3.53386
# Velocity P-wave (km/s) = 5.93971 6.62117 6.28967
#
# Compressibility (1/GPa) = 0.02490751
#
# Stress axis : x y z
#
# Youngs Moduli (GPa) = 43.02435 77.01232 86.46496
#
# Poissons Ratio (x) = 0.59950 -0.01155
# Poissons Ratio (y) = 0.33492 0.32786
# Poissons Ratio (z) = -0.00575 0.29202
#
# Static dielectric constant tensor:
#      x y z
#    x 1.729620 0.000000 -0.000900 
#    y 0.000000 1.732450 0.000000 
#    z -0.000900 0.000000 1.775250 
# 
# From -- ./inp_files/326158.got.cif
#   From: 2010.05.17/outbox.cif.g08.bks.cpg/sg12_164_cif.got.tgz:326158.got - 2010.06.03 13:09:07.
