data_PCOD9184020
_publ_section_title
;
Structure prediction by ZEFSAII (Michael W. Deem and Ramdas Pophale) SiO2 
 PCOD9184020
Probable space group: C 2/M
;
_chemical_formula_sum "Si O2"
_cell_formula_units_Z 48
_cell_length_a 17.414240
_cell_length_b 21.399438
_cell_length_c 12.917425
_cell_angle_alpha 90.000000
_cell_angle_beta 153.580046
_cell_angle_gamma 90.000000
_cell_volume 2141.860680
_symmetry_space_group_name_H-M "C 2/M"
_symmetry_group_IT_number 12
_symmetry_cell_setting 'monoclinic'
loop_
_space_group_symop_operation_xyz
x,y,z
-x,y,-z
-x,-y,-z
x,-y,z
1/2+x,1/2+y,z
1/2-x,1/2+y,-z
1/2-x,1/2-y,-z
1/2+x,1/2-y,z
loop_
_atom_site_type_symbol
_atom_site_label
_atom_site_fract_x
_atom_site_fract_y
_atom_site_fract_z
Si Si1 0.525254 0.689814 0.673275
Si Si2 0.300392 0.570902 0.055765
Si Si3 0.672147 0.257304 0.069983
Si Si4 0.322896 0.192563 0.656428
Si Si5 0.179320 0.891495 0.160637
Si Si6 0.398233 0.928234 0.614765
O O1 0.644737 0.729004 0.741000
O O2 0.318579 0.692421 0.423470
O O3 0.581052 0.618177 0.738686
O O4 0.593960 0.713071 0.868828
O O5 0.350144 0.500000 0.133614
O O6 0.310658 0.584064 0.944484
O O7 0.103608 0.580674 0.854890
O O8 0.690613 0.316045 0.168665
O O9 0.521606 0.208881 0.917565
O O10 0.250000 0.250000 0.500000
O O11 0.318136 0.126630 0.589170
O O12 0.326190 0.918124 0.412049
O O13 0.000000 0.908164 0.000000
O O14 0.361039 0.000000 0.602546
#
# Coordination Sequence:
#
# PCOD9184020 Si02
#       6
#     8   8   8   8   8   8
#     4   9  17  31  53  72  93 140 184 234 275 309
#     4  10  20  34  51  75 112 151 187 226 274 336
#     4   9  18  34  49  71 103 134 190 236 266 318
#     4  10  19  33  57  77 101 143 194 233 274 323
#     4  11  22  34  48  74 109 154 187 223 273 332
#     4  11  22  36  53  80 118 154 186 227 280 340
#
# _framework density 22.410419999999998
#
# number of rings (size 3 to 8) (size 9 to 14) (size 15 to 20)
#    0.000    2.000    1.667    4.000    2.333    4.667 
#    3.000    0.000    0.000    0.000    0.000    0.000 
#    0.000   12.000    0.000   30.333    0.000    1.333 
#
# Total GULP energy -134184.224470 kJ/mol
# GULP energy per Si atom -5591.009353 kJ/mol
# Density = 2.235941 g / cm^3
# Si number density = 22.410420 Si / 1000 Ang^3
#
#
#
# Elastic Constant Matrix: (Units=GPa)
#
#
# Indices 1 2 3 4 5 6 
#
# 1 66.4275 28.4532 5.6341 0.0000 14.2231 0.0000
# 2 28.4532 126.1072 47.7432 0.0000 19.0057 0.0000
# 3 5.6341 47.7432 124.6104 0.0000 23.5692 0.0000
# 4 0.0000 0.0000 0.0000 25.4774 0.0000 4.6563
# 5 14.2231 19.0057 23.5692 0.0000 29.0306 0.0000
# 6 0.0000 0.0000 0.0000 4.6563 0.0000 34.4464
#
#
#
# Elastic Compliance Matrix: (Units=1/GPa)
#
#
# Indices 1 2 3 4 5 6 
#
# 1 0.018216 -0.003678 0.002148 0.000000 -0.008261 0.000000
# 2 -0.003678 0.010380 -0.003386 0.000000 -0.002244 0.000000
# 3 0.002148 -0.003386 0.010639 0.000000 -0.007473 0.000000
# 4 0.000000 0.000000 0.000000 0.040245 0.000000 -0.005440
# 5 -0.008261 -0.002244 -0.007473 0.000000 0.046030 0.000000
# 6 0.000000 0.000000 0.000000 -0.005440 0.000000 0.029766
#
#
# Mechanical properties :
#
#
# Convention : Reuss Voigt Hill
#
# Bulk Modulus (GPa) = 34.01136 53.42292 43.71714
# Shear Modulus (GPa) = 28.58633 33.47850 31.03242
#
# Velocity S-wave (km/s) = 3.57540 3.86927 3.72524
# Velocity P-wave (km/s) = 5.67928 6.62207 6.16871
#
# Compressibility (1/GPa) = 0.02940194
#
# Stress axis : x y z
#
# Youngs Moduli (GPa) = 54.89647 96.34005 93.99635
#
# Poissons Ratio (x) = 0.35437 -0.20192
# Poissons Ratio (y) = 0.20193 0.31829
# Poissons Ratio (z) = -0.11793 0.32622
#
# Static dielectric constant tensor:
#      x y z
#    x 1.853030 0.000000 -0.013460 
#    y 0.000000 1.826890 0.000000 
#    z -0.013460 0.000000 1.860640 
# 
# From -- ./inp_files/75431.got.cif
#   From: 2010.05.17/outbox.cif.g08.bks.cpg/sg12_38_cif.got.tgz:75431.got - 2010.06.03 13:09:07.
