data_PCOD9184451
_publ_section_title
;
Structure prediction by ZEFSAII (Michael W. Deem and Ramdas Pophale) SiO2 
 PCOD9184451
Probable space group: C 2/M
;
_chemical_formula_sum "Si O2"
_cell_formula_units_Z 56
_cell_length_a 18.748879
_cell_length_b 24.871893
_cell_length_c 10.779957
_cell_angle_alpha 90.000000
_cell_angle_beta 138.699391
_cell_angle_gamma 90.000000
_cell_volume 3317.809627
_symmetry_space_group_name_H-M "C 2/M"
_symmetry_group_IT_number 12
_symmetry_cell_setting 'monoclinic'
loop_
_space_group_symop_operation_xyz
x,y,z
-x,y,-z
-x,-y,-z
x,-y,z
1/2+x,1/2+y,z
1/2-x,1/2+y,-z
1/2-x,1/2-y,-z
1/2+x,1/2-y,z
loop_
_atom_site_type_symbol
_atom_site_label
_atom_site_fract_x
_atom_site_fract_y
_atom_site_fract_z
Si Si1 0.588948 0.437652 0.008138
Si Si2 0.211056 0.689085 0.978861
Si Si3 0.740559 0.338342 0.216678
Si Si4 0.048476 0.939965 0.422162
Si Si5 0.444879 0.753892 0.058732
Si Si6 0.660747 0.757078 0.488316
Si Si7 0.622859 0.663787 0.618386
O O1 0.622802 0.500000 0.060329
O O2 0.534513 0.430511 0.800170
O O3 0.500000 0.428485 0.000000
O O4 0.684861 0.395808 0.155875
O O5 0.189307 0.664350 0.817142
O O6 0.117417 0.697340 0.956193
O O7 0.250000 0.750000 0.000000
O O8 0.307543 0.656029 0.167469
O O9 0.815808 0.315594 0.424022
O O10 0.638606 0.295887 0.069567
O O11 0.124149 0.887849 0.530774
O O12 0.000000 0.940768 0.500000
O O13 0.094622 0.000000 0.461697
O O14 0.544219 0.742526 0.280678
O O15 0.500000 0.766972 0.000000
O O16 0.750000 0.750000 0.500000
O O17 0.673747 0.714955 0.616989
O O18 0.500000 0.675301 0.500000
#
# Coordination Sequence:
#
# PCOD9184451 Si02
#       7
#     8   8   8   8   8   8   8
#     4  10  21  36  54  79 113 148 178 223 278 327
#     4  10  19  34  47  74 107 145 181 215 266 319
#     4  11  21  35  53  78 110 143 180 216 268 331
#     4   9  18  32  52  78 105 140 182 218 266 323
#     4  11  20  35  49  72 114 141 173 224 260 322
#     4  12  23  32  50  77 103 146 184 215 273 326
#     4  11  19  32  53  75 108 143 176 220 264 322
#
# _framework density 16.878605
#
# number of rings (size 3 to 8) (size 9 to 14) (size 15 to 20)
#    0.000    1.429    4.286    4.714    2.000    0.000 
#    0.000    0.000    0.000    0.000    0.000    3.000 
#    0.000    4.000    0.000    0.000    0.000    0.000 
#
# Total GULP energy -155961.214989 kJ/mol
# GULP energy per Si atom -5570.043392 kJ/mol
# Density = 1.684019 g / cm^3
# Si number density = 16.878605 Si / 1000 Ang^3
#
#
#
# Elastic Constant Matrix: (Units=GPa)
#
#
# Indices 1 2 3 4 5 6 
#
# 1 91.2046 12.5293 0.1987 0.0000 -10.0764 0.0000
# 2 12.5293 79.0512 -3.5350 0.0000 -1.1124 0.0000
# 3 0.1987 -3.5350 42.8758 0.0000 -9.3374 0.0000
# 4 0.0000 0.0000 0.0000 30.1220 0.0000 2.3971
# 5 -10.0764 -1.1124 -9.3374 0.0000 26.3139 0.0000
# 6 0.0000 0.0000 0.0000 2.3971 0.0000 16.9009
#
#
#
# Elastic Compliance Matrix: (Units=1/GPa)
#
#
# Indices 1 2 3 4 5 6 
#
# 1 0.011724 -0.001755 0.000826 0.000000 0.004708 0.000000
# 2 -0.001755 0.012983 0.001140 0.000000 0.000281 0.000000
# 3 0.000826 0.001140 0.025460 0.000000 0.009399 0.000000
# 4 0.000000 0.000000 0.000000 0.033577 0.000000 -0.004762
# 5 0.004708 0.000281 0.009399 0.000000 0.043153 0.000000
# 6 0.000000 0.000000 0.000000 -0.004762 0.000000 0.059844
#
#
# Mechanical properties :
#
#
# Convention : Reuss Voigt Hill
#
# Bulk Modulus (GPa) = 19.76692 25.72418 22.74555
# Shear Modulus (GPa) = 24.60848 28.26327 26.43587
#
# Velocity S-wave (km/s) = 3.82248 4.09651 3.96186
# Velocity P-wave (km/s) = 5.58735 6.13588 5.86802
#
# Compressibility (1/GPa) = 0.05058956
#
# Stress axis : x y z
#
# Youngs Moduli (GPa) = 85.29628 77.02312 39.27697
#
# Poissons Ratio (x) = 0.13517 -0.03246
# Poissons Ratio (y) = 0.14969 -0.04477
# Poissons Ratio (z) = -0.07049 -0.08779
#
# Static dielectric constant tensor:
#      x y z
#    x 1.585740 0.000000 -0.032040 
#    y 0.000000 1.584450 0.000000 
#    z -0.032040 0.000000 1.659540 
# 
# From -- ./inp_files/160330.got.cif
#   From: 2010.05.17/outbox.cif.g08.bks.cpg/sg12_81_cif.got.tgz:160330.got - 2010.06.03 13:09:07.
