data_PCOD9184204
_publ_section_title
;
Structure prediction by ZEFSAII (Michael W. Deem and Ramdas Pophale) SiO2 
 PCOD9184204
Probable space group: C 2/M
;
_chemical_formula_sum "Si O2"
_cell_formula_units_Z 56
_cell_length_a 22.110619
_cell_length_b 22.913685
_cell_length_c 14.469517
_cell_angle_alpha 90.000000
_cell_angle_beta 158.981115
_cell_angle_gamma 90.000000
_cell_volume 2629.370341
_symmetry_space_group_name_H-M "C 2/M"
_symmetry_group_IT_number 12
_symmetry_cell_setting 'monoclinic'
loop_
_space_group_symop_operation_xyz
x,y,z
-x,y,-z
-x,-y,-z
x,-y,z
1/2+x,1/2+y,z
1/2-x,1/2+y,-z
1/2-x,1/2-y,-z
1/2+x,1/2-y,z
loop_
_atom_site_type_symbol
_atom_site_label
_atom_site_fract_x
_atom_site_fract_y
_atom_site_fract_z
Si Si1 0.379333 0.932434 0.024395
Si Si2 0.241282 0.565545 0.809701
Si Si3 0.603900 0.432967 0.778858
Si Si4 0.261299 0.611727 0.358675
Si Si5 0.152709 0.640239 0.522400
Si Si6 0.871394 0.934935 0.705327
Si Si7 0.307696 0.245243 0.690957
O O1 0.198116 0.926974 0.816704
O O2 0.358859 0.916707 0.888512
O O3 0.433121 0.000000 0.114213
O O4 0.499303 0.885926 0.244863
O O5 0.177620 0.500000 0.699767
O O6 0.145658 0.613316 0.614192
O O7 0.257190 0.573918 0.941814
O O8 0.435081 0.568328 0.050195
O O9 0.540087 0.500000 0.696019
O O10 0.449005 0.392052 0.582684
O O11 0.268459 0.576695 0.464703
O O12 0.218169 0.678311 0.317925
O O13 0.312120 0.611990 0.694828
O O14 0.183803 0.708852 0.564320
O O15 0.840234 0.000000 0.697500
O O16 0.250000 0.250000 0.500000
O O17 0.500000 0.259584 0.000000
#
# Coordination Sequence:
#
# PCOD9184204 Si02
#       7
#     8   8   8   8   8   8   8
#     4  11  23  40  65  98 132 167 213 278 339 388
#     4   9  18  34  58  87 117 156 204 258 322 390
#     4   9  20  40  67  94 123 164 214 270 334 391
#     4  11  22  39  64  90 124 169 218 268 328 396
#     4  12  23  37  58  89 128 172 211 260 325 394
#     4  10  19  33  57  90 120 152 202 266 328 387
#     4  12  26  45  66  92 133 181 227 269 325 400
#
# _framework density 21.297874
#
# number of rings (size 3 to 8) (size 9 to 14) (size 15 to 20)
#    0.000    1.429    1.429    6.000    2.000    2.857 
#    0.000    4.286    3.143    0.000    0.000    0.000 
#    0.000    0.000    0.000    0.000    0.000    0.000 
#
# Total GULP energy -156537.098862 kJ/mol
# GULP energy per Si atom -5590.610674 kJ/mol
# Density = 2.124940 g / cm^3
# Si number density = 21.297874 Si / 1000 Ang^3
#
#
#
# Elastic Constant Matrix: (Units=GPa)
#
#
# Indices 1 2 3 4 5 6 
#
# 1 68.1994 5.8959 15.8942 0.0000 -18.1829 0.0000
# 2 5.8959 76.5233 26.0264 0.0000 -1.8379 0.0000
# 3 15.8942 26.0264 100.6514 0.0000 -11.7469 0.0000
# 4 0.0000 0.0000 0.0000 30.8018 0.0000 0.7110
# 5 -18.1829 -1.8379 -11.7469 0.0000 45.8504 0.0000
# 6 0.0000 0.0000 0.0000 0.7110 0.0000 -0.7912
#
#
#
# Elastic Compliance Matrix: (Units=1/GPa)
#
#
# Indices 1 2 3 4 5 6 
#
# 1 0.016772 -0.000535 -0.001790 0.000000 0.006171 0.000000
# 2 -0.000535 0.014352 -0.003695 0.000000 -0.000584 0.000000
# 3 -0.001790 -0.003695 0.011414 0.000000 0.002066 0.000000
# 4 0.000000 0.000000 0.000000 0.031806 0.000000 0.028582
# 5 0.006171 -0.000584 0.002066 0.000000 0.024763 0.000000
# 6 0.000000 0.000000 0.000000 0.028582 0.000000 -1.238243
#
#
# Mechanical properties :
#
#
# Convention : Reuss Voigt Hill
#
# Bulk Modulus (GPa) = 32.78869 37.88968 35.33919
# Shear Modulus (GPa) = -4.47655 28.34271 11.93308
#
# Velocity S-wave (km/s) = -1.45136 3.65194 2.36962
# Velocity P-wave (km/s) = 3.55248 5.96751 4.91077
#
# Compressibility (1/GPa) = 0.03049832
#
# Stress axis : x y z
#
# Youngs Moduli (GPa) = 59.62458 69.67807 87.60819
#
# Poissons Ratio (x) = 0.03730 0.15680
# Poissons Ratio (y) = 0.03191 0.32368
# Poissons Ratio (z) = 0.10672 0.25744
#
# Static dielectric constant tensor:
#      x y z
#    x 1.776900 0.000000 -0.000130 
#    y 0.000000 1.702740 0.000000 
#    z -0.000130 0.000000 1.858920 
# 
# From -- ./inp_files/242180.got.cif
#   From: 2010.05.17/outbox.cif.g08.bks.cpg/sg12_122_cif.got.tgz:242180.got - 2010.06.03 13:09:07.
