data_PCOD9184049
_publ_section_title
;
Structure prediction by ZEFSAII (Michael W. Deem and Ramdas Pophale) SiO2 
 PCOD9184049
Probable space group: C 2/M
;
_chemical_formula_sum "Si O2"
_cell_formula_units_Z 56
_cell_length_a 30.936213
_cell_length_b 8.928941
_cell_length_c 11.239433
_cell_angle_alpha 90.000000
_cell_angle_beta 113.118478
_cell_angle_gamma 90.000000
_cell_volume 2855.323324
_symmetry_space_group_name_H-M "C 2/M"
_symmetry_group_IT_number 12
_symmetry_cell_setting 'monoclinic'
loop_
_space_group_symop_operation_xyz
x,y,z
-x,y,-z
-x,-y,-z
x,-y,z
1/2+x,1/2+y,z
1/2-x,1/2+y,-z
1/2-x,1/2-y,-z
1/2+x,1/2-y,z
loop_
_atom_site_type_symbol
_atom_site_label
_atom_site_fract_x
_atom_site_fract_y
_atom_site_fract_z
Si Si1 0.825360 0.818220 0.402552
Si Si2 0.978830 0.182469 0.348835
Si Si3 0.722317 0.170864 0.314648
Si Si4 0.026653 0.183127 0.149550
Si Si5 0.370218 0.320729 0.685643
Si Si6 0.630034 0.680637 0.795781
Si Si7 0.293358 0.169709 0.983342
O O1 0.774467 0.763342 0.392230
O O2 0.865709 0.782970 0.540941
O O3 0.840536 0.769349 0.288516
O O4 0.820992 0.000000 0.392860
O O5 0.924077 0.225045 0.277214
O O6 0.000000 0.231964 0.500000
O O7 0.004667 0.229000 0.253791
O O8 0.981040 0.000000 0.353268
O O9 0.677349 0.259503 0.310010
O O10 0.720499 0.000000 0.358861
O O11 0.717960 0.165881 0.167620
O O12 0.080980 0.233071 0.206810
O O13 0.025721 0.000000 0.148476
O O14 0.000000 0.231014 0.000000
O O15 0.369800 0.500000 0.695152
O O16 0.631443 0.500000 0.803020
O O17 0.657983 0.746743 0.937008
O O18 0.296874 0.000000 0.031364
O O19 0.250000 0.250000 0.000000
#
# Coordination Sequence:
#
# PCOD9184049 Si02
#       7
#     8   8   8   8   8   8   8
#     4   9  17  33  52  77 108 138 170 215 266 312
#     4   9  17  30  52  80 107 141 182 222 271 329
#     4  10  21  36  52  73 109 142 172 217 266 315
#     4   9  18  31  46  74 110 134 168 229 275 301
#     4  10  20  33  55  78 103 140 181 218 261 317
#     4  10  19  33  57  82 110 143 179 221 271 326
#     4  11  22  37  55  78 109 143 179 223 272 323
#
# _framework density 19.612490000000001
#
# number of rings (size 3 to 8) (size 9 to 14) (size 15 to 20)
#    0.000    2.286    1.429    1.714    2.000    4.571 
#    0.000    0.714    0.000    1.714    0.000    0.000 
#    0.000    0.000    0.000    0.000    0.000    0.000 
#
# Total GULP energy -156122.033386 kJ/mol
# GULP energy per Si atom -5575.786907 kJ/mol
# Density = 1.956785 g / cm^3
# Si number density = 19.612490 Si / 1000 Ang^3
#
#
#
# Elastic Constant Matrix: (Units=GPa)
#
#
# Indices 1 2 3 4 5 6 
#
# 1 106.0020 13.2427 51.8102 0.0000 20.7414 0.0000
# 2 13.2427 11.8060 17.7634 0.0000 6.4552 0.0000
# 3 51.8102 17.7634 123.4695 0.0000 27.5286 0.0000
# 4 0.0000 0.0000 0.0000 15.5814 0.0000 2.1233
# 5 20.7414 6.4552 27.5286 0.0000 39.9132 0.0000
# 6 0.0000 0.0000 0.0000 2.1233 0.0000 16.8603
#
#
#
# Elastic Compliance Matrix: (Units=1/GPa)
#
#
# Indices 1 2 3 4 5 6 
#
# 1 0.012677 -0.007146 -0.003640 0.000000 -0.002922 0.000000
# 2 -0.007146 0.114328 -0.012001 0.000000 -0.006500 0.000000
# 3 -0.003640 -0.012001 0.012407 0.000000 -0.004724 0.000000
# 4 0.000000 0.000000 0.000000 0.065300 0.000000 -0.008223
# 5 -0.002922 -0.006500 -0.004724 0.000000 0.030882 0.000000
# 6 0.000000 0.000000 0.000000 -0.008223 0.000000 0.060346
#
#
# Mechanical properties :
#
#
# Convention : Reuss Voigt Hill
#
# Bulk Modulus (GPa) = 10.65653 45.21224 27.93439
# Shear Modulus (GPa) = 13.41227 25.03506 19.22367
#
# Velocity S-wave (km/s) = 2.61792 3.57667 3.13417
# Velocity P-wave (km/s) = 3.81881 6.33716 5.23177
#
# Compressibility (1/GPa) = 0.09383917
#
# Stress axis : x y z
#
# Youngs Moduli (GPa) = 78.88072 8.74676 80.60255
#
# Poissons Ratio (x) = 0.06250 0.29341
# Poissons Ratio (y) = 0.56365 0.96728
# Poissons Ratio (z) = 0.28715 0.10497
#
# Static dielectric constant tensor:
#      x y z
#    x 1.687810 0.000000 -0.004160 
#    y 0.000000 1.683530 0.000000 
#    z -0.004160 0.000000 1.704260 
# 
# From -- ./inp_files/187274.got.cif
#   From: 2010.05.17/outbox.cif.g08.bks.cpg/sg12_94_cif.got.tgz:187274.got - 2010.06.03 13:09:07.
