data_PCOD9184652
_publ_section_title
;
Structure prediction by ZEFSAII (Michael W. Deem and Ramdas Pophale) SiO2 
 PCOD9184652
Probable space group: C 2/M
;
_chemical_formula_sum "Si O2"
_cell_formula_units_Z 56
_cell_length_a 21.823776
_cell_length_b 23.473577
_cell_length_c 5.631862
_cell_angle_alpha 90.000000
_cell_angle_beta 63.374393
_cell_angle_gamma 90.000000
_cell_volume 2579.148580
_symmetry_space_group_name_H-M "C 2/M"
_symmetry_group_IT_number 12
_symmetry_cell_setting 'monoclinic'
loop_
_space_group_symop_operation_xyz
x,y,z
-x,y,-z
-x,-y,-z
x,-y,z
1/2+x,1/2+y,z
1/2-x,1/2+y,-z
1/2-x,1/2-y,-z
1/2+x,1/2-y,z
loop_
_atom_site_type_symbol
_atom_site_label
_atom_site_fract_x
_atom_site_fract_y
_atom_site_fract_z
Si Si1 0.460012 0.298858 0.326635
Si Si2 0.438845 0.169609 0.294239
Si Si3 0.174036 0.173753 0.671938
Si Si4 0.599283 0.061892 0.373670
Si Si5 0.749429 0.436088 0.648755
Si Si6 0.160275 0.387055 0.878408
Si Si7 0.793832 0.720301 0.122316
O O1 0.500000 0.316363 0.500000
O O2 0.439360 0.232267 0.403995
O O3 0.390072 0.333311 0.392777
O O4 0.500000 0.301913 0.000000
O O5 0.441933 0.114433 0.452131
O O6 0.370211 0.154794 0.268325
O O7 0.500000 0.169277 0.000000
O O8 0.197501 0.116953 0.772119
O O9 0.158295 0.229051 0.863033
O O10 0.239810 0.195291 0.408172
O O11 0.679630 0.064359 0.322544
O O12 0.573314 0.000000 0.488378
O O13 0.605356 0.070563 0.081461
O O14 0.720605 0.500000 0.720002
O O15 0.778072 0.423626 0.332482
O O16 0.174576 0.337096 0.043002
O O17 0.750000 0.750000 0.000000
#
# Coordination Sequence:
#
# PCOD9184652 Si02
#       7
#     8   8   8   8   8   8   8
#     4  11  26  43  65  90 126 167 209 260 314 376
#     4  10  23  36  53  76 111 161 204 252 307 352
#     4  10  21  36  56  91 116 154 205 245 318 369
#     4  10  21  35  55  80 113 158 204 250 301 364
#     4   9  19  37  57  84 119 152 192 244 308 378
#     4  10  19  34  53  80 114 150 194 246 307 364
#     4  10  20  30  55  87 119 147 187 257 315 371
#
# _framework density 21.712592000000001
#
# number of rings (size 3 to 8) (size 9 to 14) (size 15 to 20)
#    0.000    2.000    1.429    1.286   10.000    0.857 
#    0.000    0.714    0.000    0.857    0.000    0.000 
#    0.000    0.000    0.000    0.000    0.000    0.000 
#
# Total GULP energy -156000.960106 kJ/mol
# GULP energy per Si atom -5571.462861 kJ/mol
# Density = 2.166317 g / cm^3
# Si number density = 21.712592 Si / 1000 Ang^3
#
#
#
# Elastic Constant Matrix: (Units=GPa)
#
#
# Indices 1 2 3 4 5 6 
#
# 1 122.2966 31.6455 2.5077 0.0000 11.5487 0.0000
# 2 31.6455 125.6472 10.0034 0.0000 3.2446 0.0000
# 3 2.5077 10.0034 30.4389 0.0000 0.2935 0.0000
# 4 0.0000 0.0000 0.0000 19.4584 0.0000 -1.0371
# 5 11.5487 3.2446 0.2935 0.0000 26.6965 0.0000
# 6 0.0000 0.0000 0.0000 -1.0371 0.0000 14.2648
#
#
#
# Elastic Compliance Matrix: (Units=1/GPa)
#
#
# Indices 1 2 3 4 5 6 
#
# 1 0.009091 -0.002196 0.000008 0.000000 -0.003666 0.000000
# 2 -0.002196 0.008728 -0.002687 0.000000 -0.000081 0.000000
# 3 0.000008 -0.002687 0.033735 0.000000 -0.000048 0.000000
# 4 0.000000 0.000000 0.000000 0.051592 0.000000 0.003751
# 5 -0.003666 -0.000081 -0.000048 0.000000 0.039054 0.000000
# 6 0.000000 0.000000 0.000000 0.003751 0.000000 0.070375
#
#
# Mechanical properties :
#
#
# Convention : Reuss Voigt Hill
#
# Bulk Modulus (GPa) = 23.92023 40.74399 32.33211
# Shear Modulus (GPa) = 21.16319 27.69902 24.43110
#
# Velocity S-wave (km/s) = 3.12540 3.57559 3.35805
# Velocity P-wave (km/s) = 4.90559 5.98768 5.47344
#
# Compressibility (1/GPa) = 0.04180562
#
# Stress axis : x y z
#
# Youngs Moduli (GPa) = 109.99892 114.57666 29.64246
#
# Poissons Ratio (x) = 0.25157 -0.00024
# Poissons Ratio (y) = 0.24152 0.07964
# Poissons Ratio (z) = -0.00088 0.30782
#
# Static dielectric constant tensor:
#      x y z
#    x 1.933570 0.000000 0.075150 
#    y 0.000000 1.879180 0.000000 
#    z 0.075150 0.000000 1.980450 
# 
# From -- ./inp_files/21847.got.cif
#   From: 2010.05.17/outbox.cif.g08.bks.cpg/sg12_11_cif.got.tgz:21847.got - 2010.06.03 13:09:07.
