data_PCOD9184821
_publ_section_title
;
Structure prediction by ZEFSAII (Michael W. Deem and Ramdas Pophale) SiO2 
 PCOD9184821
Probable space group: C 2/M
;
_chemical_formula_sum "Si O2"
_cell_formula_units_Z 56
_cell_length_a 11.946070
_cell_length_b 15.902074
_cell_length_c 16.869626
_cell_angle_alpha 90.000000
_cell_angle_beta 128.241629
_cell_angle_gamma 90.000000
_cell_volume 2516.977038
_symmetry_space_group_name_H-M "C 2/M"
_symmetry_group_IT_number 12
_symmetry_cell_setting 'monoclinic'
loop_
_space_group_symop_operation_xyz
x,y,z
-x,y,-z
-x,-y,-z
x,-y,z
1/2+x,1/2+y,z
1/2-x,1/2+y,-z
1/2-x,1/2-y,-z
1/2+x,1/2-y,z
loop_
_atom_site_type_symbol
_atom_site_label
_atom_site_fract_x
_atom_site_fract_y
_atom_site_fract_z
Si Si1 0.644382 0.097921 0.139607
Si Si2 0.836257 0.092667 0.897066
Si Si3 0.272827 0.653895 0.033803
Si Si4 0.075767 0.852619 0.648621
Si Si5 0.119753 0.275009 0.383323
Si Si6 0.802719 0.906676 0.458294
Si Si7 0.580948 0.276385 0.188550
O O1 0.673695 0.118484 0.059897
O O2 0.803374 0.105018 0.246756
O O3 0.567748 0.181017 0.145425
O O4 0.595522 0.000000 0.128853
O O5 0.822476 0.169669 0.830044
O O6 0.810671 0.000000 0.851467
O O7 0.753295 0.104120 0.943249
O O8 0.000000 0.096483 0.000000
O O9 0.439077 0.664626 0.133089
O O10 0.250000 0.750000 0.000000
O O11 0.136458 0.852361 0.587029
O O12 0.030167 0.759753 0.653539
O O13 0.921178 0.898429 0.578796
O O14 0.250000 0.250000 0.500000
O O15 0.142872 0.374693 0.398205
O O16 0.133514 0.238608 0.300792
O O17 0.805859 0.000000 0.429764
#
# Coordination Sequence:
#
# PCOD9184821 Si02
#       7
#     8   8   8   8   8   8   8
#     4  12  23  37  63  92 121 158 203 250 305 363
#     4   9  19  37  60  82 110 152 197 244 298 354
#     4  11  22  40  62  86 121 159 196 249 305 365
#     4  10  19  34  54  86 117 155 201 246 296 354
#     4  10  21  35  54  88 124 158 192 246 307 355
#     4  10  19  34  58  86 117 153 202 255 297 348
#     4  11  22  39  59  87 125 155 199 254 304 353
#
# _framework density 22.248911
#
# number of rings (size 3 to 8) (size 9 to 14) (size 15 to 20)
#    0.000    1.571    4.286    2.143    0.000    0.571 
#    0.000    2.857    0.000    0.857    0.000    6.000 
#    0.000    0.000    0.000    0.000    0.000    0.000 
#
# Total GULP energy -155888.389373 kJ/mol
# GULP energy per Si atom -5567.442478 kJ/mol
# Density = 2.219827 g / cm^3
# Si number density = 22.248911 Si / 1000 Ang^3
#
#
#
# Elastic Constant Matrix: (Units=GPa)
#
#
# Indices 1 2 3 4 5 6 
#
# 1 42.2729 32.8858 12.0281 0.0000 -13.6959 0.0000
# 2 32.8858 100.7812 23.7653 0.0000 7.7477 0.0000
# 3 12.0281 23.7653 103.5832 0.0000 -15.0385 0.0000
# 4 0.0000 0.0000 0.0000 22.4467 0.0000 2.5945
# 5 -13.6959 7.7477 -15.0385 0.0000 26.2538 0.0000
# 6 0.0000 0.0000 0.0000 2.5945 0.0000 13.5571
#
#
#
# Elastic Compliance Matrix: (Units=1/GPa)
#
#
# Indices 1 2 3 4 5 6 
#
# 1 0.048046 -0.019025 0.003534 0.000000 0.032703 0.000000
# 2 -0.019025 0.018630 -0.004695 0.000000 -0.018112 0.000000
# 3 0.003534 -0.004695 0.011768 0.000000 0.009970 0.000000
# 4 0.000000 0.000000 0.000000 0.045558 0.000000 -0.008719
# 5 0.032703 -0.018112 0.009970 0.000000 0.066206 0.000000
# 6 0.000000 0.000000 0.000000 -0.008719 0.000000 0.075431
#
#
# Mechanical properties :
#
#
# Convention : Reuss Voigt Hill
#
# Bulk Modulus (GPa) = 26.26583 42.66618 34.46601
# Shear Modulus (GPa) = 15.68863 24.31539 20.00201
#
# Velocity S-wave (km/s) = 2.65833 3.30946 3.00160
# Velocity P-wave (km/s) = 4.61014 5.81565 5.24762
#
# Compressibility (1/GPa) = 0.03807227
#
# Stress axis : x y z
#
# Youngs Moduli (GPa) = 20.81324 53.67667 84.97408
#
# Poissons Ratio (x) = 1.02122 -0.30028
# Poissons Ratio (y) = 0.39598 0.39892
# Poissons Ratio (z) = -0.07355 0.25199
#
# Static dielectric constant tensor:
#      x y z
#    x 1.931090 0.000000 0.060430 
#    y 0.000000 1.949320 0.000000 
#    z 0.060430 0.000000 1.917380 
# 
# From -- ./inp_files/270381.got.cif
#   From: 2010.05.17/outbox.cif.g08.bks.cpg/sg12_136_cif.got.tgz:270381.got - 2010.06.03 13:09:07.
