data_PCOD9184778
_publ_section_title
;
Structure prediction by ZEFSAII (Michael W. Deem and Ramdas Pophale) SiO2 
 PCOD9184778
Probable space group: C 2/M
;
_chemical_formula_sum "Si O2"
_cell_formula_units_Z 50
_cell_length_a 14.388165
_cell_length_b 7.736248
_cell_length_c 20.811267
_cell_angle_alpha 90.000000
_cell_angle_beta 107.467319
_cell_angle_gamma 90.000000
_cell_volume 2209.692507
_symmetry_space_group_name_H-M "C 2/M"
_symmetry_group_IT_number 12
_symmetry_cell_setting 'monoclinic'
loop_
_space_group_symop_operation_xyz
x,y,z
-x,y,-z
-x,-y,-z
x,-y,z
1/2+x,1/2+y,z
1/2-x,1/2+y,-z
1/2-x,1/2-y,-z
1/2+x,1/2-y,z
loop_
_atom_site_type_symbol
_atom_site_label
_atom_site_fract_x
_atom_site_fract_y
_atom_site_fract_z
Si Si1 0.847858 0.698381 0.290365
Si Si2 0.000000 0.000000 0.500000
Si Si3 0.759317 0.705794 0.076283
Si Si4 0.757453 0.700826 0.399157
Si Si5 0.453033 0.788174 0.191248
Si Si6 0.341577 0.797638 0.822955
Si Si7 0.091856 0.309928 0.450353
O O1 0.876153 0.500000 0.310088
O O2 0.813625 0.779441 0.350224
O O3 0.929049 0.771784 0.258967
O O4 0.749147 0.700741 0.227787
O O5 0.022107 0.847793 0.450556
O O6 0.756673 0.500000 0.082358
O O7 0.862672 0.766931 0.127504
O O8 0.673925 0.778940 0.103969
O O9 0.750000 0.750000 0.000000
O O10 0.734709 0.500000 0.380945
O O11 0.830440 0.703777 0.474763
O O12 0.657999 0.790081 0.400702
O O13 0.555922 0.734183 0.183404
O O14 0.452416 0.000000 0.192391
O O15 0.331998 0.000000 0.804380
O O16 0.046451 0.500000 0.442222
#
# Coordination Sequence:
#
# PCOD9184778 Si02
#       7
#     8   2   8   8   8   8   8
#     4   9  18  36  58  79 110 149 186 227 281 334
#     4  12  22  40  56  90 120 146 190 256 294 342
#     4  10  20  36  56  78 105 142 181 224 277 331
#     4   9  18  37  59  82 110 156 195 233 288 357
#     4   8  17  34  54  75 107 146 180 217 271 332
#     4  10  19  34  54  80 110 143 185 227 267 327
#     4  10  21  37  61  84 117 154 193 239 300 352
#
# _framework density 22.627583000000001
#
# number of rings (size 3 to 8) (size 9 to 14) (size 15 to 20)
#    0.000    2.560    0.800    2.160    1.120    1.280 
#    2.880   11.200    0.000    0.000    0.000    0.000 
#    0.000    0.000    0.000    0.000    0.000    0.000 
#
# Total GULP energy -139352.857571 kJ/mol
# GULP energy per Si atom -5574.114303 kJ/mol
# Density = 2.257608 g / cm^3
# Si number density = 22.627583 Si / 1000 Ang^3
#
#
#
# Elastic Constant Matrix: (Units=GPa)
#
#
# Indices 1 2 3 4 5 6 
#
# 1 156.5874 26.8809 59.1425 0.0000 -45.7215 0.0000
# 2 26.8809 98.9026 2.9443 0.0000 -3.8400 0.0000
# 3 59.1425 2.9443 108.8088 0.0000 -39.6952 0.0000
# 4 0.0000 0.0000 0.0000 10.4916 0.0000 -9.6044
# 5 -45.7215 -3.8400 -39.6952 0.0000 37.7579 0.0000
# 6 0.0000 0.0000 0.0000 -9.6044 0.0000 5.5911
#
#
#
# Elastic Compliance Matrix: (Units=1/GPa)
#
#
# Indices 1 2 3 4 5 6 
#
# 1 0.010605 -0.002413 -0.001790 0.000000 0.010714 0.000000
# 2 -0.002413 0.010702 0.000573 0.000000 -0.001232 0.000000
# 3 -0.001790 0.000573 0.015213 0.000000 0.013884 0.000000
# 4 0.000000 0.000000 0.000000 -0.166477 0.000000 -0.285973
# 5 0.010714 -0.001232 0.013884 0.000000 0.053930 0.000000
# 6 0.000000 0.000000 0.000000 -0.285973 0.000000 -0.312390
#
#
# Mechanical properties :
#
#
# Convention : Reuss Voigt Hill
#
# Bulk Modulus (GPa) = 34.17766 60.24828 47.21297
# Shear Modulus (GPa) = -13.46250 29.12354 7.83052
#
# Velocity S-wave (km/s) = -2.44183 3.59148 1.86229
# Velocity P-wave (km/s) = 2.68090 6.62436 5.05319
#
# Compressibility (1/GPa) = 0.02925888
#
# Stress axis : x y z
#
# Youngs Moduli (GPa) = 94.29454 93.44095 65.73251
#
# Poissons Ratio (x) = 0.22548 0.11768
# Poissons Ratio (y) = 0.22754 -0.03765
# Poissons Ratio (z) = 0.16882 -0.05352
#
# Static dielectric constant tensor:
#      x y z
#    x 1.845280 0.000000 -0.019210 
#    y 0.000000 1.720570 0.000000 
#    z -0.019210 0.000000 1.871040 
# 
# From -- ./inp_files/308550.got.cif
#   From: 2010.05.17/outbox.cif.g08.bks.cpg/sg12_155_cif.got.tgz:308550.got - 2010.06.03 13:09:07.
