data_PCOD9184493
_publ_section_title
;
Structure prediction by ZEFSAII (Michael W. Deem and Ramdas Pophale) SiO2 
 PCOD9184493
Probable space group: C 2/M
;
_chemical_formula_sum "Si O2"
_cell_formula_units_Z 48
_cell_length_a 15.367484
_cell_length_b 31.624222
_cell_length_c 5.924894
_cell_angle_alpha 90.000000
_cell_angle_beta 115.384439
_cell_angle_gamma 90.000000
_cell_volume 2601.406195
_symmetry_space_group_name_H-M "C 2/M"
_symmetry_group_IT_number 12
_symmetry_cell_setting 'monoclinic'
loop_
_space_group_symop_operation_xyz
x,y,z
-x,y,-z
-x,-y,-z
x,-y,z
1/2+x,1/2+y,z
1/2-x,1/2+y,-z
1/2-x,1/2-y,-z
1/2+x,1/2-y,z
loop_
_atom_site_type_symbol
_atom_site_label
_atom_site_fract_x
_atom_site_fract_y
_atom_site_fract_z
Si Si1 0.790351 0.612148 0.094676
Si Si2 0.104213 0.861220 0.650040
Si Si3 0.954908 0.449224 0.200002
Si Si4 0.596972 0.718006 0.956872
Si Si5 0.756631 0.169347 0.576806
Si Si6 0.390897 0.189466 0.951522
O O1 0.848291 0.570320 0.100711
O O2 0.790369 0.629244 0.349529
O O3 0.846553 0.649928 0.030274
O O4 0.680241 0.613123 0.886838
O O5 0.086826 0.815843 0.748765
O O6 0.159738 0.850379 0.483981
O O7 0.000000 0.881469 0.500000
O O8 0.955829 0.500000 0.198843
O O9 0.000000 0.436391 0.500000
O O10 0.000000 0.436237 0.000000
O O11 0.611644 0.766922 0.911946
O O12 0.500000 0.716517 0.000000
O O13 0.689605 0.701032 0.195274
O O14 0.677382 0.193609 0.342533
O O15 0.500000 0.181472 0.000000
#
# Coordination Sequence:
#
# PCOD9184493 Si02
#       6
#     8   8   8   8   8   8
#     4  10  23  35  57  84 114 145 192 242 296 357
#     4  10  20  36  55  76 107 150 200 246 292 343
#     4  10  23  43  70  97 127 161 191 231 290 366
#     4  10  19  34  51  72 104 151 203 244 290 344
#     4  10  21  34  52  74 106 151 191 251 285 347
#     4  10  22  34  48  77 109 151 193 242 300 344
#
# _framework density 18.451560000000001
#
# number of rings (size 3 to 8) (size 9 to 14) (size 15 to 20)
#    0.000    2.000    1.667    1.000    7.000    7.333 
#    0.000    0.000    0.000    0.500    0.000    1.167 
#    0.000    0.000    0.000    0.000    0.000    0.000 
#
# Total GULP energy -133771.161018 kJ/mol
# GULP energy per Si atom -5573.798376 kJ/mol
# Density = 1.840956 g / cm^3
# Si number density = 18.451560 Si / 1000 Ang^3
#
#
#
# Elastic Constant Matrix: (Units=GPa)
#
#
# Indices 1 2 3 4 5 6 
#
# 1 97.0649 18.5804 37.7385 0.0000 13.4459 0.0000
# 2 18.5804 12.4905 12.8773 0.0000 0.2630 0.0000
# 3 37.7385 12.8773 65.2601 0.0000 7.6297 0.0000
# 4 0.0000 0.0000 0.0000 12.7021 0.0000 13.7020
# 5 13.4459 0.2630 7.6297 0.0000 33.8851 0.0000
# 6 0.0000 0.0000 0.0000 13.7020 0.0000 56.2089
#
#
#
# Elastic Compliance Matrix: (Units=1/GPa)
#
#
# Indices 1 2 3 4 5 6 
#
# 1 0.016814 -0.019482 -0.005255 0.000000 -0.005338 0.000000
# 2 -0.019482 0.123556 -0.014282 0.000000 0.009988 0.000000
# 3 -0.005255 -0.014282 0.021489 0.000000 -0.002643 0.000000
# 4 0.000000 0.000000 0.000000 0.106815 0.000000 -0.026038
# 5 -0.005338 0.009988 -0.002643 0.000000 0.032147 0.000000
# 6 0.000000 0.000000 0.000000 -0.026038 0.000000 0.024138
#
#
# Mechanical properties :
#
#
# Convention : Reuss Voigt Hill
#
# Bulk Modulus (GPa) = 11.93018 34.80090 23.36554
# Shear Modulus (GPa) = 11.60261 27.60051 19.60156
#
# Velocity S-wave (km/s) = 2.51034 3.87180 3.26287
# Velocity P-wave (km/s) = 3.85773 6.23614 5.18515
#
# Compressibility (1/GPa) = 0.08382104
#
# Stress axis : x y z
#
# Youngs Moduli (GPa) = 59.47358 8.09352 46.53487
#
# Poissons Ratio (x) = 0.15768 0.24454
# Poissons Ratio (y) = 1.15867 0.66461
# Poissons Ratio (z) = 0.31253 0.11559
#
# Static dielectric constant tensor:
#      x y z
#    x 1.667480 0.000000 -0.023610 
#    y 0.000000 1.607830 0.000000 
#    z -0.023610 0.000000 1.700410 
# 
# From -- ./inp_files/12776.got.cif
#   From: 2010.05.17/outbox.cif.g08.bks.cpg/sg12_7_cif.got.tgz:12776.got - 2010.06.03 13:09:07.
