data_PCOD9184913
_publ_section_title
;
Structure prediction by ZEFSAII (Michael W. Deem and Ramdas Pophale) SiO2 
 PCOD9184913
Probable space group: C 2/M
;
_chemical_formula_sum "Si O2"
_cell_formula_units_Z 64
_cell_length_a 23.827396
_cell_length_b 17.030818
_cell_length_c 13.100480
_cell_angle_alpha 90.000000
_cell_angle_beta 42.641983
_cell_angle_gamma 90.000000
_cell_volume 3601.257772
_symmetry_space_group_name_H-M "C 2/M"
_symmetry_group_IT_number 12
_symmetry_cell_setting 'monoclinic'
loop_
_space_group_symop_operation_xyz
x,y,z
-x,y,-z
-x,-y,-z
x,-y,z
1/2+x,1/2+y,z
1/2-x,1/2+y,-z
1/2-x,1/2-y,-z
1/2+x,1/2-y,z
loop_
_atom_site_type_symbol
_atom_site_label
_atom_site_fract_x
_atom_site_fract_y
_atom_site_fract_z
Si Si1 0.511414 0.142632 0.299759
Si Si2 0.727522 0.157755 0.535098
Si Si3 0.449608 0.907223 0.169274
Si Si4 0.185101 0.907227 0.176683
Si Si5 0.018749 0.185398 0.357469
Si Si6 0.160339 0.851379 0.432518
Si Si7 0.326579 0.162170 0.608200
Si Si8 0.819347 0.407968 0.831364
O O1 0.505663 0.108854 0.193724
O O2 0.524822 0.236545 0.282317
O O3 0.420490 0.130497 0.469877
O O4 0.585722 0.106627 0.264606
O O5 0.750000 0.250000 0.500000
O O6 0.635095 0.141533 0.701468
O O7 0.792171 0.122578 0.529369
O O8 0.724548 0.130719 0.421024
O O9 0.428900 0.000000 0.192817
O O10 0.500000 0.886570 0.000000
O O11 0.103352 0.862050 0.248668
O O12 0.196225 0.888315 0.281311
O O13 0.172461 0.000000 0.182932
O O14 0.262443 0.883847 0.003108
O O15 0.000000 0.211226 0.500000
O O16 0.938529 0.135462 0.431922
O O17 0.169212 0.756645 0.408201
O O18 0.296635 0.138731 0.759595
O O19 0.806810 0.500000 0.828904
#
# Coordination Sequence:
#
# PCOD9184913 Si02
#       8
#     8   8   8   8   8   8   8   8
#     4  10  19  34  55  79 105 141 182 216 263 332
#     4   9  19  37  58  79 112 145 190 231 264 330
#     4  10  22  37  54  84 123 150 174 227 293 335
#     4  10  22  35  49  77 111 139 175 229 284 323
#     4   9  18  35  57  79 104 135 177 233 276 317
#     4   9  18  34  58  78 100 135 180 226 268 323
#     4   9  19  35  53  77 107 137 176 224 267 312
#     4  11  22  33  49  75 109 144 178 217 264 330
#
# _framework density 17.771569
#
# number of rings (size 3 to 8) (size 9 to 14) (size 15 to 20)
#    0.000    2.375    0.000    3.750    1.750    7.750 
#    2.250    0.000    0.000    0.000    0.000    1.750 
#    0.000    0.000    0.000    0.000    0.000    0.000 
#
# Total GULP energy -178436.844106 kJ/mol
# GULP energy per Si atom -5576.151378 kJ/mol
# Density = 1.773112 g / cm^3
# Si number density = 17.771569 Si / 1000 Ang^3
#
#
#
# Elastic Constant Matrix: (Units=GPa)
#
#
# Indices 1 2 3 4 5 6 
#
# 1 112.4668 11.2987 23.9108 0.0000 8.2797 0.0000
# 2 11.2987 31.3555 28.7806 0.0000 -0.7102 0.0000
# 3 23.9108 28.7806 58.5436 0.0000 7.9141 0.0000
# 4 0.0000 0.0000 0.0000 26.8124 0.0000 4.6710
# 5 8.2797 -0.7102 7.9141 0.0000 15.4472 0.0000
# 6 0.0000 0.0000 0.0000 4.6710 0.0000 -1.7668
#
#
#
# Elastic Compliance Matrix: (Units=1/GPa)
#
#
# Indices 1 2 3 4 5 6 
#
# 1 0.009916 -0.000731 -0.003189 0.000000 -0.003715 0.000000
# 2 -0.000731 0.063609 -0.033759 0.000000 0.020612 0.000000
# 3 -0.003189 -0.033759 0.037560 0.000000 -0.019086 0.000000
# 4 0.000000 0.000000 0.000000 0.025535 0.000000 0.067509
# 5 -0.003715 0.020612 -0.019086 0.000000 0.077454 0.000000
# 6 0.000000 0.000000 0.000000 0.067509 0.000000 -0.387511
#
#
# Mechanical properties :
#
#
# Convention : Reuss Voigt Hill
#
# Bulk Modulus (GPa) = 27.98841 36.70513 32.34677
# Shear Modulus (GPa) = -58.02400 17.32362 -20.35019
#
# Velocity S-wave (km/s) = -5.72021 3.12556 -3.38760
# Velocity P-wave (km/s) = 5.27679 5.80725 1.71459
#
# Compressibility (1/GPa) = 0.03572907
#
# Stress axis : x y z
#
# Youngs Moduli (GPa) = 100.84363 15.72107 26.62414
#
# Poissons Ratio (x) = 0.01148 0.08490
# Poissons Ratio (y) = 0.07367 0.89880
# Poissons Ratio (z) = 0.32157 0.53072
#
# Static dielectric constant tensor:
#      x y z
#    x 1.627360 0.000000 0.007450 
#    y 0.000000 1.613320 0.000000 
#    z 0.007450 0.000000 1.596190 
# 
# From -- ./inp_files/177120.got.cif
#   From: 2010.05.17/outbox.cif.g08.bks.cpg/sg12_89_cif.got.tgz:177120.got - 2010.06.03 13:09:07.
