data_PCOD9184497
_publ_section_title
;
Structure prediction by ZEFSAII (Michael W. Deem and Ramdas Pophale) SiO2 
 PCOD9184497
Probable space group: C 2/M
;
_chemical_formula_sum "Si O2"
_cell_formula_units_Z 52
_cell_length_a 16.300026
_cell_length_b 15.190722
_cell_length_c 12.169811
_cell_angle_alpha 90.000000
_cell_angle_beta 98.311305
_cell_angle_gamma 90.000000
_cell_volume 2981.708301
_symmetry_space_group_name_H-M "C 2/M"
_symmetry_group_IT_number 12
_symmetry_cell_setting 'monoclinic'
loop_
_space_group_symop_operation_xyz
x,y,z
-x,y,-z
-x,-y,-z
x,-y,z
1/2+x,1/2+y,z
1/2-x,1/2+y,-z
1/2-x,1/2-y,-z
1/2+x,1/2-y,z
loop_
_atom_site_type_symbol
_atom_site_label
_atom_site_fract_x
_atom_site_fract_y
_atom_site_fract_z
Si Si1 0.185342 0.399424 0.971624
Si Si2 0.612511 0.206840 0.149082
Si Si3 0.000000 0.155484 0.000000
Si Si4 0.700301 0.767972 0.772678
Si Si5 0.140481 0.902496 0.866580
Si Si6 0.554165 0.899706 0.342533
Si Si7 0.869970 0.398844 0.408899
O O1 0.168897 0.500000 0.936072
O O2 0.178195 0.332924 0.869336
O O3 0.126449 0.366907 0.058100
O O4 0.278633 0.393552 0.038918
O O5 0.558978 0.283342 0.084962
O O6 0.703613 0.241903 0.198153
O O7 0.569820 0.165984 0.246944
O O8 0.060100 0.104553 0.928198
O O9 0.648249 0.678317 0.782970
O O10 0.682824 0.823504 0.659930
O O11 0.144544 0.000000 0.816409
O O12 0.460512 0.895185 0.369130
O O13 0.613425 0.883558 0.458918
O O14 0.569317 0.000000 0.307980
O O15 0.839021 0.500000 0.388506
#
# Coordination Sequence:
#
# PCOD9184497 Si02
#       7
#     8   8   4   8   8   8   8
#     4  10  19  34  51  74 106 138 168 210 264 313
#     4  11  21  32  52  77 109 139 174 218 255 304
#     4  12  19  34  49  74 108 138 181 212 251 310
#     4  11  19  36  52  76 106 135 179 214 254 314
#     4  10  20  33  50  70 101 143 175 209 256 303
#     4   9  19  36  54  80 107 134 171 213 266 318
#     4   9  19  36  58  78 105 138 170 212 265 318
#
# _framework density 17.439667
#
# number of rings (size 3 to 8) (size 9 to 14) (size 15 to 20)
#    0.000    1.846    3.077    3.923    0.000    1.231 
#    0.000    0.769    0.000    0.000    0.000    9.692 
#    0.000    0.000    0.000    0.000    0.000    0.000 
#
# Total GULP energy -145102.504948 kJ/mol
# GULP energy per Si atom -5580.865575 kJ/mol
# Density = 1.739997 g / cm^3
# Si number density = 17.439667 Si / 1000 Ang^3
#
#
#
# Elastic Constant Matrix: (Units=GPa)
#
#
# Indices 1 2 3 4 5 6 
#
# 1 31.0753 6.9529 -6.2157 0.0000 -1.2789 0.0000
# 2 6.9529 84.7989 0.1433 0.0000 7.8576 0.0000
# 3 -6.2157 0.1433 10.0003 0.0000 1.1835 0.0000
# 4 0.0000 0.0000 0.0000 12.8966 0.0000 -13.9918
# 5 -1.2789 7.8576 1.1835 0.0000 17.9138 0.0000
# 6 0.0000 0.0000 0.0000 -13.9918 0.0000 10.1957
#
#
#
# Elastic Compliance Matrix: (Units=1/GPa)
#
#
# Indices 1 2 3 4 5 6 
#
# 1 0.037674 -0.003373 0.023152 0.000000 0.002639 0.000000
# 2 -0.003373 0.012596 -0.001607 0.000000 -0.005660 0.000000
# 3 0.023152 -0.001607 0.115030 0.000000 -0.005242 0.000000
# 4 0.000000 0.000000 0.000000 -0.158615 0.000000 -0.217671
# 5 0.002639 -0.005660 -0.005242 0.000000 0.058840 0.000000
# 6 0.000000 0.000000 0.000000 -0.217671 0.000000 -0.200633
#
#
# Mechanical properties :
#
#
# Convention : Reuss Voigt Hill
#
# Bulk Modulus (GPa) = 4.95920 14.18175 9.57047
# Shear Modulus (GPa) = -47.96736 16.53416 -15.71660
#
# Velocity S-wave (km/s) = -5.25019 3.08243 -3.00525
# Velocity P-wave (km/s) = 5.82261 4.56268 2.55781
#
# Compressibility (1/GPa) = 0.20164551
#
# Stress axis : x y z
#
# Youngs Moduli (GPa) = 26.54347 79.38840 8.69336
#
# Poissons Ratio (x) = 0.26775 -0.20127
# Poissons Ratio (y) = 0.08952 0.01397
# Poissons Ratio (z) = -0.61454 0.12758
#
# Static dielectric constant tensor:
#      x y z
#    x 1.594300 0.000000 0.007420 
#    y 0.000000 1.603470 0.000000 
#    z 0.007420 0.000000 1.575850 
# 
# From -- ./inp_files/155419.got.cif
#   From: 2010.05.17/outbox.cif.g08.bks.cpg/sg12_78_cif.got.tgz:155419.got - 2010.06.03 13:09:07.
