data_PCOD9184498
_publ_section_title
;
Structure prediction by ZEFSAII (Michael W. Deem and Ramdas Pophale) SiO2 
 PCOD9184498
Probable space group: C 2/M
;
_chemical_formula_sum "Si O2"
_cell_formula_units_Z 40
_cell_length_a 15.760328
_cell_length_b 31.598084
_cell_length_c 5.303540
_cell_angle_alpha 90.000000
_cell_angle_beta 54.457800
_cell_angle_gamma 90.000000
_cell_volume 2149.064963
_symmetry_space_group_name_H-M "C 2/M"
_symmetry_group_IT_number 12
_symmetry_cell_setting 'monoclinic'
loop_
_space_group_symop_operation_xyz
x,y,z
-x,y,-z
-x,-y,-z
x,-y,z
1/2+x,1/2+y,z
1/2-x,1/2+y,-z
1/2-x,1/2-y,-z
1/2+x,1/2-y,z
loop_
_atom_site_type_symbol
_atom_site_label
_atom_site_fract_x
_atom_site_fract_y
_atom_site_fract_z
Si Si1 0.700449 0.324038 0.241081
Si Si2 0.613792 0.714756 0.876093
Si Si3 0.114380 0.049781 0.029333
Si Si4 0.434894 0.188991 0.871984
Si Si5 0.878285 0.914655 0.483578
O O1 0.677252 0.290189 0.505410
O O2 0.637361 0.365928 0.425861
O O3 0.665068 0.308500 0.026371
O O4 0.823463 0.332968 0.028012
O O5 0.500000 0.696703 0.000000
O O6 0.593359 0.762409 0.005592
O O7 0.166505 0.058794 0.206377
O O8 0.999304 0.070943 0.251287
O O9 0.102551 0.000000 0.004941
O O10 0.169118 0.072578 0.702074
O O11 0.500000 0.188550 0.500000
O O12 0.500000 0.172465 0.000000
#
# Coordination Sequence:
#
# PCOD9184498 Si02
#       5
#     8   8   8   8   8
#     4  12  23  36  57  81 114 138 189 247 272 321
#     4  11  23  36  55  80 110 148 182 225 294 340
#     4  10  19  34  51  74 118 150 170 201 258 351
#     4  11  23  42  57  75 102 151 199 236 286 329
#     4  10  20  30  49  78 104 141 181 205 264 311
#
# _framework density 18.612745
#
# number of rings (size 3 to 8) (size 9 to 14) (size 15 to 20)
#    0.000    1.200    0.000    9.600    8.400    0.000 
#    0.000    0.000    0.000    0.000    0.000    0.000 
#    0.000   27.200    0.000    0.000    0.000    0.000 
#
# Total GULP energy -111604.309970 kJ/mol
# GULP energy per Si atom -5580.215498 kJ/mol
# Density = 1.857038 g / cm^3
# Si number density = 18.612745 Si / 1000 Ang^3
#
#
#
# Elastic Constant Matrix: (Units=GPa)
#
#
# Indices 1 2 3 4 5 6 
#
# 1 104.0800 -0.8934 42.3972 0.0000 22.3011 0.0000
# 2 -0.8934 29.5265 -20.0146 0.0000 -2.3653 0.0000
# 3 42.3972 -20.0146 90.6105 0.0000 22.7382 0.0000
# 4 0.0000 0.0000 0.0000 5.6360 0.0000 4.1675
# 5 22.3011 -2.3653 22.7382 0.0000 44.0992 0.0000
# 6 0.0000 0.0000 0.0000 4.1675 0.0000 10.4468
#
#
#
# Elastic Compliance Matrix: (Units=1/GPa)
#
#
# Indices 1 2 3 4 5 6 
#
# 1 0.012764 -0.003926 -0.005935 0.000000 -0.003605 0.000000
# 2 -0.003926 0.041333 0.011385 0.000000 -0.001668 0.000000
# 3 -0.005935 0.011385 0.017714 0.000000 -0.005521 0.000000
# 4 0.000000 0.000000 0.000000 0.251672 0.000000 -0.100398
# 5 -0.003605 -0.001668 -0.005521 0.000000 0.027257 0.000000
# 6 0.000000 0.000000 0.000000 -0.100398 0.000000 0.135774
#
#
# Mechanical properties :
#
#
# Convention : Reuss Voigt Hill
#
# Bulk Modulus (GPa) = 13.35808 29.68835 21.52321
# Shear Modulus (GPa) = 9.83443 25.55157 17.69300
#
# Velocity S-wave (km/s) = 2.30113 3.70915 3.08650
# Velocity P-wave (km/s) = 3.77527 5.85909 4.92857
#
# Compressibility (1/GPa) = 0.07486107
#
# Stress axis : x y z
#
# Youngs Moduli (GPa) = 78.34276 24.19367 56.45354
#
# Poissons Ratio (x) = 0.09497 0.33505
# Poissons Ratio (y) = 0.30754 -0.64274
# Poissons Ratio (z) = 0.46496 -0.27545
#
# Static dielectric constant tensor:
#      x y z
#    x 1.656050 0.000000 0.062460 
#    y 0.000000 1.653420 0.000000 
#    z 0.062460 0.000000 1.691670 
# 
# From -- ./inp_files/12729.got.cif
#   From: 2010.05.17/outbox.cif.g08.bks.cpg/sg12_7_cif.got.tgz:12729.got - 2010.06.03 13:09:07.
