data_PCOD9184795
_publ_section_title
;
Structure prediction by ZEFSAII (Michael W. Deem and Ramdas Pophale) SiO2 
 PCOD9184795
Probable space group: C 2/M
;
_chemical_formula_sum "Si O2"
_cell_formula_units_Z 58
_cell_length_a 19.099233
_cell_length_b 13.170817
_cell_length_c 11.956783
_cell_angle_alpha 90.000000
_cell_angle_beta 112.539416
_cell_angle_gamma 90.000000
_cell_volume 2778.014202
_symmetry_space_group_name_H-M "C 2/M"
_symmetry_group_IT_number 12
_symmetry_cell_setting 'monoclinic'
loop_
_space_group_symop_operation_xyz
x,y,z
-x,y,-z
-x,-y,-z
x,-y,z
1/2+x,1/2+y,z
1/2-x,1/2+y,-z
1/2-x,1/2-y,-z
1/2+x,1/2-y,z
loop_
_atom_site_type_symbol
_atom_site_label
_atom_site_fract_x
_atom_site_fract_y
_atom_site_fract_z
Si Si1 0.980037 0.667975 0.112873
Si Si2 0.708650 0.315466 0.815259
Si Si3 0.761050 0.117966 0.412309
Si Si4 0.187447 0.389771 0.926716
Si Si5 0.089117 0.616129 0.384399
Si Si6 0.952126 0.115626 0.183296
Si Si7 0.500000 0.500000 0.500000
Si Si8 0.418519 0.666354 0.559980
O O1 0.901725 0.619513 0.105517
O O2 0.966116 0.790086 0.109173
O O3 0.044252 0.636459 0.240927
O O4 0.000000 0.636990 0.000000
O O5 0.727819 0.323270 0.697185
O O6 0.710349 0.199334 0.857264
O O7 0.626617 0.359371 0.801474
O O8 0.770144 0.372278 0.929768
O O9 0.678410 0.127202 0.414942
O O10 0.830485 0.149754 0.534636
O O11 0.768988 0.000000 0.388658
O O12 0.207182 0.500000 0.893896
O O13 0.073797 0.500000 0.413018
O O14 0.067502 0.713745 0.446790
O O15 0.023109 0.123090 0.312160
O O16 0.948693 0.000000 0.137807
O O17 0.435627 0.590607 0.469122
#
# Coordination Sequence:
#
# PCOD9184795 Si02
#       8
#     8   8   8   8   8   8   2   8
#     4  10  21  35  55  81 109 149 200 234 278 348
#     4  10  21  33  54  84 108 139 191 236 284 339
#     4  11  20  35  60  86 113 148 194 239 280 343
#     4  10  20  36  54  74 110 147 180 237 293 339
#     4  10  23  40  58  82 120 158 188 238 289 343
#     4  10  19  34  54  81 117 146 181 241 297 337
#     4  12  20  36  66  88 106 148 190 244 272 344
#     4  11  22  37  59  90 115 147 195 235 294 342
#
# _framework density 20.878222999999998
#
# number of rings (size 3 to 8) (size 9 to 14) (size 15 to 20)
#    0.000    1.655    1.379    3.724    0.000    2.483 
#    0.000    1.034    1.517    3.310    0.000    0.000 
#    0.000    0.000    0.000    0.000    0.000    0.000 
#
# Total GULP energy -161618.317498 kJ/mol
# GULP energy per Si atom -5573.045431 kJ/mol
# Density = 2.083070 g / cm^3
# Si number density = 20.878223 Si / 1000 Ang^3
#
#
#
# Elastic Constant Matrix: (Units=GPa)
#
#
# Indices 1 2 3 4 5 6 
#
# 1 50.6544 18.6790 13.6815 0.0000 23.2783 0.0000
# 2 18.6790 188.1474 7.7538 0.0000 -4.0624 0.0000
# 3 13.6815 7.7538 40.4160 0.0000 22.1116 0.0000
# 4 0.0000 0.0000 0.0000 -8.1594 0.0000 12.4510
# 5 23.2783 -4.0624 22.1116 0.0000 39.1836 0.0000
# 6 0.0000 0.0000 0.0000 12.4510 0.0000 8.3412
#
#
#
# Elastic Compliance Matrix: (Units=1/GPa)
#
#
# Indices 1 2 3 4 5 6 
#
# 1 0.029034 -0.003295 0.000618 0.000000 -0.017939 0.000000
# 2 -0.003295 0.005805 -0.002023 0.000000 0.003701 0.000000
# 3 0.000618 -0.002023 0.036509 0.000000 -0.021179 0.000000
# 4 0.000000 0.000000 0.000000 -0.037390 0.000000 0.055812
# 5 -0.017939 0.003701 -0.021179 0.000000 0.048513 0.000000
# 6 0.000000 0.000000 0.000000 0.055812 0.000000 0.036575
#
#
# Mechanical properties :
#
#
# Convention : Reuss Voigt Hill
#
# Bulk Modulus (GPa) = 16.14277 39.93849 28.04063
# Shear Modulus (GPa) = 33.53542 23.81330 28.67436
#
# Velocity S-wave (km/s) = 4.01214 3.38091 3.70998
# Velocity P-wave (km/s) = 5.40478 5.86614 5.64018
#
# Compressibility (1/GPa) = 0.06194722
#
# Stress axis : x y z
#
# Youngs Moduli (GPa) = 34.44281 172.25266 27.39070
#
# Poissons Ratio (x) = 0.56761 -0.01693
# Poissons Ratio (y) = 0.11350 0.05542
# Poissons Ratio (z) = -0.02129 0.34851
#
# Static dielectric constant tensor:
#      x y z
#    x 1.764600 0.000000 0.007450 
#    y 0.000000 1.839000 0.000000 
#    z 0.007450 0.000000 1.776120 
# 
# From -- ./inp_files/232386.got.cif
#   From: 2010.05.17/outbox.cif.g08.bks.cpg/sg12_117_cif.got.tgz:232386.got - 2010.06.03 13:09:07.
