data_PCOD9184854
_publ_section_title
;
Structure prediction by ZEFSAII (Michael W. Deem and Ramdas Pophale) SiO2 
 PCOD9184854
Probable space group: C 2/M
;
_chemical_formula_sum "Si O2"
_cell_formula_units_Z 48
_cell_length_a 11.839404
_cell_length_b 14.261768
_cell_length_c 19.337224
_cell_angle_alpha 90.000000
_cell_angle_beta 123.315573
_cell_angle_gamma 90.000000
_cell_volume 2728.512615
_symmetry_space_group_name_H-M "C 2/M"
_symmetry_group_IT_number 12
_symmetry_cell_setting 'monoclinic'
loop_
_space_group_symop_operation_xyz
x,y,z
-x,y,-z
-x,-y,-z
x,-y,z
1/2+x,1/2+y,z
1/2-x,1/2+y,-z
1/2-x,1/2-y,-z
1/2+x,1/2-y,z
loop_
_atom_site_type_symbol
_atom_site_label
_atom_site_fract_x
_atom_site_fract_y
_atom_site_fract_z
Si Si1 0.802916 0.392186 0.556659
Si Si2 0.038381 0.215390 0.432060
Si Si3 0.203499 0.654092 0.019222
Si Si4 0.494667 0.601032 0.081723
Si Si5 0.222759 0.891681 0.691248
Si Si6 0.081240 0.313183 0.128331
O O1 0.830504 0.500000 0.547066
O O2 0.919679 0.317863 0.579676
O O3 0.669385 0.352393 0.473109
O O4 0.770791 0.388826 0.627646
O O5 0.000000 0.221171 0.500000
O O6 0.912710 0.170052 0.350243
O O7 0.338985 0.595987 0.053898
O O8 0.165557 0.669192 0.086360
O O9 0.250000 0.750000 0.000000
O O10 0.061873 0.633701 0.932884
O O11 0.559720 0.500000 0.122828
O O12 0.555046 0.700787 0.126960
O O13 0.500000 0.607686 0.000000
O O14 0.337461 0.852490 0.779895
O O15 0.193176 0.000000 0.698294
#
# Coordination Sequence:
#
# PCOD9184854 Si02
#       6
#     8   8   8   8   8   8
#     4   9  18  35  56  80 107 139 177 212 258 315
#     4   9  18  34  57  80 106 140 174 216 259 308
#     4   9  17  34  52  72 100 138 173 223 263 309
#     4  10  19  34  55  76  98 136 180 216 266 323
#     4  10  21  35  53  78 106 140 176 216 265 316
#     4  10  19  34  55  76 107 136 179 223 267 313
#
# _framework density 17.592002999999998
#
# number of rings (size 3 to 8) (size 9 to 14) (size 15 to 20)
#    0.000    2.500    3.333    0.500    0.000    6.333 
#    0.000    2.500    0.000    4.000    0.000    0.000 
#    0.000    0.000    0.000    0.000    0.000    0.000 
#
# Total GULP energy -133620.650665 kJ/mol
# GULP energy per Si atom -5567.527111 kJ/mol
# Density = 1.755196 g / cm^3
# Si number density = 17.592003 Si / 1000 Ang^3
#
#
#
# Elastic Constant Matrix: (Units=GPa)
#
#
# Indices 1 2 3 4 5 6 
#
# 1 74.5207 34.3914 17.0401 0.0000 16.8767 0.0000
# 2 34.3914 148.6616 37.6750 0.0000 14.1935 0.0000
# 3 17.0401 37.6750 80.9484 0.0000 13.4396 0.0000
# 4 0.0000 0.0000 0.0000 25.2476 0.0000 -6.5353
# 5 16.8767 14.1935 13.4396 0.0000 11.7228 0.0000
# 6 0.0000 0.0000 0.0000 -6.5353 0.0000 31.3657
#
#
#
# Elastic Compliance Matrix: (Units=1/GPa)
#
#
# Indices 1 2 3 4 5 6 
#
# 1 0.020659 -0.002441 0.001525 0.000000 -0.028534 0.000000
# 2 -0.002441 0.008321 -0.002803 0.000000 -0.003347 0.000000
# 3 0.001525 -0.002803 0.016227 0.000000 -0.017404 0.000000
# 4 0.000000 0.000000 0.000000 0.041866 0.000000 0.008723
# 5 -0.028534 -0.003347 -0.017404 0.000000 0.150388 0.000000
# 6 0.000000 0.000000 0.000000 0.008723 0.000000 0.033700
#
#
# Mechanical properties :
#
#
# Convention : Reuss Voigt Hill
#
# Bulk Modulus (GPa) = 26.47774 53.59375 40.03574
# Shear Modulus (GPa) = 17.17093 28.00216 22.58655
#
# Velocity S-wave (km/s) = 3.12759 3.99401 3.58706
# Velocity P-wave (km/s) = 5.30341 7.19725 6.32165
#
# Compressibility (1/GPa) = 0.03776757
#
# Stress axis : x y z
#
# Youngs Moduli (GPa) = 48.40433 120.17108 61.62615
#
# Poissons Ratio (x) = 0.29339 -0.09397
# Poissons Ratio (y) = 0.11818 0.17276
# Poissons Ratio (z) = -0.07381 0.33689
#
# Static dielectric constant tensor:
#      x y z
#    x 1.603990 0.000000 0.017150 
#    y 0.000000 1.576800 0.000000 
#    z 0.017150 0.000000 1.570420 
# 
# From -- ./inp_files/305186.got.cif
#   From: 2010.05.17/outbox.cif.g08.bks.cpg/sg12_153_cif.got.tgz:305186.got - 2010.06.03 13:09:07.
