data_PCOD9184226
_publ_section_title
;
Structure prediction by ZEFSAII (Michael W. Deem and Ramdas Pophale) SiO2 
 PCOD9184226
Probable space group: C 2/M
;
_chemical_formula_sum "Si O2"
_cell_formula_units_Z 64
_cell_length_a 27.371697
_cell_length_b 17.314045
_cell_length_c 9.402875
_cell_angle_alpha 90.000000
_cell_angle_beta 127.634292
_cell_angle_gamma 90.000000
_cell_volume 3528.942737
_symmetry_space_group_name_H-M "C 2/M"
_symmetry_group_IT_number 12
_symmetry_cell_setting 'monoclinic'
loop_
_space_group_symop_operation_xyz
x,y,z
-x,y,-z
-x,-y,-z
x,-y,z
1/2+x,1/2+y,z
1/2-x,1/2+y,-z
1/2-x,1/2-y,-z
1/2+x,1/2-y,z
loop_
_atom_site_type_symbol
_atom_site_label
_atom_site_fract_x
_atom_site_fract_y
_atom_site_fract_z
Si Si1 0.371295 0.307203 0.092597
Si Si2 0.951716 0.583805 0.044542
Si Si3 0.437092 0.775508 0.470007
Si Si4 0.756976 0.705795 0.777010
Si Si5 0.725999 0.412691 0.972226
Si Si6 0.485625 0.745285 0.141564
Si Si7 0.823816 0.642004 0.371412
Si Si8 0.186024 0.413488 0.328064
O O1 0.398837 0.275676 0.289779
O O2 0.336014 0.386913 0.056669
O O3 0.427841 0.306765 0.083704
O O4 0.318829 0.248731 0.942007
O O5 0.042925 0.500000 0.870386
O O6 0.966536 0.665417 0.142551
O O7 0.882162 0.590041 0.862375
O O8 0.000000 0.581016 0.000000
O O9 0.500000 0.796533 0.500000
O O10 0.457537 0.731361 0.650657
O O11 0.392928 0.845023 0.438646
O O12 0.735611 0.648287 0.863189
O O13 0.707026 0.772930 0.664437
O O14 0.773284 0.653435 0.670570
O O15 0.723827 0.500000 0.917220
O O16 0.782482 0.401009 0.181552
O O17 0.500000 0.739837 0.000000
O O18 0.821449 0.600461 0.518032
O O19 0.210525 0.500000 0.344982
#
# Coordination Sequence:
#
# PCOD9184226 Si02
#       8
#     8   8   8   8   8   8   8   8
#     4  10  19  38  56  83 110 143 192 232 273 334
#     4   9  17  30  47  72 112 150 178 214 263 321
#     4  10  20  34  58  82 112 143 189 233 268 322
#     4  11  20  37  58  78 111 148 191 230 272 332
#     4  11  22  38  60  81 112 150 183 236 290 332
#     4  10  19  33  58  83 110 146 193 227 276 330
#     4  11  20  37  57  84 113 143 188 231 278 333
#     4  11  22  34  52  82 117 147 184 230 274 325
#
# _framework density 18.135743999999999
#
# number of rings (size 3 to 8) (size 9 to 14) (size 15 to 20)
#    0.000    1.625    3.750    3.375    0.000    0.000 
#    0.000    0.625    0.000    6.375    0.000    0.000 
#    0.000    0.000    0.000    0.000    0.000    0.000 
#
# Total GULP energy -178504.182118 kJ/mol
# GULP energy per Si atom -5578.255691 kJ/mol
# Density = 1.809447 g / cm^3
# Si number density = 18.135744 Si / 1000 Ang^3
#
#
#
# Elastic Constant Matrix: (Units=GPa)
#
#
# Indices 1 2 3 4 5 6 
#
# 1 59.9102 -1.6535 21.8021 0.0000 2.0650 0.0000
# 2 -1.6535 52.3499 0.1643 0.0000 3.0059 0.0000
# 3 21.8021 0.1643 56.4604 0.0000 -8.3331 0.0000
# 4 0.0000 0.0000 0.0000 41.9865 0.0000 -28.2172
# 5 2.0650 3.0059 -8.3331 0.0000 27.6290 0.0000
# 6 0.0000 0.0000 0.0000 -28.2172 0.0000 25.8460
#
#
#
# Elastic Compliance Matrix: (Units=1/GPa)
#
#
# Indices 1 2 3 4 5 6 
#
# 1 0.019869 0.000888 -0.008277 0.000000 -0.004078 0.000000
# 2 0.000888 0.019270 -0.000752 0.000000 -0.002389 0.000000
# 3 -0.008277 -0.000752 0.021992 0.000000 0.007333 0.000000
# 4 0.000000 0.000000 0.000000 0.089441 0.000000 0.097647
# 5 -0.004078 -0.002389 0.007333 0.000000 0.038970 0.000000
# 6 0.000000 0.000000 0.000000 0.097647 0.000000 0.145296
#
#
# Mechanical properties :
#
#
# Convention : Reuss Voigt Hill
#
# Bulk Modulus (GPa) = 22.29676 23.26069 22.77873
# Shear Modulus (GPa) = 13.65862 28.98613 21.32237
#
# Velocity S-wave (km/s) = 2.74730 4.00220 3.43258
# Velocity P-wave (km/s) = 4.73124 5.84897 5.31954
#
# Compressibility (1/GPa) = 0.04484956
#
# Stress axis : x y z
#
# Youngs Moduli (GPa) = 50.33031 51.89461 45.47081
#
# Poissons Ratio (x) = -0.04607 0.37635
# Poissons Ratio (y) = -0.04468 0.03417
# Poissons Ratio (z) = 0.41657 0.03900
#
# Static dielectric constant tensor:
#      x y z
#    x 1.643690 0.000000 -0.001100 
#    y 0.000000 1.616910 0.000000 
#    z -0.001100 0.000000 1.623810 
# 
# From -- ./inp_files/112022.got.cif
#   From: 2010.05.17/outbox.cif.g08.bks.cpg/sg12_57_cif.got.tgz:112022.got - 2010.06.03 13:09:07.
