data_PCOD9185033
_publ_section_title
;
Structure prediction by ZEFSAII (Michael W. Deem and Ramdas Pophale) SiO2 
 PCOD9185033
Probable space group: C 2/M
;
_chemical_formula_sum "Si O2"
_cell_formula_units_Z 56
_cell_length_a 27.236063
_cell_length_b 10.325537
_cell_length_c 28.513393
_cell_angle_alpha 90.000000
_cell_angle_beta 20.904635
_cell_angle_gamma 90.000000
_cell_volume 2861.193580
_symmetry_space_group_name_H-M "C 2/M"
_symmetry_group_IT_number 12
_symmetry_cell_setting 'monoclinic'
loop_
_space_group_symop_operation_xyz
x,y,z
-x,y,-z
-x,-y,-z
x,-y,z
1/2+x,1/2+y,z
1/2-x,1/2+y,-z
1/2-x,1/2-y,-z
1/2+x,1/2-y,z
loop_
_atom_site_type_symbol
_atom_site_label
_atom_site_fract_x
_atom_site_fract_y
_atom_site_fract_z
Si Si1 0.765057 0.652863 0.891575
Si Si2 0.962443 0.142546 0.156546
Si Si3 0.951662 0.352793 0.317692
Si Si4 0.246484 0.778080 0.579957
Si Si5 0.713012 0.344165 0.215222
Si Si6 0.164378 0.345847 0.796481
Si Si7 0.410751 0.350236 0.512002
O O1 0.789250 0.500000 0.857212
O O2 0.762685 0.751204 0.850179
O O3 0.893133 0.691051 0.810038
O O4 0.610336 0.659327 0.049511
O O5 0.840080 0.146947 0.303521
O O6 0.939937 0.255522 0.138679
O O7 0.963445 0.000000 0.132965
O O8 0.957449 0.500000 0.295790
O O9 0.865792 0.273231 0.356507
O O10 0.863671 0.346730 0.444536
O O11 0.326290 0.670019 0.539219
O O12 0.707971 0.500000 0.208292
O O13 0.822002 0.329283 0.160104
O O14 0.563655 0.299682 0.368216
O O15 0.142352 0.500000 0.806773
O O16 0.311637 0.304793 0.642050
O O17 0.431194 0.500000 0.503915
#
# Coordination Sequence:
#
# PCOD9185033 Si02
#       7
#     8   8   8   8   8   8   8
#     4  10  22  39  55  78 115 152 183 222 276 324
#     4  10  22  39  57  79 112 149 184 225 272 328
#     4  10  20  35  56  82 110 142 181 225 274 327
#     4  10  19  34  58  82 107 139 183 227 269 322
#     4  10  19  34  55  82 112 145 186 229 272 324
#     4   9  19  34  56  82 111 144 183 230 277 324
#     4   9  16  30  53  81 111 141 176 223 278 326
#
# _framework density 19.572251000000001
#
# number of rings (size 3 to 8) (size 9 to 14) (size 15 to 20)
#    0.000    2.286    1.429    1.286    0.000    4.571 
#    0.000    3.571    0.000    2.571    0.000    0.000 
#    0.000    0.000    0.000    0.000    0.000    0.000 
#
# Total GULP energy -155950.447490 kJ/mol
# GULP energy per Si atom -5569.658839 kJ/mol
# Density = 1.952770 g / cm^3
# Si number density = 19.572251 Si / 1000 Ang^3
#
#
#
# Elastic Constant Matrix: (Units=GPa)
#
#
# Indices 1 2 3 4 5 6 
#
# 1 61.6638 18.2598 4.7042 0.0013 -12.8345 0.0002
# 2 18.2598 41.4878 7.3500 0.0038 -7.2408 -0.0005
# 3 4.7042 7.3500 69.6139 0.0030 -27.4550 -0.0009
# 4 0.0013 0.0038 0.0030 22.3969 -0.0010 -2.8135
# 5 -12.8345 -7.2408 -27.4550 -0.0010 23.1257 -0.0002
# 6 0.0002 -0.0005 -0.0009 -2.8135 -0.0002 16.4589
#
#
#
# Elastic Compliance Matrix: (Units=1/GPa)
#
#
# Indices 1 2 3 4 5 6 
#
# 1 0.021449 -0.007602 0.005847 0.000000 0.016465 0.000000
# 2 -0.007602 0.028219 -0.001213 -0.000004 0.003176 0.000000
# 3 0.005847 -0.001213 0.028636 -0.000002 0.036862 0.000002
# 4 0.000000 -0.000004 -0.000002 0.045629 -0.000002 0.007800
# 5 0.016465 0.003176 0.036862 -0.000002 0.097138 0.000003
# 6 0.000000 0.000000 0.000002 0.007800 0.000003 0.062091
#
#
# Mechanical properties :
#
#
# Convention : Reuss Voigt Hill
#
# Bulk Modulus (GPa) = 13.81849 25.93261 19.87555
# Shear Modulus (GPa) = 15.96320 21.89306 18.92813
#
# Velocity S-wave (km/s) = 2.85898 3.34814 3.11318
# Velocity P-wave (km/s) = 4.23956 5.31274 4.80620
#
# Compressibility (1/GPa) = 0.07236683
#
# Stress axis : x y z
#
# Youngs Moduli (GPa) = 46.62195 35.43751 34.92113
#
# Poissons Ratio (x) = 0.26941 -0.20418
# Poissons Ratio (y) = 0.35444 0.04236
# Poissons Ratio (z) = -0.27260 0.04298
#
# Static dielectric constant tensor:
#      x y z
#    x 1.667920 0.000000 -0.001550 
#    y 0.000000 1.683250 0.000000 
#    z -0.001550 0.000000 1.748630 
# 
# From -- ./inp_files/383817.got.cif
#   From: 2010.05.17/outbox.cif.g08.bks.cpg/sg12_192_cif.got.tgz:383817.got - 2010.06.03 13:09:07.
