data_PCOD9185669
_publ_section_title
;
Structure prediction by ZEFSAII (Michael W. Deem and Ramdas Pophale) SiO2 
 PCOD9185669
Probable space group: C 2/M
;
_chemical_formula_sum "Si O2"
_cell_formula_units_Z 50
_cell_length_a 20.432484
_cell_length_b 7.393333
_cell_length_c 18.455059
_cell_angle_alpha 90.000000
_cell_angle_beta 126.878844
_cell_angle_gamma 90.000000
_cell_volume 2230.057148
_symmetry_space_group_name_H-M "C 2/M"
_symmetry_group_IT_number 12
_symmetry_cell_setting 'monoclinic'
loop_
_space_group_symop_operation_xyz
x,y,z
-x,y,-z
-x,-y,-z
x,-y,z
1/2+x,1/2+y,z
1/2-x,1/2+y,-z
1/2-x,1/2-y,-z
1/2+x,1/2-y,z
loop_
_atom_site_type_symbol
_atom_site_label
_atom_site_fract_x
_atom_site_fract_y
_atom_site_fract_z
Si Si1 0.375897 0.781663 0.419426
Si Si2 0.784810 0.215068 0.603078
Si Si3 0.500000 0.500000 0.500000
Si Si4 0.232094 0.784341 0.071762
Si Si5 0.466970 0.284406 0.754993
Si Si6 0.389266 0.783379 0.262312
Si Si7 0.452304 0.721314 0.040435
O O1 0.285923 0.730690 0.387674
O O2 0.443991 0.660400 0.502630
O O3 0.387243 0.720109 0.343582
O O4 0.387254 0.000000 0.434659
O O5 0.750000 0.250000 0.500000
O O6 0.876091 0.288039 0.677464
O O7 0.790850 0.000000 0.614896
O O8 0.308233 0.712988 0.168175
O O9 0.230118 0.000000 0.082578
O O10 0.250000 0.750000 0.000000
O O11 0.141361 0.716262 0.027331
O O12 0.459649 0.500000 0.758669
O O13 0.531247 0.255187 0.732904
O O14 0.505732 0.217445 0.856637
O O15 0.383445 0.000000 0.262971
O O16 0.451507 0.500000 0.042003
O O17 0.500000 0.775032 0.000000
#
# Coordination Sequence:
#
# PCOD9185669 Si02
#       7
#     8   8   2   8   8   8   8
#     4  10  25  45  66  99 131 168 211 268 330 386
#     4  10  24  42  63  88 125 163 208 264 322 380
#     4  12  26  44  76  94 128 162 226 272 320 398
#     4  10  19  34  57  85 119 160 203 254 309 367
#     4  10  21  37  61  89 118 160 213 261 310 377
#     4  10  22  38  59  87 126 166 205 258 324 382
#     4   9  18  32  56  87 117 156 208 258 307 371
#
# _framework density 22.420950000000001
#
# number of rings (size 3 to 8) (size 9 to 14) (size 15 to 20)
#    0.000    2.080    1.600    0.240    6.720    0.640 
#    0.000    0.000    0.000    1.920    0.000    0.000 
#    0.000    0.000    0.000    0.000    0.000    0.000 
#
# Total GULP energy -139424.340489 kJ/mol
# GULP energy per Si atom -5576.973620 kJ/mol
# Density = 2.236992 g / cm^3
# Si number density = 22.420950 Si / 1000 Ang^3
#
#
#
# Elastic Constant Matrix: (Units=GPa)
#
#
# Indices 1 2 3 4 5 6 
#
# 1 245.8455 14.8775 108.6927 0.0000 19.9784 0.0000
# 2 14.8775 90.4780 6.7723 0.0000 8.8205 0.0000
# 3 108.6927 6.7723 143.4063 0.0000 12.4001 0.0000
# 4 0.0000 0.0000 0.0000 4.7926 0.0000 -3.5625
# 5 19.9784 8.8205 12.4001 0.0000 46.9111 0.0000
# 6 0.0000 0.0000 0.0000 -3.5625 0.0000 20.2371
#
#
#
# Elastic Compliance Matrix: (Units=1/GPa)
#
#
# Indices 1 2 3 4 5 6 
#
# 1 0.006237 -0.000552 -0.004585 0.000000 -0.001340 0.000000
# 2 -0.000552 0.011325 0.000048 0.000000 -0.001907 0.000000
# 3 -0.004585 0.000048 0.010519 0.000000 -0.000837 0.000000
# 4 0.000000 0.000000 0.000000 0.240069 0.000000 0.042261
# 5 -0.001340 -0.001907 -0.000837 0.000000 0.022468 0.000000
# 6 0.000000 0.000000 0.000000 0.042261 0.000000 0.056854
#
#
# Mechanical properties :
#
#
# Convention : Reuss Voigt Hill
#
# Bulk Modulus (GPa) = 55.85477 82.26833 69.06155
# Shear Modulus (GPa) = 13.75071 37.68066 25.71568
#
# Velocity S-wave (km/s) = 2.47917 4.10396 3.39034
# Velocity P-wave (km/s) = 5.75856 7.69603 6.79669
#
# Compressibility (1/GPa) = 0.01790357
#
# Stress axis : x y z
#
# Youngs Moduli (GPa) = 160.32773 88.29669 95.06846
#
# Poissons Ratio (x) = 0.04871 0.43593
# Poissons Ratio (y) = 0.08845 -0.00458
# Poissons Ratio (z) = 0.73517 -0.00426
#
# Static dielectric constant tensor:
#      x y z
#    x 1.808070 0.000000 0.048170 
#    y 0.000000 1.890910 0.000000 
#    z 0.048170 0.000000 1.951420 
# 
# From -- ./inp_files/275744.got.cif
#   From: 2010.05.17/outbox.cif.g08.bks.cpg/sg12_138_cif.got.tgz:275744.got - 2010.06.03 13:09:07.
