data_PCOD9185436
_publ_section_title
;
Structure prediction by ZEFSAII (Michael W. Deem and Ramdas Pophale) SiO2 
 PCOD9185436
Probable space group: C 2/M
;
_chemical_formula_sum "Si O2"
_cell_formula_units_Z 48
_cell_length_a 26.582356
_cell_length_b 7.430664
_cell_length_c 17.982147
_cell_angle_alpha 90.000000
_cell_angle_beta 32.838814
_cell_angle_gamma 90.000000
_cell_volume 1926.123956
_symmetry_space_group_name_H-M "C 2/M"
_symmetry_group_IT_number 12
_symmetry_cell_setting 'monoclinic'
loop_
_space_group_symop_operation_xyz
x,y,z
-x,y,-z
-x,-y,-z
x,-y,z
1/2+x,1/2+y,z
1/2-x,1/2+y,-z
1/2-x,1/2-y,-z
1/2+x,1/2-y,z
loop_
_atom_site_type_symbol
_atom_site_label
_atom_site_fract_x
_atom_site_fract_y
_atom_site_fract_z
Si Si1 0.017847 0.717487 0.063097
Si Si2 0.478841 0.719915 0.697011
Si Si3 0.820696 0.285254 0.345644
Si Si4 0.639989 0.704614 0.289583
Si Si5 0.677389 0.720258 0.407418
Si Si6 0.837622 0.206874 0.997323
O O1 0.024986 0.500000 0.055532
O O2 0.925873 0.780725 0.221789
O O3 0.109886 0.784139 0.988959
O O4 0.000000 0.769732 0.000000
O O5 0.476694 0.500000 0.700486
O O6 0.436241 0.782000 0.671197
O O7 0.586184 0.771235 0.567851
O O8 0.411004 0.781776 0.846631
O O9 0.829158 0.500000 0.328160
O O10 0.750000 0.250000 0.500000
O O11 0.769696 0.218412 0.334345
O O12 0.609743 0.500000 0.341788
O O13 0.660848 0.785536 0.344222
O O14 0.738151 0.701913 0.125059
O O15 0.682323 0.500000 0.398999
O O16 0.819107 0.000000 0.001133
#
# Coordination Sequence:
#
# PCOD9185436 Si02
#       6
#     8   8   8   8   8   8
#     4  10  21  38  58  79 104 139 184 224 257 304
#     4   9  18  32  53  81 108 137 176 218 260 309
#     4  10  20  34  54  79 107 138 172 215 265 314
#     4  10  19  34  57  80 104 138 179 221 260 305
#     4   9  17  32  55  80 103 132 176 223 259 299
#     4  11  22  35  53  79 111 142 172 215 270 321
#
# _framework density 24.920513
#
# number of rings (size 3 to 8) (size 9 to 14) (size 15 to 20)
#    0.000    2.167    0.000    3.500    0.000    7.000 
#    0.000    3.333    0.000    5.000    0.000    0.000 
#    0.000    0.000    0.000    0.000    0.000    0.000 
#
# Total GULP energy -134263.632650 kJ/mol
# GULP energy per Si atom -5594.318027 kJ/mol
# Density = 2.486379 g / cm^3
# Si number density = 24.920513 Si / 1000 Ang^3
#
#
#
# Elastic Constant Matrix: (Units=GPa)
#
#
# Indices 1 2 3 4 5 6 
#
# 1 79.4474 -5.9209 -12.6645 0.0166 -11.9399 -0.0021
# 2 -5.9209 81.8953 -1.8301 0.0207 -2.3838 -0.0077
# 3 -12.6645 -1.8301 69.8262 0.0531 -10.8094 -0.0168
# 4 0.0166 0.0207 0.0531 15.4757 -0.0110 -1.2875
# 5 -11.9399 -2.3838 -10.8094 -0.0110 50.3370 0.0011
# 6 -0.0021 -0.0077 -0.0168 -1.2875 0.0011 -4.1489
#
#
#
# Elastic Compliance Matrix: (Units=1/GPa)
#
#
# Indices 1 2 3 4 5 6 
#
# 1 0.013778 0.001183 0.003149 -0.000025 0.004001 -0.000013
# 2 0.001183 0.012341 0.000695 -0.000021 0.001014 -0.000019
# 3 0.003149 0.000695 0.015548 -0.000059 0.004119 -0.000047
# 4 -0.000025 -0.000021 -0.000059 0.062991 -0.000005 -0.019547
# 5 0.004001 0.001014 0.004119 -0.000005 0.021748 -0.000013
# 6 -0.000013 -0.000019 -0.000047 -0.019547 -0.000013 -0.234959
#
#
# Mechanical properties :
#
#
# Convention : Reuss Voigt Hill
#
# Bulk Modulus (GPa) = 19.33385 21.14864 20.24125
# Shear Modulus (GPa) = -49.32620 29.10504 -10.11058
#
# Velocity S-wave (km/s) = -4.45381 3.42118 -2.01642
# Velocity P-wave (km/s) = 4.32128 4.91028 1.64885
#
# Compressibility (1/GPa) = 0.05172275
#
# Stress axis : x y z
#
# Youngs Moduli (GPa) = 72.57750 81.02870 64.31558
#
# Poissons Ratio (x) = -0.09586 -0.20255
# Poissons Ratio (y) = -0.08586 -0.04470
# Poissons Ratio (z) = -0.22857 -0.05632
#
# Static dielectric constant tensor:
#      x y z
#    x 1.935860 -0.000010 0.032700 
#    y -0.000010 2.004250 0.000020 
#    z 0.032700 0.000020 1.990180 
# 
# From -- ./inp_files/229839.got.cif
#   From: 2010.05.17/outbox.cif.g08.bks.cpg/sg12_115_cif.got.tgz:229839.got - 2010.06.03 13:09:07.
