data_PCOD9185715
_publ_section_title
;
Structure prediction by ZEFSAII (Michael W. Deem and Ramdas Pophale) SiO2 
 PCOD9185715
Probable space group: C 2/M
;
_chemical_formula_sum "Si O2"
_cell_formula_units_Z 40
_cell_length_a 10.919874
_cell_length_b 22.622073
_cell_length_c 20.255069
_cell_angle_alpha 90.000000
_cell_angle_beta 154.672981
_cell_angle_gamma 90.000000
_cell_volume 2140.466561
_symmetry_space_group_name_H-M "C 2/M"
_symmetry_group_IT_number 12
_symmetry_cell_setting 'monoclinic'
loop_
_space_group_symop_operation_xyz
x,y,z
-x,y,-z
-x,-y,-z
x,-y,z
1/2+x,1/2+y,z
1/2-x,1/2+y,-z
1/2-x,1/2-y,-z
1/2+x,1/2-y,z
loop_
_atom_site_type_symbol
_atom_site_label
_atom_site_fract_x
_atom_site_fract_y
_atom_site_fract_z
Si Si1 0.067019 0.000000 0.377536
Si Si2 0.260099 0.119999 0.753113
Si Si3 0.500000 0.896537 0.000000
Si Si4 0.830961 0.625474 0.168147
Si Si5 0.643379 0.000000 0.743580
Si Si6 0.690591 0.293313 0.532086
Si Si7 0.083840 0.000000 0.840775
O O1 0.354888 0.000000 0.559539
O O2 0.873525 0.055857 0.300946
O O3 0.113065 0.000000 0.321017
O O4 0.348581 0.140779 0.869279
O O5 0.527837 0.119697 0.834978
O O6 0.016340 0.157157 0.599016
O O7 0.719862 0.941666 0.071205
O O8 0.849325 0.560567 0.210967
O O9 0.025850 0.673491 0.302310
O O10 0.500000 0.642683 0.000000
O O11 0.908151 0.000000 0.821991
O O12 0.500000 0.266888 0.500000
O O13 0.750000 0.250000 0.500000
#
# Coordination Sequence:
#
# PCOD9185715 Si02
#       7
#     4   8   4   8   4   8   4
#     4  10  19  34  57  88 120 166 195 230 305 360
#     4  10  20  39  62  85 121 158 199 241 298 368
#     4   9  18  36  56  82 118 164 194 229 306 344
#     4  11  23  38  62  93 124 152 199 248 300 362
#     4  12  20  33  57  93 128 155 195 237 309 357
#     4  10  23  47  64  86 119 158 206 256 302 357
#     4   9  19  31  49  84 135 154 186 245 276 367
#
# _framework density 18.687514
#
# number of rings (size 3 to 8) (size 9 to 14) (size 15 to 20)
#    0.000    1.800    2.000    3.000    0.000    0.800 
#   12.600    2.000    0.000    0.000    0.000    0.000 
#    0.000    0.000    0.000    0.000    0.000    0.000 
#
# Total GULP energy -111608.149279 kJ/mol
# GULP energy per Si atom -5580.407464 kJ/mol
# Density = 1.864498 g / cm^3
# Si number density = 18.687514 Si / 1000 Ang^3
#
#
#
# Elastic Constant Matrix: (Units=GPa)
#
#
# Indices 1 2 3 4 5 6 
#
# 1 111.7950 43.1163 41.0251 -0.0212 3.4527 0.0006
# 2 43.1163 41.8872 9.2528 -0.0124 5.7270 0.0003
# 3 41.0251 9.2528 127.1845 0.0098 1.0093 -0.0112
# 4 -0.0212 -0.0124 0.0098 0.4115 -0.0102 -7.9723
# 5 3.4527 5.7270 1.0093 -0.0102 32.4627 0.0047
# 6 0.0006 0.0003 -0.0112 -7.9723 0.0047 30.2518
#
#
#
# Elastic Compliance Matrix: (Units=1/GPa)
#
#
# Indices 1 2 3 4 5 6 
#
# 1 0.016862 -0.016593 -0.004242 -0.000114 0.001266 -0.000032
# 2 -0.016593 0.041185 0.002400 -0.000053 -0.005576 -0.000012
# 3 -0.004242 0.002400 0.009058 0.000074 -0.000254 0.000023
# 4 -0.000114 -0.000053 0.000074 -0.591900 -0.000143 -0.155985
# 5 0.001266 -0.005576 -0.000254 -0.000143 0.031661 -0.000043
# 6 -0.000032 -0.000012 0.000023 -0.155985 -0.000043 -0.008051
#
#
# Mechanical properties :
#
#
# Convention : Reuss Voigt Hill
#
# Bulk Modulus (GPa) = 33.07251 51.96166 42.51709
# Shear Modulus (GPa) = -11.00748 25.12336 7.05794
#
# Velocity S-wave (km/s) = -2.42962 3.67057 1.94551
# Velocity P-wave (km/s) = 3.14091 6.76979 5.27709
#
# Compressibility (1/GPa) = 0.03023659
#
# Stress axis : x y z
#
# Youngs Moduli (GPa) = 59.30569 24.28054 110.39627
#
# Poissons Ratio (x) = 0.40288 0.46829
# Poissons Ratio (y) = 0.98404 -0.26497
# Poissons Ratio (z) = 0.25157 -0.05828
#
# Static dielectric constant tensor:
#      x y z
#    x 1.654500 0.000000 -0.025300 
#    y 0.000000 1.623270 -0.000010 
#    z -0.025300 -0.000010 1.678260 
# 
# From -- ./inp_files/48561.got.cif
#   From: 2010.05.17/outbox.cif.g08.bks.cpg/sg12_25_cif.got.tgz:48561.got - 2010.06.03 13:09:07.
