data_PCOD9185411
_publ_section_title
;
Structure prediction by ZEFSAII (Michael W. Deem and Ramdas Pophale) SiO2 
 PCOD9185411
Probable space group: C 2/M
;
_chemical_formula_sum "Si O2"
_cell_formula_units_Z 64
_cell_length_a 21.369255
_cell_length_b 7.492812
_cell_length_c 16.119148
_cell_angle_alpha 90.000000
_cell_angle_beta 93.998065
_cell_angle_gamma 90.000000
_cell_volume 2574.649505
_symmetry_space_group_name_H-M "C 2/M"
_symmetry_group_IT_number 12
_symmetry_cell_setting 'monoclinic'
loop_
_space_group_symop_operation_xyz
x,y,z
-x,y,-z
-x,-y,-z
x,-y,z
1/2+x,1/2+y,z
1/2-x,1/2+y,-z
1/2-x,1/2-y,-z
1/2+x,1/2-y,z
loop_
_atom_site_type_symbol
_atom_site_label
_atom_site_fract_x
_atom_site_fract_y
_atom_site_fract_z
Si Si1 0.203140 0.794215 0.873131
Si Si2 0.927046 0.294245 0.218272
Si Si3 0.882848 0.797432 0.701926
Si Si4 0.937461 0.286991 0.544100
Si Si5 0.739266 0.713454 0.401521
Si Si6 0.628060 0.218510 0.622908
Si Si7 0.165787 0.718174 0.057919
Si Si8 0.955466 0.299959 0.866789
O O1 0.144141 0.705329 0.822359
O O2 0.275549 0.726862 0.876935
O O3 0.203535 0.000000 0.847067
O O4 0.184521 0.781196 0.968423
O O5 0.947790 0.500000 0.230435
O O6 0.918574 0.217274 0.309929
O O7 0.978940 0.216490 0.159711
O O8 0.932415 0.801191 0.631805
O O9 0.822502 0.716921 0.649703
O O10 0.912247 0.694006 0.780527
O O11 0.870518 0.000000 0.728996
O O12 0.932666 0.500000 0.556510
O O13 0.886313 0.226223 0.472391
O O14 0.000000 0.252037 0.500000
O O15 0.734775 0.500000 0.395739
O O16 0.750000 0.750000 0.500000
O O17 0.800441 0.771526 0.356344
O O18 0.624185 0.000000 0.622838
O O19 0.165290 0.500000 0.058472
O O20 0.095470 0.780345 0.074341
O O21 0.970231 0.500000 0.898938
#
# Coordination Sequence:
#
# PCOD9185411 Si02
#       8
#     8   8   8   8   8   8   8   8
#     4  10  21  38  61  90 120 150 185 229 285 341
#     4  10  21  38  61  86 113 149 191 236 281 334
#     4  11  23  35  52  82 116 146 182 234 294 343
#     4  10  19  34  57  77 100 145 197 236 275 331
#     4  10  20  35  53  77 106 142 188 234 284 341
#     4   9  18  33  53  77 106 141 185 232 275 326
#     4   9  20  40  63  87 116 152 192 232 274 332
#     4  10  22  40  61  85 114 151 197 236 275 336
#
# _framework density 24.857751
#
# number of rings (size 3 to 8) (size 9 to 14) (size 15 to 20)
#    0.000    2.125    1.250    1.500    1.750    4.750 
#    0.000    3.750    0.000    0.000    0.000    0.000 
#    0.000    0.000    0.000    0.000    0.000    0.000 
#
# Total GULP energy -178657.817733 kJ/mol
# GULP energy per Si atom -5583.056804 kJ/mol
# Density = 2.480117 g / cm^3
# Si number density = 24.857751 Si / 1000 Ang^3
#
#
#
# Elastic Constant Matrix: (Units=GPa)
#
#
# Indices 1 2 3 4 5 6 
#
# 1 100.5907 4.1363 0.0154 0.0000 -18.9194 0.0000
# 2 4.1363 62.7199 -8.5831 0.0000 -5.2778 0.0000
# 3 0.0154 -8.5831 44.9396 0.0000 -6.5084 0.0000
# 4 0.0000 0.0000 0.0000 12.2700 0.0000 7.0040
# 5 -18.9194 -5.2778 -6.5084 0.0000 43.6655 0.0000
# 6 0.0000 0.0000 0.0000 7.0040 0.0000 15.3320
#
#
#
# Elastic Compliance Matrix: (Units=1/GPa)
#
#
# Indices 1 2 3 4 5 6 
#
# 1 0.010847 -0.000226 0.000644 0.000000 0.004769 0.000000
# 2 -0.000226 0.016648 0.003533 0.000000 0.002441 0.000000
# 3 0.000644 0.003533 0.023537 0.000000 0.004214 0.000000
# 4 0.000000 0.000000 0.000000 0.110249 0.000000 -0.050364
# 5 0.004769 0.002441 0.004214 0.000000 0.025891 0.000000
# 6 0.000000 0.000000 0.000000 -0.050364 0.000000 0.088231
#
#
# Mechanical properties :
#
#
# Convention : Reuss Voigt Hill
#
# Bulk Modulus (GPa) = 16.96819 22.15416 19.56117
# Shear Modulus (GPa) = 17.41277 28.43226 22.92252
#
# Velocity S-wave (km/s) = 2.64956 3.38568 3.03998
# Velocity P-wave (km/s) = 4.02507 4.92092 4.49537
#
# Compressibility (1/GPa) = 0.05893380
#
# Stress axis : x y z
#
# Youngs Moduli (GPa) = 92.18825 60.06835 42.48629
#
# Poissons Ratio (x) = 0.01358 -0.02735
# Poissons Ratio (y) = 0.02084 -0.15011
# Poissons Ratio (z) = -0.05934 -0.21223
#
# Static dielectric constant tensor:
#      x y z
#    x 2.079980 0.000000 0.008790 
#    y 0.000000 1.916980 0.000000 
#    z 0.008790 0.000000 1.945860 
# 
# From -- ./inp_files/281401.got.cif
#   From: 2010.05.17/outbox.cif.g08.bks.cpg/sg12_141_cif.got.tgz:281401.got - 2010.06.03 13:09:07.
