data_PCOD9185066
_publ_section_title
;
Structure prediction by ZEFSAII (Michael W. Deem and Ramdas Pophale) SiO2 
 PCOD9185066
Probable space group: C 2/M
;
_chemical_formula_sum "Si O2"
_cell_formula_units_Z 50
_cell_length_a 29.085613
_cell_length_b 7.492212
_cell_length_c 11.632192
_cell_angle_alpha 90.000000
_cell_angle_beta 118.647610
_cell_angle_gamma 90.000000
_cell_volume 2224.533674
_symmetry_space_group_name_H-M "C 2/M"
_symmetry_group_IT_number 12
_symmetry_cell_setting 'monoclinic'
loop_
_space_group_symop_operation_xyz
x,y,z
-x,y,-z
-x,-y,-z
x,-y,z
1/2+x,1/2+y,z
1/2-x,1/2+y,-z
1/2-x,1/2-y,-z
1/2+x,1/2-y,z
loop_
_atom_site_type_symbol
_atom_site_label
_atom_site_fract_x
_atom_site_fract_y
_atom_site_fract_z
Si Si1 0.187152 0.712525 0.918720
Si Si2 0.967109 0.792390 0.612892
Si Si3 0.048573 0.716100 0.138194
Si Si4 0.255730 0.713346 0.373979
Si Si5 0.500000 0.000000 0.500000
Si Si6 0.848594 0.718370 0.877208
Si Si7 0.641326 0.707242 0.618522
O O1 0.182656 0.500000 0.908210
O O2 0.159199 0.784551 0.771545
O O3 0.250000 0.750000 0.000000
O O4 0.157353 0.775289 0.997770
O O5 0.958216 0.778523 0.738988
O O6 0.009056 0.658170 0.610286
O O7 0.914237 0.717296 0.486730
O O8 0.977200 0.000000 0.597806
O O9 0.049609 0.500000 0.144039
O O10 0.101645 0.776025 0.137741
O O11 0.000000 0.769982 0.000000
O O12 0.257070 0.500000 0.355656
O O13 0.250000 0.750000 0.500000
O O14 0.204873 0.779546 0.246945
O O15 0.310109 0.788214 0.392535
O O16 0.849595 0.500000 0.878412
O O17 0.636337 0.500000 0.578636
#
# Coordination Sequence:
#
# PCOD9185066 Si02
#       7
#     8   8   8   8   2   8   8
#     4  11  21  36  59  90 131 180 223 274 335 408
#     4  11  25  46  72 103 137 177 228 290 348 416
#     4  10  21  41  68 100 135 177 227 290 347 410
#     4  10  19  34  55  83 122 163 206 261 318 392
#     4  12  26  48  74  98 140 180 234 286 350 414
#     4   9  19  36  58  86 126 171 218 264 329 398
#     4  10  22  40  61  91 132 169 212 276 340 399
#
# _framework density 22.47662
#
# number of rings (size 3 to 8) (size 9 to 14) (size 15 to 20)
#    0.000    1.760    2.400    1.680    1.120    2.240 
#    2.880    1.600    0.000    0.000    0.000    0.000 
#    0.000    0.000    0.000    0.000    0.000    0.000 
#
# Total GULP energy -139466.543576 kJ/mol
# GULP energy per Si atom -5578.661743 kJ/mol
# Density = 2.242546 g / cm^3
# Si number density = 22.476620 Si / 1000 Ang^3
#
#
#
# Elastic Constant Matrix: (Units=GPa)
#
#
# Indices 1 2 3 4 5 6 
#
# 1 123.2764 17.3088 53.2859 0.0000 -29.8920 0.0000
# 2 17.3088 103.8108 -3.9277 0.0000 -0.3823 0.0000
# 3 53.2859 -3.9277 129.4449 0.0000 -20.5115 0.0000
# 4 0.0000 0.0000 0.0000 13.1715 0.0000 -20.1773
# 5 -29.8920 -0.3823 -20.5115 0.0000 46.6746 0.0000
# 6 0.0000 0.0000 0.0000 -20.1773 0.0000 -3.5160
#
#
#
# Elastic Compliance Matrix: (Units=1/GPa)
#
#
# Indices 1 2 3 4 5 6 
#
# 1 0.011432 -0.002032 -0.003880 0.000000 0.005600 0.000000
# 2 -0.002032 0.010007 0.001018 0.000000 -0.000772 0.000000
# 3 -0.003880 0.001018 0.009632 0.000000 0.001756 0.000000
# 4 0.000000 0.000000 0.000000 0.007754 0.000000 -0.044499
# 5 0.005600 -0.000772 0.001756 0.000000 0.025776 0.000000
# 6 0.000000 0.000000 0.000000 -0.044499 0.000000 -0.029048
#
#
# Mechanical properties :
#
#
# Convention : Reuss Voigt Hill
#
# Bulk Modulus (GPa) = 46.98865 54.42956 50.70911
# Shear Modulus (GPa) = 95.35113 30.59037 62.97075
#
# Velocity S-wave (km/s) = 6.52031 3.69316 5.29877
# Velocity P-wave (km/s) = 8.81118 6.51571 7.74892
#
# Compressibility (1/GPa) = 0.02128173
#
# Stress axis : x y z
#
# Youngs Moduli (GPa) = 87.47116 99.92567 103.82267
#
# Poissons Ratio (x) = 0.20308 0.40288
# Poissons Ratio (y) = 0.17777 -0.10568
# Poissons Ratio (z) = 0.33943 -0.10171
#
# Static dielectric constant tensor:
#      x y z
#    x 1.915940 0.000000 0.041260 
#    y 0.000000 1.784960 0.000000 
#    z 0.041260 0.000000 1.827630 
# 
# From -- ./inp_files/180586.got.cif
#   From: 2010.05.17/outbox.cif.g08.bks.cpg/sg12_91_cif.got.tgz:180586.got - 2010.06.03 13:09:07.
