data_PCOD9185349
_publ_section_title
;
Structure prediction by ZEFSAII (Michael W. Deem and Ramdas Pophale) SiO2 
 PCOD9185349
Probable space group: C 2/M
;
_chemical_formula_sum "Si O2"
_cell_formula_units_Z 64
_cell_length_a 30.538340
_cell_length_b 8.957681
_cell_length_c 14.578211
_cell_angle_alpha 90.000000
_cell_angle_beta 49.914334
_cell_angle_gamma 90.000000
_cell_volume 3051.079545
_symmetry_space_group_name_H-M "C 2/M"
_symmetry_group_IT_number 12
_symmetry_cell_setting 'monoclinic'
loop_
_space_group_symop_operation_xyz
x,y,z
-x,y,-z
-x,-y,-z
x,-y,z
1/2+x,1/2+y,z
1/2-x,1/2+y,-z
1/2-x,1/2-y,-z
1/2+x,1/2-y,z
loop_
_atom_site_type_symbol
_atom_site_label
_atom_site_fract_x
_atom_site_fract_y
_atom_site_fract_z
Si Si1 0.137114 0.825778 0.309737
Si Si2 0.236845 0.676257 0.920060
Si Si3 0.159891 0.822037 0.875230
Si Si4 0.581233 0.173218 0.735095
Si Si5 0.545654 0.178275 0.067351
Si Si6 0.559587 0.324783 0.245281
Si Si7 0.699650 0.677330 0.626794
Si Si8 0.948149 0.670634 0.441242
O O1 0.204785 0.805041 0.216834
O O2 0.112711 0.796955 0.240493
O O3 0.103384 0.723272 0.425652
O O4 0.124525 0.000000 0.347108
O O5 0.225638 0.500000 0.946313
O O6 0.186535 0.753789 0.931222
O O7 0.250000 0.750000 0.000000
O O8 0.200232 0.784931 0.734282
O O9 0.155577 0.000000 0.889342
O O10 0.096849 0.754785 0.943250
O O11 0.520452 0.222423 0.861000
O O12 0.637139 0.268362 0.679392
O O13 0.570399 0.176843 0.640158
O O14 0.591216 0.000000 0.748191
O O15 0.558179 0.226779 0.155646
O O16 0.548687 0.000000 0.054096
O O17 0.558316 0.500000 0.222481
O O18 0.502599 0.278439 0.377538
O O19 0.703825 0.500000 0.611987
O O20 0.750000 0.750000 0.500000
O O21 0.964778 0.500000 0.439311
#
# Coordination Sequence:
#
# PCOD9185349 Si02
#       8
#     8   8   8   8   8   8   8   8
#     4  10  22  36  53  81 116 157 207 258 311 373
#     4  11  24  42  64  92 125 165 212 262 319 380
#     4  11  25  44  65  94 129 168 214 265 322 384
#     4   9  21  41  63  92 127 161 205 258 317 379
#     4  10  21  39  65  95 125 162 207 259 317 378
#     4  10  19  34  56  84 123 164 202 255 313 370
#     4  11  26  45  68  95 128 169 213 264 321 380
#     4  10  21  35  55  85 120 159 205 256 309 372
#
# _framework density 20.976182999999999
#
# number of rings (size 3 to 8) (size 9 to 14) (size 15 to 20)
#    0.000    1.750    0.000    4.125    1.750   10.000 
#    0.000    2.500    0.000    0.000    0.000    0.000 
#    0.000    0.000    0.000    0.000    0.000    0.000 
#
# Total GULP energy -178931.072173 kJ/mol
# GULP energy per Si atom -5591.596005 kJ/mol
# Density = 2.092844 g / cm^3
# Si number density = 20.976183 Si / 1000 Ang^3
#
#
#
# Elastic Constant Matrix: (Units=GPa)
#
#
# Indices 1 2 3 4 5 6 
#
# 1 100.8732 40.9547 40.8289 0.0000 -13.1491 0.0000
# 2 40.9547 51.7733 51.4026 0.0000 -5.0695 0.0001
# 3 40.8289 51.4026 127.2028 0.0000 -12.0232 0.0000
# 4 0.0000 0.0000 0.0000 35.2090 0.0000 -2.7768
# 5 -13.1491 -5.0695 -12.0232 0.0000 24.0651 0.0000
# 6 0.0000 0.0001 0.0000 -2.7768 0.0000 28.2045
#
#
#
# Elastic Compliance Matrix: (Units=1/GPa)
#
#
# Indices 1 2 3 4 5 6 
#
# 1 0.015421 -0.012123 0.000529 0.000000 0.006137 0.000000
# 2 -0.012123 0.041789 -0.013424 0.000000 -0.004528 0.000000
# 3 0.000529 -0.013424 0.013514 0.000000 0.004213 0.000000
# 4 0.000000 0.000000 0.000000 0.028624 0.000000 0.002818
# 5 0.006137 -0.004528 0.004213 0.000000 0.046058 0.000000
# 6 0.000000 0.000000 0.000000 0.002818 0.000000 0.035733
#
#
# Mechanical properties :
#
#
# Convention : Reuss Voigt Hill
#
# Bulk Modulus (GPa) = 48.33433 60.69130 54.51282
# Shear Modulus (GPa) = 21.00204 27.27326 24.13765
#
# Velocity S-wave (km/s) = 3.16766 3.60974 3.39590
# Velocity P-wave (km/s) = 6.03914 6.80954 6.43588
#
# Compressibility (1/GPa) = 0.02068923
#
# Stress axis : x y z
#
# Youngs Moduli (GPa) = 64.84553 23.92958 73.99546
#
# Poissons Ratio (x) = 0.29011 -0.03916
# Poissons Ratio (y) = 0.78615 0.99329
# Poissons Ratio (z) = -0.03432 0.32122
#
# Static dielectric constant tensor:
#      x y z
#    x 1.742040 0.000000 0.014740 
#    y 0.000000 1.706820 0.000000 
#    z 0.014740 0.000000 1.786270 
# 
# From -- ./inp_files/249843.got.cif
#   From: 2010.05.17/outbox.cif.g08.bks.cpg/sg12_125_cif.got.tgz:249843.got - 2010.06.03 13:09:07.
