data_PCOD9185449
_publ_section_title
;
Structure prediction by ZEFSAII (Michael W. Deem and Ramdas Pophale) SiO2 
 PCOD9185449
Probable space group: C 2/M
;
_chemical_formula_sum "Si O2"
_cell_formula_units_Z 44
_cell_length_a 23.248537
_cell_length_b 9.796661
_cell_length_c 8.650813
_cell_angle_alpha 90.000000
_cell_angle_beta 88.091805
_cell_angle_gamma 90.000000
_cell_volume 1969.199578
_symmetry_space_group_name_H-M "C 2/M"
_symmetry_group_IT_number 12
_symmetry_cell_setting 'monoclinic'
loop_
_space_group_symop_operation_xyz
x,y,z
-x,y,-z
-x,-y,-z
x,-y,z
1/2+x,1/2+y,z
1/2-x,1/2+y,-z
1/2-x,1/2-y,-z
1/2+x,1/2-y,z
loop_
_atom_site_type_symbol
_atom_site_label
_atom_site_fract_x
_atom_site_fract_y
_atom_site_fract_z
Si Si1 0.000000 0.732582 0.000000
Si Si2 0.820230 0.157180 0.889796
Si Si3 0.378674 0.843799 0.128799
Si Si4 0.405026 0.848147 0.471796
Si Si5 0.278758 0.157121 0.629783
Si Si6 0.554898 0.351547 0.288461
O O1 0.012170 0.819242 0.152365
O O2 0.940653 0.653821 0.036975
O O3 0.780395 0.253529 0.786433
O O4 0.881204 0.147298 0.792735
O O5 0.800168 0.000000 0.914271
O O6 0.837669 0.240424 0.041376
O O7 0.390565 0.795294 0.302218
O O8 0.356202 0.000000 0.135256
O O9 0.344554 0.857156 0.567286
O O10 0.444255 0.758734 0.577935
O O11 0.428902 0.000000 0.448141
O O12 0.250000 0.250000 0.500000
O O13 0.256228 0.000000 0.646334
O O14 0.543656 0.500000 0.354275
#
# Coordination Sequence:
#
# PCOD9185449 Si02
#       6
#     4   8   8   8   8   8
#     4  10  20  32  52  78 102 136 178 216 250 298
#     4   9  18  33  53  77 104 136 171 210 255 304
#     4  10  20  35  53  75 104 138 174 212 254 301
#     4   9  20  36  53  75 105 136 168 210 259 305
#     4  10  19  34  57  81 104 133 169 210 255 308
#     4   9  18  33  52  73 102 136 173 214 256 301
#
# _framework density 22.344101999999999
#
# number of rings (size 3 to 8) (size 9 to 14) (size 15 to 20)
#    0.000    2.545    0.000    1.636    0.000    8.000 
#    0.000    3.636    0.000    0.000    0.000    0.000 
#    0.000    0.000    0.000    0.000    0.000    0.000 
#
# Total GULP energy -122834.327820 kJ/mol
# GULP energy per Si atom -5583.378537 kJ/mol
# Density = 2.229325 g / cm^3
# Si number density = 22.344102 Si / 1000 Ang^3
#
#
#
# Elastic Constant Matrix: (Units=GPa)
#
#
# Indices 1 2 3 4 5 6 
#
# 1 60.6854 27.7726 18.7210 0.0000 2.2068 0.0000
# 2 27.7726 162.4759 93.0237 0.0000 42.1600 0.0000
# 3 18.7210 93.0237 171.9848 0.0000 41.5588 0.0000
# 4 0.0000 0.0000 0.0000 8.3739 0.0000 2.8439
# 5 2.2068 42.1600 41.5588 0.0000 44.9130 0.0000
# 6 0.0000 0.0000 0.0000 2.8439 0.0000 -7.4162
#
#
#
# Elastic Compliance Matrix: (Units=1/GPa)
#
#
# Indices 1 2 3 4 5 6 
#
# 1 0.018202 -0.003414 -0.000893 0.000000 0.003136 0.000000
# 2 -0.003414 0.010536 -0.003835 0.000000 -0.006174 0.000000
# 3 -0.000893 -0.003835 0.009152 0.000000 -0.004824 0.000000
# 4 0.000000 0.000000 0.000000 0.105659 0.000000 0.040517
# 5 0.003136 -0.006174 -0.004824 0.000000 0.032370 0.000000
# 6 0.000000 0.000000 0.000000 0.040517 0.000000 -0.119303
#
#
# Mechanical properties :
#
#
# Convention : Reuss Voigt Hill
#
# Bulk Modulus (GPa) = 46.28352 74.90897 60.59624
# Shear Modulus (GPa) = 62.41979 26.21605 44.31792
#
# Velocity S-wave (km/s) = 5.29116 3.42904 4.45840
# Velocity P-wave (km/s) = 7.62151 7.01967 7.32677
#
# Compressibility (1/GPa) = 0.02160596
#
# Stress axis : x y z
#
# Youngs Moduli (GPa) = 54.93830 94.91026 109.26716
#
# Poissons Ratio (x) = 0.32404 0.09753
# Poissons Ratio (y) = 0.18757 0.41909
# Poissons Ratio (z) = 0.04904 0.36402
#
# Static dielectric constant tensor:
#      x y z
#    x 1.855640 0.000000 -0.017710 
#    y 0.000000 1.814380 0.000000 
#    z -0.017710 0.000000 1.787420 
# 
# From -- ./inp_files/108044.got.cif
#   From: 2010.05.17/outbox.cif.g08.bks.cpg/sg12_55_cif.got.tgz:108044.got - 2010.06.03 13:09:07.
