data_PCOD9185307
_publ_section_title
;
Structure prediction by ZEFSAII (Michael W. Deem and Ramdas Pophale) SiO2 
 PCOD9185307
Probable space group: C 2/M
;
_chemical_formula_sum "Si O2"
_cell_formula_units_Z 64
_cell_length_a 15.702195
_cell_length_b 7.574655
_cell_length_c 24.667843
_cell_angle_alpha 90.000000
_cell_angle_beta 93.096618
_cell_angle_gamma 90.000000
_cell_volume 2929.677429
_symmetry_space_group_name_H-M "C 2/M"
_symmetry_group_IT_number 12
_symmetry_cell_setting 'monoclinic'
loop_
_space_group_symop_operation_xyz
x,y,z
-x,y,-z
-x,-y,-z
x,-y,z
1/2+x,1/2+y,z
1/2-x,1/2+y,-z
1/2-x,1/2-y,-z
1/2+x,1/2-y,z
loop_
_atom_site_type_symbol
_atom_site_label
_atom_site_fract_x
_atom_site_fract_y
_atom_site_fract_z
Si Si1 0.142968 0.715501 0.640866
Si Si2 0.330107 0.713475 0.624970
Si Si3 0.326765 0.293694 0.123701
Si Si4 0.106874 0.794359 0.256758
Si Si5 0.408214 0.212600 0.242296
Si Si6 0.990053 0.709096 0.560115
Si Si7 0.359269 0.705654 0.858504
Si Si8 0.512885 0.716803 0.938620
O O1 0.141652 0.500000 0.641499
O O2 0.231983 0.769908 0.616981
O O3 0.137568 0.769508 0.703656
O O4 0.060534 0.778982 0.604885
O O5 0.331656 0.500000 0.625260
O O6 0.364197 0.780307 0.684575
O O7 0.396119 0.768683 0.581250
O O8 0.316696 0.500000 0.112307
O O9 0.362785 0.271138 0.185807
O O10 0.232928 0.214099 0.117699
O O11 0.398469 0.224021 0.085155
O O12 0.143909 0.716173 0.202307
O O13 0.005047 0.780465 0.247916
O O14 0.133683 0.000000 0.259852
O O15 0.410799 0.000000 0.241713
O O16 0.007025 0.500000 0.557260
O O17 0.000000 0.782835 0.500000
O O18 0.381753 0.500000 0.851381
O O19 0.434670 0.778619 0.898259
O O20 0.513030 0.500000 0.938213
O O21 0.500000 0.771923 0.000000
#
# Coordination Sequence:
#
# PCOD9185307 Si02
#       8
#     8   8   8   8   8   8   8   8
#     4   9  19  36  56  80 110 146 180 218 276 334
#     4  10  20  35  57  80 109 143 182 225 270 330
#     4  11  22  37  57  85 116 145 185 234 279 329
#     4  10  19  34  56  83 113 146 181 226 282 332
#     4  11  20  34  59  84 112 149 185 221 276 343
#     4  10  21  38  57  78 109 146 186 231 276 321
#     4  10  20  37  59  83 114 151 188 225 279 342
#     4   9  19  37  59  80 109 152 193 231 280 333
#
# _framework density 21.845410000000001
#
# number of rings (size 3 to 8) (size 9 to 14) (size 15 to 20)
#    0.000    2.000    2.500    1.500    0.000    3.750 
#    0.000    3.125    0.000    2.625    0.000    0.000 
#    0.000    0.000    0.000    0.000    0.000    0.000 
#
# Total GULP energy -178786.239288 kJ/mol
# GULP energy per Si atom -5587.069978 kJ/mol
# Density = 2.179569 g / cm^3
# Si number density = 21.845410 Si / 1000 Ang^3
#
#
#
# Elastic Constant Matrix: (Units=GPa)
#
#
# Indices 1 2 3 4 5 6 
#
# 1 110.9858 -18.1231 42.1697 0.0000 -38.1347 0.0000
# 2 -18.1231 45.0758 -0.1892 0.0000 2.3141 0.0000
# 3 42.1697 -0.1892 99.7591 0.0000 -50.1204 0.0000
# 4 0.0000 0.0000 0.0000 3.9345 0.0000 -5.5174
# 5 -38.1347 2.3141 -50.1204 0.0000 23.2121 0.0000
# 6 0.0000 0.0000 0.0000 -5.5174 0.0000 25.2605
#
#
#
# Elastic Compliance Matrix: (Units=1/GPa)
#
#
# Indices 1 2 3 4 5 6 
#
# 1 0.004761 0.003717 -0.020489 0.000000 -0.036790 0.000000
# 2 0.003717 0.023921 -0.004055 0.000000 -0.005035 0.000000
# 3 -0.020489 -0.004055 -0.023207 0.000000 -0.083367 0.000000
# 4 0.000000 0.000000 0.000000 0.366380 0.000000 0.080024
# 5 -0.036790 -0.005035 -0.083367 0.000000 -0.196867 0.000000
# 6 0.000000 0.000000 0.000000 0.080024 0.000000 0.057066
#
#
# Mechanical properties :
#
#
# Convention : Reuss Voigt Hill
#
# Bulk Modulus (GPa) = -27.63889 33.72617 3.04364
# Shear Modulus (GPa) = 19.10954 25.94564 22.52759
#
# Velocity S-wave (km/s) = 2.96085 3.45003 3.21476
# Velocity P-wave (km/s) = 0.99533 5.59842 3.89562
#
# Compressibility (1/GPa) = -0.03618091
#
# Stress axis : x y z
#
# Youngs Moduli (GPa) = 210.03499 41.80469 -43.09034
#
# Poissons Ratio (x) = -0.15539 -0.88290
# Poissons Ratio (y) = -0.78070 -0.17475
# Poissons Ratio (z) = 4.30350 0.16954
#
# Static dielectric constant tensor:
#      x y z
#    x 1.768730 0.000000 -0.002330 
#    y 0.000000 1.842090 0.000000 
#    z -0.002330 0.000000 1.787560 
# 
# From -- ./inp_files/338771.got.cif
#   From: 2010.05.17/outbox.cif.g08.bks.cpg/sg12_170_cif.got.tgz:338771.got - 2010.06.03 13:09:07.
