data_PCOD9185351
_publ_section_title
;
Structure prediction by ZEFSAII (Michael W. Deem and Ramdas Pophale) SiO2 
 PCOD9185351
Probable space group: C 2/M
;
_chemical_formula_sum "Si O2"
_cell_formula_units_Z 56
_cell_length_a 23.131665
_cell_length_b 22.383310
_cell_length_c 13.461761
_cell_angle_alpha 90.000000
_cell_angle_beta 155.753921
_cell_angle_gamma 90.000000
_cell_volume 2862.277483
_symmetry_space_group_name_H-M "C 2/M"
_symmetry_group_IT_number 12
_symmetry_cell_setting 'monoclinic'
loop_
_space_group_symop_operation_xyz
x,y,z
-x,y,-z
-x,-y,-z
x,-y,z
1/2+x,1/2+y,z
1/2-x,1/2+y,-z
1/2-x,1/2-y,-z
1/2+x,1/2-y,z
loop_
_atom_site_type_symbol
_atom_site_label
_atom_site_fract_x
_atom_site_fract_y
_atom_site_fract_z
Si Si1 0.876351 0.431435 0.738101
Si Si2 0.422692 0.929909 0.573291
Si Si3 0.856090 0.842003 0.642048
Si Si4 0.772203 0.205336 0.318691
Si Si5 0.561556 0.289266 0.700736
Si Si6 0.342864 0.834388 0.057778
Si Si7 0.315591 0.337216 0.814792
O O1 0.865424 0.500000 0.750573
O O2 0.914377 0.428280 0.681012
O O3 0.723145 0.402932 0.510287
O O4 0.000000 0.403551 0.000000
O O5 0.557144 0.888966 0.756271
O O6 0.285028 0.893414 0.320000
O O7 0.428033 0.000000 0.552449
O O8 0.769389 0.798125 0.433157
O O9 0.827544 0.833177 0.713858
O O10 0.024735 0.841339 0.895962
O O11 0.753122 0.274674 0.259304
O O12 0.927946 0.180358 0.540864
O O13 0.675756 0.168684 0.091210
O O14 0.500000 0.266531 0.500000
O O15 0.597643 0.230761 0.819925
O O16 0.692649 0.331423 0.879298
#
# Coordination Sequence:
#
# PCOD9185351 Si02
#       7
#     8   8   8   8   8   8   8
#     4   9  18  34  54  78 108 149 193 227 264 322
#     4  10  20  35  56  80 112 147 185 229 273 330
#     4  10  21  34  50  80 113 151 185 228 276 325
#     4  11  19  34  55  79 111 145 179 235 279 329
#     4   9  19  33  55  82 106 139 179 233 279 339
#     4  10  19  34  56  85 105 138 186 225 288 328
#     4  10  21  34  50  79 116 149 191 216 278 334
#
# _framework density 19.56484
#
# number of rings (size 3 to 8) (size 9 to 14) (size 15 to 20)
#    0.000    2.143    1.429    2.143    0.000    0.571 
#    5.143    2.857    0.000    5.143    0.000    0.000 
#    0.000    0.000    0.000    0.000    0.000    0.000 
#
# Total GULP energy -155868.270492 kJ/mol
# GULP energy per Si atom -5566.723946 kJ/mol
# Density = 1.952031 g / cm^3
# Si number density = 19.564840 Si / 1000 Ang^3
#
#
#
# Elastic Constant Matrix: (Units=GPa)
#
#
# Indices 1 2 3 4 5 6 
#
# 1 28.4219 16.6182 23.3615 0.0000 0.6879 0.0000
# 2 16.6182 110.7274 52.4679 0.0000 19.9660 0.0000
# 3 23.3615 52.4679 95.2583 0.0000 10.9793 0.0000
# 4 0.0000 0.0000 0.0000 26.8394 0.0000 3.0853
# 5 0.6879 19.9660 10.9793 0.0000 36.1439 0.0000
# 6 0.0000 0.0000 0.0000 3.0853 0.0000 19.0793
#
#
#
# Elastic Compliance Matrix: (Units=1/GPa)
#
#
# Indices 1 2 3 4 5 6 
#
# 1 0.044831 -0.002675 -0.009941 0.000000 0.003644 0.000000
# 2 -0.002675 0.013270 -0.006025 0.000000 -0.005449 0.000000
# 3 -0.009941 -0.006025 0.016424 0.000000 -0.001472 0.000000
# 4 0.000000 0.000000 0.000000 0.037964 0.000000 -0.006139
# 5 0.003644 -0.005449 -0.001472 0.000000 0.031055 0.000000
# 6 0.000000 0.000000 0.000000 -0.006139 0.000000 0.053406
#
#
# Mechanical properties :
#
#
# Convention : Reuss Voigt Hill
#
# Bulk Modulus (GPa) = 26.85069 46.58920 36.71994
# Shear Modulus (GPa) = 20.27185 25.87651 23.07418
#
# Velocity S-wave (km/s) = 3.22240 3.64071 3.43792
# Velocity P-wave (km/s) = 5.25346 6.44495 5.87947
#
# Compressibility (1/GPa) = 0.03724299
#
# Stress axis : x y z
#
# Youngs Moduli (GPa) = 22.30587 75.35658 60.88631
#
# Poissons Ratio (x) = 0.20156 0.60529
# Poissons Ratio (y) = 0.05966 0.36685
# Poissons Ratio (z) = 0.22175 0.45403
#
# Static dielectric constant tensor:
#      x y z
#    x 1.773120 0.000000 -0.005450 
#    y 0.000000 1.673520 0.000000 
#    z -0.005450 0.000000 1.724200 
# 
# From -- ./inp_files/247414.got.cif
#   From: 2010.05.17/outbox.cif.g08.bks.cpg/sg12_124_cif.got.tgz:247414.got - 2010.06.03 13:09:07.
