data_PCOD9185480
_publ_section_title
;
Structure prediction by ZEFSAII (Michael W. Deem and Ramdas Pophale) SiO2 
 PCOD9185480
Probable space group: C 2/M
;
_chemical_formula_sum "Si O2"
_cell_formula_units_Z 40
_cell_length_a 30.632794
_cell_length_b 7.492609
_cell_length_c 15.693753
_cell_angle_alpha 90.000000
_cell_angle_beta 29.824554
_cell_angle_gamma 90.000000
_cell_volume 1791.451039
_symmetry_space_group_name_H-M "C 2/M"
_symmetry_group_IT_number 12
_symmetry_cell_setting 'monoclinic'
loop_
_space_group_symop_operation_xyz
x,y,z
-x,y,-z
-x,-y,-z
x,-y,z
1/2+x,1/2+y,z
1/2-x,1/2+y,-z
1/2-x,1/2-y,-z
1/2+x,1/2-y,z
loop_
_atom_site_type_symbol
_atom_site_label
_atom_site_fract_x
_atom_site_fract_y
_atom_site_fract_z
Si Si1 0.995764 0.291157 0.412404
Si Si2 0.008375 0.296607 0.079354
Si Si3 0.301055 0.715291 0.680217
Si Si4 0.817683 0.787897 0.460742
Si Si5 0.118172 0.280693 0.053151
O O1 0.019230 0.500000 0.380457
O O2 0.896547 0.278399 0.546736
O O3 0.000000 0.212159 0.500000
O O4 0.062686 0.217449 0.228323
O O5 0.040881 0.500000 0.009839
O O6 0.911158 0.298612 0.282732
O O7 0.071227 0.219396 0.045285
O O8 0.000000 0.211893 0.000000
O O9 0.302916 0.500000 0.679379
O O10 0.284743 0.769125 0.609657
O O11 0.219707 0.772825 0.876419
O O12 0.750000 0.750000 0.500000
O O13 0.832231 0.000000 0.439264
O O14 0.114052 0.500000 0.059568
#
# Coordination Sequence:
#
# PCOD9185480 Si02
#       5
#     8   8   8   8   8
#     4  10  21  38  60  85 113 148 191 238 289 341
#     4  10  19  34  57  81 110 152 194 228 281 348
#     4  10  21  38  59  83 113 151 192 233 280 342
#     4  11  22  35  54  82 116 151 193 238 284 338
#     4   9  18  35  57  80 113 151 185 228 284 340
#
# _framework density 22.328268999999999
#
# number of rings (size 3 to 8) (size 9 to 14) (size 15 to 20)
#    0.000    2.000    2.000    1.800    0.000    5.600 
#    0.000    2.000    0.000    0.000    0.000    0.000 
#    0.000    0.000    0.000    0.000    0.000    0.000 
#
# Total GULP energy -111745.007368 kJ/mol
# GULP energy per Si atom -5587.250368 kJ/mol
# Density = 2.227745 g / cm^3
# Si number density = 22.328269 Si / 1000 Ang^3
#
#
#
# Elastic Constant Matrix: (Units=GPa)
#
#
# Indices 1 2 3 4 5 6 
#
# 1 100.4996 -1.4642 50.4853 -0.0001 35.0257 0.0001
# 2 -1.4642 64.6954 -2.6215 -0.0005 11.2274 0.0004
# 3 50.4853 -2.6215 167.6321 -0.0004 24.9416 0.0004
# 4 -0.0001 -0.0005 -0.0004 13.4183 0.0000 3.5135
# 5 35.0257 11.2274 24.9416 0.0000 36.9335 0.0000
# 6 0.0001 0.0004 0.0004 3.5135 0.0000 -42.7832
#
#
#
# Elastic Compliance Matrix: (Units=1/GPa)
#
#
# Indices 1 2 3 4 5 6 
#
# 1 0.016458 0.002797 -0.002739 0.000000 -0.014609 0.000000
# 2 0.002797 0.016979 0.000651 0.000001 -0.008254 0.000000
# 3 -0.002739 0.000651 0.007163 0.000000 -0.002438 0.000000
# 4 0.000000 0.000001 0.000000 0.072956 -0.000001 0.005991
# 5 -0.014609 -0.008254 -0.002438 -0.000001 0.045085 0.000000
# 6 0.000000 0.000000 0.000000 0.005991 0.000000 -0.022882
#
#
# Mechanical properties :
#
#
# Convention : Reuss Voigt Hill
#
# Bulk Modulus (GPa) = 23.79938 47.29180 35.54559
# Shear Modulus (GPa) = 33.70424 20.60887 27.15656
#
# Velocity S-wave (km/s) = 3.88943 3.04138 3.49125
# Velocity P-wave (km/s) = 5.55447 5.79306 5.67502
#
# Compressibility (1/GPa) = 0.04201791
#
# Stress axis : x y z
#
# Youngs Moduli (GPa) = 60.75895 58.89602 139.59987
#
# Poissons Ratio (x) = -0.16471 0.38243
# Poissons Ratio (y) = -0.16992 -0.09092
# Poissons Ratio (z) = 0.16645 -0.03836
#
# Static dielectric constant tensor:
#      x y z
#    x 1.795960 0.000000 0.034180 
#    y 0.000000 1.901650 0.000000 
#    z 0.034180 0.000000 1.801670 
# 
# From -- ./inp_files/211192.got.cif
#   From: 2010.05.17/outbox.cif.g08.bks.cpg/sg12_106_cif.got.tgz:211192.got - 2010.06.03 13:09:07.
