data_PCOD9185773
_publ_section_title
;
Structure prediction by ZEFSAII (Michael W. Deem and Ramdas Pophale) SiO2 
 PCOD9185773
Probable space group: C 2/M
;
_chemical_formula_sum "Si O2"
_cell_formula_units_Z 64
_cell_length_a 21.016666
_cell_length_b 19.441132
_cell_length_c 18.218981
_cell_angle_alpha 90.000000
_cell_angle_beta 28.117897
_cell_angle_gamma 90.000000
_cell_volume 3508.288372
_symmetry_space_group_name_H-M "C 2/M"
_symmetry_group_IT_number 12
_symmetry_cell_setting 'monoclinic'
loop_
_space_group_symop_operation_xyz
x,y,z
-x,y,-z
-x,-y,-z
x,-y,z
1/2+x,1/2+y,z
1/2-x,1/2+y,-z
1/2-x,1/2-y,-z
1/2+x,1/2-y,z
loop_
_atom_site_type_symbol
_atom_site_label
_atom_site_fract_x
_atom_site_fract_y
_atom_site_fract_z
Si Si1 0.556984 0.920186 0.155441
Si Si2 0.349026 0.079877 0.500669
Si Si3 0.735415 0.714881 0.434184
Si Si4 0.755016 0.761538 0.109096
Si Si5 0.003875 0.312484 0.078969
Si Si6 0.161200 0.143806 0.105971
Si Si7 0.978067 0.299354 0.440285
Si Si8 0.367671 0.419477 0.394408
O O1 0.451329 0.905184 0.328428
O O2 0.532556 0.870854 0.110953
O O3 0.541837 0.000000 0.151299
O O4 0.707568 0.904366 0.030696
O O5 0.393444 0.130289 0.519927
O O6 0.201445 0.091572 0.615223
O O7 0.361906 0.000000 0.506971
O O8 0.750000 0.750000 0.500000
O O9 0.607456 0.748487 0.524141
O O10 0.707484 0.634160 0.475973
O O11 0.867094 0.722284 0.249159
O O12 0.683428 0.690726 0.155486
O O13 0.630769 0.809088 0.257458
O O14 0.870516 0.740498 0.047928
O O15 0.832242 0.798960 0.964385
O O16 0.000000 0.339646 0.000000
O O17 0.023639 0.101965 0.239845
O O18 0.000000 0.272988 0.500000
O O19 0.347761 0.500000 0.432576
#
# Coordination Sequence:
#
# PCOD9185773 Si02
#       8
#     8   8   8   8   8   8   8   8
#     4  10  19  35  58  80 108 149 195 236 286 349
#     4  10  21  38  59  86 113 147 199 248 292 356
#     4  12  22  39  64  88 116 160 206 251 293 357
#     4  10  21  35  54  86 110 148 189 236 291 358
#     4  11  23  37  54  83 121 151 188 246 301 349
#     4  10  19  34  58  82 114 141 189 246 290 336
#     4  12  23  38  60  86 119 155 191 244 309 360
#     4  11  21  35  60  90 117 149 196 250 299 349
#
# _framework density 18.242514
#
# number of rings (size 3 to 8) (size 9 to 14) (size 15 to 20)
#    0.000    1.250    5.000    1.875    1.750    0.500 
#    0.000    0.000    0.000    0.375    0.000    1.750 
#    0.000    0.000    0.000    0.000    0.000    0.000 
#
# Total GULP energy -178417.929788 kJ/mol
# GULP energy per Si atom -5575.560306 kJ/mol
# Density = 1.820099 g / cm^3
# Si number density = 18.242514 Si / 1000 Ang^3
#
#
#
# Elastic Constant Matrix: (Units=GPa)
#
#
# Indices 1 2 3 4 5 6 
#
# 1 75.0150 17.0839 26.7807 -0.0021 -9.4189 0.0020
# 2 17.0839 68.8162 6.4083 -0.0031 -7.1094 0.0026
# 3 26.7807 6.4083 70.3757 -0.0035 -24.6593 0.0035
# 4 -0.0021 -0.0031 -0.0035 22.3832 0.0030 -6.7411
# 5 -9.4189 -7.1094 -24.6593 0.0030 28.7852 -0.0022
# 6 0.0020 0.0026 0.0035 -6.7411 -0.0022 20.2056
#
#
#
# Elastic Compliance Matrix: (Units=1/GPa)
#
#
# Indices 1 2 3 4 5 6 
#
# 1 0.016226 -0.003542 -0.006142 0.000000 -0.000827 0.000000
# 2 -0.003542 0.015685 0.001244 0.000001 0.003781 -0.000001
# 3 -0.006142 0.001244 0.022630 0.000000 0.017684 -0.000001
# 4 0.000000 0.000001 0.000000 0.049667 -0.000003 0.016570
# 5 -0.000827 0.003781 0.017684 -0.000003 0.050552 0.000001
# 6 0.000000 -0.000001 -0.000001 0.016570 0.000001 0.055019
#
#
# Mechanical properties :
#
#
# Convention : Reuss Voigt Hill
#
# Bulk Modulus (GPa) = 26.55149 34.97250 30.76200
# Shear Modulus (GPa) = 20.90195 25.20374 23.05284
#
# Velocity S-wave (km/s) = 3.38861 3.72101 3.55870
# Velocity P-wave (km/s) = 5.46778 6.13789 5.81250
#
# Compressibility (1/GPa) = 0.03766267
#
# Stress axis : x y z
#
# Youngs Moduli (GPa) = 61.62907 63.75336 44.18989
#
# Poissons Ratio (x) = 0.22579 0.27141
# Poissons Ratio (y) = 0.21827 -0.05499
# Poissons Ratio (z) = 0.37852 -0.07933
#
# Static dielectric constant tensor:
#      x y z
#    x 1.633220 0.000000 -0.006300 
#    y 0.000000 1.638170 0.000000 
#    z -0.006300 0.000000 1.654130 
# 
# From -- ./inp_files/285757.got.cif
#   From: 2010.05.17/outbox.cif.g08.bks.cpg/sg12_143_cif.got.tgz:285757.got - 2010.06.03 13:09:07.
