data_PCOD9185665
_publ_section_title
;
Structure prediction by ZEFSAII (Michael W. Deem and Ramdas Pophale) SiO2 
 PCOD9185665
Probable space group: C 2/M
;
_chemical_formula_sum "Si O2"
_cell_formula_units_Z 64
_cell_length_a 23.868465
_cell_length_b 8.781368
_cell_length_c 24.500028
_cell_angle_alpha 90.000000
_cell_angle_beta 137.356348
_cell_angle_gamma 90.000000
_cell_volume 3478.739391
_symmetry_space_group_name_H-M "C 2/M"
_symmetry_group_IT_number 12
_symmetry_cell_setting 'monoclinic'
loop_
_space_group_symop_operation_xyz
x,y,z
-x,y,-z
-x,-y,-z
x,-y,z
1/2+x,1/2+y,z
1/2-x,1/2+y,-z
1/2-x,1/2-y,-z
1/2+x,1/2-y,z
loop_
_atom_site_type_symbol
_atom_site_label
_atom_site_fract_x
_atom_site_fract_y
_atom_site_fract_z
Si Si1 0.464730 0.181597 0.226771
Si Si2 0.977547 0.818248 0.843965
Si Si3 0.142228 0.317862 0.154064
Si Si4 0.830388 0.182623 0.314301
Si Si5 0.216961 0.181600 0.919546
Si Si6 0.632957 0.680566 0.034116
Si Si7 0.492689 0.681776 0.361847
Si Si8 0.415524 0.174602 0.475173
O O1 0.512022 0.249398 0.208492
O O2 0.371617 0.247411 0.157198
O O3 0.501894 0.236871 0.310682
O O4 0.462689 0.000000 0.222177
O O5 0.905144 0.741105 0.826741
O O6 0.966114 0.000000 0.833070
O O7 0.062156 0.789330 0.938636
O O8 0.134047 0.500000 0.143245
O O9 0.239431 0.278329 0.228180
O O10 0.106679 0.236314 0.074951
O O11 0.904034 0.227523 0.325504
O O12 0.848592 0.255447 0.386234
O O13 0.835481 0.000000 0.323460
O O14 0.285002 0.228309 0.923853
O O15 0.209442 0.000000 0.918159
O O16 0.250000 0.250000 0.000000
O O17 0.649416 0.500000 0.046118
O O18 0.492011 0.500000 0.354279
O O19 0.562482 0.730778 0.455202
O O20 0.500000 0.176934 0.500000
O O21 0.396532 0.000000 0.475214
#
# Coordination Sequence:
#
# PCOD9185665 Si02
#       8
#     8   8   8   8   8   8   8   8
#     4  12  24  38  58  83 113 149 190 234 281 336
#     4  11  24  41  58  77 108 149 194 238 284 336
#     4  11  23  38  58  83 112 146 191 240 283 332
#     4   9  19  35  55  82 114 149 183 223 276 333
#     4  12  23  37  57  82 112 146 184 228 281 336
#     4  11  23  39  59  82 110 146 190 238 285 336
#     4  10  19  34  57  85 118 151 184 224 274 335
#     4   9  17  30  52  83 116 147 180 223 273 329
#
# _framework density 18.397469000000001
#
# number of rings (size 3 to 8) (size 9 to 14) (size 15 to 20)
#    0.000    1.375    1.250    5.250    0.000    7.000 
#    0.000    0.000    0.000    0.750    0.000    0.000 
#    0.000    0.000    0.000    0.000    0.000    0.000 
#
# Total GULP energy -178880.109267 kJ/mol
# GULP energy per Si atom -5590.003415 kJ/mol
# Density = 1.835560 g / cm^3
# Si number density = 18.397469 Si / 1000 Ang^3
#
#
#
# Elastic Constant Matrix: (Units=GPa)
#
#
# Indices 1 2 3 4 5 6 
#
# 1 68.9634 22.2823 25.6912 0.0000 -22.8589 0.0000
# 2 22.2823 78.0427 39.3103 0.0000 -13.1030 0.0000
# 3 25.6912 39.3103 87.3756 0.0000 -30.7808 0.0000
# 4 0.0000 0.0000 0.0000 31.3502 0.0000 -6.2107
# 5 -22.8589 -13.1030 -30.7808 0.0000 23.2288 0.0000
# 6 0.0000 0.0000 0.0000 -6.2107 0.0000 28.6110
#
#
#
# Elastic Compliance Matrix: (Units=1/GPa)
#
#
# Indices 1 2 3 4 5 6 
#
# 1 0.022831 -0.004374 0.004315 0.000000 0.025717 0.000000
# 2 -0.004374 0.017418 -0.008638 0.000000 -0.005925 0.000000
# 3 0.004315 -0.008638 0.025960 0.000000 0.033773 0.000000
# 4 0.000000 0.000000 0.000000 0.033331 0.000000 0.007235
# 5 0.025717 -0.005925 0.033773 0.000000 0.109769 0.000000
# 6 0.000000 0.000000 0.000000 0.007235 0.000000 0.036522
#
#
# Mechanical properties :
#
#
# Convention : Reuss Voigt Hill
#
# Bulk Modulus (GPa) = 20.48544 45.43880 32.96212
# Shear Modulus (GPa) = 17.88927 26.44453 22.16690
#
# Velocity S-wave (km/s) = 3.12168 3.79542 3.47492
# Velocity P-wave (km/s) = 4.91450 6.63016 5.83572
#
# Compressibility (1/GPa) = 0.04881515
#
# Stress axis : x y z
#
# Youngs Moduli (GPa) = 43.80078 57.41067 38.52076
#
# Poissons Ratio (x) = 0.25111 -0.16620
# Poissons Ratio (y) = 0.19158 0.33273
# Poissons Ratio (z) = -0.18898 0.49589
#
# Static dielectric constant tensor:
#      x y z
#    x 1.633930 0.000000 -0.006420 
#    y 0.000000 1.611720 0.000000 
#    z -0.006420 0.000000 1.625110 
# 
# From -- ./inp_files/324319.got.cif
#   From: 2010.05.17/outbox.cif.g08.bks.cpg/sg12_163_cif.got.tgz:324319.got - 2010.06.03 13:09:07.
