data_PCOD9185756
_publ_section_title
;
Structure prediction by ZEFSAII (Michael W. Deem and Ramdas Pophale) SiO2 
 PCOD9185756
Probable space group: C 2/M
;
_chemical_formula_sum "Si O2"
_cell_formula_units_Z 64
_cell_length_a 31.638025
_cell_length_b 20.035841
_cell_length_c 15.147581
_cell_angle_alpha 90.000000
_cell_angle_beta 19.494341
_cell_angle_gamma 90.000000
_cell_volume 3204.308577
_symmetry_space_group_name_H-M "C 2/M"
_symmetry_group_IT_number 12
_symmetry_cell_setting 'monoclinic'
loop_
_space_group_symop_operation_xyz
x,y,z
-x,y,-z
-x,-y,-z
x,-y,z
1/2+x,1/2+y,z
1/2-x,1/2+y,-z
1/2-x,1/2-y,-z
1/2+x,1/2-y,z
loop_
_atom_site_type_symbol
_atom_site_label
_atom_site_fract_x
_atom_site_fract_y
_atom_site_fract_z
Si Si1 0.086564 0.340247 0.990724
Si Si2 0.847154 0.927030 0.803559
Si Si3 0.825594 0.837954 0.394787
Si Si4 0.482068 0.577690 0.216117
Si Si5 0.364375 0.703935 0.023253
Si Si6 0.237619 0.424573 0.825499
Si Si7 0.671991 0.809923 0.538216
Si Si8 0.366555 0.713226 0.817900
O O1 0.076620 0.261674 0.031860
O O2 0.948694 0.357476 0.226714
O O3 0.194692 0.351087 0.705440
O O4 0.135168 0.376782 0.982901
O O5 0.788596 0.909999 0.823158
O O6 0.822561 0.863945 0.911456
O O7 0.000000 0.931245 0.500000
O O8 0.800233 0.000000 0.923532
O O9 0.927974 0.888505 0.233013
O O10 0.787191 0.840738 0.368343
O O11 0.857301 0.760939 0.356623
O O12 0.523858 0.500000 0.124001
O O13 0.575772 0.631385 0.076758
O O14 0.361091 0.576911 0.520090
O O15 0.382861 0.730461 0.887999
O O16 0.220829 0.702537 0.342636
O O17 0.187646 0.500000 0.924657
O O18 0.500000 0.718466 0.500000
O O19 0.250000 0.750000 0.000000
#
# Coordination Sequence:
#
# PCOD9185756 Si02
#       8
#     8   8   8   8   8   8   8   8
#     4  10  19  34  58  81 115 147 184 234 274 339
#     4   9  17  33  57  83 108 141 190 241 284 335
#     4   9  19  35  56  85 110 146 195 231 278 325
#     4  10  19  35  56  82 117 149 188 237 282 335
#     4  11  23  35  56  84 114 147 191 227 295 341
#     4   9  18  33  57  84 108 144 190 234 279 331
#     4  10  20  35  57  82 114 149 188 235 274 341
#     4  11  24  38  59  87 119 151 190 244 297 352
#
# _framework density 19.973108
#
# number of rings (size 3 to 8) (size 9 to 14) (size 15 to 20)
#    0.000    2.125    1.250    2.625    1.750    2.000 
#    0.000    2.500    0.000    3.375    0.000    0.000 
#    0.000    0.000    0.000    0.000    0.000    0.000 
#
# Total GULP energy -178314.644217 kJ/mol
# GULP energy per Si atom -5572.332632 kJ/mol
# Density = 1.992765 g / cm^3
# Si number density = 19.973108 Si / 1000 Ang^3
#
#
#
# Elastic Constant Matrix: (Units=GPa)
#
#
# Indices 1 2 3 4 5 6 
#
# 1 76.1905 8.3537 43.7324 0.0001 -1.5297 -0.0001
# 2 8.3537 72.5392 12.5409 0.0000 -14.2701 -0.0001
# 3 43.7324 12.5409 67.8364 -0.0001 -13.5961 -0.0002
# 4 0.0001 0.0000 -0.0001 13.4469 -0.0002 -6.5435
# 5 -1.5297 -14.2701 -13.5961 -0.0002 30.1058 0.0001
# 6 -0.0001 -0.0001 -0.0002 -6.5435 0.0001 27.6464
#
#
#
# Elastic Compliance Matrix: (Units=1/GPa)
#
#
# Indices 1 2 3 4 5 6 
#
# 1 0.021781 -0.001128 -0.015084 0.000000 -0.006240 0.000000
# 2 -0.001128 0.015402 -0.000735 0.000000 0.006911 0.000000
# 3 -0.015084 -0.000735 0.026804 0.000001 0.010990 0.000000
# 4 0.000000 0.000000 0.000001 0.084047 0.000001 0.019893
# 5 -0.006240 0.006911 0.010990 0.000001 0.041138 0.000000
# 6 0.000000 0.000000 0.000000 0.019893 0.000000 0.040879
#
#
# Mechanical properties :
#
#
# Convention : Reuss Voigt Hill
#
# Bulk Modulus (GPa) = 33.22952 38.42446 35.82699
# Shear Modulus (GPa) = 18.24963 24.36908 21.30936
#
# Velocity S-wave (km/s) = 3.02604 3.49677 3.26989
# Velocity P-wave (km/s) = 5.37424 5.96516 5.67739
#
# Compressibility (1/GPa) = 0.03009372
#
# Stress axis : x y z
#
# Youngs Moduli (GPa) = 45.91061 64.92554 37.30755
#
# Poissons Ratio (x) = 0.07324 0.56275
# Poissons Ratio (y) = 0.05179 0.02742
# Poissons Ratio (z) = 0.69252 0.04772
#
# Static dielectric constant tensor:
#      x y z
#    x 1.667970 0.000000 -0.050170 
#    y 0.000000 1.730750 0.000000 
#    z -0.050170 0.000000 1.735350 
# 
# From -- ./inp_files/207668.got.cif
#   From: 2010.05.17/outbox.cif.g08.bks.cpg/sg12_104_cif.got.tgz:207668.got - 2010.06.03 13:09:07.
