data_PCOD9185321
_publ_section_title
;
Structure prediction by ZEFSAII (Michael W. Deem and Ramdas Pophale) SiO2 
 PCOD9185321
Probable space group: C 2/M
;
_chemical_formula_sum "Si O2"
_cell_formula_units_Z 48
_cell_length_a 26.883533
_cell_length_b 16.251784
_cell_length_c 5.295618
_cell_angle_alpha 90.000000
_cell_angle_beta 92.277615
_cell_angle_gamma 90.000000
_cell_volume 2311.856135
_symmetry_space_group_name_H-M "C 2/M"
_symmetry_group_IT_number 12
_symmetry_cell_setting 'monoclinic'
loop_
_space_group_symop_operation_xyz
x,y,z
-x,y,-z
-x,-y,-z
x,-y,z
1/2+x,1/2+y,z
1/2-x,1/2+y,-z
1/2-x,1/2-y,-z
1/2+x,1/2-y,z
loop_
_atom_site_type_symbol
_atom_site_label
_atom_site_fract_x
_atom_site_fract_y
_atom_site_fract_z
Si Si1 0.192159 0.000000 0.956968
Si Si2 0.874816 0.175084 0.575216
Si Si3 0.723754 0.330786 0.744633
Si Si4 0.415713 0.096856 0.922443
Si Si5 0.127116 0.000000 0.441836
Si Si6 0.174385 0.296831 0.092264
Si Si7 0.554622 0.189609 0.582798
O O1 0.221001 0.085920 0.914023
O O2 0.149045 0.000000 0.731465
O O3 0.168888 0.000000 0.229540
O O4 0.818491 0.155897 0.472366
O O5 0.864811 0.228385 0.821237
O O6 0.905897 0.235925 0.404319
O O7 0.900204 0.086744 0.604571
O O8 0.781802 0.317399 0.697970
O O9 0.703777 0.248060 0.875824
O O10 0.358382 0.123388 0.965532
O O11 0.429104 0.130120 0.645933
O O12 0.422978 0.000000 0.935611
O O13 0.445538 0.141671 0.153131
O O14 0.500000 0.220736 0.500000
#
# Coordination Sequence:
#
# PCOD9185321 Si02
#       7
#     4   8   8   8   4   8   8
#     4  10  20  34  52  86 113 154 197 236 276 348
#     4  10  20  38  57  86 119 157 199 246 296 353
#     4  10  19  34  56  83 117 161 196 239 289 354
#     4  11  24  42  62  91 123 155 197 250 300 354
#     4  10  20  34  59  80 116 152 192 236 289 344
#     4  10  20  34  58  82 120 158 196 237 298 349
#     4  11  24  42  66  89 117 156 200 251 306 360
#
# _framework density 20.762537999999999
#
# number of rings (size 3 to 8) (size 9 to 14) (size 15 to 20)
#    0.000    1.667    3.333    1.500    1.167    2.000 
#    0.000    0.417    0.000    0.000    0.000    5.833 
#    0.000    0.000    0.000    0.000    0.000    0.000 
#
# Total GULP energy -133754.451481 kJ/mol
# GULP energy per Si atom -5573.102145 kJ/mol
# Density = 2.071528 g / cm^3
# Si number density = 20.762538 Si / 1000 Ang^3
#
#
#
# Elastic Constant Matrix: (Units=GPa)
#
#
# Indices 1 2 3 4 5 6 
#
# 1 63.4444 9.3887 6.4208 0.0000 11.3286 0.0000
# 2 9.3887 127.0137 26.4498 0.0000 -4.1799 0.0000
# 3 6.4208 26.4498 78.2497 0.0000 3.9321 0.0000
# 4 0.0000 0.0000 0.0000 23.5342 0.0000 5.1131
# 5 11.3286 -4.1799 3.9321 0.0000 20.2548 0.0000
# 6 0.0000 0.0000 0.0000 5.1131 0.0000 4.1877
#
#
#
# Elastic Compliance Matrix: (Units=1/GPa)
#
#
# Indices 1 2 3 4 5 6 
#
# 1 0.017864 -0.001570 -0.000421 0.000000 -0.010234 0.000000
# 2 -0.001570 0.008717 -0.002981 0.000000 0.003256 0.000000
# 3 -0.000421 -0.002981 0.013977 0.000000 -0.003093 0.000000
# 4 0.000000 0.000000 0.000000 0.057833 0.000000 -0.070613
# 5 -0.010234 0.003256 -0.003093 0.000000 0.056367 0.000000
# 6 0.000000 0.000000 0.000000 -0.070613 0.000000 0.325011
#
#
# Mechanical properties :
#
#
# Convention : Reuss Voigt Hill
#
# Bulk Modulus (GPa) = 32.66422 39.24738 35.95580
# Shear Modulus (GPa) = 10.00163 24.69191 17.34677
#
# Velocity S-wave (km/s) = 2.19718 3.45230 2.89361
# Velocity P-wave (km/s) = 4.71203 5.90213 5.34034
#
# Compressibility (1/GPa) = 0.03061454
#
# Stress axis : x y z
#
# Youngs Moduli (GPa) = 55.97844 114.71611 71.54436
#
# Poissons Ratio (x) = 0.18006 0.03012
# Poissons Ratio (y) = 0.08786 0.21330
# Poissons Ratio (z) = 0.02357 0.34201
#
# Static dielectric constant tensor:
#      x y z
#    x 1.765720 0.000000 0.032840 
#    y 0.000000 1.813520 0.000000 
#    z 0.032840 0.000000 1.790480 
# 
# From -- ./inp_files/28179.got.cif
#   From: 2010.05.17/outbox.cif.g08.bks.cpg/sg12_15_cif.got.tgz:28179.got - 2010.06.03 13:09:07.
