data_PCOD9185075
_publ_section_title
;
Structure prediction by ZEFSAII (Michael W. Deem and Ramdas Pophale) SiO2 
 PCOD9185075
Probable space group: C 2/M
;
_chemical_formula_sum "Si O2"
_cell_formula_units_Z 50
_cell_length_a 27.306299
_cell_length_b 7.532044
_cell_length_c 11.674031
_cell_angle_alpha 90.000000
_cell_angle_beta 110.616265
_cell_angle_gamma 90.000000
_cell_volume 2247.261665
_symmetry_space_group_name_H-M "C 2/M"
_symmetry_group_IT_number 12
_symmetry_cell_setting 'monoclinic'
loop_
_space_group_symop_operation_xyz
x,y,z
-x,y,-z
-x,-y,-z
x,-y,z
1/2+x,1/2+y,z
1/2-x,1/2+y,-z
1/2-x,1/2-y,-z
1/2+x,1/2-y,z
loop_
_atom_site_type_symbol
_atom_site_label
_atom_site_fract_x
_atom_site_fract_y
_atom_site_fract_z
Si Si1 0.859107 0.783373 0.349989
Si Si2 0.951832 0.284516 0.040619
Si Si3 0.743012 0.712277 0.862160
Si Si4 0.846835 0.709624 0.830352
Si Si5 0.532853 0.293070 0.679804
Si Si6 0.812655 0.789045 0.551418
Si Si7 0.500000 0.000000 0.500000
O O1 0.812060 0.721946 0.229771
O O2 0.913906 0.728612 0.340569
O O3 0.842188 0.722065 0.462239
O O4 0.860831 0.000000 0.352119
O O5 0.951368 0.500000 0.042745
O O6 0.958745 0.224083 0.177123
O O7 0.898218 0.220336 0.936328
O O8 0.000000 0.229227 0.000000
O O9 0.742008 0.500000 0.842668
O O10 0.792969 0.785759 0.836318
O O11 0.750000 0.750000 0.000000
O O12 0.846904 0.500000 0.855698
O O13 0.841669 0.728495 0.690098
O O14 0.522295 0.500000 0.646099
O O15 0.491846 0.157433 0.592331
O O16 0.750000 0.750000 0.500000
O O17 0.816148 0.000000 0.550948
#
# Coordination Sequence:
#
# PCOD9185075 Si02
#       7
#     8   8   8   8   8   8   2
#     4   9  20  39  61  88 130 171 210 268 332 394
#     4  10  22  43  68  99 138 174 223 289 343 406
#     4  10  19  34  55  84 123 160 206 259 314 391
#     4  10  21  38  60  89 127 170 212 264 332 392
#     4  11  24  46  73 100 136 180 225 286 347 407
#     4  11  21  38  60  90 133 173 219 270 327 404
#     4  12  26  48  70 102 140 172 238 290 342 410
#
# _framework density 22.249300000000002
#
# number of rings (size 3 to 8) (size 9 to 14) (size 15 to 20)
#    0.000    1.760    2.400    1.680    0.000    2.880 
#    7.200    1.600    0.000    0.000    0.000    0.000 
#    0.000    0.000    0.000    0.000    0.000    0.000 
#
# Total GULP energy -139451.053660 kJ/mol
# GULP energy per Si atom -5578.042146 kJ/mol
# Density = 2.219866 g / cm^3
# Si number density = 22.249300 Si / 1000 Ang^3
#
#
#
# Elastic Constant Matrix: (Units=GPa)
#
#
# Indices 1 2 3 4 5 6 
#
# 1 103.1566 8.6109 47.2801 0.0000 -16.9204 0.0000
# 2 8.6109 87.2213 3.0058 0.0000 10.4918 0.0000
# 3 47.2801 3.0058 167.2488 0.0000 -13.7344 0.0000
# 4 0.0000 0.0000 0.0000 30.3198 0.0000 -15.0976
# 5 -16.9204 10.4918 -13.7344 0.0000 37.3608 0.0000
# 6 0.0000 0.0000 0.0000 -15.0976 0.0000 -6.7513
#
#
#
# Elastic Compliance Matrix: (Units=1/GPa)
#
#
# Indices 1 2 3 4 5 6 
#
# 1 0.011977 -0.001658 -0.002962 0.000000 0.004801 0.000000
# 2 -0.001658 0.012136 -0.000094 0.000000 -0.004194 0.000000
# 3 -0.002962 -0.000094 0.006919 0.000000 0.001228 0.000000
# 4 0.000000 0.000000 0.000000 0.015605 0.000000 -0.034897
# 5 0.004801 -0.004194 0.001228 0.000000 0.030570 0.000000
# 6 0.000000 0.000000 0.000000 -0.034897 0.000000 -0.070082
#
#
# Mechanical properties :
#
#
# Convention : Reuss Voigt Hill
#
# Bulk Modulus (GPa) = 46.28417 52.82445 49.55431
# Shear Modulus (GPa) = 210.48131 32.10118 121.29125
#
# Velocity S-wave (km/s) = 9.73687 3.80254 7.39141
# Velocity P-wave (km/s) = 12.13493 6.56298 9.75524
#
# Compressibility (1/GPa) = 0.02160566
#
# Stress axis : x y z
#
# Youngs Moduli (GPa) = 83.49024 82.39655 144.52985
#
# Poissons Ratio (x) = 0.13661 0.42808
# Poissons Ratio (y) = 0.13842 0.01356
# Poissons Ratio (z) = 0.24729 0.00773
#
# Static dielectric constant tensor:
#      x y z
#    x 1.839630 0.000000 0.058850 
#    y 0.000000 1.822100 0.000000 
#    z 0.058850 0.000000 1.751510 
# 
# From -- ./inp_files/180191.got.cif
#   From: 2010.05.17/outbox.cif.g08.bks.cpg/sg12_91_cif.got.tgz:180191.got - 2010.06.03 13:09:07.
