data_PCOD9185229
_publ_section_title
;
Structure prediction by ZEFSAII (Michael W. Deem and Ramdas Pophale) SiO2 
 PCOD9185229
Probable space group: C 2/M
;
_chemical_formula_sum "Si O2"
_cell_formula_units_Z 56
_cell_length_a 13.165917
_cell_length_b 11.300883
_cell_length_c 30.231523
_cell_angle_alpha 90.000000
_cell_angle_beta 38.165309
_cell_angle_gamma 90.000000
_cell_volume 2779.486268
_symmetry_space_group_name_H-M "C 2/M"
_symmetry_group_IT_number 12
_symmetry_cell_setting 'monoclinic'
loop_
_space_group_symop_operation_xyz
x,y,z
-x,y,-z
-x,-y,-z
x,-y,z
1/2+x,1/2+y,z
1/2-x,1/2+y,-z
1/2-x,1/2-y,-z
1/2+x,1/2-y,z
loop_
_atom_site_type_symbol
_atom_site_label
_atom_site_fract_x
_atom_site_fract_y
_atom_site_fract_z
Si Si1 0.438956 0.863306 0.066661
Si Si2 0.886602 0.874064 0.680322
Si Si3 0.332863 0.321614 0.350167
Si Si4 0.458776 0.859037 0.158307
Si Si5 0.757855 0.130960 0.556368
Si Si6 0.506958 0.808281 0.424709
Si Si7 0.950783 0.136032 0.811097
O O1 0.496064 0.821294 0.095150
O O2 0.242119 0.863250 0.133858
O O3 0.496363 0.000000 0.045967
O O4 0.500000 0.805724 0.000000
O O5 0.737985 0.861384 0.765585
O O6 0.060824 0.872754 0.645685
O O7 0.885054 0.770604 0.645861
O O8 0.866822 0.000000 0.664065
O O9 0.312584 0.186395 0.374236
O O10 0.440724 0.344770 0.269966
O O11 0.148432 0.368735 0.405232
O O12 0.520883 0.751705 0.167910
O O13 0.509368 0.000000 0.148192
O O14 0.618774 0.127841 0.565387
O O15 0.895297 0.221064 0.491890
O O16 0.820855 0.000000 0.541122
O O17 0.987744 0.000000 0.815195
#
# Coordination Sequence:
#
# PCOD9185229 Si02
#       7
#     8   8   8   8   8   8   8
#     4   9  19  38  64  91 123 162 200 237 287 358
#     4  10  19  34  56  81 109 147 190 237 287 348
#     4  11  21  35  55  84 110 146 194 245 288 346
#     4  10  20  37  60  89 122 155 197 242 292 352
#     4  10  23  39  56  79 113 155 198 246 303 362
#     4  10  21  38  55  79 113 146 190 249 302 351
#     4  11  22  38  62  91 122 158 201 245 298 354
#
# _framework density 20.147608999999999
#
# number of rings (size 3 to 8) (size 9 to 14) (size 15 to 20)
#    0.000    1.857    2.857    1.286    0.000    4.000 
#    0.000    1.429    0.000    8.571    0.000    0.000 
#    0.000    0.000    0.000    0.000    0.000    0.000 
#
# Total GULP energy -155935.922611 kJ/mol
# GULP energy per Si atom -5569.140093 kJ/mol
# Density = 2.010175 g / cm^3
# Si number density = 20.147609 Si / 1000 Ang^3
#
#
#
# Elastic Constant Matrix: (Units=GPa)
#
#
# Indices 1 2 3 4 5 6 
#
# 1 64.0277 28.9377 -8.0263 0.0000 5.9900 0.0000
# 2 28.9377 115.4416 24.2823 0.0000 20.9843 0.0000
# 3 -8.0263 24.2823 68.7608 0.0000 17.0000 0.0000
# 4 0.0000 0.0000 0.0000 29.7663 0.0000 11.1955
# 5 5.9900 20.9843 17.0000 0.0000 23.8922 0.0000
# 6 0.0000 0.0000 0.0000 11.1955 0.0000 12.8624
#
#
#
# Elastic Compliance Matrix: (Units=1/GPa)
#
#
# Indices 1 2 3 4 5 6 
#
# 1 0.018889 -0.005086 0.004936 0.000000 -0.003781 0.000000
# 2 -0.005086 0.011844 -0.003058 0.000000 -0.006952 0.000000
# 3 0.004936 -0.003058 0.019223 0.000000 -0.012229 0.000000
# 4 0.000000 0.000000 0.000000 0.049946 0.000000 -0.043473
# 5 -0.003781 -0.006952 -0.012229 0.000000 0.057610 0.000000
# 6 0.000000 0.000000 0.000000 -0.043473 0.000000 0.115586
#
#
# Mechanical properties :
#
#
# Convention : Reuss Voigt Hill
#
# Bulk Modulus (GPa) = 22.96722 37.62415 30.29568
# Shear Modulus (GPa) = 17.00527 26.83992 21.92259
#
# Velocity S-wave (km/s) = 2.90838 3.65384 3.30221
# Velocity P-wave (km/s) = 4.76471 6.04281 5.44141
#
# Compressibility (1/GPa) = 0.04354032
#
# Stress axis : x y z
#
# Youngs Moduli (GPa) = 52.94011 84.43025 52.02215
#
# Poissons Ratio (x) = 0.42941 -0.25676
# Poissons Ratio (y) = 0.26925 0.15906
# Poissons Ratio (z) = -0.26129 0.25815
#
# Static dielectric constant tensor:
#      x y z
#    x 1.744890 0.000000 0.015400 
#    y 0.000000 1.747360 0.000000 
#    z 0.015400 0.000000 1.723330 
# 
# From -- ./inp_files/375882.got.cif
#   From: 2010.05.17/outbox.cif.g08.bks.cpg/sg12_188_cif.got.tgz:375882.got - 2010.06.03 13:09:07.
