data_PCOD9185504
_publ_section_title
;
Structure prediction by ZEFSAII (Michael W. Deem and Ramdas Pophale) SiO2 
 PCOD9185504
Probable space group: C 2/M
;
_chemical_formula_sum "Si O2"
_cell_formula_units_Z 48
_cell_length_a 29.662350
_cell_length_b 7.464794
_cell_length_c 15.288168
_cell_angle_alpha 90.000000
_cell_angle_beta 38.261719
_cell_angle_gamma 90.000000
_cell_volume 2096.273977
_symmetry_space_group_name_H-M "C 2/M"
_symmetry_group_IT_number 12
_symmetry_cell_setting 'monoclinic'
loop_
_space_group_symop_operation_xyz
x,y,z
-x,y,-z
-x,-y,-z
x,-y,z
1/2+x,1/2+y,z
1/2-x,1/2+y,-z
1/2-x,1/2-y,-z
1/2+x,1/2-y,z
loop_
_atom_site_type_symbol
_atom_site_label
_atom_site_fract_x
_atom_site_fract_y
_atom_site_fract_z
Si Si1 0.738985 0.799537 0.617408
Si Si2 0.898688 0.282227 0.412423
Si Si3 0.823349 0.285575 0.940507
Si Si4 0.490056 0.783863 0.113340
Si Si5 0.651217 0.217692 0.909377
Si Si6 0.980167 0.718730 0.629001
O O1 0.750000 0.750000 0.500000
O O2 0.817102 0.787640 0.545947
O O3 0.683484 0.708958 0.769594
O O4 0.710998 0.000000 0.652344
O O5 0.895502 0.500000 0.417691
O O6 0.926676 0.221926 0.273913
O O7 0.957046 0.228041 0.397260
O O8 0.831818 0.500000 0.932770
O O9 0.899336 0.221097 0.781733
O O10 0.750000 0.250000 0.000000
O O11 0.814115 0.217085 0.053658
O O12 0.481705 0.000000 0.119553
O O13 0.500000 0.715690 0.000000
O O14 0.565810 0.746902 0.045681
O O15 0.659407 0.000000 0.894800
O O16 0.979795 0.500000 0.630375
O O17 0.000000 0.774405 0.500000
#
# Coordination Sequence:
#
# PCOD9185504 Si02
#       6
#     8   8   8   8   8   8
#     4  11  23  38  56  80 112 147 184 226 273 326
#     4  10  19  34  57  82 108 139 180 228 273 321
#     4  10  20  36  57  82 111 143 182 225 270 322
#     4   9  15  27  52  79  98 128 177 222 259 310
#     4   9  18  34  54  78 108 142 182 223 262 318
#     4   9  18  33  55  83 111 141 180 224 270 323
#
# _framework density 22.897770000000001
#
# number of rings (size 3 to 8) (size 9 to 14) (size 15 to 20)
#    0.000    2.333    1.667    1.500    2.333    2.667 
#    0.000    1.667    0.000    6.500    0.000    0.000 
#    0.000    0.000    0.000    0.000    0.000    0.000 
#
# Total GULP energy -133982.541377 kJ/mol
# GULP energy per Si atom -5582.605891 kJ/mol
# Density = 2.284565 g / cm^3
# Si number density = 22.897770 Si / 1000 Ang^3
#
#
#
# Elastic Constant Matrix: (Units=GPa)
#
#
# Indices 1 2 3 4 5 6 
#
# 1 88.1232 -4.9703 4.0299 -0.0003 13.7631 0.0001
# 2 -4.9703 60.4273 0.4337 -0.0071 8.3047 0.0018
# 3 4.0299 0.4337 101.9375 -0.0018 8.8445 0.0005
# 4 -0.0003 -0.0071 -0.0018 -2.5284 0.0006 -5.3662
# 5 13.7631 8.3047 8.8445 0.0006 37.3465 -0.0001
# 6 0.0001 0.0018 0.0005 -5.3662 -0.0001 16.3761
#
#
#
# Elastic Compliance Matrix: (Units=1/GPa)
#
#
# Indices 1 2 3 4 5 6 
#
# 1 0.012203 0.001671 -0.000069 -0.000004 -0.004852 -0.000002
# 2 0.001671 0.017306 0.000253 -0.000027 -0.004524 -0.000011
# 3 -0.000069 0.000253 0.010020 -0.000005 -0.002404 -0.000002
# 4 -0.000004 -0.000027 -0.000005 -0.233272 0.000012 -0.076439
# 5 -0.004852 -0.004524 -0.002404 0.000012 0.030140 0.000005
# 6 -0.000002 -0.000011 -0.000002 -0.076439 0.000005 0.036017
#
#
# Mechanical properties :
#
#
# Convention : Reuss Voigt Hill
#
# Bulk Modulus (GPa) = 23.12662 27.71940 25.42301
# Shear Modulus (GPa) = -42.77746 26.97181 -7.90282
#
# Velocity S-wave (km/s) = -4.32695 3.43581 -1.85980
# Velocity P-wave (km/s) = 3.85246 5.27937 2.55248
#
# Compressibility (1/GPa) = 0.04324022
#
# Stress axis : x y z
#
# Youngs Moduli (GPa) = 81.94710 57.78272 99.79893
#
# Poissons Ratio (x) = -0.09656 0.00684
# Poissons Ratio (y) = -0.13694 -0.02523
# Poissons Ratio (z) = 0.00561 -0.01461
#
# Static dielectric constant tensor:
#      x y z
#    x 1.848230 0.000000 0.044380 
#    y 0.000000 1.918200 0.000000 
#    z 0.044380 0.000000 1.852480 
# 
# From -- ./inp_files/230447.got.cif
#   From: 2010.05.17/outbox.cif.g08.bks.cpg/sg12_116_cif.got.tgz:230447.got - 2010.06.03 13:09:07.
