data_PCOD9185591
_publ_section_title
;
Structure prediction by ZEFSAII (Michael W. Deem and Ramdas Pophale) SiO2 
 PCOD9185591
Probable space group: C 2/M
;
_chemical_formula_sum "Si O2"
_cell_formula_units_Z 54
_cell_length_a 5.163036
_cell_length_b 24.718954
_cell_length_c 23.020076
_cell_angle_alpha 90.000000
_cell_angle_beta 87.632058
_cell_angle_gamma 90.000000
_cell_volume 2935.425042
_symmetry_space_group_name_H-M "C 2/M"
_symmetry_group_IT_number 12
_symmetry_cell_setting 'monoclinic'
loop_
_space_group_symop_operation_xyz
x,y,z
-x,y,-z
-x,-y,-z
x,-y,z
1/2+x,1/2+y,z
1/2-x,1/2+y,-z
1/2-x,1/2-y,-z
1/2+x,1/2-y,z
loop_
_atom_site_type_symbol
_atom_site_label
_atom_site_fract_x
_atom_site_fract_y
_atom_site_fract_z
Si Si1 0.128180 0.280861 0.123424
Si Si2 0.002347 0.064268 0.178287
Si Si3 0.000465 0.625520 0.209905
Si Si4 0.945767 0.712057 0.688811
Si Si5 0.181080 0.911594 0.050339
Si Si6 0.000000 0.500000 0.000000
Si Si7 0.000000 0.314257 0.000000
Si Si8 0.051223 0.286261 0.560752
O O1 0.410375 0.263151 0.142062
O O2 0.040364 0.336934 0.152408
O O3 0.123347 0.284085 0.053574
O O4 0.226901 0.095877 0.210184
O O5 0.031397 0.085097 0.111592
O O6 0.727016 0.081655 0.205727
O O7 0.038105 0.000000 0.178309
O O8 0.029369 0.666456 0.263042
O O9 0.671977 0.743144 0.694780
O O10 0.986584 0.688102 0.623483
O O11 0.281631 0.853164 0.030420
O O12 0.000000 0.934007 0.000000
O O13 0.422002 0.952420 0.047953
O O14 0.343906 0.263621 0.559860
O O15 0.000000 0.316022 0.500000
#
# Coordination Sequence:
#
# PCOD9185591 Si02
#       8
#     8   8   8   8   8   2   4   8
#     4  12  25  40  58  77 105 140 173 211 256 311
#     4  12  26  42  62  80 106 134 175 229 293 333
#     4  12  24  42  58  82 109 141 185 224 263 330
#     4  10  19  34  57  83 117 157 189 219 261 312
#     4  11  23  37  59  76 102 127 164 220 286 339
#     4  10  22  36  56  86  92 124 166 220 282 370
#     4  11  24  39  54  76 102 130 169 208 265 322
#     4   8  14  25  45  77 115 152 186 219 256 301
#
# _framework density 18.395973000000001
#
# number of rings (size 3 to 8) (size 9 to 14) (size 15 to 20)
#    0.000    1.185    2.222    4.667    4.148    0.000 
#    0.000    0.000    0.000    0.000    0.000    0.000 
#    0.000    3.556    0.000    0.000    0.000    0.000 
#
# Total GULP energy -150658.589065 kJ/mol
# GULP energy per Si atom -5579.947743 kJ/mol
# Density = 1.835410 g / cm^3
# Si number density = 18.395973 Si / 1000 Ang^3
#
#
#
# Elastic Constant Matrix: (Units=GPa)
#
#
# Indices 1 2 3 4 5 6 
#
# 1 48.8335 0.1318 1.6740 0.0000 6.6289 0.0000
# 2 0.1318 41.3866 6.6288 0.0000 4.3917 0.0000
# 3 1.6740 6.6288 102.0026 0.0000 6.9649 0.0000
# 4 0.0000 0.0000 0.0000 5.4585 0.0000 -9.1780
# 5 6.6289 4.3917 6.9649 0.0000 19.0700 0.0000
# 6 0.0000 0.0000 0.0000 -9.1780 0.0000 105.3613
#
#
#
# Elastic Compliance Matrix: (Units=1/GPa)
#
#
# Indices 1 2 3 4 5 6 
#
# 1 0.021516 0.000728 0.000125 0.000000 -0.007692 0.000000
# 2 0.000728 0.024949 -0.001255 0.000000 -0.005540 0.000000
# 3 0.000125 -0.001255 0.010119 0.000000 -0.003450 0.000000
# 4 0.000000 0.000000 0.000000 0.214637 0.000000 0.018697
# 5 -0.007692 -0.005540 -0.003450 0.000000 0.057648 0.000000
# 6 0.000000 0.000000 0.000000 0.018697 0.000000 0.011120
#
#
# Mechanical properties :
#
#
# Convention : Reuss Voigt Hill
#
# Bulk Modulus (GPa) = 17.92799 23.23243 20.58021
# Shear Modulus (GPa) = 13.91261 38.23051 26.07156
#
# Velocity S-wave (km/s) = 2.75305 4.56367 3.76871
# Velocity P-wave (km/s) = 4.45785 6.35814 5.49083
#
# Compressibility (1/GPa) = 0.05577871
#
# Stress axis : x y z
#
# Youngs Moduli (GPa) = 46.47770 40.08171 98.82639
#
# Poissons Ratio (x) = -0.02917 -0.01234
# Poissons Ratio (y) = -0.03382 0.12403
# Poissons Ratio (z) = -0.00580 0.05030
#
# Static dielectric constant tensor:
#      x y z
#    x 1.725320 0.000000 0.011420 
#    y 0.000000 1.620050 0.000000 
#    z 0.011420 0.000000 1.693080 
# 
# From -- ./inp_files/331190.got.cif
#   From: 2010.05.17/outbox.cif.g08.bks.cpg/sg12_166_cif.got.tgz:331190.got - 2010.06.03 13:09:07.
