data_PCOD9185333
_publ_section_title
;
Structure prediction by ZEFSAII (Michael W. Deem and Ramdas Pophale) SiO2 
 PCOD9185333
Probable space group: C 2/M
;
_chemical_formula_sum "Si O2"
_cell_formula_units_Z 48
_cell_length_a 29.098477
_cell_length_b 8.527176
_cell_length_c 17.799015
_cell_angle_alpha 90.000000
_cell_angle_beta 35.369789
_cell_angle_gamma 90.000000
_cell_volume 2556.456812
_symmetry_space_group_name_H-M "C 2/M"
_symmetry_group_IT_number 12
_symmetry_cell_setting 'monoclinic'
loop_
_space_group_symop_operation_xyz
x,y,z
-x,y,-z
-x,-y,-z
x,-y,z
1/2+x,1/2+y,z
1/2-x,1/2+y,-z
1/2-x,1/2-y,-z
1/2+x,1/2-y,z
loop_
_atom_site_type_symbol
_atom_site_label
_atom_site_fract_x
_atom_site_fract_y
_atom_site_fract_z
Si Si1 0.160614 0.684881 0.622283
Si Si2 0.517134 0.311973 0.716139
Si Si3 0.961133 0.689898 0.630449
Si Si4 0.631669 0.691462 0.980765
Si Si5 0.720624 0.810786 0.118625
Si Si6 0.094695 0.815663 0.864430
O O1 0.162992 0.500000 0.607479
O O2 0.250000 0.750000 0.500000
O O3 0.099752 0.756905 0.642479
O O4 0.124841 0.725477 0.751708
O O5 0.515758 0.500000 0.717544
O O6 0.501747 0.252045 0.652282
O O7 0.443750 0.258204 0.867997
O O8 0.963750 0.500000 0.630362
O O9 0.000000 0.739062 0.500000
O O10 0.869405 0.741545 0.750265
O O11 0.628445 0.500000 0.983830
O O12 0.714101 0.741115 0.908138
O O13 0.627592 0.743066 0.900119
O O14 0.720771 0.000000 0.118639
O O15 0.750000 0.750000 0.000000
O O16 0.115495 0.000000 0.826485
O O17 0.000000 0.807392 0.000000
#
# Coordination Sequence:
#
# PCOD9185333 Si02
#       6
#     8   8   8   8   8   8
#     4  12  26  43  63  91 126 162 204 254 311 370
#     4  11  21  39  64  89 119 159 206 251 310 371
#     4  10  22  38  57  87 126 163 203 252 308 366
#     4   9  18  33  58  88 120 160 203 247 302 361
#     4  10  19  34  56  84 115 154 200 246 293 349
#     4  10  19  37  63  91 122 161 205 250 304 363
#
# _framework density 18.775987000000001
#
# number of rings (size 3 to 8) (size 9 to 14) (size 15 to 20)
#    0.000    1.667    3.333    2.000    0.000    2.000 
#    0.000    4.167    0.000    0.000    0.000    0.000 
#    0.000    0.000    0.000    0.000    0.000    0.000 
#
# Total GULP energy -134015.618715 kJ/mol
# GULP energy per Si atom -5583.984113 kJ/mol
# Density = 1.873325 g / cm^3
# Si number density = 18.775987 Si / 1000 Ang^3
#
#
#
# Elastic Constant Matrix: (Units=GPa)
#
#
# Indices 1 2 3 4 5 6 
#
# 1 202.0381 31.8227 78.5920 -0.0039 -9.9302 0.0024
# 2 31.8227 36.9124 30.1702 -0.0063 -2.2430 0.0064
# 3 78.5920 30.1702 132.3613 -0.0036 -8.2450 0.0045
# 4 -0.0039 -0.0063 -0.0036 17.3084 0.0017 6.1406
# 5 -9.9302 -2.2430 -8.2450 0.0017 30.8201 -0.0015
# 6 0.0024 0.0064 0.0045 6.1406 -0.0015 30.4595
#
#
#
# Elastic Compliance Matrix: (Units=1/GPa)
#
#
# Indices 1 2 3 4 5 6 
#
# 1 0.006750 -0.003113 -0.003231 -0.000001 0.001084 0.000001
# 2 -0.003113 0.034734 -0.006075 0.000014 -0.000100 -0.000009
# 3 -0.003231 -0.006075 0.010948 -0.000001 0.001446 0.000000
# 4 -0.000001 0.000014 -0.000001 0.062226 -0.000003 -0.012545
# 5 0.001084 -0.000100 0.001446 -0.000003 0.033175 0.000002
# 6 0.000001 -0.000009 0.000000 -0.012545 0.000002 0.035359
#
#
# Mechanical properties :
#
#
# Convention : Reuss Voigt Hill
#
# Bulk Modulus (GPa) = 36.23876 72.49797 54.36836
# Shear Modulus (GPa) = 23.01724 31.09940 27.05832
#
# Velocity S-wave (km/s) = 3.50507 4.07423 3.80032
# Velocity P-wave (km/s) = 5.97688 7.79925 6.94807
#
# Compressibility (1/GPa) = 0.02759476
#
# Stress axis : x y z
#
# Youngs Moduli (GPa) = 148.15050 28.79015 91.33812
#
# Poissons Ratio (x) = 0.08961 0.29510
# Poissons Ratio (y) = 0.46113 0.55491
# Poissons Ratio (z) = 0.47866 0.17491
#
# Static dielectric constant tensor:
#      x y z
#    x 1.609530 0.000000 0.015640 
#    y 0.000000 1.655670 0.000000 
#    z 0.015640 0.000000 1.607800 
# 
# From -- ./inp_files/295367.got.cif
#   From: 2010.05.17/outbox.cif.g08.bks.cpg/sg12_148_cif.got.tgz:295367.got - 2010.06.03 13:09:07.
