data_PCOD9186415
_publ_section_title
;
Structure prediction by ZEFSAII (Michael W. Deem and Ramdas Pophale) SiO2 
 PCOD9186415
Probable space group: C 2/M
;
_chemical_formula_sum "Si O2"
_cell_formula_units_Z 58
_cell_length_a 20.203048
_cell_length_b 17.949992
_cell_length_c 10.802388
_cell_angle_alpha 90.000000
_cell_angle_beta 43.792828
_cell_angle_gamma 90.000000
_cell_volume 2711.066504
_symmetry_space_group_name_H-M "C 2/M"
_symmetry_group_IT_number 12
_symmetry_cell_setting 'monoclinic'
loop_
_space_group_symop_operation_xyz
x,y,z
-x,y,-z
-x,-y,-z
x,-y,z
1/2+x,1/2+y,z
1/2-x,1/2+y,-z
1/2-x,1/2-y,-z
1/2+x,1/2-y,z
loop_
_atom_site_type_symbol
_atom_site_label
_atom_site_fract_x
_atom_site_fract_y
_atom_site_fract_z
Si Si1 0.268513 0.367923 0.179087
Si Si2 0.677363 0.080725 0.844310
Si Si3 0.074525 0.738141 0.011476
Si Si4 0.754961 0.626521 0.514483
Si Si5 0.110361 0.767104 0.614980
Si Si6 0.000000 0.000000 0.500000
Si Si7 0.612453 0.243529 0.337306
Si Si8 0.340793 0.395310 0.828554
O O1 0.247065 0.404288 0.342258
O O2 0.172057 0.332154 0.252180
O O3 0.340446 0.297933 0.107275
O O4 0.313547 0.413821 0.006194
O O5 0.717466 0.084153 0.648626
O O6 0.760914 0.083609 0.834602
O O7 0.627685 0.000000 0.925132
O O8 0.614510 0.154435 0.951778
O O9 0.001426 0.751693 0.222542
O O10 0.000000 0.748936 0.000000
O O11 0.831007 0.694977 0.417715
O O12 0.650371 0.661728 0.632223
O O13 0.139244 0.778423 0.434696
O O14 0.936999 0.064648 0.656577
O O15 0.500000 0.230318 0.500000
O O16 0.646480 0.305884 0.196309
#
# Coordination Sequence:
#
# PCOD9186415 Si02
#       8
#     8   8   8   8   8   2   8   8
#     4  11  24  39  66 100 131 162 215 287 334 369
#     4  12  25  42  63  90 132 181 215 257 316 402
#     4  12  21  37  64  99 132 166 217 274 332 375
#     4  10  19  41  60  89 128 170 213 263 331 376
#     4  10  19  34  62  93 128 165 206 281 331 374
#     4  12  28  48  64  86 132 188 210 248 330 392
#     4  11  21  36  64  97 130 161 212 273 332 385
#     4  12  24  43  65  94 130 173 221 267 323 393
#
# _framework density 21.393795999999998
#
# number of rings (size 3 to 8) (size 9 to 14) (size 15 to 20)
#    0.000    0.828    6.897    2.069    1.931    0.276 
#    1.241    0.000    0.000    0.828    0.000    2.414 
#    0.000    0.000    0.000    0.000    0.000    0.000 
#
# Total GULP energy -161603.898058 kJ/mol
# GULP energy per Si atom -5572.548209 kJ/mol
# Density = 2.134510 g / cm^3
# Si number density = 21.393796 Si / 1000 Ang^3
#
#
#
# Elastic Constant Matrix: (Units=GPa)
#
#
# Indices 1 2 3 4 5 6 
#
# 1 75.2621 21.7630 16.8552 0.0000 8.3827 0.0000
# 2 21.7630 54.8432 -3.7539 0.0000 -11.7998 0.0000
# 3 16.8552 -3.7539 64.8733 0.0000 -0.0186 0.0000
# 4 0.0000 0.0000 0.0000 -34.7969 0.0000 0.6310
# 5 8.3827 -11.7998 -0.0186 0.0000 40.1946 0.0000
# 6 0.0000 0.0000 0.0000 0.6310 0.0000 -9.8105
#
#
#
# Elastic Compliance Matrix: (Units=1/GPa)
#
#
# Indices 1 2 3 4 5 6 
#
# 1 0.017631 -0.008684 -0.005085 0.000000 -0.006229 0.000000
# 2 -0.008684 0.023824 0.003637 0.000000 0.008807 0.000000
# 3 -0.005085 0.003637 0.016947 0.000000 0.002136 0.000000
# 4 0.000000 0.000000 0.000000 -0.028772 0.000000 -0.001851
# 5 -0.006229 0.008807 0.002136 0.000000 0.028764 0.000000
# 6 0.000000 0.000000 0.000000 -0.001851 0.000000 -0.102051
#
#
# Mechanical properties :
#
#
# Convention : Reuss Voigt Hill
#
# Bulk Modulus (GPa) = 26.22107 29.41193 27.81650
# Shear Modulus (GPa) = -468.14896 9.79174 -229.17861
#
# Velocity S-wave (km/s) = -14.80877 2.14169 -10.36129
# Velocity P-wave (km/s) = 16.73668 4.46021 11.40664
#
# Compressibility (1/GPa) = 0.03813727
#
# Stress axis : x y z
#
# Youngs Moduli (GPa) = 56.71921 41.97479 59.00769
#
# Poissons Ratio (x) = 0.36453 0.30006
# Poissons Ratio (y) = 0.49258 -0.21464
# Poissons Ratio (z) = 0.28842 -0.15268
#
# Static dielectric constant tensor:
#      x y z
#    x 1.839570 0.000000 0.072700 
#    y 0.000000 1.767170 0.000000 
#    z 0.072700 0.000000 1.836060 
# 
# From -- ./inp_files/168942.got.cif
#   From: 2010.05.17/outbox.cif.g08.bks.cpg/sg12_85_cif.got.tgz:168942.got - 2010.06.03 13:09:07.
