data_PCOD9186790
_publ_section_title
;
Structure prediction by ZEFSAII (Michael W. Deem and Ramdas Pophale) SiO2 
 PCOD9186790
Probable space group: C 2/M
;
_chemical_formula_sum "Si O2"
_cell_formula_units_Z 56
_cell_length_a 14.225630
_cell_length_b 23.757879
_cell_length_c 9.683576
_cell_angle_alpha 90.000000
_cell_angle_beta 117.312167
_cell_angle_gamma 90.000000
_cell_volume 2907.917349
_symmetry_space_group_name_H-M "C 2/M"
_symmetry_group_IT_number 12
_symmetry_cell_setting 'monoclinic'
loop_
_space_group_symop_operation_xyz
x,y,z
-x,y,-z
-x,-y,-z
x,-y,z
1/2+x,1/2+y,z
1/2-x,1/2+y,-z
1/2-x,1/2-y,-z
1/2+x,1/2-y,z
loop_
_atom_site_type_symbol
_atom_site_label
_atom_site_fract_x
_atom_site_fract_y
_atom_site_fract_z
Si Si1 0.686438 0.564783 0.644344
Si Si2 0.320723 0.736359 0.182055
Si Si3 0.844486 0.665041 0.804415
Si Si4 0.087908 0.882993 0.827148
Si Si5 0.722910 0.066599 0.858252
Si Si6 0.563288 0.158881 0.820989
Si Si7 0.124494 0.935034 0.284748
O O1 0.715223 0.500000 0.687454
O O2 0.780706 0.607397 0.742145
O O3 0.594519 0.582388 0.688457
O O4 0.654024 0.571829 0.464185
O O5 0.241358 0.715684 0.248979
O O6 0.391642 0.682179 0.191964
O O7 0.390038 0.792017 0.244485
O O8 0.250000 0.750000 0.000000
O O9 0.938242 0.665948 0.757094
O O10 0.892749 0.665525 0.991875
O O11 0.974804 0.895700 0.816947
O O12 0.186484 0.906328 0.982542
O O13 0.613956 0.100257 0.805110
O O14 0.773283 0.074594 0.740821
O O15 0.712427 0.000000 0.878964
O O16 0.090859 0.000000 0.237955
#
# Coordination Sequence:
#
# PCOD9186790 Si02
#       7
#     8   8   8   8   8   8   8
#     4  10  19  35  56  79 113 151 187 225 272 328
#     4   9  17  34  52  82 108 136 178 229 278 321
#     4   9  19  33  56  82 106 136 190 234 260 327
#     4  11  19  33  58  82 107 145 187 234 270 325
#     4  11  21  34  52  81 116 142 178 231 279 326
#     4  10  19  35  56  84 110 142 179 236 277 325
#     4  10  22  35  51  81 118 152 183 222 278 338
#
# _framework density 19.257767999999999
#
# number of rings (size 3 to 8) (size 9 to 14) (size 15 to 20)
#    0.000    2.000    4.286    2.143    0.000    4.000 
#    5.143    2.143    0.000   13.714    0.000    0.000 
#    0.000    0.000    0.000    0.000    0.000    0.000 
#
# Total GULP energy -156125.723714 kJ/mol
# GULP energy per Si atom -5575.918704 kJ/mol
# Density = 1.921394 g / cm^3
# Si number density = 19.257768 Si / 1000 Ang^3
#
#
#
# Elastic Constant Matrix: (Units=GPa)
#
#
# Indices 1 2 3 4 5 6 
#
# 1 121.1151 53.7773 1.4422 0.0000 -2.5413 0.0000
# 2 53.7773 108.2581 9.7469 0.0000 3.0856 0.0000
# 3 1.4422 9.7469 30.5288 0.0000 -12.2734 0.0000
# 4 0.0000 0.0000 0.0000 -10.7031 0.0000 -3.4909
# 5 -2.5413 3.0856 -12.2734 0.0000 18.1239 0.0000
# 6 0.0000 0.0000 0.0000 -3.4909 0.0000 20.7440
#
#
#
# Elastic Compliance Matrix: (Units=1/GPa)
#
#
# Indices 1 2 3 4 5 6 
#
# 1 0.010914 -0.005849 0.003253 0.000000 0.004729 0.000000
# 2 -0.005849 0.012994 -0.006996 0.000000 -0.007770 0.000000
# 3 0.003253 -0.006996 0.048778 0.000000 0.034680 0.000000
# 4 0.000000 0.000000 0.000000 -0.088569 0.000000 -0.014905
# 5 0.004729 -0.007770 0.034680 0.000000 0.080647 0.000000
# 6 0.000000 0.000000 0.000000 -0.014905 0.000000 0.045699
#
#
# Mechanical properties :
#
#
# Convention : Reuss Voigt Hill
#
# Bulk Modulus (GPa) = 18.69090 43.31497 31.00294
# Shear Modulus (GPa) = 33.90264 18.62866 26.26565
#
# Velocity S-wave (km/s) = 4.20034 3.11357 3.69711
# Velocity P-wave (km/s) = 5.76633 5.95540 5.86163
#
# Compressibility (1/GPa) = 0.05350196
#
# Stress axis : x y z
#
# Youngs Moduli (GPa) = 91.62251 76.95712 20.50104
#
# Poissons Ratio (x) = 0.45015 -0.06670
# Poissons Ratio (y) = 0.53594 0.14343
# Poissons Ratio (z) = -0.29808 0.53841
#
# Static dielectric constant tensor:
#      x y z
#    x 1.709580 0.000000 -0.016970 
#    y 0.000000 1.661550 0.000000 
#    z -0.016970 0.000000 1.675810 
# 
# From -- ./inp_files/65429.got.cif
#   From: 2010.05.17/outbox.cif.g08.bks.cpg/sg12_33_cif.got.tgz:65429.got - 2010.06.03 13:09:07.
