data_PCOD9186031
_publ_section_title
;
Structure prediction by ZEFSAII (Michael W. Deem and Ramdas Pophale) SiO2 
 PCOD9186031
Probable space group: C 2/M
;
_chemical_formula_sum "Si O2"
_cell_formula_units_Z 44
_cell_length_a 17.599095
_cell_length_b 8.416605
_cell_length_c 27.868229
_cell_angle_alpha 90.000000
_cell_angle_beta 28.932514
_cell_angle_gamma 90.000000
_cell_volume 1997.026206
_symmetry_space_group_name_H-M "C 2/M"
_symmetry_group_IT_number 12
_symmetry_cell_setting 'monoclinic'
loop_
_space_group_symop_operation_xyz
x,y,z
-x,y,-z
-x,-y,-z
x,-y,z
1/2+x,1/2+y,z
1/2-x,1/2+y,-z
1/2-x,1/2-y,-z
1/2+x,1/2-y,z
loop_
_atom_site_type_symbol
_atom_site_label
_atom_site_fract_x
_atom_site_fract_y
_atom_site_fract_z
Si Si1 0.124749 0.500000 0.632412
Si Si2 0.092665 0.818150 0.777087
Si Si3 0.760318 0.189431 0.939695
Si Si4 0.346933 0.740592 0.561306
Si Si5 0.083624 0.310891 0.886962
Si Si6 0.461740 0.000000 0.424727
Si Si7 0.283343 0.000000 0.793121
O O1 0.216174 0.643475 0.605595
O O2 0.146008 0.500000 0.563210
O O3 0.936761 0.500000 0.742253
O O4 0.247276 0.816094 0.659633
O O5 0.103500 0.707181 0.817932
O O6 0.940866 0.769948 0.828404
O O7 0.060462 0.000000 0.811329
O O8 0.748171 0.000000 0.945308
O O9 0.750000 0.250000 0.000000
O O10 0.599172 0.237058 0.002500
O O11 0.500000 0.661308 0.500000
O O12 0.422056 0.854826 0.480498
O O13 0.111583 0.500000 0.884491
O O14 0.190555 0.167037 0.848223
O O15 0.633733 0.000000 0.305733
#
# Coordination Sequence:
#
# PCOD9186031 Si02
#       7
#     4   8   8   8   8   4   4
#     4  10  27  45  59  91 131 169 214 264 323 392
#     4  10  19  34  58  92 131 165 207 268 324 365
#     4   8  16  29  51  85 127 164 203 253 317 378
#     4  12  23  41  65  93 125 166 218 269 323 378
#     4  10  19  35  60  95 127 169 213 260 315 382
#     4  10  23  45  64  88 123 174 216 253 330 393
#     4  10  22  42  63  85 129 162 218 259 310 385
#
# _framework density 22.032761000000001
#
# number of rings (size 3 to 8) (size 9 to 14) (size 15 to 20)
#    0.545    1.455    1.818    2.182    2.545    0.000 
#    6.545    0.000    0.000    2.182    0.000    3.818 
#    0.000    0.000    0.000    0.000    0.000    0.000 
#
# Total GULP energy -122504.591412 kJ/mol
# GULP energy per Si atom -5568.390519 kJ/mol
# Density = 2.198261 g / cm^3
# Si number density = 22.032761 Si / 1000 Ang^3
#
#
#
# Elastic Constant Matrix: (Units=GPa)
#
#
# Indices 1 2 3 4 5 6 
#
# 1 114.5266 64.1562 55.8981 0.0000 -33.5705 -0.0001
# 2 64.1562 114.7753 47.3200 0.0001 -22.9577 -0.0003
# 3 55.8981 47.3200 139.2803 -0.0006 -32.0259 0.0000
# 4 0.0000 0.0001 -0.0006 23.7136 0.0000 -23.5879
# 5 -33.5705 -22.9577 -32.0259 0.0000 61.3317 0.0000
# 6 -0.0001 -0.0003 0.0000 -23.5879 0.0000 34.6572
#
#
#
# Elastic Compliance Matrix: (Units=1/GPa)
#
#
# Indices 1 2 3 4 5 6 
#
# 1 0.014919 -0.006299 -0.002855 0.000000 0.004318 0.000000
# 2 -0.006299 0.013076 -0.001798 0.000000 0.000508 0.000000
# 3 -0.002855 -0.001798 0.009572 0.000001 0.002762 0.000000
# 4 0.000000 0.000000 0.000001 0.130557 0.000000 0.088858
# 5 0.004318 0.000508 0.002762 0.000000 0.020301 0.000000
# 6 0.000000 0.000000 0.000000 0.088858 0.000000 0.089331
#
#
# Mechanical properties :
#
#
# Convention : Reuss Voigt Hill
#
# Bulk Modulus (GPa) = 63.83998 78.14786 70.99392
# Shear Modulus (GPa) = 16.39988 37.35437 26.87713
#
# Velocity S-wave (km/s) = 2.73122 4.12199 3.49645
# Velocity P-wave (km/s) = 6.24372 7.62892 6.97081
#
# Compressibility (1/GPa) = 0.01566416
#
# Stress axis : x y z
#
# Youngs Moduli (GPa) = 67.02859 76.47378 104.47680
#
# Poissons Ratio (x) = 0.48169 0.29826
# Poissons Ratio (y) = 0.42219 0.18784
# Poissons Ratio (z) = 0.19135 0.13749
#
# Static dielectric constant tensor:
#      x y z
#    x 1.836490 0.000000 -0.045960 
#    y 0.000000 1.823220 0.000000 
#    z -0.045960 0.000000 1.799860 
# 
# From -- ./inp_files/377610.got.cif
#   From: 2010.05.17/outbox.cif.g08.bks.cpg/sg12_189_cif.got.tgz:377610.got - 2010.06.03 13:09:07.
