data_PCOD9186947
_publ_section_title
;
Structure prediction by ZEFSAII (Michael W. Deem and Ramdas Pophale) SiO2 
 PCOD9186947
Probable space group: C 2/M
;
_chemical_formula_sum "Si O2"
_cell_formula_units_Z 48
_cell_length_a 25.516019
_cell_length_b 7.763612
_cell_length_c 12.892392
_cell_angle_alpha 90.000000
_cell_angle_beta 108.580231
_cell_angle_gamma 90.000000
_cell_volume 2420.822074
_symmetry_space_group_name_H-M "C 2/M"
_symmetry_group_IT_number 12
_symmetry_cell_setting 'monoclinic'
loop_
_space_group_symop_operation_xyz
x,y,z
-x,y,-z
-x,-y,-z
x,-y,z
1/2+x,1/2+y,z
1/2-x,1/2+y,-z
1/2-x,1/2-y,-z
1/2+x,1/2-y,z
loop_
_atom_site_type_symbol
_atom_site_label
_atom_site_fract_x
_atom_site_fract_y
_atom_site_fract_z
Si Si1 0.740310 0.792722 0.614152
Si Si2 0.560476 0.298118 0.011755
Si Si3 0.436454 0.199525 0.220072
Si Si4 0.058199 0.204038 0.362322
Si Si5 0.856878 0.210601 0.762771
Si Si6 0.380165 0.791087 0.391772
O O1 0.750000 0.750000 0.500000
O O2 0.794032 0.728972 0.710473
O O3 0.680976 0.728429 0.615915
O O4 0.738678 0.000000 0.621976
O O5 0.557132 0.500000 0.037543
O O6 0.570713 0.283871 0.896320
O O7 0.500000 0.221734 0.000000
O O8 0.609329 0.228689 0.115261
O O9 0.500344 0.212404 0.295027
O O10 0.400556 0.271308 0.292611
O O11 0.421845 0.000000 0.197209
O O12 0.106862 0.260960 0.314845
O O13 0.077455 0.239396 0.491065
O O14 0.050901 0.000000 0.343120
O O15 0.854483 0.000000 0.761856
O O16 0.379876 0.000000 0.388912
#
# Coordination Sequence:
#
# PCOD9186947 Si02
#       6
#     8   8   8   8   8   8
#     4  10  19  35  57  80 107 143 181 221 268 317
#     4  10  19  36  58  79 106 140 182 228 271 317
#     4  11  23  37  52  78 115 149 180 218 273 331
#     4  11  20  34  57  84 110 140 181 226 271 324
#     4   9  18  33  55  82 108 134 174 227 273 312
#     4  10  22  37  53  78 115 150 178 218 274 328
#
# _framework density 19.827974999999999
#
# number of rings (size 3 to 8) (size 9 to 14) (size 15 to 20)
#    0.000    1.833    3.333    1.500    0.000    3.667 
#    0.000    1.667    0.000    0.000    0.000    0.000 
#    0.000    0.000    0.000    0.000    0.000    0.000 
#
# Total GULP energy -134035.640558 kJ/mol
# GULP energy per Si atom -5584.818357 kJ/mol
# Density = 1.978285 g / cm^3
# Si number density = 19.827975 Si / 1000 Ang^3
#
#
#
# Elastic Constant Matrix: (Units=GPa)
#
#
# Indices 1 2 3 4 5 6 
#
# 1 71.1420 -7.2713 40.3906 0.0000 8.5735 0.0000
# 2 -7.2713 25.8135 -12.4060 0.0000 2.8308 0.0000
# 3 40.3906 -12.4060 134.7376 0.0000 11.3052 0.0000
# 4 0.0000 0.0000 0.0000 33.3054 0.0000 -3.9926
# 5 8.5735 2.8308 11.3052 0.0000 36.5368 0.0000
# 6 0.0000 0.0000 0.0000 -3.9926 0.0000 11.8948
#
#
#
# Elastic Compliance Matrix: (Units=1/GPa)
#
#
# Indices 1 2 3 4 5 6 
#
# 1 0.017367 0.002948 -0.004696 0.000000 -0.002851 0.000000
# 2 0.002948 0.041738 0.003376 0.000000 -0.004970 0.000000
# 3 -0.004696 0.003376 0.009312 0.000000 -0.002041 0.000000
# 4 0.000000 0.000000 0.000000 0.031284 0.000000 0.010501
# 5 -0.002851 -0.004970 -0.002041 0.000000 0.029055 0.000000
# 6 0.000000 0.000000 0.000000 0.010501 0.000000 0.087595
#
#
# Mechanical properties :
#
#
# Convention : Reuss Voigt Hill
#
# Bulk Modulus (GPa) = 13.95210 30.34663 22.14937
# Shear Modulus (GPa) = 21.09848 30.41271 25.75560
#
# Velocity S-wave (km/s) = 3.26556 3.92066 3.60801
# Velocity P-wave (km/s) = 4.61198 5.98612 5.34341
#
# Compressibility (1/GPa) = 0.07167378
#
# Stress axis : x y z
#
# Youngs Moduli (GPa) = 57.57996 23.95924 107.39351
#
# Poissons Ratio (x) = -0.07063 0.50427
# Poissons Ratio (y) = -0.16975 -0.36259
# Poissons Ratio (z) = 0.27037 -0.08089
#
# Static dielectric constant tensor:
#      x y z
#    x 1.699810 0.000000 0.002550 
#    y 0.000000 1.740610 0.000000 
#    z 0.002550 0.000000 1.666070 
# 
# From -- ./inp_files/172412.got.cif
#   From: 2010.05.17/outbox.cif.g08.bks.cpg/sg12_87_cif.got.tgz:172412.got - 2010.06.03 13:09:07.
