data_PCOD9186344
_publ_section_title
;
Structure prediction by ZEFSAII (Michael W. Deem and Ramdas Pophale) SiO2 
 PCOD9186344
Probable space group: C 2/M
;
_chemical_formula_sum "Si O2"
_cell_formula_units_Z 48
_cell_length_a 14.926148
_cell_length_b 13.947258
_cell_length_c 11.904946
_cell_angle_alpha 90.000000
_cell_angle_beta 116.026298
_cell_angle_gamma 90.000000
_cell_volume 2227.034351
_symmetry_space_group_name_H-M "C 2/M"
_symmetry_group_IT_number 12
_symmetry_cell_setting 'monoclinic'
loop_
_space_group_symop_operation_xyz
x,y,z
-x,y,-z
-x,-y,-z
x,-y,z
1/2+x,1/2+y,z
1/2-x,1/2+y,-z
1/2-x,1/2-y,-z
1/2+x,1/2-y,z
loop_
_atom_site_type_symbol
_atom_site_label
_atom_site_fract_x
_atom_site_fract_y
_atom_site_fract_z
Si Si1 0.614037 0.824546 0.072453
Si Si2 0.740767 0.832918 0.351305
Si Si3 0.365785 0.892717 0.155170
Si Si4 0.350382 0.602534 0.862064
Si Si5 0.553187 0.745505 0.637465
Si Si6 0.131689 0.146366 0.382117
O O1 0.670826 0.867624 0.211420
O O2 0.613427 0.707721 0.079115
O O3 0.500000 0.856850 0.000000
O O4 0.664496 0.857110 0.984762
O O5 0.837389 0.787291 0.341389
O O6 0.793041 0.891378 0.480749
O O7 0.673414 0.752854 0.375894
O O8 0.267025 0.895271 0.176486
O O9 0.438052 0.816760 0.253291
O O10 0.407531 0.000000 0.172182
O O11 0.386710 0.500000 0.931981
O O12 0.368152 0.599234 0.738797
O O13 0.500000 0.792597 0.500000
O O14 0.479368 0.658974 0.630573
#
# Coordination Sequence:
#
# PCOD9186344 Si02
#       6
#     8   8   8   8   8   8
#     4  11  22  39  61  82 115 160 197 231 288 344
#     4   9  18  34  58  84 114 146 197 239 276 343
#     4  11  22  37  57  85 120 154 191 237 288 344
#     4  10  21  38  60  86 117 150 192 246 290 335
#     4  10  19  34  61  87 111 152 194 235 293 347
#     4   9  17  34  60  88 110 146 191 238 294 340
#
# _framework density 21.553328
#
# number of rings (size 3 to 8) (size 9 to 14) (size 15 to 20)
#    0.000    2.000    3.333    2.500    0.000    1.000 
#    0.000    0.833    0.000    4.500    0.000    0.000 
#    0.000    0.000    0.000    0.000    0.000    0.000 
#
# Total GULP energy -133735.579685 kJ/mol
# GULP energy per Si atom -5572.315820 kJ/mol
# Density = 2.150427 g / cm^3
# Si number density = 21.553328 Si / 1000 Ang^3
#
#
#
# Elastic Constant Matrix: (Units=GPa)
#
#
# Indices 1 2 3 4 5 6 
#
# 1 89.6963 3.8872 16.9322 0.0000 7.9523 0.0000
# 2 3.8872 48.4710 2.1231 0.0000 -5.0858 0.0000
# 3 16.9322 2.1231 113.3032 0.0000 -0.0004 0.0000
# 4 0.0000 0.0000 0.0000 -1.4939 0.0000 -7.3629
# 5 7.9523 -5.0858 -0.0004 0.0000 39.6413 0.0000
# 6 0.0000 0.0000 0.0000 -7.3629 0.0000 55.1978
#
#
#
# Elastic Compliance Matrix: (Units=1/GPa)
#
#
# Indices 1 2 3 4 5 6 
#
# 1 0.011747 -0.001129 -0.001734 0.000000 -0.002501 0.000000
# 2 -0.001129 0.021038 -0.000226 0.000000 0.002926 0.000000
# 3 -0.001734 -0.000226 0.009089 0.000000 0.000319 0.000000
# 4 0.000000 0.000000 0.000000 -0.403870 0.000000 -0.053873
# 5 -0.002501 0.002926 0.000319 0.000000 0.026103 0.000000
# 6 0.000000 0.000000 0.000000 -0.053873 0.000000 0.010930
#
#
# Mechanical properties :
#
#
# Convention : Reuss Voigt Hill
#
# Bulk Modulus (GPa) = 28.01317 33.03949 30.52633
# Shear Modulus (GPa) = -16.29272 33.90427 8.80577
#
# Velocity S-wave (km/s) = -2.75239 3.97046 2.02347
# Velocity P-wave (km/s) = 1.71011 6.03174 4.43319
#
# Compressibility (1/GPa) = 0.03569750
#
# Stress axis : x y z
#
# Youngs Moduli (GPa) = 85.12967 47.53253 110.01972
#
# Poissons Ratio (x) = 0.05364 0.19081
# Poissons Ratio (y) = 0.09607 0.02482
# Poissons Ratio (z) = 0.14764 0.01072
#
# Static dielectric constant tensor:
#      x y z
#    x 1.775750 0.000000 -0.009060 
#    y 0.000000 1.797000 0.000000 
#    z -0.009060 0.000000 1.811640 
# 
# From -- ./inp_files/143191.got.cif
#   From: 2010.05.17/outbox.cif.g08.bks.cpg/sg12_72_cif.got.tgz:143191.got - 2010.06.03 13:09:07.
