data_PCOD9186044
_publ_section_title
;
Structure prediction by ZEFSAII (Michael W. Deem and Ramdas Pophale) SiO2 
 PCOD9186044
Probable space group: C 2/M
;
_chemical_formula_sum "Si O2"
_cell_formula_units_Z 64
_cell_length_a 19.730572
_cell_length_b 14.289655
_cell_length_c 16.846548
_cell_angle_alpha 90.000000
_cell_angle_beta 130.192412
_cell_angle_gamma 90.000000
_cell_volume 3628.259469
_symmetry_space_group_name_H-M "C 2/M"
_symmetry_group_IT_number 12
_symmetry_cell_setting 'monoclinic'
loop_
_space_group_symop_operation_xyz
x,y,z
-x,y,-z
-x,-y,-z
x,-y,z
1/2+x,1/2+y,z
1/2-x,1/2+y,-z
1/2-x,1/2-y,-z
1/2+x,1/2-y,z
loop_
_atom_site_type_symbol
_atom_site_label
_atom_site_fract_x
_atom_site_fract_y
_atom_site_fract_z
Si Si1 0.515400 0.388498 0.417983
Si Si2 0.241631 0.757453 0.251376
Si Si3 0.363147 0.888356 0.239740
Si Si4 0.041911 0.389612 0.447377
Si Si5 0.822635 0.887163 0.199058
Si Si6 0.683133 0.258982 0.522119
Si Si7 0.282476 0.387762 0.990401
Si Si8 0.394670 0.389713 0.920739
O O1 0.500000 0.367897 0.500000
O O2 0.529078 0.500000 0.420626
O O3 0.423566 0.364835 0.303114
O O4 0.602749 0.334017 0.454916
O O5 0.314101 0.831533 0.272050
O O6 0.255039 0.668289 0.204445
O O7 0.263278 0.725537 0.356070
O O8 0.151369 0.816248 0.173206
O O9 0.466896 0.869272 0.324877
O O10 0.351463 0.000000 0.244128
O O11 0.312504 0.863428 0.120280
O O12 0.055669 0.500000 0.463135
O O13 0.131190 0.337803 0.495005
O O14 0.000000 0.358836 0.500000
O O15 0.804231 0.855194 0.094946
O O16 0.812708 0.000000 0.198059
O O17 0.750000 0.250000 0.500000
O O18 0.284043 0.500000 0.997609
O O19 0.353981 0.364506 0.976379
O O20 0.371649 0.500000 0.887396
O O21 0.500000 0.382645 0.000000
#
# Coordination Sequence:
#
# PCOD9186044 Si02
#       8
#     8   8   8   8   8   8   8   8
#     4  10  20  38  61  80 104 147 197 238 277 323
#     4  11  20  34  55  76 105 144 181 224 276 328
#     4   9  17  31  54  82 108 132 168 224 281 327
#     4  10  19  34  59  83 105 139 182 225 276 337
#     4  10  20  34  57  82 104 137 188 240 276 316
#     4  12  25  37  51  81 118 147 183 230 281 337
#     4   8  16  31  51  81 109 131 171 225 272 313
#     4   9  19  35  55  78 111 147 175 212 271 341
#
# _framework density 17.639312
#
# number of rings (size 3 to 8) (size 9 to 14) (size 15 to 20)
#    0.000    2.125    2.500    2.250    0.000    4.000 
#    0.000    2.500    0.000    0.375    0.000    0.000 
#    0.000    0.000    0.000    0.000    0.000    0.000 
#
# Total GULP energy -178415.864873 kJ/mol
# GULP energy per Si atom -5575.495777 kJ/mol
# Density = 1.759916 g / cm^3
# Si number density = 17.639312 Si / 1000 Ang^3
#
#
#
# Elastic Constant Matrix: (Units=GPa)
#
#
# Indices 1 2 3 4 5 6 
#
# 1 84.5310 23.5951 44.6140 0.0000 1.8940 0.0000
# 2 23.5951 75.7090 17.6594 0.0000 4.1597 0.0000
# 3 44.6140 17.6594 125.9960 0.0000 -7.0948 0.0000
# 4 0.0000 0.0000 0.0000 13.3809 0.0000 8.4797
# 5 1.8940 4.1597 -7.0948 0.0000 25.8337 0.0000
# 6 0.0000 0.0000 0.0000 8.4797 0.0000 16.4761
#
#
#
# Elastic Compliance Matrix: (Units=1/GPa)
#
#
# Indices 1 2 3 4 5 6 
#
# 1 0.015571 -0.003548 -0.005128 0.000000 -0.001979 0.000000
# 2 -0.003548 0.014661 -0.000931 0.000000 -0.002356 0.000000
# 3 -0.005128 -0.000931 0.010068 0.000000 0.003291 0.000000
# 4 0.000000 0.000000 0.000000 0.110905 0.000000 -0.057079
# 5 -0.001979 -0.002356 0.003291 0.000000 0.040137 0.000000
# 6 0.000000 0.000000 0.000000 -0.057079 0.000000 0.090071
#
#
# Mechanical properties :
#
#
# Convention : Reuss Voigt Hill
#
# Bulk Modulus (GPa) = 47.42409 50.88589 49.15499
# Shear Modulus (GPa) = 16.25192 24.49598 20.37395
#
# Velocity S-wave (km/s) = 3.03866 3.73059 3.40226
# Velocity P-wave (km/s) = 6.26539 6.88963 6.58491
#
# Compressibility (1/GPa) = 0.02108633
#
# Stress axis : x y z
#
# Youngs Moduli (GPa) = 64.22213 68.20868 99.32213
#
# Poissons Ratio (x) = 0.24201 0.50929
# Poissons Ratio (y) = 0.22786 0.09249
# Poissons Ratio (z) = 0.32931 0.06352
#
# Static dielectric constant tensor:
#      x y z
#    x 1.557950 0.000000 0.004630 
#    y 0.000000 1.635570 0.000000 
#    z 0.004630 0.000000 1.657280 
# 
# From -- ./inp_files/225304.got.cif
#   From: 2010.05.17/outbox.cif.g08.bks.cpg/sg12_113_cif.got.tgz:225304.got - 2010.06.03 13:09:07.
