data_PCOD9186659
_publ_section_title
;
Structure prediction by ZEFSAII (Michael W. Deem and Ramdas Pophale) SiO2 
 PCOD9186659
Probable space group: C 2/M
;
_chemical_formula_sum "Si O2"
_cell_formula_units_Z 56
_cell_length_a 31.686017
_cell_length_b 8.783065
_cell_length_c 12.123151
_cell_angle_alpha 90.000000
_cell_angle_beta 116.155829
_cell_angle_gamma 90.000000
_cell_volume 3028.386958
_symmetry_space_group_name_H-M "C 2/M"
_symmetry_group_IT_number 12
_symmetry_cell_setting 'monoclinic'
loop_
_space_group_symop_operation_xyz
x,y,z
-x,y,-z
-x,-y,-z
x,-y,z
1/2+x,1/2+y,z
1/2-x,1/2+y,-z
1/2-x,1/2-y,-z
1/2+x,1/2-y,z
loop_
_atom_site_type_symbol
_atom_site_label
_atom_site_fract_x
_atom_site_fract_y
_atom_site_fract_z
Si Si1 0.812707 0.683384 0.478129
Si Si2 0.949827 0.181592 0.883301
Si Si3 0.589337 0.317611 0.789871
Si Si4 0.630510 0.818160 0.057885
Si Si5 0.098542 0.317614 0.564417
Si Si6 0.979507 0.183177 0.673044
Si Si7 0.285873 0.183673 0.693006
O O1 0.811275 0.500000 0.473721
O O2 0.859846 0.732673 0.470439
O O3 0.766028 0.747204 0.366302
O O4 0.809361 0.730112 0.602781
O O5 0.909607 0.270409 0.901117
O O6 0.955708 0.224944 0.762342
O O7 0.940304 0.000000 0.879228
O O8 0.000000 0.207210 0.000000
O O9 0.591403 0.500000 0.789246
O O10 0.606544 0.249112 0.694657
O O11 0.534276 0.273250 0.739409
O O12 0.617889 0.257627 0.927479
O O13 0.680174 0.770169 0.168345
O O14 0.630512 0.000000 0.045635
O O15 0.097902 0.500000 0.568094
O O16 0.049550 0.257604 0.458736
O O17 0.977488 0.000000 0.659739
O O18 0.282485 0.000000 0.688990
#
# Coordination Sequence:
#
# PCOD9186659 Si02
#       7
#     8   8   8   8   8   8   8
#     4   9  19  37  59  84 114 142 176 226 279 331
#     4  10  19  35  55  79 113 150 186 225 269 325
#     4  11  23  40  57  77 111 153 195 232 270 330
#     4  11  22  36  56  85 117 148 184 231 286 332
#     4  11  23  38  57  83 113 144 186 236 284 331
#     4  10  21  37  57  80 110 150 192 231 273 326
#     4   9  19  36  59  86 114 142 177 224 278 336
#
# _framework density 18.491693000000001
#
# number of rings (size 3 to 8) (size 9 to 14) (size 15 to 20)
#    0.000    1.857    1.429    2.571    0.000    7.143 
#    0.000    3.571    0.000    0.000    0.000    0.000 
#    0.000    0.000    0.000    0.000    0.000    0.000 
#
# Total GULP energy -156427.872191 kJ/mol
# GULP energy per Si atom -5586.709721 kJ/mol
# Density = 1.844961 g / cm^3
# Si number density = 18.491693 Si / 1000 Ang^3
#
#
#
# Elastic Constant Matrix: (Units=GPa)
#
#
# Indices 1 2 3 4 5 6 
#
# 1 50.3655 16.9900 49.7257 0.0000 4.4738 0.0000
# 2 16.9900 19.3650 30.9262 0.0000 1.3523 0.0000
# 3 49.7257 30.9262 134.2630 0.0000 14.2560 0.0000
# 4 0.0000 0.0000 0.0000 32.6509 0.0000 -1.5092
# 5 4.4738 1.3523 14.2560 0.0000 23.8609 0.0000
# 6 0.0000 0.0000 0.0000 -1.5092 0.0000 26.8695
#
#
#
# Elastic Compliance Matrix: (Units=1/GPa)
#
#
# Indices 1 2 3 4 5 6 
#
# 1 0.033961 -0.015375 -0.009025 0.000000 -0.000104 0.000000
# 2 -0.015375 0.089780 -0.015751 0.000000 0.007205 0.000000
# 3 -0.009025 -0.015751 0.015102 0.000000 -0.006438 0.000000
# 4 0.000000 0.000000 0.000000 0.030707 0.000000 0.001725
# 5 -0.000104 0.007205 -0.006438 0.000000 0.045367 0.000000
# 6 0.000000 0.000000 0.000000 0.001725 0.000000 0.037314
#
#
# Mechanical properties :
#
#
# Convention : Reuss Voigt Hill
#
# Bulk Modulus (GPa) = 17.08200 44.36414 30.72307
# Shear Modulus (GPa) = 14.20259 23.76636 18.98447
#
# Velocity S-wave (km/s) = 2.77438 3.58892 3.20761
# Velocity P-wave (km/s) = 4.41822 6.42007 5.51080
#
# Compressibility (1/GPa) = 0.05854115
#
# Stress axis : x y z
#
# Youngs Moduli (GPa) = 29.44512 11.13831 66.21500
#
# Poissons Ratio (x) = 0.17126 0.59761
# Poissons Ratio (y) = 0.45273 1.04293
# Poissons Ratio (z) = 0.26575 0.17544
#
# Static dielectric constant tensor:
#      x y z
#    x 1.623670 0.000000 -0.005850 
#    y 0.000000 1.619130 0.000000 
#    z -0.005850 0.000000 1.625880 
# 
# From -- ./inp_files/180625.got.cif
#   From: 2010.05.17/outbox.cif.g08.bks.cpg/sg12_91_cif.got.tgz:180625.got - 2010.06.03 13:09:07.
