data_PCOD9186395
_publ_section_title
;
Structure prediction by ZEFSAII (Michael W. Deem and Ramdas Pophale) SiO2 
 PCOD9186395
Probable space group: C 2/M
;
_chemical_formula_sum "Si O2"
_cell_formula_units_Z 58
_cell_length_a 19.716904
_cell_length_b 7.645098
_cell_length_c 20.574567
_cell_angle_alpha 90.000000
_cell_angle_beta 69.695120
_cell_angle_gamma 90.000000
_cell_volume 2908.641593
_symmetry_space_group_name_H-M "C 2/M"
_symmetry_group_IT_number 12
_symmetry_cell_setting 'monoclinic'
loop_
_space_group_symop_operation_xyz
x,y,z
-x,y,-z
-x,-y,-z
x,-y,z
1/2+x,1/2+y,z
1/2-x,1/2+y,-z
1/2-x,1/2-y,-z
1/2+x,1/2-y,z
loop_
_atom_site_type_symbol
_atom_site_label
_atom_site_fract_x
_atom_site_fract_y
_atom_site_fract_z
Si Si1 0.649766 0.710474 0.732627
Si Si2 0.035809 0.297726 0.423615
Si Si3 0.511137 0.706084 0.705377
Si Si4 0.313136 0.294948 0.667550
Si Si5 0.904113 0.796619 0.103882
Si Si6 0.359488 0.713781 0.794609
Si Si7 0.000000 0.500000 0.000000
Si Si8 0.735170 0.209371 0.930527
O O1 0.652944 0.500000 0.729885
O O2 0.586784 0.777408 0.705775
O O3 0.728740 0.770502 0.683544
O O4 0.628138 0.755544 0.814267
O O5 0.014617 0.500000 0.427941
O O6 0.007773 0.222754 0.364412
O O7 0.000000 0.218767 0.500000
O O8 0.123058 0.286371 0.396527
O O9 0.513889 0.500000 0.718557
O O10 0.441887 0.776689 0.767859
O O11 0.329311 0.500000 0.661266
O O12 0.326779 0.230297 0.736448
O O13 0.961585 0.656008 0.058460
O O14 0.836909 0.790403 0.075831
O O15 0.930349 0.000000 0.099634
O O16 0.360418 0.500000 0.795574
O O17 0.305549 0.771732 0.867964
O O18 0.727569 0.000000 0.924701
O O19 0.750000 0.250000 0.000000
#
# Coordination Sequence:
#
# PCOD9186395 Si02
#       8
#     8   8   8   8   8   8   2   8
#     4  10  21  37  62  91 124 157 204 255 307 364
#     4  10  21  38  59  89 127 159 196 248 302 360
#     4   9  19  37  59  89 119 155 199 250 298 356
#     4  10  19  34  62  88 114 158 202 245 295 358
#     4  11  24  43  65  89 122 168 211 264 323 383
#     4   8  16  32  56  79 110 149 197 250 302 352
#     4  12  26  44  64  90 128 164 218 258 328 398
#     4  11  21  37  59  87 121 157 204 263 316 374
#
# _framework density 19.940580000000001
#
# number of rings (size 3 to 8) (size 9 to 14) (size 15 to 20)
#    0.000    2.069    2.069    2.276    0.966    2.759 
#    0.000    4.138    0.000    0.000    0.000    0.000 
#    0.000    0.000    0.000    0.000    0.000    0.000 
#
# Total GULP energy -161482.333175 kJ/mol
# GULP energy per Si atom -5568.356316 kJ/mol
# Density = 1.989519 g / cm^3
# Si number density = 19.940580 Si / 1000 Ang^3
#
#
#
# Elastic Constant Matrix: (Units=GPa)
#
#
# Indices 1 2 3 4 5 6 
#
# 1 96.7279 5.4838 22.7559 -0.0011 -11.3147 -0.0010
# 2 5.4838 67.0605 13.5608 -0.0011 -4.6947 -0.0013
# 3 22.7559 13.5608 99.9518 -0.0006 -26.9341 -0.0003
# 4 -0.0011 -0.0011 -0.0006 18.1832 -0.0005 -4.5813
# 5 -11.3147 -4.6947 -26.9341 -0.0005 23.6260 -0.0004
# 6 -0.0010 -0.0013 -0.0003 -4.5813 -0.0004 21.9007
#
#
#
# Elastic Compliance Matrix: (Units=1/GPa)
#
#
# Indices 1 2 3 4 5 6 
#
# 1 0.011131 -0.000353 -0.001543 0.000001 0.003502 0.000001
# 2 -0.000353 0.015359 -0.001771 0.000001 0.000864 0.000001
# 3 -0.001543 -0.001771 0.014871 0.000001 0.015862 0.000001
# 4 0.000001 0.000001 0.000001 0.058056 0.000003 0.012144
# 5 0.003502 0.000864 0.015862 0.000003 0.062258 0.000002
# 6 0.000001 0.000001 0.000001 0.012144 0.000002 0.048201
#
#
# Mechanical properties :
#
#
# Convention : Reuss Voigt Hill
#
# Bulk Modulus (GPa) = 29.38719 38.59346 33.99033
# Shear Modulus (GPa) = 21.87695 27.53796 24.70746
#
# Velocity S-wave (km/s) = 3.31585 3.72021 3.52384
# Velocity P-wave (km/s) = 5.42487 6.15220 5.79995
#
# Compressibility (1/GPa) = 0.03402843
#
# Stress axis : x y z
#
# Youngs Moduli (GPa) = 89.84051 65.10695 67.24668
#
# Poissons Ratio (x) = 0.02299 0.10373
# Poissons Ratio (y) = 0.03172 0.11906
# Poissons Ratio (z) = 0.13858 0.11527
#
# Static dielectric constant tensor:
#      x y z
#    x 1.717740 0.000000 -0.017430 
#    y 0.000000 1.750910 0.000000 
#    z -0.017430 0.000000 1.699410 
# 
# From -- ./inp_files/313899.got.cif
#   From: 2010.05.17/outbox.cif.g08.bks.cpg/sg12_157_cif.got.tgz:313899.got - 2010.06.03 13:09:07.
