data_PCOD9186063
_publ_section_title
;
Structure prediction by ZEFSAII (Michael W. Deem and Ramdas Pophale) SiO2 
 PCOD9186063
Probable space group: C 2/M
;
_chemical_formula_sum "Si O2"
_cell_formula_units_Z 44
_cell_length_a 12.093646
_cell_length_b 17.790393
_cell_length_c 17.451594
_cell_angle_alpha 90.000000
_cell_angle_beta 40.532574
_cell_angle_gamma 90.000000
_cell_volume 2440.120284
_symmetry_space_group_name_H-M "C 2/M"
_symmetry_group_IT_number 12
_symmetry_cell_setting 'monoclinic'
loop_
_space_group_symop_operation_xyz
x,y,z
-x,y,-z
-x,-y,-z
x,-y,z
1/2+x,1/2+y,z
1/2-x,1/2+y,-z
1/2-x,1/2-y,-z
1/2+x,1/2-y,z
loop_
_atom_site_type_symbol
_atom_site_label
_atom_site_fract_x
_atom_site_fract_y
_atom_site_fract_z
Si Si1 0.500000 0.829193 0.000000
Si Si2 0.972601 0.186337 0.345954
Si Si3 0.084857 0.657531 0.537600
Si Si4 0.292798 0.911200 0.233103
Si Si5 0.193102 0.733373 0.115672
Si Si6 0.023701 0.586534 0.250291
O O1 0.548769 0.881935 0.902617
O O2 0.656989 0.772435 0.917065
O O3 0.954398 0.257112 0.413224
O O4 0.788969 0.149415 0.431240
O O5 0.120514 0.131683 0.299612
O O6 0.028763 0.222785 0.234748
O O7 0.000000 0.644747 0.500000
O O8 0.011182 0.604392 0.642904
O O9 0.354594 0.898387 0.287832
O O10 0.270316 0.000000 0.233115
O O11 0.162197 0.646311 0.148121
O O12 0.250000 0.750000 0.000000
O O13 0.070843 0.500000 0.213320
#
# Coordination Sequence:
#
# PCOD9186063 Si02
#       6
#     4   8   8   8   8   8
#     4  10  19  34  59  84 112 152 192 232 285 350
#     4   9  22  35  57  88 114 150 200 239 287 345
#     4  10  22  38  60  81 113 159 200 243 281 341
#     4  10  20  35  57  87 120 146 186 244 299 346
#     4  10  19  35  58  83 115 150 192 235 283 349
#     4  10  22  38  58  86 118 154 192 242 297 344
#
# _framework density 18.0319
#
# number of rings (size 3 to 8) (size 9 to 14) (size 15 to 20)
#    0.000    2.182    1.818    0.273    7.636    2.545 
#    0.000    2.273    0.000    0.000    0.000    0.000 
#    0.000    0.000    0.000    0.000    0.000    0.000 
#
# Total GULP energy -122543.242579 kJ/mol
# GULP energy per Si atom -5570.147390 kJ/mol
# Density = 1.799086 g / cm^3
# Si number density = 18.031900 Si / 1000 Ang^3
#
#
#
# Elastic Constant Matrix: (Units=GPa)
#
#
# Indices 1 2 3 4 5 6 
#
# 1 93.1413 46.6475 42.7662 0.0003 18.8417 0.0001
# 2 46.6475 109.9505 38.5364 0.0012 -2.1773 -0.0005
# 3 42.7662 38.5364 97.4339 0.0024 10.2840 -0.0012
# 4 0.0003 0.0012 0.0024 14.3299 -0.0008 -5.0599
# 5 18.8417 -2.1773 10.2840 -0.0008 31.7603 0.0003
# 6 0.0001 -0.0005 -0.0012 -5.0599 0.0003 24.2426
#
#
#
# Elastic Compliance Matrix: (Units=1/GPa)
#
#
# Indices 1 2 3 4 5 6 
#
# 1 0.017772 -0.006210 -0.004335 0.000000 -0.009565 0.000000
# 2 -0.006210 0.012872 -0.002948 0.000000 0.005521 0.000000
# 3 -0.004335 -0.002948 0.013545 -0.000002 -0.002016 0.000000
# 4 0.000000 0.000000 -0.000002 0.075336 0.000002 0.015724
# 5 -0.009565 0.005521 -0.002016 0.000002 0.038192 0.000000
# 6 0.000000 0.000000 0.000000 0.015724 0.000000 0.044532
#
#
# Mechanical properties :
#
#
# Convention : Reuss Voigt Hill
#
# Bulk Modulus (GPa) = 58.12914 61.82511 59.97712
# Shear Modulus (GPa) = 21.27944 25.57160 23.42552
#
# Velocity S-wave (km/s) = 3.43899 3.76989 3.60823
# Velocity P-wave (km/s) = 6.93366 7.30140 7.11990
#
# Compressibility (1/GPa) = 0.01720308
#
# Stress axis : x y z
#
# Youngs Moduli (GPa) = 56.26909 77.68640 73.82859
#
# Poissons Ratio (x) = 0.48243 0.32003
# Poissons Ratio (y) = 0.34943 0.21766
# Poissons Ratio (z) = 0.24391 0.22903
#
# Static dielectric constant tensor:
#      x y z
#    x 1.563090 0.000000 0.025630 
#    y 0.000000 1.476440 0.000000 
#    z 0.025630 0.000000 1.661980 
# 
# From -- ./inp_files/264123.got.cif
#   From: 2010.05.17/outbox.cif.g08.bks.cpg/sg12_133_cif.got.tgz:264123.got - 2010.06.03 13:09:07.
