data_PCOD9186017
_publ_section_title
;
Structure prediction by ZEFSAII (Michael W. Deem and Ramdas Pophale) SiO2 
 PCOD9186017
Probable space group: C 2/M
;
_chemical_formula_sum "Si O2"
_cell_formula_units_Z 48
_cell_length_a 26.861680
_cell_length_b 15.114334
_cell_length_c 12.152133
_cell_angle_alpha 90.000000
_cell_angle_beta 150.544797
_cell_angle_gamma 90.000000
_cell_volume 2426.122994
_symmetry_space_group_name_H-M "C 2/M"
_symmetry_group_IT_number 12
_symmetry_cell_setting 'monoclinic'
loop_
_space_group_symop_operation_xyz
x,y,z
-x,y,-z
-x,-y,-z
x,-y,z
1/2+x,1/2+y,z
1/2-x,1/2+y,-z
1/2-x,1/2-y,-z
1/2+x,1/2-y,z
loop_
_atom_site_type_symbol
_atom_site_label
_atom_site_fract_x
_atom_site_fract_y
_atom_site_fract_z
Si Si1 0.618039 0.500000 0.757486
Si Si2 0.115704 0.394016 0.445055
Si Si3 0.841426 0.864101 0.974780
Si Si4 0.402182 0.829154 0.060750
Si Si5 0.423881 0.500000 0.961127
Si Si6 0.837473 0.679900 0.695893
Si Si7 0.244607 0.500000 0.193004
Si Si8 0.773980 0.000000 0.480794
O O1 0.500000 0.500000 0.500000
O O2 0.687440 0.500000 0.783653
O O3 0.644009 0.417396 0.885261
O O4 0.107270 0.500000 0.414409
O O5 0.225114 0.373477 0.708706
O O6 0.110514 0.344183 0.318016
O O7 0.014797 0.359498 0.310794
O O8 0.913221 0.914414 0.020915
O O9 0.867306 0.762402 0.046597
O O10 0.398383 0.799094 0.923454
O O11 0.327053 0.912312 0.938955
O O12 0.324662 0.500000 0.696320
O O13 0.500000 0.500000 0.000000
O O14 0.750000 0.750000 0.500000
O O15 0.788614 0.588184 0.637202
O O16 0.319746 0.500000 0.445726
#
# Coordination Sequence:
#
# PCOD9186017 Si02
#       8
#     4   8   8   8   4   8   4   4
#     4  11  27  51  75  91 130 185 236 290 359 414
#     4  12  21  41  68  98 142 189 225 274 350 411
#     4  11  24  46  67 101 137 178 234 291 345 421
#     4  11  24  39  68 104 139 181 232 284 349 411
#     4  11  21  37  65  94 133 182 227 275 344 414
#     4  11  19  35  59  96 145 186 218 268 330 411
#     4  10  25  42  64 100 134 173 236 292 338 407
#     4  10  19  34  58  90 132 170 215 277 329 394
#
# _framework density 19.784652999999999
#
# number of rings (size 3 to 8) (size 9 to 14) (size 15 to 20)
#    0.000    1.000    6.667    0.500    2.333    5.333 
#    0.000    1.667    0.000    0.000    0.000    0.000 
#    0.000    0.000    0.000    0.000    0.000    0.000 
#
# Total GULP energy -133632.406340 kJ/mol
# GULP energy per Si atom -5568.016931 kJ/mol
# Density = 1.973962 g / cm^3
# Si number density = 19.784653 Si / 1000 Ang^3
#
#
#
# Elastic Constant Matrix: (Units=GPa)
#
#
# Indices 1 2 3 4 5 6 
#
# 1 120.1166 42.1620 43.7287 0.0000 -0.0049 0.0000
# 2 42.1620 153.6842 26.8505 0.0000 16.8213 0.0000
# 3 43.7287 26.8505 64.9775 0.0000 11.4592 0.0000
# 4 0.0000 0.0000 0.0000 30.8264 0.0000 -3.7750
# 5 -0.0049 16.8213 11.4592 0.0000 29.9999 0.0000
# 6 0.0000 0.0000 0.0000 -3.7750 0.0000 11.4465
#
#
#
# Elastic Compliance Matrix: (Units=1/GPa)
#
#
# Indices 1 2 3 4 5 6 
#
# 1 0.012036 -0.002403 -0.007876 0.000000 0.004358 0.000000
# 2 -0.002403 0.007759 -0.000881 0.000000 -0.004015 0.000000
# 3 -0.007876 -0.000881 0.022482 0.000000 -0.008095 0.000000
# 4 0.000000 0.000000 0.000000 0.033805 0.000000 0.011149
# 5 0.004358 -0.004015 -0.008095 0.000000 0.038677 0.000000
# 6 0.000000 0.000000 0.000000 0.011149 0.000000 0.091039
#
#
# Mechanical properties :
#
#
# Convention : Reuss Voigt Hill
#
# Bulk Modulus (GPa) = 50.10610 62.69563 56.40087
# Shear Modulus (GPa) = 21.29739 29.52372 25.41056
#
# Velocity S-wave (km/s) = 3.28450 3.86716 3.58768
# Velocity P-wave (km/s) = 6.30592 7.19011 6.76249
#
# Compressibility (1/GPa) = 0.01995765
#
# Stress axis : x y z
#
# Youngs Moduli (GPa) = 83.08416 128.87483 44.48060
#
# Poissons Ratio (x) = 0.30968 0.35031
# Poissons Ratio (y) = 0.19965 0.03920
# Poissons Ratio (z) = 0.65433 0.11357
#
# Static dielectric constant tensor:
#      x y z
#    x 0.360420 0.000000 -2.078200 
#    y 0.000000 1.706300 0.000000 
#    z -2.078200 0.000000 -1.307660 
# 
# From -- ./inp_files/183943.got.cif
#   From: 2010.05.17/outbox.cif.g08.bks.cpg/sg12_92_cif.got.tgz:183943.got - 2010.06.03 13:09:07.
