data_PCOD9186234
_publ_section_title
;
Structure prediction by ZEFSAII (Michael W. Deem and Ramdas Pophale) SiO2 
 PCOD9186234
Probable space group: C 2/M
;
_chemical_formula_sum "Si O2"
_cell_formula_units_Z 64
_cell_length_a 25.291260
_cell_length_b 17.883967
_cell_length_c 21.369821
_cell_angle_alpha 90.000000
_cell_angle_beta 158.953944
_cell_angle_gamma 90.000000
_cell_volume 3471.144664
_symmetry_space_group_name_H-M "C 2/M"
_symmetry_group_IT_number 12
_symmetry_cell_setting 'monoclinic'
loop_
_space_group_symop_operation_xyz
x,y,z
-x,y,-z
-x,-y,-z
x,-y,z
1/2+x,1/2+y,z
1/2-x,1/2+y,-z
1/2-x,1/2-y,-z
1/2+x,1/2-y,z
loop_
_atom_site_type_symbol
_atom_site_label
_atom_site_fract_x
_atom_site_fract_y
_atom_site_fract_z
Si Si1 0.158770 0.913422 0.485745
Si Si2 0.860370 0.283712 0.208504
Si Si3 0.836602 0.837215 0.800624
Si Si4 0.959484 0.584067 0.528653
Si Si5 0.605533 0.219861 0.246603
Si Si6 0.360474 0.581586 0.391449
Si Si7 0.463955 0.304848 0.202634
Si Si8 0.215753 0.289429 0.159629
O O1 0.288389 0.851134 0.627528
O O2 0.100374 0.910676 0.492671
O O3 0.034423 0.882847 0.301650
O O4 0.201184 0.000000 0.519910
O O5 0.940897 0.245275 0.239138
O O6 0.830450 0.222994 0.230107
O O7 0.952616 0.352285 0.337319
O O8 0.697215 0.310062 0.006843
O O9 0.713794 0.899291 0.654782
O O10 0.841697 0.780200 0.747173
O O11 0.787834 0.787656 0.806204
O O12 0.000000 0.864122 0.000000
O O13 0.995800 0.500000 0.589571
O O14 0.000000 0.589934 0.500000
O O15 0.572368 0.263370 0.274260
O O16 0.444957 0.194197 0.045161
O O17 0.500000 0.583390 0.500000
O O18 0.288357 0.500000 0.304662
O O19 0.257734 0.647327 0.254785
#
# Coordination Sequence:
#
# PCOD9186234 Si02
#       8
#     8   8   8   8   8   8   8   8
#     4  11  22  36  56  81 115 156 190 232 286 337
#     4  10  21  38  62  87 109 148 196 241 289 333
#     4  10  20  36  60  87 116 150 188 231 289 348
#     4  11  23  38  60  90 120 148 186 243 300 346
#     4  10  21  38  56  83 114 150 197 234 275 343
#     4  10  21  33  51  85 118 144 180 229 291 348
#     4  10  22  39  59  83 112 151 202 241 272 335
#     4  10  19  34  60  85 111 147 186 238 292 334
#
# _framework density 18.437721
#
# number of rings (size 3 to 8) (size 9 to 14) (size 15 to 20)
#    0.000    1.750    2.500    1.875    1.750    1.250 
#    0.000    3.750    0.000    4.500    0.000    0.000 
#    0.000    0.000    0.000    0.000    0.000    0.000 
#
# Total GULP energy -178580.800687 kJ/mol
# GULP energy per Si atom -5580.650021 kJ/mol
# Density = 1.839576 g / cm^3
# Si number density = 18.437721 Si / 1000 Ang^3
#
#
#
# Elastic Constant Matrix: (Units=GPa)
#
#
# Indices 1 2 3 4 5 6 
#
# 1 94.8331 17.7743 13.6332 -0.0021 5.6622 -0.0013
# 2 17.7743 75.4853 42.3346 -0.0021 -0.6501 -0.0015
# 3 13.6332 42.3346 50.3846 -0.0010 0.8051 0.0004
# 4 -0.0021 -0.0021 -0.0010 5.2760 0.0008 -1.4165
# 5 5.6622 -0.6501 0.8051 0.0008 22.3052 0.0003
# 6 -0.0013 -0.0015 0.0004 -1.4165 0.0003 22.8800
#
#
#
# Elastic Compliance Matrix: (Units=1/GPa)
#
#
# Indices 1 2 3 4 5 6 
#
# 1 0.011273 -0.001880 -0.001425 0.000004 -0.002865 0.000001
# 2 -0.001880 0.025417 -0.020879 0.000006 0.001972 0.000002
# 3 -0.001425 -0.020879 0.037801 -0.000002 -0.001611 -0.000002
# 4 0.000004 0.000006 -0.000002 0.192741 -0.000008 0.011933
# 5 -0.002865 0.001972 -0.001611 -0.000008 0.045675 -0.000001
# 6 0.000001 0.000002 -0.000002 0.011933 -0.000001 0.044445
#
#
# Mechanical properties :
#
#
# Convention : Reuss Voigt Hill
#
# Bulk Modulus (GPa) = 38.27869 40.90970 39.59420
# Shear Modulus (GPa) = 12.06484 19.88964 15.97724
#
# Velocity S-wave (km/s) = 2.56081 3.28799 2.94692
# Velocity P-wave (km/s) = 5.43598 6.05399 5.75328
#
# Compressibility (1/GPa) = 0.02612419
#
# Stress axis : x y z
#
# Youngs Moduli (GPa) = 88.70665 39.34428 26.45402
#
# Poissons Ratio (x) = 0.07397 0.03769
# Poissons Ratio (y) = 0.16677 0.55232
# Poissons Ratio (z) = 0.12640 0.82145
#
# Static dielectric constant tensor:
#      x y z
#    x 1.638260 0.000000 0.002450 
#    y 0.000000 1.610650 0.000000 
#    z 0.002450 0.000000 1.648130 
# 
# From -- ./inp_files/326169.got.cif
#   From: 2010.05.17/outbox.cif.g08.bks.cpg/sg12_164_cif.got.tgz:326169.got - 2010.06.03 13:09:07.
