data_PCOD9186414
_publ_section_title
;
Structure prediction by ZEFSAII (Michael W. Deem and Ramdas Pophale) SiO2 
 PCOD9186414
Probable space group: C 2/M
;
_chemical_formula_sum "Si O2"
_cell_formula_units_Z 48
_cell_length_a 12.355761
_cell_length_b 13.619913
_cell_length_c 23.571930
_cell_angle_alpha 90.000000
_cell_angle_beta 149.888286
_cell_angle_gamma 90.000000
_cell_volume 1990.088300
_symmetry_space_group_name_H-M "C 2/M"
_symmetry_group_IT_number 12
_symmetry_cell_setting 'monoclinic'
loop_
_space_group_symop_operation_xyz
x,y,z
-x,y,-z
-x,-y,-z
x,-y,z
1/2+x,1/2+y,z
1/2-x,1/2+y,-z
1/2-x,1/2-y,-z
1/2+x,1/2-y,z
loop_
_atom_site_type_symbol
_atom_site_label
_atom_site_fract_x
_atom_site_fract_y
_atom_site_fract_z
Si Si1 0.933234 0.618392 0.272141
Si Si2 0.539198 0.380086 0.157837
Si Si3 0.756202 0.380102 0.872914
Si Si4 0.626257 0.284361 0.502770
Si Si5 0.726927 0.617665 0.732836
Si Si6 0.795789 0.619169 0.087791
O O1 0.949694 0.500000 0.280301
O O2 0.787078 0.648381 0.259981
O O3 0.798991 0.645857 0.155024
O O4 0.172147 0.659365 0.378003
O O5 0.537552 0.500000 0.157065
O O6 0.417379 0.349293 0.159175
O O7 0.392842 0.346703 0.038710
O O8 0.762269 0.500000 0.876180
O O9 0.679381 0.350302 0.775690
O O10 0.000000 0.349912 0.000000
O O11 0.500000 0.232008 0.500000
O O12 0.750000 0.250000 0.500000
O O13 0.438567 0.348250 0.389288
O O14 0.723956 0.500000 0.731339
O O15 0.972431 0.647154 0.832055
O O16 0.783367 0.500000 0.080945
#
# Coordination Sequence:
#
# PCOD9186414 Si02
#       6
#     8   8   8   8   8   8
#     4  10  20  35  60  91 119 150 193 245 294 343
#     4   9  16  27  49  90 132 153 175 225 297 360
#     4   9  15  26  48  83 125 157 179 220 286 353
#     4  12  27  45  63  82 114 160 205 250 298 350
#     4  10  19  34  62  93 115 145 196 246 285 340
#     4   9  15  27  54  91 122 143 176 233 292 343
#
# _framework density 24.119533000000001
#
# number of rings (size 3 to 8) (size 9 to 14) (size 15 to 20)
#    0.000    2.167    3.333    1.000    0.000    4.000 
#    0.000    0.000    0.000    8.000    0.000    0.000 
#    0.000    0.000    0.000    0.000    0.000    0.000 
#
# Total GULP energy -134132.635780 kJ/mol
# GULP energy per Si atom -5588.859824 kJ/mol
# Density = 2.406464 g / cm^3
# Si number density = 24.119533 Si / 1000 Ang^3
#
#
#
# Elastic Constant Matrix: (Units=GPa)
#
#
# Indices 1 2 3 4 5 6 
#
# 1 206.1708 24.8945 51.4028 -0.0003 16.7285 -0.0001
# 2 24.8945 70.2400 10.9014 -0.0001 4.2989 0.0000
# 3 51.4028 10.9014 107.0691 -0.0003 16.0214 -0.0005
# 4 -0.0003 -0.0001 -0.0003 22.8456 -0.0003 -2.1746
# 5 16.7285 4.2989 16.0214 -0.0003 37.8343 -0.0002
# 6 -0.0001 0.0000 -0.0005 -2.1746 -0.0002 31.2133
#
#
#
# Elastic Compliance Matrix: (Units=1/GPa)
#
#
# Indices 1 2 3 4 5 6 
#
# 1 0.005748 -0.001583 -0.002397 0.000000 -0.001347 0.000000
# 2 -0.001583 0.014944 -0.000654 0.000000 -0.000721 0.000000
# 3 -0.002397 -0.000654 0.011090 0.000000 -0.003562 0.000000
# 4 0.000000 0.000000 0.000000 0.044064 0.000000 0.003070
# 5 -0.001347 -0.000721 -0.003562 0.000000 0.028617 0.000000
# 6 0.000000 0.000000 0.000000 0.003070 0.000000 0.032251
#
#
# Mechanical properties :
#
#
# Convention : Reuss Voigt Hill
#
# Bulk Modulus (GPa) = 44.41512 61.98638 53.20075
# Shear Modulus (GPa) = 32.57609 38.13072 35.35340
#
# Velocity S-wave (km/s) = 3.67905 3.98037 3.83268
# Velocity P-wave (km/s) = 6.04167 6.84689 6.45685
#
# Compressibility (1/GPa) = 0.02251485
#
# Stress axis : x y z
#
# Youngs Moduli (GPa) = 173.96176 66.91872 90.17017
#
# Poissons Ratio (x) = 0.10593 0.21614
# Poissons Ratio (y) = 0.27536 0.05894
# Poissons Ratio (z) = 0.41700 0.04374
#
# Static dielectric constant tensor:
#      x y z
#    x 1.988640 0.000000 -0.002740 
#    y 0.000000 1.988980 0.000000 
#    z -0.002740 0.000000 1.807440 
# 
# From -- ./inp_files/207165.got.cif
#   From: 2010.05.17/outbox.cif.g08.bks.cpg/sg12_104_cif.got.tgz:207165.got - 2010.06.03 13:09:07.
