data_PCOD9186071
_publ_section_title
;
Structure prediction by ZEFSAII (Michael W. Deem and Ramdas Pophale) SiO2 
 PCOD9186071
Probable space group: C 2/M
;
_chemical_formula_sum "Si O2"
_cell_formula_units_Z 64
_cell_length_a 20.886041
_cell_length_b 7.576240
_cell_length_c 22.454011
_cell_angle_alpha 90.000000
_cell_angle_beta 57.364404
_cell_angle_gamma 90.000000
_cell_volume 2992.102594
_symmetry_space_group_name_H-M "C 2/M"
_symmetry_group_IT_number 12
_symmetry_cell_setting 'monoclinic'
loop_
_space_group_symop_operation_xyz
x,y,z
-x,y,-z
-x,-y,-z
x,-y,z
1/2+x,1/2+y,z
1/2-x,1/2+y,-z
1/2-x,1/2-y,-z
1/2+x,1/2-y,z
loop_
_atom_site_type_symbol
_atom_site_label
_atom_site_fract_x
_atom_site_fract_y
_atom_site_fract_z
Si Si1 0.384151 0.214201 0.205580
Si Si2 0.619115 0.212420 0.331759
Si Si3 0.195981 0.711819 0.971907
Si Si4 0.681982 0.216490 0.426903
Si Si5 0.448072 0.203375 0.419706
Si Si6 0.851640 0.794147 0.357860
Si Si7 0.247511 0.289750 0.817438
Si Si8 0.975886 0.715442 0.945404
O O1 0.376017 0.276067 0.277113
O O2 0.313493 0.277062 0.200462
O O3 0.461426 0.271150 0.133993
O O4 0.382956 0.000000 0.207431
O O5 0.663630 0.271889 0.368685
O O6 0.532706 0.280650 0.376013
O O7 0.668413 0.258242 0.249382
O O8 0.616319 0.000000 0.335257
O O9 0.191016 0.500000 0.969470
O O10 0.229439 0.779321 0.892355
O O11 0.250000 0.750000 0.000000
O O12 0.109722 0.775935 0.024060
O O13 0.613942 0.278807 0.503503
O O14 0.765296 0.276226 0.405662
O O15 0.684073 0.000000 0.426862
O O16 0.409807 0.206823 0.374163
O O17 0.457664 0.000000 0.434231
O O18 0.850510 0.000000 0.374489
O O19 0.236228 0.500000 0.825326
O O20 0.976555 0.500000 0.944684
O O21 0.000000 0.768661 0.000000
#
# Coordination Sequence:
#
# PCOD9186071 Si02
#       8
#     8   8   8   8   8   8   8   8
#     4  10  19  34  59  85 107 139 187 230 268 321
#     4  10  20  36  59  83 109 144 186 227 270 324
#     4  10  21  37  57  83 113 144 179 221 271 321
#     4   9  18  35  58  82 106 141 186 229 273 320
#     4  10  21  37  57  80 109 145 187 229 268 321
#     4  11  22  36  55  81 115 146 176 225 282 328
#     4  10  20  35  57  83 112 144 178 225 276 324
#     4   9  16  32  59  83 102 134 184 229 259 303
#
# _framework density 21.389638999999999
#
# number of rings (size 3 to 8) (size 9 to 14) (size 15 to 20)
#    0.000    2.125    2.500    1.125    0.000    3.500 
#    0.000    5.625    0.000    2.250    0.000    0.000 
#    0.000    0.000    0.000    0.000    0.000    0.000 
#
# Total GULP energy -178785.107427 kJ/mol
# GULP energy per Si atom -5587.034607 kJ/mol
# Density = 2.134096 g / cm^3
# Si number density = 21.389639 Si / 1000 Ang^3
#
#
#
# Elastic Constant Matrix: (Units=GPa)
#
#
# Indices 1 2 3 4 5 6 
#
# 1 97.4504 -7.0829 22.9482 0.0006 -11.1358 0.0022
# 2 -7.0829 48.6349 -9.6458 0.0013 -2.9066 0.0031
# 3 22.9482 -9.6458 113.8885 -0.0004 -13.2004 0.0004
# 4 0.0006 0.0013 -0.0004 19.5072 -0.0003 0.4035
# 5 -11.1358 -2.9066 -13.2004 -0.0003 31.6849 0.0007
# 6 0.0022 0.0031 0.0004 0.4035 0.0007 16.9831
#
#
#
# Elastic Compliance Matrix: (Units=1/GPa)
#
#
# Indices 1 2 3 4 5 6 
#
# 1 0.011159 0.001480 -0.001737 0.000000 0.003334 -0.000002
# 2 0.001480 0.021346 0.001888 -0.000001 0.003265 -0.000004
# 3 -0.001737 0.001888 0.009709 0.000000 0.003608 -0.000001
# 4 0.000000 -0.000001 0.000000 0.051288 0.000000 -0.001219
# 5 0.003334 0.003265 0.003608 0.000000 0.034535 -0.000002
# 6 -0.000002 -0.000004 -0.000001 -0.001219 -0.000002 0.058911
#
#
# Mechanical properties :
#
#
# Convention : Reuss Voigt Hill
#
# Bulk Modulus (GPa) = 21.98913 30.26808 26.12861
# Shear Modulus (GPa) = 25.14524 30.55200 27.84862
#
# Velocity S-wave (km/s) = 3.43239 3.78346 3.61219
# Velocity P-wave (km/s) = 5.10010 5.76781 5.44420
#
# Compressibility (1/GPa) = 0.04547701
#
# Stress axis : x y z
#
# Youngs Moduli (GPa) = 89.61231 46.84609 103.00229
#
# Poissons Ratio (x) = -0.06933 0.17889
# Poissons Ratio (y) = -0.13262 -0.19449
# Poissons Ratio (z) = 0.15563 -0.08845
#
# Static dielectric constant tensor:
#      x y z
#    x 1.745150 0.000000 -0.018940 
#    y 0.000000 1.837020 0.000000 
#    z -0.018940 0.000000 1.748600 
# 
# From -- ./inp_files/319974.got.cif
#   From: 2010.05.17/outbox.cif.g08.bks.cpg/sg12_160_cif.got.tgz:319974.got - 2010.06.03 13:09:07.
