data_PCOD9186005
_publ_section_title
;
Structure prediction by ZEFSAII (Michael W. Deem and Ramdas Pophale) SiO2 
 PCOD9186005
Probable space group: C 2/M
;
_chemical_formula_sum "Si O2"
_cell_formula_units_Z 40
_cell_length_a 28.566145
_cell_length_b 10.718610
_cell_length_c 12.890532
_cell_angle_alpha 90.000000
_cell_angle_beta 28.848331
_cell_angle_gamma 90.000000
_cell_volume 1904.371582
_symmetry_space_group_name_H-M "C 2/M"
_symmetry_group_IT_number 12
_symmetry_cell_setting 'monoclinic'
loop_
_space_group_symop_operation_xyz
x,y,z
-x,y,-z
-x,-y,-z
x,-y,z
1/2+x,1/2+y,z
1/2-x,1/2+y,-z
1/2-x,1/2-y,-z
1/2+x,1/2-y,z
loop_
_atom_site_type_symbol
_atom_site_label
_atom_site_fract_x
_atom_site_fract_y
_atom_site_fract_z
Si Si1 0.644084 0.139048 0.531141
Si Si2 0.889963 0.355103 0.175588
Si Si3 0.212638 0.862330 0.142387
Si Si4 0.967185 0.856099 0.369384
Si Si5 0.670361 0.734154 0.920755
O O1 0.669097 0.162869 0.603017
O O2 0.576888 0.250824 0.621079
O O3 0.598987 0.000000 0.612987
O O4 0.739988 0.142656 0.275045
O O5 0.879887 0.500000 0.165737
O O6 0.865184 0.275191 0.123787
O O7 0.000000 0.333239 0.000000
O O8 0.101429 0.847164 0.396144
O O9 0.224401 0.000000 0.073683
O O10 0.250000 0.750000 0.000000
O O11 0.280252 0.848099 0.113426
O O12 0.080583 0.823769 0.157695
O O13 0.957435 0.000000 0.351466
#
# Coordination Sequence:
#
# PCOD9186005 Si02
#       5
#     8   8   8   8   8
#     4  10  21  37  59  89 125 166 206 243 287 350
#     4  10  19  34  58  89 127 166 201 242 293 351
#     4  10  24  44  65  89 119 156 199 252 307 364
#     4  10  22  40  62  91 124 157 196 249 305 357
#     4  11  21  38  63  91 121 159 204 248 299 353
#
# _framework density 21.004303
#
# number of rings (size 3 to 8) (size 9 to 14) (size 15 to 20)
#    0.000    1.800    2.000    1.800    0.000    6.400 
#    0.000    6.000    0.000    0.000    0.000    0.000 
#    0.000    0.000    0.000    0.000    0.000    0.000 
#
# Total GULP energy -111574.627379 kJ/mol
# GULP energy per Si atom -5578.731369 kJ/mol
# Density = 2.095650 g / cm^3
# Si number density = 21.004303 Si / 1000 Ang^3
#
#
#
# Elastic Constant Matrix: (Units=GPa)
#
#
# Indices 1 2 3 4 5 6 
#
# 1 31.5007 15.4298 17.5201 0.0000 1.3642 0.0000
# 2 15.4298 115.1832 54.0732 0.0000 2.3665 0.0000
# 3 17.5201 54.0732 149.5004 0.0000 -7.0650 0.0000
# 4 0.0000 0.0000 0.0000 21.1424 0.0000 8.1393
# 5 1.3642 2.3665 -7.0650 0.0000 25.4852 0.0000
# 6 0.0000 0.0000 0.0000 8.1393 0.0000 21.1589
#
#
#
# Elastic Compliance Matrix: (Units=1/GPa)
#
#
# Indices 1 2 3 4 5 6 
#
# 1 0.035133 -0.003216 -0.003069 0.000000 -0.002433 0.000000
# 2 -0.003216 0.010858 -0.003638 0.000000 -0.001845 0.000000
# 3 -0.003069 -0.003638 0.008499 0.000000 0.002858 0.000000
# 4 0.000000 0.000000 0.000000 0.055521 0.000000 -0.021358
# 5 -0.002433 -0.001845 0.002858 0.000000 0.040332 0.000000
# 6 0.000000 0.000000 0.000000 -0.021358 0.000000 0.055477
#
#
# Mechanical properties :
#
#
# Convention : Reuss Voigt Hill
#
# Bulk Modulus (GPa) = 28.86367 52.24784 40.55575
# Shear Modulus (GPa) = 21.07803 27.50136 24.28969
#
# Velocity S-wave (km/s) = 3.17126 3.62238 3.40430
# Velocity P-wave (km/s) = 5.21352 6.51340 5.89937
#
# Compressibility (1/GPa) = 0.03464563
#
# Stress axis : x y z
#
# Youngs Moduli (GPa) = 28.46345 92.09641 117.65509
#
# Poissons Ratio (x) = 0.29614 0.36111
# Poissons Ratio (y) = 0.09152 0.42799
# Poissons Ratio (z) = 0.08736 0.33502
#
# Static dielectric constant tensor:
#      x y z
#    x 1.768180 0.000000 0.016100 
#    y 0.000000 1.725950 0.000000 
#    z 0.016100 0.000000 1.814430 
# 
# From -- ./inp_files/182715.got.cif
#   From: 2010.05.17/outbox.cif.g08.bks.cpg/sg12_92_cif.got.tgz:182715.got - 2010.06.03 13:09:07.
