data_PCOD9186049
_publ_section_title
;
Structure prediction by ZEFSAII (Michael W. Deem and Ramdas Pophale) SiO2 
 PCOD9186049
Probable space group: C 2/M
;
_chemical_formula_sum "Si O2"
_cell_formula_units_Z 56
_cell_length_a 26.228298
_cell_length_b 7.647482
_cell_length_c 14.013593
_cell_angle_alpha 90.000000
_cell_angle_beta 66.870254
_cell_angle_gamma 90.000000
_cell_volume 2584.909767
_symmetry_space_group_name_H-M "C 2/M"
_symmetry_group_IT_number 12
_symmetry_cell_setting 'monoclinic'
loop_
_space_group_symop_operation_xyz
x,y,z
-x,y,-z
-x,-y,-z
x,-y,z
1/2+x,1/2+y,z
1/2-x,1/2+y,-z
1/2-x,1/2-y,-z
1/2+x,1/2-y,z
loop_
_atom_site_type_symbol
_atom_site_label
_atom_site_fract_x
_atom_site_fract_y
_atom_site_fract_z
Si Si1 0.919276 0.786278 0.808123
Si Si2 0.296682 0.290160 0.889076
Si Si3 0.986922 0.209894 0.115850
Si Si4 0.837548 0.703268 0.512957
Si Si5 0.364088 0.788627 0.280714
Si Si6 0.438690 0.711840 0.575634
Si Si7 0.253336 0.795849 0.270916
O O1 0.857061 0.727101 0.877793
O O2 0.929107 0.734746 0.691516
O O3 0.967344 0.723151 0.842842
O O4 0.921022 0.000000 0.809381
O O5 0.302206 0.500000 0.876388
O O6 0.277946 0.221107 0.798783
O O7 0.250000 0.250000 0.000000
O O8 0.924737 0.244681 0.197259
O O9 0.992904 0.000000 0.108336
O O10 0.000000 0.276871 0.000000
O O11 0.823287 0.500000 0.512413
O O12 0.852417 0.774734 0.397380
O O13 0.891430 0.720770 0.540132
O O14 0.786343 0.785308 0.607807
O O15 0.313706 0.722015 0.251713
O O16 0.361146 0.000000 0.285776
O O17 0.500000 0.765950 0.500000
O O18 0.435679 0.500000 0.573867
O O19 0.262076 0.000000 0.242868
#
# Coordination Sequence:
#
# PCOD9186049 Si02
#       7
#     8   8   8   8   8   8   8
#     4   9  18  36  57  82 114 145 185 232 276 330
#     4  10  21  37  59  84 113 146 187 237 282 333
#     4  10  22  39  61  87 113 148 194 240 282 331
#     4  11  22  36  56  87 121 147 184 239 291 335
#     4  10  23  40  58  84 118 153 189 233 285 342
#     4  10  19  34  59  83 110 153 194 227 274 341
#     4  10  21  40  62  83 113 154 194 229 279 347
#
# _framework density 21.664200999999998
#
# number of rings (size 3 to 8) (size 9 to 14) (size 15 to 20)
#    0.000    2.000    1.429    1.714    2.000    4.000 
#    0.000    1.429    0.000    0.000    0.000    0.000 
#    0.000    0.000    0.000    0.000    0.000    0.000 
#
# Total GULP energy -156456.573779 kJ/mol
# GULP energy per Si atom -5587.734778 kJ/mol
# Density = 2.161489 g / cm^3
# Si number density = 21.664201 Si / 1000 Ang^3
#
#
#
# Elastic Constant Matrix: (Units=GPa)
#
#
# Indices 1 2 3 4 5 6 
#
# 1 191.6607 0.2368 62.5387 0.0000 -11.6306 0.0000
# 2 0.2368 36.6447 -4.5403 0.0000 8.2540 0.0000
# 3 62.5387 -4.5403 100.2036 0.0000 -13.8448 0.0000
# 4 0.0000 0.0000 0.0000 19.5600 0.0000 -8.4562
# 5 -11.6306 8.2540 -13.8448 0.0000 38.2781 0.0000
# 6 0.0000 0.0000 0.0000 -8.4562 0.0000 22.3476
#
#
#
# Elastic Compliance Matrix: (Units=1/GPa)
#
#
# Indices 1 2 3 4 5 6 
#
# 1 0.006579 -0.000698 -0.004043 0.000000 0.000687 0.000000
# 2 -0.000698 0.028777 0.000898 0.000000 -0.006093 0.000000
# 3 -0.004043 0.000898 0.012997 0.000000 0.003279 0.000000
# 4 0.000000 0.000000 0.000000 0.061124 0.000000 0.023129
# 5 0.000687 -0.006093 0.003279 0.000000 0.028833 0.000000
# 6 0.000000 0.000000 0.000000 0.023129 0.000000 0.053499
#
#
# Mechanical properties :
#
#
# Convention : Reuss Voigt Hill
#
# Bulk Modulus (GPa) = 24.59021 49.44215 37.01618
# Shear Modulus (GPa) = 23.46849 34.05540 28.76195
#
# Velocity S-wave (km/s) = 3.29490 3.96910 3.64761
# Velocity P-wave (km/s) = 5.08433 6.62395 5.90453
#
# Compressibility (1/GPa) = 0.04066659
#
# Stress axis : x y z
#
# Youngs Moduli (GPa) = 151.99108 34.74973 76.94302
#
# Poissons Ratio (x) = 0.02426 0.31108
# Poissons Ratio (y) = 0.10613 -0.06909
# Poissons Ratio (z) = 0.61449 -0.03120
#
# Static dielectric constant tensor:
#      x y z
#    x 1.778280 0.000000 0.014580 
#    y 0.000000 1.837090 0.000000 
#    z 0.014580 0.000000 1.753550 
# 
# From -- ./inp_files/180679.got.cif
#   From: 2010.05.17/outbox.cif.g08.bks.cpg/sg12_91_cif.got.tgz:180679.got - 2010.06.03 13:09:07.
