data_PCOD9186570
_publ_section_title
;
Structure prediction by ZEFSAII (Michael W. Deem and Ramdas Pophale) SiO2 
 PCOD9186570
Probable space group: C 2/M
;
_chemical_formula_sum "Si O2"
_cell_formula_units_Z 64
_cell_length_a 29.844096
_cell_length_b 15.212774
_cell_length_c 19.998681
_cell_angle_alpha 90.000000
_cell_angle_beta 156.651739
_cell_angle_gamma 90.000000
_cell_volume 3598.430078
_symmetry_space_group_name_H-M "C 2/M"
_symmetry_group_IT_number 12
_symmetry_cell_setting 'monoclinic'
loop_
_space_group_symop_operation_xyz
x,y,z
-x,y,-z
-x,-y,-z
x,-y,z
1/2+x,1/2+y,z
1/2-x,1/2+y,-z
1/2-x,1/2-y,-z
1/2+x,1/2-y,z
loop_
_atom_site_type_symbol
_atom_site_label
_atom_site_fract_x
_atom_site_fract_y
_atom_site_fract_z
Si Si1 0.238037 0.729073 0.210663
Si Si2 0.139350 0.101797 0.003814
Si Si3 0.896916 0.744546 0.554902
Si Si4 0.318793 0.839782 0.577091
Si Si5 0.973402 0.604349 0.042619
Si Si6 0.141577 0.810971 0.863198
Si Si7 0.127311 0.099841 0.702015
Si Si8 0.384520 0.406204 0.634730
O O1 0.199322 0.822254 0.127693
O O2 0.320912 0.751787 0.385335
O O3 0.301879 0.670929 0.242542
O O4 0.132479 0.668120 0.088070
O O5 0.173283 0.000000 0.061202
O O6 0.153610 0.129605 0.945840
O O7 0.004986 0.109287 0.834252
O O8 0.865896 0.669590 0.566556
O O9 0.869623 0.833612 0.558115
O O10 0.029607 0.751034 0.719954
O O11 0.250000 0.750000 0.500000
O O12 0.421331 0.860943 0.768178
O O13 0.217838 0.906344 0.453736
O O14 0.953527 0.500000 0.030539
O O15 0.000000 0.609878 0.000000
O O16 0.125631 0.871756 0.776789
O O17 0.250000 0.750000 0.000000
O O18 0.000000 0.101512 0.500000
O O19 0.171223 0.000000 0.754327
O O20 0.391651 0.500000 0.609620
#
# Coordination Sequence:
#
# PCOD9186570 Si02
#       8
#     8   8   8   8   8   8   8   8
#     4  12  22  39  59  84 123 154 195 245 295 352
#     4  10  22  39  62  86 112 154 206 248 285 346
#     4  10  22  35  57  86 113 157 194 234 294 353
#     4  10  19  35  54  80 116 154 196 233 287 350
#     4  11  23  37  58  90 124 158 193 241 307 365
#     4  11  20  38  64  86 116 153 194 244 297 350
#     4  11  23  38  60  91 121 150 190 242 300 355
#     4   9  18  35  59  84 109 145 195 246 292 341
#
# _framework density 17.785533999999998
#
# number of rings (size 3 to 8) (size 9 to 14) (size 15 to 20)
#    0.000    1.500    2.500    4.875    0.000    2.500 
#    0.000    1.250    0.000    6.000    0.000    0.000 
#    0.000    0.000    0.000    0.000    0.000    0.000 
#
# Total GULP energy -178419.835644 kJ/mol
# GULP energy per Si atom -5575.619864 kJ/mol
# Density = 1.774505 g / cm^3
# Si number density = 17.785534 Si / 1000 Ang^3
#
#
#
# Elastic Constant Matrix: (Units=GPa)
#
#
# Indices 1 2 3 4 5 6 
#
# 1 104.9859 55.0586 69.9585 0.0000 4.6437 0.0000
# 2 55.0586 111.0150 67.5346 0.0000 -9.5019 0.0000
# 3 69.9585 67.5346 106.0973 0.0000 5.0722 0.0000
# 4 0.0000 0.0000 0.0000 21.6682 0.0000 -6.3574
# 5 4.6437 -9.5019 5.0722 0.0000 26.6513 0.0000
# 6 0.0000 0.0000 0.0000 -6.3574 0.0000 19.8121
#
#
#
# Elastic Compliance Matrix: (Units=1/GPa)
#
#
# Indices 1 2 3 4 5 6 
#
# 1 0.017611 -0.003174 -0.009478 0.000000 -0.002396 0.000000
# 2 -0.003174 0.016730 -0.008949 0.000000 0.008221 0.000000
# 3 -0.009478 -0.008949 0.021642 0.000000 -0.005658 0.000000
# 4 0.000000 0.000000 0.000000 0.050947 0.000000 0.016348
# 5 -0.002396 0.008221 -0.005658 0.000000 0.041947 0.000000
# 6 0.000000 0.000000 0.000000 0.016348 0.000000 0.055720
#
#
# Mechanical properties :
#
#
# Convention : Reuss Voigt Hill
#
# Bulk Modulus (GPa) = 78.24094 78.57795 78.40945
# Shear Modulus (GPa) = 19.83667 22.26274 21.04971
#
# Velocity S-wave (km/s) = 3.34327 3.54182 3.44398
# Velocity P-wave (km/s) = 7.68050 7.81042 7.74574
#
# Compressibility (1/GPa) = 0.01278103
#
# Stress axis : x y z
#
# Youngs Moduli (GPa) = 56.78249 59.77402 46.20723
#
# Poissons Ratio (x) = 0.18972 0.43793
# Poissons Ratio (y) = 0.18022 0.41352
# Poissons Ratio (z) = 0.53816 0.53493
#
# Static dielectric constant tensor:
#      x y z
#    x 1.621600 0.000000 0.012070 
#    y 0.000000 1.464570 0.000000 
#    z 0.012070 0.000000 1.628080 
# 
# From -- ./inp_files/330387.got.cif
#   From: 2010.05.17/outbox.cif.g08.bks.cpg/sg12_166_cif.got.tgz:330387.got - 2010.06.03 13:09:07.
