data_PCOD9186226
_publ_section_title
;
Structure prediction by ZEFSAII (Michael W. Deem and Ramdas Pophale) SiO2 
 PCOD9186226
Probable space group: C 2/M
;
_chemical_formula_sum "Si O2"
_cell_formula_units_Z 64
_cell_length_a 19.441738
_cell_length_b 19.408467
_cell_length_c 11.827023
_cell_angle_alpha 90.000000
_cell_angle_beta 46.049597
_cell_angle_gamma 90.000000
_cell_volume 3212.910121
_symmetry_space_group_name_H-M "C 2/M"
_symmetry_group_IT_number 12
_symmetry_cell_setting 'monoclinic'
loop_
_space_group_symop_operation_xyz
x,y,z
-x,y,-z
-x,-y,-z
x,-y,z
1/2+x,1/2+y,z
1/2-x,1/2+y,-z
1/2-x,1/2-y,-z
1/2+x,1/2-y,z
loop_
_atom_site_type_symbol
_atom_site_label
_atom_site_fract_x
_atom_site_fract_y
_atom_site_fract_z
Si Si1 0.094357 0.829934 0.157693
Si Si2 0.624878 0.833384 0.627401
Si Si3 0.265088 0.420840 0.319474
Si Si4 0.069679 0.786039 0.515636
Si Si5 0.769114 0.419618 0.911963
Si Si6 0.405631 0.834952 0.889824
Si Si7 0.720336 0.810006 0.759958
Si Si8 0.599195 0.679799 0.905697
O O1 0.107613 0.746021 0.133050
O O2 0.003842 0.838729 0.341449
O O3 0.190544 0.872557 0.066764
O O4 0.072428 0.853823 0.055165
O O5 0.679353 0.888229 0.488079
O O6 0.609712 0.765498 0.566261
O O7 0.516439 0.849519 0.784976
O O8 0.686934 0.823773 0.669838
O O9 0.279145 0.500000 0.332321
O O10 0.243872 0.415359 0.208921
O O11 0.361679 0.376184 0.225549
O O12 0.166403 0.816971 0.353527
O O13 0.000000 0.752242 0.500000
O O14 0.762556 0.500000 0.950414
O O15 0.867783 0.384548 0.835253
O O16 0.343537 0.847702 0.073437
O O17 0.687982 0.730845 0.816248
O O18 0.500000 0.720500 0.000000
#
# Coordination Sequence:
#
# PCOD9186226 Si02
#       8
#     8   8   8   8   8   8   8   8
#     4   9  20  34  55  87 120 150 194 250 301 349
#     4  11  23  36  60  87 127 154 195 243 302 358
#     4  10  23  38  55  84 122 161 197 242 298 357
#     4  11  22  33  59  93 121 153 194 246 304 351
#     4  10  21  39  61  86 121 161 199 246 302 360
#     4  10  21  36  62  88 114 157 207 246 300 349
#     4  11  21  39  60  91 123 153 194 253 303 351
#     4  10  19  34  60  83 117 153 192 242 299 359
#
# _framework density 19.919637000000002
#
# number of rings (size 3 to 8) (size 9 to 14) (size 15 to 20)
#    0.000    1.750    1.250    4.125    5.250    0.750 
#    0.000    1.875    0.000    4.875    0.000    0.000 
#    0.000    0.000    0.000    0.000    0.000    0.000 
#
# Total GULP energy -178249.087537 kJ/mol
# GULP energy per Si atom -5570.283986 kJ/mol
# Density = 1.987430 g / cm^3
# Si number density = 19.919637 Si / 1000 Ang^3
#
#
#
# Elastic Constant Matrix: (Units=GPa)
#
#
# Indices 1 2 3 4 5 6 
#
# 1 76.3844 13.1080 40.5830 0.0000 -26.4656 0.0000
# 2 13.1080 64.0346 36.6541 0.0000 -11.2095 0.0000
# 3 40.5830 36.6541 142.8400 0.0000 -18.6188 0.0000
# 4 0.0000 0.0000 0.0000 15.6067 0.0000 5.0619
# 5 -26.4656 -11.2095 -18.6188 0.0000 28.6518 0.0000
# 6 0.0000 0.0000 0.0000 5.0619 0.0000 13.3577
#
#
#
# Elastic Compliance Matrix: (Units=1/GPa)
#
#
# Indices 1 2 3 4 5 6 
#
# 1 0.020992 0.000989 -0.003977 0.000000 0.017193 0.000000
# 2 0.000989 0.018896 -0.004422 0.000000 0.005433 0.000000
# 3 -0.003977 -0.004422 0.009353 0.000000 0.000675 0.000000
# 4 0.000000 0.000000 0.000000 0.073054 0.000000 -0.027684
# 5 0.017193 0.005433 0.000675 0.000000 0.053347 0.000000
# 6 0.000000 0.000000 0.000000 -0.027684 0.000000 0.085354
#
#
# Mechanical properties :
#
#
# Convention : Reuss Voigt Hill
#
# Bulk Modulus (GPa) = 29.05114 51.54992 40.30053
# Shear Modulus (GPa) = 17.40405 24.38418 20.89412
#
# Velocity S-wave (km/s) = 2.95907 3.50255 3.24222
# Velocity P-wave (km/s) = 5.12744 6.50325 5.85589
#
# Compressibility (1/GPa) = 0.03442206
#
# Stress axis : x y z
#
# Youngs Moduli (GPa) = 47.63779 52.92062 106.91361
#
# Poissons Ratio (x) = -0.05234 0.42518
# Poissons Ratio (y) = -0.04711 0.47275
# Poissons Ratio (z) = 0.18945 0.23400
#
# Static dielectric constant tensor:
#      x y z
#    x 1.824380 0.000000 0.003040 
#    y 0.000000 1.701900 0.000000 
#    z 0.003040 0.000000 1.757130 
# 
# From -- ./inp_files/169664.got.cif
#   From: 2010.05.17/outbox.cif.g08.bks.cpg/sg12_85_cif.got.tgz:169664.got - 2010.06.03 13:09:07.
