data_PCOD9186694
_publ_section_title
;
Structure prediction by ZEFSAII (Michael W. Deem and Ramdas Pophale) SiO2 
 PCOD9186694
Probable space group: C 2/M
;
_chemical_formula_sum "Si O2"
_cell_formula_units_Z 56
_cell_length_a 20.816729
_cell_length_b 7.763215
_cell_length_c 19.898292
_cell_angle_alpha 90.000000
_cell_angle_beta 57.042951
_cell_angle_gamma 90.000000
_cell_volume 2698.190159
_symmetry_space_group_name_H-M "C 2/M"
_symmetry_group_IT_number 12
_symmetry_cell_setting 'monoclinic'
loop_
_space_group_symop_operation_xyz
x,y,z
-x,y,-z
-x,-y,-z
x,-y,z
1/2+x,1/2+y,z
1/2-x,1/2+y,-z
1/2-x,1/2-y,-z
1/2+x,1/2-y,z
loop_
_atom_site_type_symbol
_atom_site_label
_atom_site_fract_x
_atom_site_fract_y
_atom_site_fract_z
Si Si1 0.662713 0.804345 0.557155
Si Si2 0.919255 0.208041 0.014575
Si Si3 0.040299 0.704043 0.155190
Si Si4 0.285637 0.711142 0.190852
Si Si5 0.385272 0.789670 0.747794
Si Si6 0.514597 0.211655 0.568044
Si Si7 0.869284 0.800470 0.275706
O O1 0.750000 0.750000 0.500000
O O2 0.595465 0.721331 0.551009
O O3 0.638461 0.791165 0.648679
O O4 0.662550 0.000000 0.535011
O O5 0.848217 0.266734 0.100243
O O6 0.919991 0.000000 0.016138
O O7 0.916306 0.262417 0.938903
O O8 0.000000 0.268661 0.000000
O O9 0.027486 0.500000 0.169850
O O10 0.085896 0.765014 0.195021
O O11 0.956477 0.788482 0.200586
O O12 0.286607 0.500000 0.191115
O O13 0.200316 0.767374 0.221234
O O14 0.314446 0.766754 0.247979
O O15 0.446920 0.735269 0.656999
O O16 0.384008 0.000000 0.748757
O O17 0.500000 0.264639 0.500000
O O18 0.514300 0.000000 0.569265
O O19 0.849866 0.000000 0.299103
#
# Coordination Sequence:
#
# PCOD9186694 Si02
#       7
#     8   8   8   8   8   8   8
#     4  11  23  39  59  89 118 147 185 234 283 332
#     4  10  19  35  55  82 114 148 192 236 278 332
#     4  11  21  35  57  84 114 149 185 233 289 339
#     4   9  19  34  56  82 110 148 195 237 274 329
#     4   9  18  34  54  80 112 146 187 233 279 332
#     4   9  18  33  56  83 111 145 188 231 273 329
#     4  11  21  37  61  86 112 151 192 231 278 334
#
# _framework density 20.754652
#
# number of rings (size 3 to 8) (size 9 to 14) (size 15 to 20)
#    0.000    2.000    2.857    1.286    2.000    0.857 
#    0.000    0.000    0.000    7.714    0.000    0.000 
#    0.000    0.000    0.000    0.000    0.000    0.000 
#
# Total GULP energy -156398.590098 kJ/mol
# GULP energy per Si atom -5585.663932 kJ/mol
# Density = 2.070741 g / cm^3
# Si number density = 20.754652 Si / 1000 Ang^3
#
#
#
# Elastic Constant Matrix: (Units=GPa)
#
#
# Indices 1 2 3 4 5 6 
#
# 1 205.9425 6.4792 95.9397 -0.0002 8.5707 -0.0011
# 2 6.4792 26.7352 -4.0930 -0.0002 -4.5911 -0.0035
# 3 95.9397 -4.0930 127.1930 0.0001 11.6743 -0.0006
# 4 -0.0002 -0.0002 0.0001 23.6540 0.0000 1.0845
# 5 8.5707 -4.5911 11.6743 0.0000 39.6075 0.0001
# 6 -0.0011 -0.0035 -0.0006 1.0845 0.0001 12.1977
#
#
#
# Elastic Compliance Matrix: (Units=1/GPa)
#
#
# Indices 1 2 3 4 5 6 
#
# 1 0.007687 -0.002805 -0.005864 0.000000 -0.000260 0.000000
# 2 -0.002805 0.039276 0.002987 0.000000 0.004279 0.000011
# 3 -0.005864 0.002987 0.012574 0.000000 -0.002091 0.000001
# 4 0.000000 0.000000 0.000000 0.042449 0.000000 -0.003774
# 5 -0.000260 0.004279 -0.002091 0.000000 0.026416 0.000001
# 6 0.000000 0.000011 0.000001 -0.003774 0.000001 0.082318
#
#
# Mechanical properties :
#
#
# Convention : Reuss Voigt Hill
#
# Bulk Modulus (GPa) = 20.75942 61.83583 41.29763
# Shear Modulus (GPa) = 20.99587 32.52817 26.76202
#
# Velocity S-wave (km/s) = 3.18405 3.96317 3.59478
# Velocity P-wave (km/s) = 4.85197 7.12746 6.09682
#
# Compressibility (1/GPa) = 0.04817089
#
# Stress axis : x y z
#
# Youngs Moduli (GPa) = 130.09340 25.46094 79.53213
#
# Poissons Ratio (x) = 0.07143 0.46641
# Poissons Ratio (y) = 0.36495 -0.23757
# Poissons Ratio (z) = 0.76292 -0.07605
#
# Static dielectric constant tensor:
#      x y z
#    x 1.743610 0.000000 -0.000050 
#    y 0.000000 1.777600 0.000000 
#    z -0.000050 0.000000 1.699530 
# 
# From -- ./inp_files/280987.got.cif
#   From: 2010.05.17/outbox.cif.g08.bks.cpg/sg12_141_cif.got.tgz:280987.got - 2010.06.03 13:09:07.
