data_PCOD9186444
_publ_section_title
;
Structure prediction by ZEFSAII (Michael W. Deem and Ramdas Pophale) SiO2 
 PCOD9186444
Probable space group: C 2/M
;
_chemical_formula_sum "Si O2"
_cell_formula_units_Z 26
_cell_length_a 8.150459
_cell_length_b 17.651994
_cell_length_c 6.815595
_cell_angle_alpha 90.000000
_cell_angle_beta 78.806753
_cell_angle_gamma 90.000000
_cell_volume 961.919879
_symmetry_space_group_name_H-M "C 2/M"
_symmetry_group_IT_number 12
_symmetry_cell_setting 'monoclinic'
loop_
_space_group_symop_operation_xyz
x,y,z
-x,y,-z
-x,-y,-z
x,-y,z
1/2+x,1/2+y,z
1/2-x,1/2+y,-z
1/2-x,1/2-y,-z
1/2+x,1/2-y,z
loop_
_atom_site_type_symbol
_atom_site_label
_atom_site_fract_x
_atom_site_fract_y
_atom_site_fract_z
Si Si1 0.836469 0.133618 0.274376
Si Si2 0.669323 0.729066 0.228962
Si Si3 0.305822 0.082410 0.104943
Si Si4 0.500000 0.500000 0.500000
O O1 0.683146 0.192612 0.341738
O O2 0.798531 0.096101 0.070253
O O3 0.984943 0.196251 0.246478
O O4 0.898656 0.066932 0.396948
O O5 0.750000 0.750000 0.000000
O O6 0.771228 0.652420 0.254607
O O7 0.253059 0.000000 0.201907
O O8 0.500000 0.080531 0.000000
#
# Coordination Sequence:
#
# PCOD9186444 Si02
#       4
#     8   8   8   2
#     4  11  23  42  65  95 134 175 219 261 326 398
#     4  10  20  37  67  97 126 157 215 284 338 369
#     4  10  19  34  64 101 130 156 208 289 343 374
#     4  12  28  44  64  90 136 196 222 246 298 420
#
# _framework density 27.029278999999999
#
# number of rings (size 3 to 8) (size 9 to 14) (size 15 to 20)
#    0.000    1.538    1.538    7.385    2.154    2.462 
#    0.000    0.000    0.000    3.692    0.000    0.000 
#    0.000    0.000    0.000    0.000    0.000    0.000 
#
# Total GULP energy -72478.428127 kJ/mol
# GULP energy per Si atom -5575.263702 kJ/mol
# Density = 2.696776 g / cm^3
# Si number density = 27.029279 Si / 1000 Ang^3
#
#
#
# Elastic Constant Matrix: (Units=GPa)
#
#
# Indices 1 2 3 4 5 6 
#
# 1 139.0413 65.2159 33.2992 0.0000 23.9355 0.0000
# 2 65.2159 271.7877 77.1038 0.0000 37.8951 0.0000
# 3 33.2992 77.1038 133.3547 0.0000 44.1892 0.0000
# 4 0.0000 0.0000 0.0000 65.4728 0.0000 17.1050
# 5 23.9355 37.8951 44.1892 0.0000 33.3534 0.0000
# 6 0.0000 0.0000 0.0000 17.1050 0.0000 44.1403
#
#
#
# Elastic Compliance Matrix: (Units=1/GPa)
#
#
# Indices 1 2 3 4 5 6 
#
# 1 0.008663 -0.001481 0.000349 0.000000 -0.004996 0.000000
# 2 -0.001481 0.004818 -0.001701 0.000000 -0.002158 0.000000
# 3 0.000349 -0.001701 0.013971 0.000000 -0.016828 0.000000
# 4 0.000000 0.000000 0.000000 0.016994 0.000000 -0.006585
# 5 -0.004996 -0.002158 -0.016828 0.000000 0.058314 0.000000
# 6 0.000000 0.000000 0.000000 -0.006585 0.000000 0.025207
#
#
# Mechanical properties :
#
#
# Convention : Reuss Voigt Hill
#
# Bulk Modulus (GPa) = 45.90030 99.49128 72.69579
# Shear Modulus (GPa) = 35.48689 53.16430 44.32560
#
# Velocity S-wave (km/s) = 3.62733 4.43980 4.05397
# Velocity P-wave (km/s) = 5.87894 7.94802 6.99046
#
# Compressibility (1/GPa) = 0.02178635
#
# Stress axis : x y z
#
# Youngs Moduli (GPa) = 115.42828 207.54954 71.57448
#
# Poissons Ratio (x) = 0.30740 -0.02496
# Poissons Ratio (y) = 0.17096 0.12174
# Poissons Ratio (z) = -0.04025 0.35302
#
# Static dielectric constant tensor:
#      x y z
#    x 1.883520 0.000000 0.099010 
#    y 0.000000 2.140030 0.000000 
#    z 0.099010 0.000000 2.168590 
# 
# From -- ./inp_files/36597.got.cif
#   From: 2010.05.17/outbox.cif.g08.bks.cpg/sg12_19_cif.got.tgz:36597.got - 2010.06.03 13:09:07.
