data_PCOD9187363
_publ_section_title
;
Structure prediction by ZEFSAII (Michael W. Deem and Ramdas Pophale) SiO2 
 PCOD9187363
Probable space group: C 2/M
;
_chemical_formula_sum "Si O2"
_cell_formula_units_Z 64
_cell_length_a 15.011077
_cell_length_b 26.194111
_cell_length_c 15.937123
_cell_angle_alpha 90.000000
_cell_angle_beta 153.406236
_cell_angle_gamma 90.000000
_cell_volume 2805.275023
_symmetry_space_group_name_H-M "C 2/M"
_symmetry_group_IT_number 12
_symmetry_cell_setting 'monoclinic'
loop_
_space_group_symop_operation_xyz
x,y,z
-x,y,-z
-x,-y,-z
x,-y,z
1/2+x,1/2+y,z
1/2-x,1/2+y,-z
1/2-x,1/2-y,-z
1/2+x,1/2-y,z
loop_
_atom_site_type_symbol
_atom_site_label
_atom_site_fract_x
_atom_site_fract_y
_atom_site_fract_z
Si Si1 0.466663 0.556701 0.250140
Si Si2 0.607108 0.758212 0.300498
Si Si3 0.737733 0.665688 0.206272
Si Si4 0.354794 0.646272 0.690230
Si Si5 0.767831 0.278415 0.776358
Si Si6 0.665220 0.942539 0.313449
Si Si7 0.261547 0.890239 0.794837
Si Si8 0.025571 0.641810 0.748580
O O1 0.417286 0.500000 0.177544
O O2 0.501876 0.599187 0.208699
O O3 0.673988 0.553281 0.476813
O O4 0.317679 0.576372 0.195971
O O5 0.750000 0.750000 0.500000
O O6 0.534517 0.701094 0.217567
O O7 0.729020 0.776754 0.321762
O O8 0.451432 0.803350 0.186853
O O9 0.764910 0.644299 0.322877
O O10 0.819092 0.724043 0.268111
O O11 0.824622 0.635109 0.201818
O O12 0.500000 0.667737 0.000000
O O13 0.189785 0.646347 0.478298
O O14 0.680205 0.332202 0.732163
O O15 0.000000 0.277847 0.000000
O O16 0.771005 0.916291 0.322841
O O17 0.495030 0.904547 0.204161
O O18 0.599088 0.000000 0.235874
O O19 0.500000 0.886834 0.000000
#
# Coordination Sequence:
#
# PCOD9187363 Si02
#       8
#     8   8   8   8   8   8   8   8
#     4  10  22  39  59  82 113 152 192 238 287 335
#     4   9  17  33  56  83 110 143 194 239 280 335
#     4  10  21  37  55  82 115 149 184 232 289 348
#     4   9  20  37  56  83 110 144 190 236 288 335
#     4   9  19  36  51  81 123 154 185 227 289 352
#     4  10  21  39  58  81 112 148 192 238 281 337
#     4  11  22  36  56  84 118 155 190 228 281 344
#     4  10  19  35  59  81 110 145 188 238 284 338
#
# _framework density 22.814162
#
# number of rings (size 3 to 8) (size 9 to 14) (size 15 to 20)
#    0.000    2.250    1.250    1.125    1.750    3.000 
#    0.000    3.750    0.000    3.750    0.000    0.000 
#    0.000    0.000    0.000    0.000    0.000    0.000 
#
# Total GULP energy -178841.496544 kJ/mol
# GULP energy per Si atom -5588.796767 kJ/mol
# Density = 2.276224 g / cm^3
# Si number density = 22.814162 Si / 1000 Ang^3
#
#
#
# Elastic Constant Matrix: (Units=GPa)
#
#
# Indices 1 2 3 4 5 6 
#
# 1 112.1002 82.4488 0.4908 0.0000 12.6037 0.0001
# 2 82.4488 174.5663 7.4174 -0.0001 18.3508 0.0000
# 3 0.4908 7.4174 38.9918 -0.0004 -0.1635 0.0002
# 4 0.0000 -0.0001 -0.0004 10.9914 -0.0001 1.9434
# 5 12.6037 18.3508 -0.1635 -0.0001 34.7845 0.0001
# 6 0.0001 0.0000 0.0002 1.9434 0.0001 31.3165
#
#
#
# Elastic Compliance Matrix: (Units=1/GPa)
#
#
# Indices 1 2 3 4 5 6 
#
# 1 0.013799 -0.006391 0.001035 0.000000 -0.001624 0.000000
# 2 -0.006391 0.009078 -0.001657 0.000000 -0.002481 0.000000
# 3 0.001035 -0.001657 0.025951 0.000001 0.000621 0.000000
# 4 0.000000 0.000000 0.000001 0.091990 0.000000 -0.005709
# 5 -0.001624 -0.002481 0.000621 0.000000 0.030649 0.000000
# 6 0.000000 0.000000 0.000000 -0.005709 0.000000 0.032286
#
#
# Mechanical properties :
#
#
# Convention : Reuss Voigt Hill
#
# Bulk Modulus (GPa) = 28.73275 56.26360 42.49817
# Shear Modulus (GPa) = 21.79800 31.10522 26.45161
#
# Velocity S-wave (km/s) = 3.09440 3.69645 3.40875
# Velocity P-wave (km/s) = 5.03872 6.55237 5.84475
#
# Compressibility (1/GPa) = 0.03480349
#
# Stress axis : x y z
#
# Youngs Moduli (GPa) = 72.46995 110.15572 38.53387
#
# Poissons Ratio (x) = 0.70396 -0.03989
# Poissons Ratio (y) = 0.46313 0.06385
# Poissons Ratio (z) = -0.07502 0.18252
#
# Static dielectric constant tensor:
#      x y z
#    x 1.791330 0.000000 -0.010430 
#    y 0.000000 1.872460 0.000000 
#    z -0.010430 0.000000 1.944860 
# 
# From -- ./inp_files/272854.got.cif
#   From: 2010.05.17/outbox.cif.g08.bks.cpg/sg12_137_cif.got.tgz:272854.got - 2010.06.03 13:09:07.
