data_PCOD9187980
_publ_section_title
;
Structure prediction by ZEFSAII (Michael W. Deem and Ramdas Pophale) SiO2 
 PCOD9187980
Probable space group: C 2/M
;
_chemical_formula_sum "Si O2"
_cell_formula_units_Z 32
_cell_length_a 6.917156
_cell_length_b 17.381215
_cell_length_c 10.106558
_cell_angle_alpha 90.000000
_cell_angle_beta 89.839220
_cell_angle_gamma 90.000000
_cell_volume 1215.092289
_symmetry_space_group_name_H-M "C 2/M"
_symmetry_group_IT_number 12
_symmetry_cell_setting 'monoclinic'
loop_
_space_group_symop_operation_xyz
x,y,z
-x,y,-z
-x,-y,-z
x,-y,z
1/2+x,1/2+y,z
1/2-x,1/2+y,-z
1/2-x,1/2-y,-z
1/2+x,1/2-y,z
loop_
_atom_site_type_symbol
_atom_site_label
_atom_site_fract_x
_atom_site_fract_y
_atom_site_fract_z
Si Si1 0.748520 0.413605 0.951473
Si Si2 0.015697 0.589585 0.710205
Si Si3 0.592043 0.350982 0.196758
Si Si4 0.168278 0.180839 0.586251
O O1 0.755032 0.500000 0.011188
O O2 0.696735 0.345055 0.053391
O O3 0.065295 0.402404 0.139205
O O4 0.570777 0.412832 0.846426
O O5 0.021660 0.500000 0.677184
O O6 0.852570 0.630574 0.623786
O O7 0.231050 0.622561 0.712494
O O8 0.452868 0.293737 0.280114
O O9 0.250000 0.250000 0.500000
O O10 0.000000 0.141122 0.500000
#
# Coordination Sequence:
#
# PCOD9187980 Si02
#       4
#     8   8   8   8
#     4   9  17  33  63 108 153 180 207 265 353 440
#     4  10  21  39  70 112 146 177 220 283 357 427
#     4  10  19  35  65 101 140 181 222 274 338 413
#     4  11  28  47  69  91 128 192 256 294 339 404
#
# _framework density 26.335450999999999
#
# number of rings (size 3 to 8) (size 9 to 14) (size 15 to 20)
#    0.000    2.000    0.000    3.750    3.500    4.500 
#    0.000    1.250    0.000   24.000    0.000    0.000 
#    0.000    0.000    0.000    2.000    0.000    1.500 
#
# Total GULP energy -89308.057850 kJ/mol
# GULP energy per Si atom -5581.753616 kJ/mol
# Density = 2.627551 g / cm^3
# Si number density = 26.335451 Si / 1000 Ang^3
#
#
#
# Elastic Constant Matrix: (Units=GPa)
#
#
# Indices 1 2 3 4 5 6 
#
# 1 222.7280 68.4790 62.9418 0.0000 0.0811 0.0000
# 2 68.4790 93.3638 63.8604 0.0000 -0.7366 0.0000
# 3 62.9418 63.8604 134.8218 0.0000 26.6584 0.0000
# 4 0.0000 0.0000 0.0000 40.7994 0.0000 -11.3386
# 5 0.0811 -0.7366 26.6584 0.0000 74.9693 0.0000
# 6 0.0000 0.0000 0.0000 -11.3386 0.0000 21.4907
#
#
#
# Elastic Compliance Matrix: (Units=1/GPa)
#
#
# Indices 1 2 3 4 5 6 
#
# 1 0.005903 -0.003538 -0.001153 0.000000 0.000369 0.000000
# 2 -0.003538 0.018635 -0.007757 0.000000 0.002945 0.000000
# 3 -0.001153 -0.007757 0.012525 0.000000 -0.004529 0.000000
# 4 0.000000 0.000000 0.000000 0.028722 0.000000 0.015154
# 5 0.000369 0.002945 -0.004529 0.000000 0.014978 0.000000
# 6 0.000000 0.000000 0.000000 0.015154 0.000000 0.054527
#
#
# Mechanical properties :
#
#
# Convention : Reuss Voigt Hill
#
# Bulk Modulus (GPa) = 82.19202 93.49733 87.84467
# Shear Modulus (GPa) = 30.44265 44.49405 37.46835
#
# Velocity S-wave (km/s) = 3.40363 4.11483 3.77601
# Velocity P-wave (km/s) = 6.83547 7.62596 7.24151
#
# Compressibility (1/GPa) = 0.01216663
#
# Stress axis : x y z
#
# Youngs Moduli (GPa) = 169.39525 53.66137 79.83815
#
# Poissons Ratio (x) = 0.18988 0.09204
# Poissons Ratio (y) = 0.59939 0.61934
# Poissons Ratio (z) = 0.19529 0.41627
#
# Static dielectric constant tensor:
#      x y z
#    x 2.100600 0.000000 -0.043420 
#    y 0.000000 1.999740 0.000000 
#    z -0.043420 0.000000 2.240140 
# 
# From -- ./inp_files/96043.got.cif
#   From: 2010.05.17/outbox.cif.g08.bks.cpg/sg12_49_cif.got.tgz:96043.got - 2010.06.03 13:09:07.
