data_PCOD9187156
_publ_section_title
;
Structure prediction by ZEFSAII (Michael W. Deem and Ramdas Pophale) SiO2 
 PCOD9187156
Probable space group: C 2/M
;
_chemical_formula_sum "Si O2"
_cell_formula_units_Z 64
_cell_length_a 21.035788
_cell_length_b 7.540528
_cell_length_c 20.581919
_cell_angle_alpha 90.000000
_cell_angle_beta 114.407655
_cell_angle_gamma 90.000000
_cell_volume 2972.950144
_symmetry_space_group_name_H-M "C 2/M"
_symmetry_group_IT_number 12
_symmetry_cell_setting 'monoclinic'
loop_
_space_group_symop_operation_xyz
x,y,z
-x,y,-z
-x,-y,-z
x,-y,z
1/2+x,1/2+y,z
1/2-x,1/2+y,-z
1/2-x,1/2-y,-z
1/2+x,1/2-y,z
loop_
_atom_site_type_symbol
_atom_site_label
_atom_site_fract_x
_atom_site_fract_y
_atom_site_fract_z
Si Si1 0.085837 0.283884 0.199408
Si Si2 0.879793 0.703036 0.557764
Si Si3 0.579279 0.783389 0.049981
Si Si4 0.331639 0.787581 0.034545
Si Si5 0.701059 0.217992 0.352392
Si Si6 0.856986 0.204069 0.403559
Si Si7 0.533422 0.293389 0.652713
Si Si8 0.565504 0.785171 0.810524
O O1 0.085844 0.500000 0.199564
O O2 0.097943 0.225847 0.130587
O O3 0.145272 0.227102 0.274636
O O4 0.009122 0.229271 0.191143
O O5 0.860137 0.500000 0.536619
O O6 0.826331 0.776994 0.588545
O O7 0.880438 0.793688 0.488246
O O8 0.957170 0.706786 0.620872
O O9 0.580465 0.000000 0.050645
O O10 0.500000 0.731709 0.000000
O O11 0.630582 0.721564 0.014857
O O12 0.372984 0.723309 0.115813
O O13 0.340266 0.000000 0.038073
O O14 0.250000 0.750000 0.000000
O O15 0.778903 0.279736 0.369254
O O16 0.701194 0.000000 0.354424
O O17 0.915694 0.282674 0.381278
O O18 0.850009 0.000000 0.378723
O O19 0.519960 0.500000 0.632668
O O20 0.568723 0.276882 0.737866
O O21 0.565973 0.000000 0.809333
#
# Coordination Sequence:
#
# PCOD9187156 Si02
#       8
#     8   8   8   8   8   8   8   8
#     4   9  15  28  54  82 106 133 180 236 272 307
#     4  11  21  36  60  84 107 142 186 227 271 326
#     4   9  15  27  52  83 107 135 183 232 267 308
#     4  10  21  35  55  85 117 148 181 224 276 328
#     4   9  18  33  54  80 107 140 181 226 274 320
#     4  10  22  38  54  78 113 145 179 227 280 327
#     4  11  23  37  56  82 113 147 182 223 274 330
#     4  10  19  35  58  81 109 145 185 229 273 320
#
# _framework density 21.527439000000001
#
# number of rings (size 3 to 8) (size 9 to 14) (size 15 to 20)
#    0.000    2.125    2.500    1.500    0.000    4.000 
#    0.000    3.125    0.000    1.125    0.000    0.000 
#    0.000    0.000    0.000    0.000    0.000    0.000 
#
# Total GULP energy -178802.979315 kJ/mol
# GULP energy per Si atom -5587.593104 kJ/mol
# Density = 2.147844 g / cm^3
# Si number density = 21.527439 Si / 1000 Ang^3
#
#
#
# Elastic Constant Matrix: (Units=GPa)
#
#
# Indices 1 2 3 4 5 6 
#
# 1 90.4345 -2.6272 17.2929 0.0000 1.9785 0.0000
# 2 -2.6272 53.6317 -9.6778 0.0000 2.0263 0.0000
# 3 17.2929 -9.6778 105.6857 0.0000 0.6023 0.0000
# 4 0.0000 0.0000 0.0000 -14.4841 0.0000 45.9141
# 5 1.9785 2.0263 0.6023 0.0000 30.2217 0.0000
# 6 0.0000 0.0000 0.0000 45.9141 0.0000 -50.3495
#
#
#
# Elastic Compliance Matrix: (Units=1/GPa)
#
#
# Indices 1 2 3 4 5 6 
#
# 1 0.011434 0.000255 -0.001843 0.000000 -0.000729 0.000000
# 2 0.000255 0.019016 0.001707 0.000000 -0.001326 0.000000
# 3 -0.001843 0.001707 0.009921 0.000000 -0.000191 0.000000
# 4 0.000000 0.000000 0.000000 0.036516 0.000000 0.033299
# 5 -0.000729 -0.001326 -0.000191 0.000000 0.033229 0.000000
# 6 0.000000 0.000000 0.000000 0.033299 0.000000 0.010505
#
#
# Mechanical properties :
#
#
# Convention : Reuss Voigt Hill
#
# Bulk Modulus (GPa) = 24.62528 28.85863 26.74195
# Shear Modulus (GPa) = 37.33599 9.39523 23.36561
#
# Velocity S-wave (km/s) = 4.16906 2.09136 3.29810
# Velocity P-wave (km/s) = 5.88546 4.38934 5.19158
#
# Compressibility (1/GPa) = 0.04060868
#
# Stress axis : x y z
#
# Youngs Moduli (GPa) = 87.46180 52.58638 100.79575
#
# Poissons Ratio (x) = -0.01341 0.18580
# Poissons Ratio (y) = -0.02230 -0.17208
# Poissons Ratio (z) = 0.16122 -0.08977
#
# Static dielectric constant tensor:
#      x y z
#    x 1.756270 0.000000 -0.006150 
#    y 0.000000 1.840700 0.000000 
#    z -0.006150 0.000000 1.742430 
# 
# From -- ./inp_files/320002.got.cif
#   From: 2010.05.17/outbox.cif.g08.bks.cpg/sg12_161_cif.got.tgz:320002.got - 2010.06.03 13:09:07.
