data_PCOD9187409
_publ_section_title
;
Structure prediction by ZEFSAII (Michael W. Deem and Ramdas Pophale) SiO2 
 PCOD9187409
Probable space group: C 2/M
;
_chemical_formula_sum "Si O2"
_cell_formula_units_Z 64
_cell_length_a 20.780683
_cell_length_b 7.922568
_cell_length_c 29.936222
_cell_angle_alpha 90.000000
_cell_angle_beta 140.927875
_cell_angle_gamma 90.000000
_cell_volume 3106.481957
_symmetry_space_group_name_H-M "C 2/M"
_symmetry_group_IT_number 12
_symmetry_cell_setting 'monoclinic'
loop_
_space_group_symop_operation_xyz
x,y,z
-x,y,-z
-x,-y,-z
x,-y,z
1/2+x,1/2+y,z
1/2-x,1/2+y,-z
1/2-x,1/2-y,-z
1/2+x,1/2-y,z
loop_
_atom_site_type_symbol
_atom_site_label
_atom_site_fract_x
_atom_site_fract_y
_atom_site_fract_z
Si Si1 0.938835 0.292568 0.282810
Si Si2 0.018215 0.792962 0.060982
Si Si3 0.212422 0.296493 0.312609
Si Si4 0.732476 0.296743 0.220126
Si Si5 0.366899 0.300542 0.056481
Si Si6 0.599519 0.295364 0.526370
Si Si7 0.014204 0.703674 0.790259
Si Si8 0.867489 0.302205 0.557098
O O1 0.938831 0.500000 0.284074
O O2 0.837080 0.235903 0.253641
O O3 0.937553 0.240362 0.230440
O O4 0.043829 0.231657 0.362705
O O5 0.128481 0.738404 0.139731
O O6 0.929561 0.732966 0.047284
O O7 0.018139 0.000000 0.061065
O O8 0.000000 0.740268 0.000000
O O9 0.211954 0.500000 0.315173
O O10 0.230563 0.250127 0.271066
O O11 0.301229 0.235665 0.393165
O O12 0.101875 0.234321 0.268315
O O13 0.732256 0.500000 0.217005
O O14 0.368075 0.500000 0.051691
O O15 0.426331 0.255302 0.133577
O O16 0.250000 0.250000 0.000000
O O17 0.500000 0.241460 0.500000
O O18 0.600592 0.500000 0.525744
O O19 0.600495 0.233887 0.476365
O O20 0.012061 0.500000 0.788181
O O21 0.867903 0.500000 0.565896
O O22 0.750000 0.250000 0.500000
#
# Coordination Sequence:
#
# PCOD9187409 Si02
#       8
#     8   8   8   8   8   8   8   8
#     4   9  20  36  58  84 111 149 194 236 283 339
#     4   9  19  35  58  86 112 143 183 225 271 326
#     4  10  20  35  56  81 115 152 185 230 290 346
#     4  10  19  35  59  84 111 143 188 237 276 331
#     4  11  23  39  60  87 116 146 185 231 276 333
#     4  10  21  37  58  85 117 155 196 240 295 357
#     4  10  20  37  59  81 110 150 190 228 277 335
#     4  11  22  38  58  84 117 154 199 248 295 349
#
# _framework density 20.602081999999999
#
# number of rings (size 3 to 8) (size 9 to 14) (size 15 to 20)
#    0.000    2.000    1.250    2.250    1.750    2.750 
#    0.000    3.750    0.000    1.875    0.000    0.000 
#    0.000    0.000    0.000    0.000    0.000    0.000 
#
# Total GULP energy -178745.980970 kJ/mol
# GULP energy per Si atom -5585.811905 kJ/mol
# Density = 2.055519 g / cm^3
# Si number density = 20.602082 Si / 1000 Ang^3
#
#
#
# Elastic Constant Matrix: (Units=GPa)
#
#
# Indices 1 2 3 4 5 6 
#
# 1 113.4990 1.7403 21.8424 0.0000 7.8901 -0.0002
# 2 1.7403 14.1659 3.7993 -0.0002 5.5922 -0.0009
# 3 21.8424 3.7993 101.8390 0.0001 4.5258 0.0000
# 4 0.0000 -0.0002 0.0001 15.9343 0.0000 -3.5652
# 5 7.8901 5.5922 4.5258 0.0000 40.7357 0.0000
# 6 -0.0002 -0.0009 0.0000 -3.5652 0.0000 26.5550
#
#
#
# Elastic Compliance Matrix: (Units=1/GPa)
#
#
# Indices 1 2 3 4 5 6 
#
# 1 0.009291 0.000000 -0.001922 0.000000 -0.001586 0.000000
# 2 0.000000 0.075196 -0.002358 0.000001 -0.010061 0.000003
# 3 -0.001922 -0.002358 0.010340 0.000000 -0.000453 0.000000
# 4 0.000000 0.000001 0.000000 0.064701 0.000000 0.008687
# 5 -0.001586 -0.010061 -0.000453 0.000000 0.026287 0.000000
# 6 0.000000 0.000003 0.000000 0.008687 0.000000 0.038824
#
#
# Mechanical properties :
#
#
# Convention : Reuss Voigt Hill
#
# Bulk Modulus (GPa) = 11.59202 31.58532 21.58867
# Shear Modulus (GPa) = 19.08726 30.11980 24.60353
#
# Velocity S-wave (km/s) = 3.04710 3.82773 3.45951
# Velocity P-wave (km/s) = 4.24484 5.90760 5.14385
#
# Compressibility (1/GPa) = 0.08626622
#
# Stress axis : x y z
#
# Youngs Moduli (GPa) = 107.63310 13.29857 96.71367
#
# Poissons Ratio (x) = 0.00000 0.18590
# Poissons Ratio (y) = -0.00003 0.22808
# Poissons Ratio (z) = 0.20689 0.03136
#
# Static dielectric constant tensor:
#      x y z
#    x 1.701020 0.000000 0.006680 
#    y 0.000000 1.765090 0.000000 
#    z 0.006680 0.000000 1.667730 
# 
# From -- ./inp_files/378289.got.cif
#   From: 2010.05.17/outbox.cif.g08.bks.cpg/sg12_190_cif.got.tgz:378289.got - 2010.06.03 13:09:07.
