data_PCOD9187547
_publ_section_title
;
Structure prediction by ZEFSAII (Michael W. Deem and Ramdas Pophale) SiO2 
 PCOD9187547
Probable space group: C 2/M
;
_chemical_formula_sum "Si O2"
_cell_formula_units_Z 64
_cell_length_a 18.329307
_cell_length_b 19.333294
_cell_length_c 14.164269
_cell_angle_alpha 90.000000
_cell_angle_beta 139.234101
_cell_angle_gamma 90.000000
_cell_volume 3277.474021
_symmetry_space_group_name_H-M "C 2/M"
_symmetry_group_IT_number 12
_symmetry_cell_setting 'monoclinic'
loop_
_space_group_symop_operation_xyz
x,y,z
-x,y,-z
-x,-y,-z
x,-y,z
1/2+x,1/2+y,z
1/2-x,1/2+y,-z
1/2-x,1/2-y,-z
1/2+x,1/2-y,z
loop_
_atom_site_type_symbol
_atom_site_label
_atom_site_fract_x
_atom_site_fract_y
_atom_site_fract_z
Si Si1 0.222847 0.310118 0.135702
Si Si2 0.998796 0.676903 0.812211
Si Si3 0.981951 0.186417 0.378031
Si Si4 0.129469 0.924546 0.443165
Si Si5 0.943739 0.341851 0.545539
Si Si6 0.845069 0.581018 0.785393
Si Si7 0.392113 0.718189 0.832011
Si Si8 0.209740 0.921652 0.308692
O O1 0.350750 0.303771 0.229825
O O2 0.192868 0.383277 0.154874
O O3 0.205416 0.255904 0.204860
O O4 0.125856 0.301760 0.962396
O O5 0.991899 0.646747 0.699337
O O6 0.947715 0.621080 0.836166
O O7 0.918693 0.743671 0.758359
O O8 0.000000 0.155030 0.500000
O O9 0.037254 0.133572 0.361468
O O10 0.049744 0.258253 0.447715
O O11 0.237847 0.909162 0.612530
O O12 0.171614 0.928219 0.378600
O O13 0.085395 0.000000 0.429038
O O14 0.828128 0.382686 0.427607
O O15 0.000000 0.361325 0.500000
O O16 0.868532 0.500000 0.817657
O O17 0.371646 0.636653 0.813233
O O18 0.500000 0.735015 0.000000
O O19 0.212954 0.000000 0.271207
#
# Coordination Sequence:
#
# PCOD9187547 Si02
#       8
#     8   8   8   8   8   8   8   8
#     4  10  21  37  57  91 124 155 197 234 295 361
#     4  10  21  37  61  87 121 158 194 247 292 348
#     4  11  21  35  56  84 120 158 194 241 290 354
#     4  10  21  35  56  86 117 154 195 236 288 349
#     4  11  24  38  59  86 113 152 198 245 300 345
#     4  10  19  35  59  89 123 155 191 236 290 354
#     4   9  19  37  62  90 117 152 196 242 296 355
#     4  11  23  40  61  85 114 150 201 253 295 348
#
# _framework density 19.527234
#
# number of rings (size 3 to 8) (size 9 to 14) (size 15 to 20)
#    0.000    1.750    2.500    3.375    1.750    3.750 
#    0.000    1.250    0.000    0.000    0.000    0.000 
#    0.000    0.000    0.000    0.000    0.000    0.000 
#
# Total GULP energy -178279.929472 kJ/mol
# GULP energy per Si atom -5571.247796 kJ/mol
# Density = 1.948279 g / cm^3
# Si number density = 19.527234 Si / 1000 Ang^3
#
#
#
# Elastic Constant Matrix: (Units=GPa)
#
#
# Indices 1 2 3 4 5 6 
#
# 1 79.6349 44.9712 22.8352 0.0000 10.8602 0.0000
# 2 44.9712 118.7946 20.0838 0.0000 24.0115 0.0000
# 3 22.8352 20.0838 45.4845 0.0000 13.0633 0.0000
# 4 0.0000 0.0000 0.0000 37.3191 0.0000 9.9064
# 5 10.8602 24.0115 13.0633 0.0000 30.9749 0.0000
# 6 0.0000 0.0000 0.0000 9.9064 0.0000 26.2288
#
#
#
# Elastic Compliance Matrix: (Units=1/GPa)
#
#
# Indices 1 2 3 4 5 6 
#
# 1 0.017542 -0.005746 -0.006579 0.000000 0.001079 0.000000
# 2 -0.005746 0.012118 -0.000394 0.000000 -0.007213 0.000000
# 3 -0.006579 -0.000394 0.028118 0.000000 -0.009246 0.000000
# 4 0.000000 0.000000 0.000000 0.029782 0.000000 -0.011248
# 5 0.001079 -0.007213 -0.009246 0.000000 0.041396 0.000000
# 6 0.000000 0.000000 0.000000 -0.011248 0.000000 0.042374
#
#
# Mechanical properties :
#
#
# Convention : Reuss Voigt Hill
#
# Bulk Modulus (GPa) = 30.92344 46.63271 38.77808
# Shear Modulus (GPa) = 24.09059 29.30614 26.69837
#
# Velocity S-wave (km/s) = 3.51621 3.87820 3.70163
# Velocity P-wave (km/s) = 5.68818 6.63224 6.17827
#
# Compressibility (1/GPa) = 0.03233793
#
# Stress axis : x y z
#
# Youngs Moduli (GPa) = 57.00633 82.52329 35.56420
#
# Poissons Ratio (x) = 0.47422 0.23399
# Poissons Ratio (y) = 0.32759 0.01402
# Poissons Ratio (z) = 0.37506 0.03253
#
# Static dielectric constant tensor:
#      x y z
#    x 1.709090 0.000000 -0.014900 
#    y 0.000000 1.702750 0.000000 
#    z -0.014900 0.000000 1.709850 
# 
# From -- ./inp_files/226894.got.cif
#   From: 2010.05.17/outbox.cif.g08.bks.cpg/sg12_114_cif.got.tgz:226894.got - 2010.06.03 13:09:07.
