data_PCOD9187359
_publ_section_title
;
Structure prediction by ZEFSAII (Michael W. Deem and Ramdas Pophale) SiO2 
 PCOD9187359
Probable space group: C 2/M
;
_chemical_formula_sum "Si O2"
_cell_formula_units_Z 64
_cell_length_a 24.967956
_cell_length_b 7.765791
_cell_length_c 15.961825
_cell_angle_alpha 90.000000
_cell_angle_beta 90.740583
_cell_angle_gamma 90.000000
_cell_volume 3094.674337
_symmetry_space_group_name_H-M "C 2/M"
_symmetry_group_IT_number 12
_symmetry_cell_setting 'monoclinic'
loop_
_space_group_symop_operation_xyz
x,y,z
-x,y,-z
-x,-y,-z
x,-y,z
1/2+x,1/2+y,z
1/2-x,1/2+y,-z
1/2-x,1/2-y,-z
1/2+x,1/2-y,z
loop_
_atom_site_type_symbol
_atom_site_label
_atom_site_fract_x
_atom_site_fract_y
_atom_site_fract_z
Si Si1 0.889281 0.292877 0.656761
Si Si2 0.119338 0.199016 0.655470
Si Si3 0.060914 0.294131 0.002791
Si Si4 0.496015 0.199947 0.400261
Si Si5 0.187154 0.795110 0.499766
Si Si6 0.368025 0.709169 0.156633
Si Si7 0.747896 0.293650 0.902902
Si Si8 0.862634 0.288558 0.843770
O O1 0.892976 0.500000 0.659352
O O2 0.948080 0.227769 0.632416
O O3 0.844964 0.255256 0.585047
O O4 0.876525 0.232900 0.750179
O O5 0.156235 0.276026 0.581935
O O6 0.120925 0.273117 0.749159
O O7 0.057885 0.206069 0.626333
O O8 0.136717 0.000000 0.664345
O O9 0.057462 0.500000 0.013795
O O10 0.091286 0.262611 0.915797
O O11 0.096731 0.230340 0.082077
O O12 0.000000 0.226049 0.000000
O O13 0.500000 0.200998 0.500000
O O14 0.490449 0.000000 0.372717
O O15 0.250000 0.750000 0.500000
O O16 0.183346 0.000000 0.504007
O O17 0.369247 0.500000 0.156319
O O18 0.308296 0.770481 0.133255
O O19 0.747585 0.500000 0.892662
O O20 0.802510 0.229670 0.862869
O O21 0.750000 0.250000 0.000000
O O22 0.863105 0.500000 0.845108
#
# Coordination Sequence:
#
# PCOD9187359 Si02
#       8
#     8   8   8   8   8   8   8   8
#     4  10  21  38  61  86 117 154 191 233 285 342
#     4  10  23  40  59  83 114 155 195 232 287 352
#     4  10  21  37  58  84 115 151 193 235 281 341
#     4  10  20  36  60  89 116 145 189 242 288 331
#     4  11  24  41  61  85 117 154 194 238 288 344
#     4  10  22  38  57  84 114 150 191 234 287 339
#     4  10  19  35  59  81 107 143 190 235 280 335
#     4   9  19  35  57  83 111 150 189 228 282 339
#
# _framework density 20.680689999999998
#
# number of rings (size 3 to 8) (size 9 to 14) (size 15 to 20)
#    0.000    2.000    2.500    0.375    3.500    2.000 
#    0.000    1.250    0.000    0.000    0.000    0.000 
#    0.000    0.000    0.000    0.000    0.000    0.000 
#
# Total GULP energy -178617.654306 kJ/mol
# GULP energy per Si atom -5581.801697 kJ/mol
# Density = 2.063362 g / cm^3
# Si number density = 20.680690 Si / 1000 Ang^3
#
#
#
# Elastic Constant Matrix: (Units=GPa)
#
#
# Indices 1 2 3 4 5 6 
#
# 1 198.7436 0.2471 108.9710 0.0000 -16.6749 0.0000
# 2 0.2471 25.8063 2.9658 0.0000 -2.0350 0.0000
# 3 108.9710 2.9658 183.8789 0.0000 -11.9638 0.0000
# 4 0.0000 0.0000 0.0000 19.8668 0.0000 6.4633
# 5 -16.6749 -2.0350 -11.9638 0.0000 40.4795 0.0000
# 6 0.0000 0.0000 0.0000 6.4633 0.0000 1.2766
#
#
#
# Elastic Compliance Matrix: (Units=1/GPa)
#
#
# Indices 1 2 3 4 5 6 
#
# 1 0.007593 0.000578 -0.004388 0.000000 0.001860 0.000000
# 2 0.000578 0.038995 -0.000845 0.000000 0.001949 0.000000
# 3 -0.004388 -0.000845 0.008088 0.000000 0.000540 0.000000
# 4 0.000000 0.000000 0.000000 -0.077777 0.000000 0.393788
# 5 0.001860 0.001949 0.000540 0.000000 0.025728 0.000000
# 6 0.000000 0.000000 0.000000 0.393788 0.000000 -1.210419
#
#
# Mechanical properties :
#
#
# Convention : Reuss Voigt Hill
#
# Bulk Modulus (GPa) = 22.04261 70.31074 46.17667
# Shear Modulus (GPa) = -4.22525 32.07424 13.92449
#
# Velocity S-wave (km/s) = -1.43092 3.94245 2.59763
# Velocity P-wave (km/s) = 2.81987 7.40243 5.60123
#
# Compressibility (1/GPa) = 0.04536669
#
# Stress axis : x y z
#
# Youngs Moduli (GPa) = 131.70187 25.64402 123.64607
#
# Poissons Ratio (x) = -0.01483 0.54257
# Poissons Ratio (y) = -0.07616 0.10446
# Poissons Ratio (z) = 0.57791 0.02166
#
# Static dielectric constant tensor:
#      x y z
#    x 1.750310 0.000000 -0.011830 
#    y 0.000000 1.836310 0.000000 
#    z -0.011830 0.000000 1.723300 
# 
# From -- ./inp_files/238606.got.cif
#   From: 2010.05.17/outbox.cif.g08.bks.cpg/sg12_120_cif.got.tgz:238606.got - 2010.06.03 13:09:07.
