data_PCOD9187504
_publ_section_title
;
Structure prediction by ZEFSAII (Michael W. Deem and Ramdas Pophale) SiO2 
 PCOD9187504
Probable space group: C 2/M
;
_chemical_formula_sum "Si O2"
_cell_formula_units_Z 56
_cell_length_a 28.540955
_cell_length_b 17.111085
_cell_length_c 9.969664
_cell_angle_alpha 90.000000
_cell_angle_beta 140.518770
_cell_angle_gamma 90.000000
_cell_volume 3095.739772
_symmetry_space_group_name_H-M "C 2/M"
_symmetry_group_IT_number 12
_symmetry_cell_setting 'monoclinic'
loop_
_space_group_symop_operation_xyz
x,y,z
-x,y,-z
-x,-y,-z
x,-y,z
1/2+x,1/2+y,z
1/2-x,1/2+y,-z
1/2-x,1/2-y,-z
1/2+x,1/2-y,z
loop_
_atom_site_type_symbol
_atom_site_label
_atom_site_fract_x
_atom_site_fract_y
_atom_site_fract_z
Si Si1 0.709437 0.089267 0.428688
Si Si2 0.485230 0.409200 0.125370
Si Si3 0.087880 0.299239 0.209228
Si Si4 0.609146 0.303879 0.516307
Si Si5 0.842294 0.180259 0.850503
Si Si6 0.326572 0.769304 0.094798
Si Si7 0.743585 0.091127 0.187383
O O1 0.627702 0.117859 0.282653
O O2 0.765789 0.148078 0.625008
O O3 0.723924 0.094537 0.301408
O O4 0.722829 0.000000 0.499524
O O5 0.502492 0.500000 0.182181
O O6 0.537073 0.355510 0.330466
O O7 0.500000 0.390877 0.000000
O O8 0.401294 0.389732 0.974527
O O9 0.110200 0.258130 0.397685
O O10 0.123049 0.245451 0.170525
O O11 0.000000 0.302320 0.000000
O O12 0.612669 0.257318 0.663692
O O13 0.679039 0.362777 0.660030
O O14 0.833197 0.217508 0.976094
O O15 0.250000 0.750000 0.000000
O O16 0.317454 0.859127 0.028827
O O17 0.749102 0.000000 0.160591
#
# Coordination Sequence:
#
# PCOD9187504 Si02
#       7
#     8   8   8   8   8   8   8
#     4  11  22  36  62  90 117 155 203 257 298 343
#     4  11  21  36  61  95 127 156 196 246 307 366
#     4  12  22  39  62  89 121 156 204 245 298 357
#     4  11  20  38  56  90 122 163 193 242 301 363
#     4  12  20  40  61  91 118 155 202 246 300 361
#     4  10  23  37  57  85 120 158 200 247 294 363
#     4  10  19  35  59  87 115 154 205 248 294 350
#
# _framework density 18.089376000000001
#
# number of rings (size 3 to 8) (size 9 to 14) (size 15 to 20)
#    0.000    1.000    5.714    3.000    0.000    3.143 
#    0.000   11.429    0.000    0.000    0.000    3.000 
#    0.000    0.000    0.000    0.000    0.000    0.000 
#
# Total GULP energy -156343.831117 kJ/mol
# GULP energy per Si atom -5583.708254 kJ/mol
# Density = 1.804820 g / cm^3
# Si number density = 18.089376 Si / 1000 Ang^3
#
#
#
# Elastic Constant Matrix: (Units=GPa)
#
#
# Indices 1 2 3 4 5 6 
#
# 1 78.0332 35.4983 41.4056 0.0000 -9.8252 0.0000
# 2 35.4983 72.9933 48.2368 0.0000 -0.5044 0.0000
# 3 41.4056 48.2368 109.2518 0.0000 -9.3417 0.0000
# 4 0.0000 0.0000 0.0000 20.4540 0.0000 5.5040
# 5 -9.8252 -0.5044 -9.3417 0.0000 33.2529 0.0000
# 6 0.0000 0.0000 0.0000 5.5040 0.0000 28.8621
#
#
#
# Elastic Compliance Matrix: (Units=1/GPa)
#
#
# Indices 1 2 3 4 5 6 
#
# 1 0.018227 -0.006367 -0.003734 0.000000 0.004240 0.000000
# 2 -0.006367 0.021720 -0.007489 0.000000 -0.003656 0.000000
# 3 -0.003734 -0.007489 0.014110 0.000000 0.002747 0.000000
# 4 0.000000 0.000000 0.000000 0.051535 0.000000 -0.009828
# 5 0.004240 -0.003656 0.002747 0.000000 0.032042 0.000000
# 6 0.000000 0.000000 0.000000 -0.009828 0.000000 0.036522
#
#
# Mechanical properties :
#
#
# Convention : Reuss Voigt Hill
#
# Bulk Modulus (GPa) = 52.97795 56.72886 54.85341
# Shear Modulus (GPa) = 23.18804 25.52299 24.35552
#
# Velocity S-wave (km/s) = 3.58419 3.76032 3.67331
# Velocity P-wave (km/s) = 6.81755 7.09096 6.95560
#
# Compressibility (1/GPa) = 0.01887578
#
# Stress axis : x y z
#
# Youngs Moduli (GPa) = 54.86441 46.03953 70.87188
#
# Poissons Ratio (x) = 0.29314 0.26464
# Poissons Ratio (y) = 0.34933 0.53079
# Poissons Ratio (z) = 0.20487 0.34481
#
# Static dielectric constant tensor:
#      x y z
#    x 1.607490 0.000000 0.013540 
#    y 0.000000 1.629540 0.000000 
#    z 0.013540 0.000000 1.647870 
# 
# From -- ./inp_files/106038.got.cif
#   From: 2010.05.17/outbox.cif.g08.bks.cpg/sg12_54_cif.got.tgz:106038.got - 2010.06.03 13:09:07.
