data_PCOD9187020
_publ_section_title
;
Structure prediction by ZEFSAII (Michael W. Deem and Ramdas Pophale) SiO2 
 PCOD9187020
Probable space group: C 2/M
;
_chemical_formula_sum "Si O2"
_cell_formula_units_Z 56
_cell_length_a 25.686275
_cell_length_b 15.031276
_cell_length_c 16.946962
_cell_angle_alpha 90.000000
_cell_angle_beta 158.757959
_cell_angle_gamma 90.000000
_cell_volume 2370.649991
_symmetry_space_group_name_H-M "C 2/M"
_symmetry_group_IT_number 12
_symmetry_cell_setting 'monoclinic'
loop_
_space_group_symop_operation_xyz
x,y,z
-x,y,-z
-x,-y,-z
x,-y,z
1/2+x,1/2+y,z
1/2-x,1/2+y,-z
1/2-x,1/2-y,-z
1/2+x,1/2-y,z
loop_
_atom_site_type_symbol
_atom_site_label
_atom_site_fract_x
_atom_site_fract_y
_atom_site_fract_z
Si Si1 0.359245 0.401601 0.972127
Si Si2 0.306676 0.351087 0.565690
Si Si3 0.328776 0.363201 0.763841
Si Si4 0.366704 0.098627 0.020688
Si Si5 0.558339 0.398687 0.664276
Si Si6 0.337008 0.150582 0.795993
Si Si7 0.125921 0.229371 0.885947
O O1 0.367866 0.500000 0.018835
O O2 0.521015 0.361793 0.192496
O O3 0.291674 0.330001 0.933346
O O4 0.282004 0.405124 0.779381
O O5 0.250000 0.250000 0.500000
O O6 0.263628 0.393659 0.588948
O O7 0.250980 0.386361 0.403539
O O8 0.315103 0.257325 0.759616
O O9 0.500000 0.383256 0.000000
O O10 0.226322 0.093487 0.878788
O O11 0.323095 0.119264 0.867419
O O12 0.433562 0.000000 0.116152
O O13 0.442249 0.185506 0.166335
O O14 0.500000 0.360236 0.500000
O O15 0.502967 0.500000 0.597257
O O16 0.525468 0.336236 0.692303
O O17 0.500000 0.132925 0.000000
O O18 0.250000 0.250000 0.000000
#
# Coordination Sequence:
#
# PCOD9187020 Si02
#       7
#     8   8   8   8   8   8   8
#     4  11  21  35  63  95 121 156 203 254 304 364
#     4   9  20  34  56  88 125 164 197 240 298 364
#     4   8  16  33  53  82 121 154 191 239 296 357
#     4  10  21  36  57  82 112 154 199 241 292 359
#     4   9  19  36  59  91 119 140 184 248 307 365
#     4  10  19  35  57  82 117 161 204 242 290 356
#     4  10  21  38  59  83 117 156 190 242 312 362
#
# _framework density 23.622212999999999
#
# number of rings (size 3 to 8) (size 9 to 14) (size 15 to 20)
#    0.000    2.429    1.429    1.286    2.000    4.000 
#    0.000    0.000    0.000    0.429    0.000    0.000 
#    0.000    0.000    0.000    0.000    0.000    0.000 
#
# Total GULP energy -156018.569460 kJ/mol
# GULP energy per Si atom -5572.091766 kJ/mol
# Density = 2.356845 g / cm^3
# Si number density = 23.622213 Si / 1000 Ang^3
#
#
#
# Elastic Constant Matrix: (Units=GPa)
#
#
# Indices 1 2 3 4 5 6 
#
# 1 115.6014 54.9638 42.6545 0.0000 -44.3433 0.0000
# 2 54.9638 128.9740 32.7333 0.0000 -37.6911 0.0000
# 3 42.6545 32.7333 73.5812 0.0000 -44.5067 0.0000
# 4 0.0000 0.0000 0.0000 12.5265 0.0000 -0.1283
# 5 -44.3433 -37.6911 -44.5067 0.0000 55.4004 0.0000
# 6 0.0000 0.0000 0.0000 -0.1283 0.0000 -19.0162
#
#
#
# Elastic Compliance Matrix: (Units=1/GPa)
#
#
# Indices 1 2 3 4 5 6 
#
# 1 0.013687 -0.003229 -0.002335 0.000000 0.006883 0.000000
# 2 -0.003229 0.010454 -0.000078 0.000000 0.004465 0.000000
# 3 -0.002335 -0.000078 0.026876 0.000000 0.019669 0.000000
# 4 0.000000 0.000000 0.000000 0.079825 0.000000 -0.000538
# 5 0.006883 0.004465 0.019669 0.000000 0.042399 0.000000
# 6 0.000000 0.000000 0.000000 -0.000538 0.000000 -0.052583
#
#
# Mechanical properties :
#
#
# Convention : Reuss Voigt Hill
#
# Bulk Modulus (GPa) = 25.16717 64.31775 44.74246
# Shear Modulus (GPa) = 34.43839 22.30248 28.37044
#
# Velocity S-wave (km/s) = 3.82236 3.07601 3.46931
# Velocity P-wave (km/s) = 5.49161 6.31684 5.91863
#
# Compressibility (1/GPa) = 0.03973430
#
# Stress axis : x y z
#
# Youngs Moduli (GPa) = 73.05975 95.65444 37.20835
#
# Poissons Ratio (x) = 0.30887 0.08687
# Poissons Ratio (y) = 0.23591 0.00290
# Poissons Ratio (z) = 0.17057 0.00746
#
# Static dielectric constant tensor:
#      x y z
#    x 2.031430 0.000000 0.008880 
#    y 0.000000 2.019290 0.000000 
#    z 0.008880 0.000000 1.998180 
# 
# From -- ./inp_files/246594.got.cif
#   From: 2010.05.17/outbox.cif.g08.bks.cpg/sg12_124_cif.got.tgz:246594.got - 2010.06.03 13:09:07.
