data_PCOD9187093
_publ_section_title
;
Structure prediction by ZEFSAII (Michael W. Deem and Ramdas Pophale) SiO2 
 PCOD9187093
Probable space group: C 2/M
;
_chemical_formula_sum "Si O2"
_cell_formula_units_Z 40
_cell_length_a 26.213541
_cell_length_b 13.785515
_cell_length_c 5.197590
_cell_angle_alpha 90.000000
_cell_angle_beta 95.037701
_cell_angle_gamma 90.000000
_cell_volume 1870.982967
_symmetry_space_group_name_H-M "C 2/M"
_symmetry_group_IT_number 12
_symmetry_cell_setting 'monoclinic'
loop_
_space_group_symop_operation_xyz
x,y,z
-x,y,-z
-x,-y,-z
x,-y,z
1/2+x,1/2+y,z
1/2-x,1/2+y,-z
1/2-x,1/2-y,-z
1/2+x,1/2-y,z
loop_
_atom_site_type_symbol
_atom_site_label
_atom_site_fract_x
_atom_site_fract_y
_atom_site_fract_z
Si Si1 0.898279 0.789994 0.358116
Si Si2 0.244044 0.390377 0.725093
Si Si3 0.130978 0.389538 0.926083
Si Si4 0.314626 0.234818 0.671643
Si Si5 0.558050 0.386442 0.122308
O O1 0.903313 0.677219 0.273860
O O2 0.840871 0.793115 0.449217
O O3 0.932422 0.829155 0.607982
O O4 0.907709 0.850595 0.102946
O O5 0.262957 0.500000 0.715978
O O6 0.189893 0.391843 0.849224
O O7 0.286645 0.314147 0.835367
O O8 0.226333 0.343589 0.445834
O O9 0.114012 0.500000 0.950959
O O10 0.139509 0.327106 0.185824
O O11 0.567498 0.500000 0.176522
O O12 0.500000 0.373940 0.000000
#
# Coordination Sequence:
#
# PCOD9187093 Si02
#       5
#     8   8   8   8   8
#     4  11  22  41  64  97 124 160 206 255 299 371
#     4   9  19  32  52  84 122 169 214 256 306 356
#     4  10  20  37  61  87 124 172 216 253 304 359
#     4  10  19  35  57  85 127 164 211 263 303 356
#     4  11  24  44  69  95 125 159 194 243 316 389
#
# _framework density 21.379137
#
# number of rings (size 3 to 8) (size 9 to 14) (size 15 to 20)
#    0.000    1.800    2.000    2.400    0.000    4.000 
#    0.000    0.000    0.000    3.600    0.000    0.000 
#    0.000    0.000    0.000    0.000    0.000    0.000 
#
# Total GULP energy -111486.965718 kJ/mol
# GULP energy per Si atom -5574.348286 kJ/mol
# Density = 2.133048 g / cm^3
# Si number density = 21.379137 Si / 1000 Ang^3
#
#
#
# Elastic Constant Matrix: (Units=GPa)
#
#
# Indices 1 2 3 4 5 6 
#
# 1 38.8010 34.9799 20.9051 0.0000 0.7927 0.0000
# 2 34.9799 148.2734 63.1000 0.0000 16.6338 0.0000
# 3 20.9051 63.1000 120.4659 0.0000 14.3545 0.0000
# 4 0.0000 0.0000 0.0000 27.5725 0.0000 7.5464
# 5 0.7927 16.6338 14.3545 0.0000 25.5488 0.0000
# 6 0.0000 0.0000 0.0000 7.5464 0.0000 26.3114
#
#
#
# Elastic Compliance Matrix: (Units=1/GPa)
#
#
# Indices 1 2 3 4 5 6 
#
# 1 0.033782 -0.007461 -0.002581 0.000000 0.005260 0.000000
# 2 -0.007461 0.010598 -0.003710 0.000000 -0.004584 0.000000
# 3 -0.002581 -0.003710 0.011141 0.000000 -0.003764 0.000000
# 4 0.000000 0.000000 0.000000 0.039357 0.000000 -0.011288
# 5 0.005260 -0.004584 -0.003764 0.000000 0.044077 0.000000
# 6 0.000000 0.000000 0.000000 -0.011288 0.000000 0.041244
#
#
# Mechanical properties :
#
#
# Convention : Reuss Voigt Hill
#
# Bulk Modulus (GPa) = 35.69390 60.61225 48.15307
# Shear Modulus (GPa) = 23.03700 28.45688 25.74694
#
# Velocity S-wave (km/s) = 3.28616 3.65233 3.47407
# Velocity P-wave (km/s) = 5.57946 6.79696 6.21808
#
# Compressibility (1/GPa) = 0.02801599
#
# Stress axis : x y z
#
# Youngs Moduli (GPa) = 29.60133 94.36056 89.76025
#
# Poissons Ratio (x) = 0.70407 0.23166
# Poissons Ratio (y) = 0.22087 0.33301
# Poissons Ratio (z) = 0.07640 0.35008
#
# Static dielectric constant tensor:
#      x y z
#    x 1.801770 0.000000 0.004140 
#    y 0.000000 1.784400 0.000000 
#    z 0.004140 0.000000 1.872690 
# 
# From -- ./inp_files/30649.got.cif
#   From: 2010.05.17/outbox.cif.g08.bks.cpg/sg12_16_cif.got.tgz:30649.got - 2010.06.03 13:09:07.
