data_PCOD9187936
_publ_section_title
;
Structure prediction by ZEFSAII (Michael W. Deem and Ramdas Pophale) SiO2 
 PCOD9187936
Probable space group: C 2/M
;
_chemical_formula_sum "Si O2"
_cell_formula_units_Z 48
_cell_length_a 19.931262
_cell_length_b 14.299221
_cell_length_c 10.843623
_cell_angle_alpha 90.000000
_cell_angle_beta 124.418626
_cell_angle_gamma 90.000000
_cell_volume 2549.403484
_symmetry_space_group_name_H-M "C 2/M"
_symmetry_group_IT_number 12
_symmetry_cell_setting 'monoclinic'
loop_
_space_group_symop_operation_xyz
x,y,z
-x,y,-z
-x,-y,-z
x,-y,z
1/2+x,1/2+y,z
1/2-x,1/2+y,-z
1/2-x,1/2-y,-z
1/2+x,1/2-y,z
loop_
_atom_site_type_symbol
_atom_site_label
_atom_site_fract_x
_atom_site_fract_y
_atom_site_fract_z
Si Si1 0.214125 0.608497 0.849551
Si Si2 0.628562 0.725213 0.655295
Si Si3 0.580867 0.209388 0.141702
Si Si4 0.784967 0.388762 0.874218
Si Si5 0.094150 0.893345 0.991883
Si Si6 0.518242 0.292242 0.315754
O O1 0.192660 0.500000 0.806660
O O2 0.177968 0.677079 0.708958
O O3 0.185114 0.638409 0.956754
O O4 0.312290 0.614550 0.955438
O O5 0.694336 0.650190 0.767231
O O6 0.555830 0.742508 0.676296
O O7 0.588263 0.687150 0.488062
O O8 0.658885 0.155045 0.173525
O O9 0.560719 0.221796 0.263818
O O10 0.500000 0.164001 0.000000
O O11 0.587062 0.313403 0.088171
O O12 0.785769 0.500000 0.869005
O O13 0.027796 0.869125 0.817259
O O14 0.083396 0.000000 0.023318
#
# Coordination Sequence:
#
# PCOD9187936 Si02
#       6
#     8   8   8   8   8   8
#     4  10  19  35  63  89 111 152 207 250 285 347
#     4  11  21  40  60  87 121 159 200 242 303 354
#     4  10  21  38  58  88 120 155 196 248 304 351
#     4  11  22  37  61  87 117 158 203 247 293 357
#     4  10  19  36  62  90 116 152 202 249 295 348
#     4  10  23  36  59  87 124 160 189 247 302 360
#
# _framework density 18.827933999999999
#
# number of rings (size 3 to 8) (size 9 to 14) (size 15 to 20)
#    0.000    1.667    3.333    2.500    0.000    4.667 
#    0.000    5.000    0.000    1.000    0.000    0.000 
#    0.000    0.000    0.000    0.000    0.000    0.000 
#
# Total GULP energy -133691.078176 kJ/mol
# GULP energy per Si atom -5570.461591 kJ/mol
# Density = 1.878508 g / cm^3
# Si number density = 18.827934 Si / 1000 Ang^3
#
#
#
# Elastic Constant Matrix: (Units=GPa)
#
#
# Indices 1 2 3 4 5 6 
#
# 1 93.3571 7.7353 9.7993 0.0000 -1.7157 0.0000
# 2 7.7353 65.4960 25.5817 0.0000 8.4916 0.0000
# 3 9.7993 25.5817 72.1858 0.0000 8.1930 0.0000
# 4 0.0000 0.0000 0.0000 6.5615 0.0000 2.6314
# 5 -1.7157 8.4916 8.1930 0.0000 25.2980 0.0000
# 6 0.0000 0.0000 0.0000 2.6314 0.0000 1.6158
#
#
#
# Elastic Compliance Matrix: (Units=1/GPa)
#
#
# Indices 1 2 3 4 5 6 
#
# 1 0.010958 -0.000976 -0.001311 0.000000 0.001495 0.000000
# 2 -0.000976 0.018220 -0.005837 0.000000 -0.004291 0.000000
# 3 -0.001311 -0.005837 0.016494 0.000000 -0.003471 0.000000
# 4 0.000000 0.000000 0.000000 0.439337 0.000000 -0.715478
# 5 0.001495 -0.004291 -0.003471 0.000000 0.042195 0.000000
# 6 0.000000 0.000000 0.000000 -0.715478 0.000000 1.784076
#
#
# Mechanical properties :
#
#
# Convention : Reuss Voigt Hill
#
# Bulk Modulus (GPa) = 33.98808 35.25238 34.62023
# Shear Modulus (GPa) = 2.13919 19.22323 10.68121
#
# Velocity S-wave (km/s) = 1.06707 3.19877 2.38440
# Velocity P-wave (km/s) = 4.42824 5.69271 5.09982
#
# Compressibility (1/GPa) = 0.02942208
#
# Stress axis : x y z
#
# Youngs Moduli (GPa) = 91.26135 54.88562 60.62879
#
# Poissons Ratio (x) = 0.05356 0.07951
# Poissons Ratio (y) = 0.08905 0.35391
# Poissons Ratio (z) = 0.11968 0.32038
#
# Static dielectric constant tensor:
#      x y z
#    x 1.700100 0.000000 -0.013690 
#    y 0.000000 1.640240 0.000000 
#    z -0.013690 0.000000 1.666330 
# 
# From -- ./inp_files/166864.got.cif
#   From: 2010.05.17/outbox.cif.g08.bks.cpg/sg12_84_cif.got.tgz:166864.got - 2010.06.03 13:09:07.
