data_PCOD9187192
_publ_section_title
;
Structure prediction by ZEFSAII (Michael W. Deem and Ramdas Pophale) SiO2 
 PCOD9187192
Probable space group: C 2/M
;
_chemical_formula_sum "Si O2"
_cell_formula_units_Z 32
_cell_length_a 23.146933
_cell_length_b 14.070500
_cell_length_c 5.291849
_cell_angle_alpha 90.000000
_cell_angle_beta 121.756894
_cell_angle_gamma 90.000000
_cell_volume 1465.470025
_symmetry_space_group_name_H-M "C 2/M"
_symmetry_group_IT_number 12
_symmetry_cell_setting 'monoclinic'
loop_
_space_group_symop_operation_xyz
x,y,z
-x,y,-z
-x,-y,-z
x,-y,z
1/2+x,1/2+y,z
1/2-x,1/2+y,-z
1/2-x,1/2-y,-z
1/2+x,1/2-y,z
loop_
_atom_site_type_symbol
_atom_site_label
_atom_site_fract_x
_atom_site_fract_y
_atom_site_fract_z
Si Si1 0.539912 0.234703 0.836928
Si Si2 0.598404 0.393135 0.678040
Si Si3 0.258605 0.392305 0.713101
Si Si4 0.657302 0.743252 0.426867
O O1 0.500000 0.194274 0.500000
O O2 0.552655 0.346417 0.793152
O O3 0.382311 0.210218 0.903451
O O4 0.500000 0.212704 0.000000
O O5 0.578902 0.500000 0.562979
O O6 0.676178 0.396190 0.955266
O O7 0.603230 0.315476 0.468153
O O8 0.238042 0.500000 0.609728
O O9 0.289009 0.335655 0.542889
O O10 0.197192 0.325967 0.663021
#
# Coordination Sequence:
#
# PCOD9187192 Si02
#       4
#     8   8   8   8
#     4  11  22  39  56  83 114 159 195 234 280 338
#     4  10  20  34  56  85 118 150 189 232 286 347
#     4   9  19  34  56  88 116 147 190 239 289 344
#     4  10  19  35  58  82 118 153 189 234 291 338
#
# _framework density 21.835998
#
# number of rings (size 3 to 8) (size 9 to 14) (size 15 to 20)
#    0.000    2.000    2.500    1.500    0.000    2.000 
#    0.000    0.000    0.000    1.500    0.000    0.000 
#    0.000    0.000    0.000    0.000    0.000    0.000 
#
# Total GULP energy -89068.725765 kJ/mol
# GULP energy per Si atom -5566.795360 kJ/mol
# Density = 2.178630 g / cm^3
# Si number density = 21.835998 Si / 1000 Ang^3
#
#
#
# Elastic Constant Matrix: (Units=GPa)
#
#
# Indices 1 2 3 4 5 6 
#
# 1 57.3628 8.9767 17.8478 0.0000 -10.8928 0.0000
# 2 8.9767 58.4415 23.1781 0.0000 3.6856 0.0000
# 3 17.8478 23.1781 87.8323 0.0000 3.0143 0.0000
# 4 0.0000 0.0000 0.0000 18.5608 0.0000 0.9334
# 5 -10.8928 3.6856 3.0143 0.0000 39.9415 0.0000
# 6 0.0000 0.0000 0.0000 0.9334 0.0000 12.6536
#
#
#
# Elastic Compliance Matrix: (Units=1/GPa)
#
#
# Indices 1 2 3 4 5 6 
#
# 1 0.020034 -0.001961 -0.003757 0.000000 0.005928 0.000000
# 2 -0.001961 0.019380 -0.004648 0.000000 -0.001972 0.000000
# 3 -0.003757 -0.004648 0.013431 0.000000 -0.001609 0.000000
# 4 0.000000 0.000000 0.000000 0.054078 0.000000 -0.003989
# 5 0.005928 -0.001972 -0.001609 0.000000 0.026957 0.000000
# 6 0.000000 0.000000 0.000000 -0.003989 0.000000 0.079323
#
#
# Mechanical properties :
#
#
# Convention : Reuss Voigt Hill
#
# Bulk Modulus (GPa) = 31.14017 33.73797 32.43907
# Shear Modulus (GPa) = 20.43824 24.47345 22.45585
#
# Velocity S-wave (km/s) = 3.06271 3.35144 3.21033
# Velocity P-wave (km/s) = 5.17676 5.51909 5.35066
#
# Compressibility (1/GPa) = 0.03211287
#
# Stress axis : x y z
#
# Youngs Moduli (GPa) = 49.91392 51.59913 74.45703
#
# Poissons Ratio (x) = 0.10119 0.27973
# Poissons Ratio (y) = 0.09789 0.34608
# Poissons Ratio (z) = 0.18753 0.23983
#
# Static dielectric constant tensor:
#      x y z
#    x 1.935180 0.000000 0.016860 
#    y 0.000000 1.759610 0.000000 
#    z 0.016860 0.000000 1.925400 
# 
# From -- ./inp_files/19494.got.cif
#   From: 2010.05.17/outbox.cif.g08.bks.cpg/sg12_10_cif.got.tgz:19494.got - 2010.06.03 13:09:07.
