data_PCOD9187791
_publ_section_title
;
Structure prediction by ZEFSAII (Michael W. Deem and Ramdas Pophale) SiO2 
 PCOD9187791
Probable space group: C 2/M
;
_chemical_formula_sum "Si O2"
_cell_formula_units_Z 56
_cell_length_a 13.012569
_cell_length_b 22.539582
_cell_length_c 9.578596
_cell_angle_alpha 90.000000
_cell_angle_beta 126.205542
_cell_angle_gamma 90.000000
_cell_volume 2266.899085
_symmetry_space_group_name_H-M "C 2/M"
_symmetry_group_IT_number 12
_symmetry_cell_setting 'monoclinic'
loop_
_space_group_symop_operation_xyz
x,y,z
-x,y,-z
-x,-y,-z
x,-y,z
1/2+x,1/2+y,z
1/2-x,1/2+y,-z
1/2-x,1/2-y,-z
1/2+x,1/2-y,z
loop_
_atom_site_type_symbol
_atom_site_label
_atom_site_fract_x
_atom_site_fract_y
_atom_site_fract_z
Si Si1 0.496883 0.132603 0.644505
Si Si2 0.891134 0.762118 0.515544
Si Si3 0.656459 0.570590 0.825681
Si Si4 0.287887 0.635126 0.854466
Si Si5 0.156051 0.432367 0.249366
Si Si6 0.385802 0.750846 0.824083
Si Si7 0.620011 0.432161 0.346422
O O1 0.500000 0.095730 0.500000
O O2 0.408729 0.189928 0.542535
O O3 0.642625 0.150496 0.773900
O O4 0.449568 0.101994 0.746712
O O5 0.753214 0.777082 0.337066
O O6 0.919000 0.777720 0.698804
O O7 0.000000 0.783273 0.500000
O O8 0.662022 0.500000 0.805489
O O9 0.776181 0.594366 0.832937
O O10 0.510251 0.589164 0.684832
O O11 0.672345 0.588315 0.998110
O O12 0.357772 0.697766 0.908625
O O13 0.322925 0.605183 0.735137
O O14 0.112385 0.500000 0.189604
O O15 0.273223 0.434025 0.450883
O O16 0.500000 0.784416 0.000000
O O17 0.596589 0.500000 0.278550
#
# Coordination Sequence:
#
# PCOD9187791 Si02
#       7
#     8   8   8   8   8   8   8
#     4  11  21  42  66  86 126 173 209 258 328 385
#     4  10  22  47  68  91 135 170 204 274 340 383
#     4  10  22  38  57  90 134 167 205 269 322 363
#     4  12  22  39  63  93 127 165 217 263 315 389
#     4  10  21  37  61  93 125 168 219 258 308 382
#     4  11  23  41  70 101 125 164 223 269 319 403
#     4  10  19  35  61  89 125 172 214 256 316 379
#
# _framework density 24.70335
#
# number of rings (size 3 to 8) (size 9 to 14) (size 15 to 20)
#    0.000    1.429    4.286    2.143    0.000    5.429 
#    2.571    8.571    0.000    0.000    0.000    0.000 
#    0.000    0.000    0.000    0.000    0.000    0.000 
#
# Total GULP energy -156247.210031 kJ/mol
# GULP energy per Si atom -5580.257501 kJ/mol
# Density = 2.464712 g / cm^3
# Si number density = 24.703350 Si / 1000 Ang^3
#
#
#
# Elastic Constant Matrix: (Units=GPa)
#
#
# Indices 1 2 3 4 5 6 
#
# 1 179.1769 33.0662 74.6377 0.0000 -10.3079 0.0000
# 2 33.0662 53.1517 16.0570 0.0000 -4.5290 0.0000
# 3 74.6377 16.0570 123.3038 0.0000 8.5354 0.0000
# 4 0.0000 0.0000 0.0000 20.0462 0.0000 -12.4359
# 5 -10.3079 -4.5290 8.5354 0.0000 44.9641 0.0000
# 6 0.0000 0.0000 0.0000 -12.4359 0.0000 38.6849
#
#
#
# Elastic Compliance Matrix: (Units=1/GPa)
#
#
# Indices 1 2 3 4 5 6 
#
# 1 0.008367 -0.003553 -0.004773 0.000000 0.002466 0.000000
# 2 -0.003553 0.021372 -0.000735 0.000000 0.001478 0.000000
# 3 -0.004773 -0.000735 0.011324 0.000000 -0.003318 0.000000
# 4 0.000000 0.000000 0.000000 0.062311 0.000000 0.020031
# 5 0.002466 0.001478 -0.003318 0.000000 0.023584 0.000000
# 6 0.000000 0.000000 0.000000 0.020031 0.000000 0.032289
#
#
# Mechanical properties :
#
#
# Convention : Reuss Voigt Hill
#
# Bulk Modulus (GPa) = 43.58690 67.01714 55.30202
# Shear Modulus (GPa) = 27.02477 36.19715 31.61096
#
# Velocity S-wave (km/s) = 3.31111 3.83204 3.58106
# Velocity P-wave (km/s) = 5.68334 6.83864 6.28758
#
# Compressibility (1/GPa) = 0.02294268
#
# Stress axis : x y z
#
# Youngs Moduli (GPa) = 119.52164 46.78943 88.30600
#
# Poissons Ratio (x) = 0.16625 0.42144
# Poissons Ratio (y) = 0.42467 0.06488
# Poissons Ratio (z) = 0.57042 0.03438
#
# Static dielectric constant tensor:
#      x y z
#    x 1.987840 0.000000 0.066830 
#    y 0.000000 1.968360 0.000000 
#    z 0.066830 0.000000 2.103470 
# 
# From -- ./inp_files/54820.got.cif
#   From: 2010.05.17/outbox.cif.g08.bks.cpg/sg12_28_cif.got.tgz:54820.got - 2010.06.03 13:09:07.
