data_PCOD9187729
_publ_section_title
;
Structure prediction by ZEFSAII (Michael W. Deem and Ramdas Pophale) SiO2 
 PCOD9187729
Probable space group: C 2/M
;
_chemical_formula_sum "Si O2"
_cell_formula_units_Z 64
_cell_length_a 10.213521
_cell_length_b 14.726762
_cell_length_c 24.020453
_cell_angle_alpha 90.000000
_cell_angle_beta 81.575009
_cell_angle_gamma 90.000000
_cell_volume 3573.977356
_symmetry_space_group_name_H-M "C 2/M"
_symmetry_group_IT_number 12
_symmetry_cell_setting 'monoclinic'
loop_
_space_group_symop_operation_xyz
x,y,z
-x,y,-z
-x,-y,-z
x,-y,z
1/2+x,1/2+y,z
1/2-x,1/2+y,-z
1/2-x,1/2-y,-z
1/2+x,1/2-y,z
loop_
_atom_site_type_symbol
_atom_site_label
_atom_site_fract_x
_atom_site_fract_y
_atom_site_fract_z
Si Si1 0.365268 0.397748 0.382325
Si Si2 0.226200 0.765890 0.702297
Si Si3 0.497336 0.892101 0.125397
Si Si4 0.110375 0.238375 0.038980
Si Si5 0.655123 0.665971 0.495101
Si Si6 0.551504 0.244380 0.222277
Si Si7 0.678405 0.392786 0.134902
Si Si8 0.172811 0.895219 0.369686
O O1 0.352225 0.500000 0.362954
O O2 0.278621 0.332595 0.350052
O O3 0.334268 0.393628 0.449848
O O4 0.519407 0.369995 0.367642
O O5 0.350471 0.782828 0.734195
O O6 0.237836 0.666730 0.674347
O O7 0.091673 0.771668 0.745544
O O8 0.567814 0.831533 0.073246
O O9 0.534869 0.838353 0.179639
O O10 0.338321 0.885371 0.127200
O O11 0.531342 0.000000 0.123207
O O12 0.125501 0.157591 0.082887
O O13 0.250000 0.250000 0.000000
O O14 0.000000 0.217488 0.000000
O O15 0.500000 0.692332 0.500000
O O16 0.750000 0.750000 0.500000
O O17 0.693178 0.620339 0.434323
O O18 0.616872 0.331817 0.188046
O O19 0.644843 0.500000 0.139734
O O20 0.190350 0.000000 0.355632
#
# Coordination Sequence:
#
# PCOD9187729 Si02
#       8
#     8   8   8   8   8   8   8   8
#     4  10  21  37  59  87 116 150 194 242 297 362
#     4  12  22  38  61  86 117 153 197 249 306 346
#     4  10  22  41  65  90 120 165 207 238 289 353
#     4  11  22  39  63  98 133 157 193 247 292 339
#     4  10  19  35  61  83 114 151 189 236 296 363
#     4  11  24  40  61  88 119 156 200 256 295 342
#     4  10  22  41  65  90 120 165 205 238 292 352
#     4  10  21  37  60  87 113 152 198 238 293 368
#
# _framework density 17.907219999999999
#
# number of rings (size 3 to 8) (size 9 to 14) (size 15 to 20)
#    0.000    1.500    5.000    0.375    0.000    4.500 
#    0.000    1.250    0.000    0.750    0.000    0.000 
#    0.000    0.000    0.000    0.000    0.000    0.000 
#
# Total GULP energy -178562.485430 kJ/mol
# GULP energy per Si atom -5580.077670 kJ/mol
# Density = 1.786646 g / cm^3
# Si number density = 17.907220 Si / 1000 Ang^3
#
#
#
# Elastic Constant Matrix: (Units=GPa)
#
#
# Indices 1 2 3 4 5 6 
#
# 1 69.8386 34.9634 31.3182 0.0000 9.9200 0.0000
# 2 34.9634 111.6316 41.6227 0.0000 11.1684 0.0000
# 3 31.3182 41.6227 83.5957 0.0000 18.3355 0.0000
# 4 0.0000 0.0000 0.0000 -23.6292 0.0000 -16.2289
# 5 9.9200 11.1684 18.3355 0.0000 40.9838 0.0000
# 6 0.0000 0.0000 0.0000 -16.2289 0.0000 22.2463
#
#
#
# Elastic Compliance Matrix: (Units=1/GPa)
#
#
# Indices 1 2 3 4 5 6 
#
# 1 0.018590 -0.003931 -0.004718 0.000000 -0.001317 0.000000
# 2 -0.003931 0.011845 -0.004353 0.000000 -0.000329 0.000000
# 3 -0.004718 -0.004353 0.017061 0.000000 -0.005304 0.000000
# 4 0.000000 0.000000 0.000000 -0.028194 0.000000 -0.020568
# 5 -0.001317 -0.000329 -0.005304 0.000000 0.027182 0.000000
# 6 0.000000 0.000000 0.000000 -0.020568 0.000000 0.029947
#
#
# Mechanical properties :
#
#
# Convention : Reuss Voigt Hill
#
# Bulk Modulus (GPa) = 46.53064 53.43050 49.98057
# Shear Modulus (GPa) = 45.62126 18.39763 32.00944
#
# Velocity S-wave (km/s) = 5.05290 3.20876 4.23249
# Velocity P-wave (km/s) = 7.75133 6.60533 7.20116
#
# Compressibility (1/GPa) = 0.02149121
#
# Stress axis : x y z
#
# Youngs Moduli (GPa) = 53.79301 84.42197 58.61445
#
# Poissons Ratio (x) = 0.33190 0.27654
# Poissons Ratio (y) = 0.21148 0.25514
# Poissons Ratio (z) = 0.25380 0.36747
#
# Static dielectric constant tensor:
#      x y z
#    x 1.573930 0.000000 -0.013320 
#    y 0.000000 1.588490 0.000000 
#    z -0.013320 0.000000 1.633490 
# 
# From -- ./inp_files/332958.got.cif
#   From: 2010.05.17/outbox.cif.g08.bks.cpg/sg12_167_cif.got.tgz:332958.got - 2010.06.03 13:09:07.
