data_PCOD9187100
_publ_section_title
;
Structure prediction by ZEFSAII (Michael W. Deem and Ramdas Pophale) SiO2 
 PCOD9187100
Probable space group: C 2/M
;
_chemical_formula_sum "Si O2"
_cell_formula_units_Z 48
_cell_length_a 13.442027
_cell_length_b 14.057156
_cell_length_c 13.690435
_cell_angle_alpha 90.000000
_cell_angle_beta 115.357307
_cell_angle_gamma 90.000000
_cell_volume 2337.663340
_symmetry_space_group_name_H-M "C 2/M"
_symmetry_group_IT_number 12
_symmetry_cell_setting 'monoclinic'
loop_
_space_group_symop_operation_xyz
x,y,z
-x,y,-z
-x,-y,-z
x,-y,z
1/2+x,1/2+y,z
1/2-x,1/2+y,-z
1/2-x,1/2-y,-z
1/2+x,1/2-y,z
loop_
_atom_site_type_symbol
_atom_site_label
_atom_site_fract_x
_atom_site_fract_y
_atom_site_fract_z
Si Si1 0.761947 0.392306 0.311941
Si Si2 0.538896 0.612034 0.334270
Si Si3 0.707990 0.388472 0.753691
Si Si4 0.840219 0.777656 0.456618
Si Si5 0.623539 0.803022 0.027148
Si Si6 0.774501 0.107472 0.933250
O O1 0.787451 0.500000 0.354164
O O2 0.636945 0.371423 0.297902
O O3 0.846275 0.317534 0.394146
O O4 0.759618 0.389087 0.194376
O O5 0.545121 0.500000 0.364926
O O6 0.413177 0.628909 0.250747
O O7 0.563197 0.678609 0.437311
O O8 0.732672 0.500000 0.772002
O O9 0.700164 0.356539 0.637777
O O10 0.797909 0.328428 0.848873
O O11 0.750000 0.750000 0.500000
O O12 0.637201 0.690701 0.012107
O O13 0.500000 0.827674 0.000000
O O14 0.672315 0.862806 0.957903
O O15 0.811559 0.000000 0.971865
#
# Coordination Sequence:
#
# PCOD9187100 Si02
#       6
#     8   8   8   8   8   8
#     4   9  18  36  62  91 125 162 204 253 309 373
#     4   9  19  35  62  93 122 158 204 261 311 364
#     4  11  22  39  62  91 123 161 210 260 319 378
#     4  10  19  35  57  87 124 162 202 256 311 369
#     4  11  25  44  67  95 129 168 212 263 320 379
#     4  10  22  43  67  95 128 165 213 262 313 378
#
# _framework density 20.533324
#
# number of rings (size 3 to 8) (size 9 to 14) (size 15 to 20)
#    0.000    2.000    1.667    1.500    0.000    6.333 
#    0.000    1.667    0.000    3.000    0.000    0.000 
#    0.000    0.000    0.000    0.000    0.000    0.000 
#
# Total GULP energy -134000.797619 kJ/mol
# GULP energy per Si atom -5583.366567 kJ/mol
# Density = 2.048659 g / cm^3
# Si number density = 20.533324 Si / 1000 Ang^3
#
#
#
# Elastic Constant Matrix: (Units=GPa)
#
#
# Indices 1 2 3 4 5 6 
#
# 1 70.9442 0.8835 23.4205 0.0000 10.7772 0.0000
# 2 0.8835 78.6205 12.2701 0.0000 15.3515 0.0000
# 3 23.4205 12.2701 64.6731 0.0000 -2.5027 0.0000
# 4 0.0000 0.0000 0.0000 30.0521 0.0000 -8.7709
# 5 10.7772 15.3515 -2.5027 0.0000 31.8604 0.0000
# 6 0.0000 0.0000 0.0000 -8.7709 0.0000 16.3171
#
#
#
# Elastic Compliance Matrix: (Units=1/GPa)
#
#
# Indices 1 2 3 4 5 6 
#
# 1 0.017581 0.002411 -0.007121 0.000000 -0.007668 0.000000
# 2 0.002411 0.014949 -0.004032 0.000000 -0.008335 0.000000
# 3 -0.007121 -0.004032 0.019032 0.000000 0.005847 0.000000
# 4 0.000000 0.000000 0.000000 0.039467 0.000000 0.021215
# 5 -0.007668 -0.008335 0.005847 0.000000 0.038456 0.000000
# 6 0.000000 0.000000 0.000000 0.021215 0.000000 0.072689
#
#
# Mechanical properties :
#
#
# Convention : Reuss Voigt Hill
#
# Bulk Modulus (GPa) = 29.34358 31.93178 30.63768
# Shear Modulus (GPa) = 21.64329 27.49016 24.56672
#
# Velocity S-wave (km/s) = 3.25015 3.66294 3.46270
# Velocity P-wave (km/s) = 5.32976 5.78571 5.56241
#
# Compressibility (1/GPa) = 0.03407900
#
# Stress axis : x y z
#
# Youngs Moduli (GPa) = 56.87877 66.89395 52.54213
#
# Poissons Ratio (x) = -0.16129 0.37415
# Poissons Ratio (y) = -0.13714 0.21185
# Poissons Ratio (z) = 0.40503 0.26971
#
# Static dielectric constant tensor:
#      x y z
#    x 1.749970 0.000000 -0.000260 
#    y 0.000000 1.749020 0.000000 
#    z -0.000260 0.000000 1.737100 
# 
# From -- ./inp_files/204512.got.cif
#   From: 2010.05.17/outbox.cif.g08.bks.cpg/sg12_103_cif.got.tgz:204512.got - 2010.06.03 13:09:07.
