data_PCOD9187521
_publ_section_title
;
Structure prediction by ZEFSAII (Michael W. Deem and Ramdas Pophale) SiO2 
 PCOD9187521
Probable space group: C 2/M
;
_chemical_formula_sum "Si O2"
_cell_formula_units_Z 56
_cell_length_a 24.839169
_cell_length_b 21.701416
_cell_length_c 4.980068
_cell_angle_alpha 90.000000
_cell_angle_beta 68.536898
_cell_angle_gamma 90.000000
_cell_volume 2498.321785
_symmetry_space_group_name_H-M "C 2/M"
_symmetry_group_IT_number 12
_symmetry_cell_setting 'monoclinic'
loop_
_space_group_symop_operation_xyz
x,y,z
-x,y,-z
-x,-y,-z
x,-y,z
1/2+x,1/2+y,z
1/2-x,1/2+y,-z
1/2-x,1/2-y,-z
1/2+x,1/2-y,z
loop_
_atom_site_type_symbol
_atom_site_label
_atom_site_fract_x
_atom_site_fract_y
_atom_site_fract_z
Si Si1 0.040342 0.071998 0.686304
Si Si2 0.906450 0.567698 0.095403
Si Si3 0.210501 0.070542 0.708591
Si Si4 0.167026 0.595910 0.259497
Si Si5 0.558301 0.202865 0.035046
Si Si6 0.630716 0.230199 0.393603
Si Si7 0.660083 0.367611 0.309171
O O1 0.097849 0.110937 0.534773
O O2 0.000000 0.073460 0.500000
O O3 0.055969 0.000000 0.710787
O O4 0.000000 0.094946 0.000000
O O5 0.933113 0.500000 0.016314
O O6 0.883705 0.577111 0.439262
O O7 0.851169 0.571142 0.996884
O O8 0.942764 0.628035 0.948135
O O9 0.273591 0.072653 0.726296
O O10 0.206520 0.105309 0.433433
O O11 0.192964 0.000000 0.700412
O O12 0.169268 0.103361 0.000355
O O13 0.167511 0.670110 0.249325
O O14 0.575219 0.227884 0.295264
O O15 0.500000 0.224701 0.000000
O O16 0.609479 0.221215 0.736834
O O17 0.662363 0.294304 0.297318
#
# Coordination Sequence:
#
# PCOD9187521 Si02
#       7
#     8   8   8   8   8   8   8
#     4  10  21  38  58  80 110 146 184 230 287 346
#     4  10  19  35  59  87 121 157 198 241 286 347
#     4  12  24  39  62  89 119 151 191 246 296 344
#     4  10  22  39  60  86 119 160 197 234 289 349
#     4  10  21  38  60  86 119 156 197 248 291 336
#     4  10  23  41  59  85 120 158 198 239 289 353
#     4  12  25  40  61  89 118 150 195 245 294 347
#
# _framework density 22.415047999999999
#
# number of rings (size 3 to 8) (size 9 to 14) (size 15 to 20)
#    0.000    1.429    0.000    5.571    0.000    4.286 
#    0.000    0.000    0.000    5.143    0.000    0.000 
#    0.000    0.000    0.000    0.000    0.000    0.000 
#
# Total GULP energy -156693.598026 kJ/mol
# GULP energy per Si atom -5596.199929 kJ/mol
# Density = 2.236403 g / cm^3
# Si number density = 22.415048 Si / 1000 Ang^3
#
#
#
# Elastic Constant Matrix: (Units=GPa)
#
#
# Indices 1 2 3 4 5 6 
#
# 1 61.9336 2.4911 -10.6328 0.0000 18.7305 0.0000
# 2 2.4911 148.4614 7.5203 0.0000 14.9484 0.0000
# 3 -10.6328 7.5203 65.7260 0.0000 20.6594 0.0000
# 4 0.0000 0.0000 0.0000 34.7856 0.0000 34.0120
# 5 18.7305 14.9484 20.6594 0.0000 29.9123 0.0000
# 6 0.0000 0.0000 0.0000 34.0120 0.0000 44.3598
#
#
#
# Elastic Compliance Matrix: (Units=1/GPa)
#
#
# Indices 1 2 3 4 5 6 
#
# 1 0.025682 0.001487 0.011844 0.000000 -0.025005 0.000000
# 2 0.001487 0.007186 0.001073 0.000000 -0.005263 0.000000
# 3 0.011844 0.001073 0.024917 0.000000 -0.025162 0.000000
# 4 0.000000 0.000000 0.000000 0.114842 0.000000 -0.088053
# 5 -0.025005 -0.005263 -0.025162 0.000000 0.069098 0.000000
# 6 0.000000 0.000000 0.000000 -0.088053 0.000000 0.090056
#
#
# Mechanical properties :
#
#
# Convention : Reuss Voigt Hill
#
# Bulk Modulus (GPa) = 11.54818 30.54202 21.04510
# Shear Modulus (GPa) = 15.06757 40.26102 27.66430
#
# Velocity S-wave (km/s) = 2.59551 4.24271 3.51691
# Velocity P-wave (km/s) = 3.76104 6.13645 5.08928
#
# Compressibility (1/GPa) = 0.08659373
#
# Stress axis : x y z
#
# Youngs Moduli (GPa) = 38.93734 139.15126 40.13289
#
# Poissons Ratio (x) = -0.20690 -0.47535
# Poissons Ratio (y) = -0.05789 -0.04305
# Poissons Ratio (z) = -0.46119 -0.14926
#
# Static dielectric constant tensor:
#      x y z
#    x 1.825030 0.000000 -0.022290 
#    y 0.000000 1.824530 0.000000 
#    z -0.022290 0.000000 1.780460 
# 
# From -- ./inp_files/28751.got.cif
#   From: 2010.05.17/outbox.cif.g08.bks.cpg/sg12_15_cif.got.tgz:28751.got - 2010.06.03 13:09:07.
