data_PCOD9187567
_publ_section_title
;
Structure prediction by ZEFSAII (Michael W. Deem and Ramdas Pophale) SiO2 
 PCOD9187567
Probable space group: C 2/M
;
_chemical_formula_sum "Si O2"
_cell_formula_units_Z 64
_cell_length_a 23.949236
_cell_length_b 14.414743
_cell_length_c 9.266467
_cell_angle_alpha 90.000000
_cell_angle_beta 90.959359
_cell_angle_gamma 90.000000
_cell_volume 3198.540606
_symmetry_space_group_name_H-M "C 2/M"
_symmetry_group_IT_number 12
_symmetry_cell_setting 'monoclinic'
loop_
_space_group_symop_operation_xyz
x,y,z
-x,y,-z
-x,-y,-z
x,-y,z
1/2+x,1/2+y,z
1/2-x,1/2+y,-z
1/2-x,1/2-y,-z
1/2+x,1/2-y,z
loop_
_atom_site_type_symbol
_atom_site_label
_atom_site_fract_x
_atom_site_fract_y
_atom_site_fract_z
Si Si1 0.185185 0.735690 0.471341
Si Si2 0.681698 0.602535 0.254216
Si Si3 0.063863 0.305114 0.002873
Si Si4 0.659316 0.889695 0.203061
Si Si5 0.869361 0.769290 0.234092
Si Si6 0.469858 0.394085 0.354786
Si Si7 0.938828 0.901416 0.894233
Si Si8 0.776985 0.887497 0.049298
O O1 0.250000 0.750000 0.500000
O O2 0.171041 0.829959 0.385705
O O3 0.170045 0.654297 0.360106
O O4 0.158427 0.726383 0.625902
O O5 0.700511 0.500000 0.301342
O O6 0.621846 0.595990 0.176861
O O7 0.720319 0.635756 0.121999
O O8 0.099586 0.309704 0.858089
O O9 0.104145 0.345153 0.128392
O O10 0.058828 0.193667 0.020396
O O11 0.000000 0.341482 0.000000
O O12 0.715541 0.869842 0.111908
O O13 0.652786 0.000000 0.209055
O O14 0.916962 0.837576 0.298300
O O15 0.823832 0.827938 0.137716
O O16 0.500000 0.355678 0.500000
O O17 0.452916 0.500000 0.387541
O O18 0.515889 0.396377 0.230465
O O19 0.943887 0.000000 0.976276
O O20 0.788086 0.000000 0.061443
#
# Coordination Sequence:
#
# PCOD9187567 Si02
#       8
#     8   8   8   8   8   8   8   8
#     4  12  25  40  64  96 133 173 208 258 326 394
#     4  10  21  38  63  93 132 171 211 253 310 391
#     4  12  25  43  69  98 125 171 225 277 325 380
#     4  11  26  49  69  89 127 171 223 280 332 380
#     4  12  23  36  64  97 133 164 211 267 321 399
#     4  10  21  34  53  88 138 181 207 242 308 392
#     4  10  19  35  59  91 132 172 202 246 311 380
#     4  10  21  39  65  95 126 171 215 262 323 384
#
# _framework density 20.009124
#
# number of rings (size 3 to 8) (size 9 to 14) (size 15 to 20)
#    0.000    1.125    5.000    1.125    1.750    4.500 
#    0.000    0.625    0.000    0.750    0.000    0.000 
#    0.000    0.000    0.000    0.000    0.000    0.000 
#
# Total GULP energy -178700.065404 kJ/mol
# GULP energy per Si atom -5584.377044 kJ/mol
# Density = 1.996358 g / cm^3
# Si number density = 20.009124 Si / 1000 Ang^3
#
#
#
# Elastic Constant Matrix: (Units=GPa)
#
#
# Indices 1 2 3 4 5 6 
#
# 1 116.2883 19.1208 41.2598 0.0000 -1.1299 0.0000
# 2 19.1208 62.9717 20.3857 0.0000 3.5589 0.0000
# 3 41.2598 20.3857 92.3875 0.0000 -8.5059 0.0000
# 4 0.0000 0.0000 0.0000 -29.5288 0.0000 -23.7813
# 5 -1.1299 3.5589 -8.5059 0.0000 40.8787 0.0000
# 6 0.0000 0.0000 0.0000 -23.7813 0.0000 7.9335
#
#
#
# Elastic Compliance Matrix: (Units=1/GPa)
#
#
# Indices 1 2 3 4 5 6 
#
# 1 0.010409 -0.001741 -0.004307 0.000000 -0.000457 0.000000
# 2 -0.001741 0.017611 -0.003318 0.000000 -0.002272 0.000000
# 3 -0.004307 -0.003318 0.013759 0.000000 0.003033 0.000000
# 4 0.000000 0.000000 0.000000 -0.009919 0.000000 -0.029733
# 5 -0.000457 -0.002272 0.003033 0.000000 0.025279 0.000000
# 6 0.000000 0.000000 0.000000 -0.029733 0.000000 0.036920
#
#
# Mechanical properties :
#
#
# Convention : Reuss Voigt Hill
#
# Bulk Modulus (GPa) = 43.38630 48.13113 45.75872
# Shear Modulus (GPa) = 41.50379 16.58210 29.04295
#
# Velocity S-wave (km/s) = 4.55933 2.88188 3.81397
# Velocity P-wave (km/s) = 7.03185 5.93131 6.50490
#
# Compressibility (1/GPa) = 0.02304875
#
# Stress axis : x y z
#
# Youngs Moduli (GPa) = 96.06973 56.78231 72.68193
#
# Poissons Ratio (x) = 0.09884 0.31302
# Poissons Ratio (y) = 0.16722 0.24114
# Poissons Ratio (z) = 0.41374 0.18839
#
# Static dielectric constant tensor:
#      x y z
#    x 1.846910 0.000000 -0.006940 
#    y 0.000000 1.740550 0.000000 
#    z -0.006940 0.000000 1.692130 
# 
# From -- ./inp_files/96903.got.cif
#   From: 2010.05.17/outbox.cif.g08.bks.cpg/sg12_49_cif.got.tgz:96903.got - 2010.06.03 13:09:07.
