data_PCOD9187720
_publ_section_title
;
Structure prediction by ZEFSAII (Michael W. Deem and Ramdas Pophale) SiO2 
 PCOD9187720
Probable space group: C 2/M
;
_chemical_formula_sum "Si O2"
_cell_formula_units_Z 56
_cell_length_a 17.230800
_cell_length_b 19.403755
_cell_length_c 12.387668
_cell_angle_alpha 90.000000
_cell_angle_beta 34.519539
_cell_angle_gamma 90.000000
_cell_volume 2347.060156
_symmetry_space_group_name_H-M "C 2/M"
_symmetry_group_IT_number 12
_symmetry_cell_setting 'monoclinic'
loop_
_space_group_symop_operation_xyz
x,y,z
-x,y,-z
-x,-y,-z
x,-y,z
1/2+x,1/2+y,z
1/2-x,1/2+y,-z
1/2-x,1/2-y,-z
1/2+x,1/2-y,z
loop_
_atom_site_type_symbol
_atom_site_label
_atom_site_fract_x
_atom_site_fract_y
_atom_site_fract_z
Si Si1 0.883614 0.922572 0.041651
Si Si2 0.834597 0.275374 0.055323
Si Si3 0.068471 0.575128 0.039555
Si Si4 0.719962 0.923452 0.522707
Si Si5 0.268942 0.812916 0.668218
Si Si6 0.961706 0.770002 0.697635
Si Si7 0.476997 0.576653 0.354333
O O1 0.761866 0.869551 0.203542
O O2 0.832088 0.000000 0.112018
O O3 0.000000 0.910823 0.000000
O O4 0.952632 0.919061 0.845229
O O5 0.836104 0.247139 0.175876
O O6 0.685479 0.252948 0.183281
O O7 0.843180 0.357535 0.042667
O O8 0.943822 0.243080 0.847112
O O9 0.136329 0.500000 0.974326
O O10 0.939519 0.578744 0.268140
O O11 0.000000 0.578197 0.000000
O O12 0.757766 0.858042 0.407565
O O13 0.813630 0.921480 0.521473
O O14 0.750505 0.000000 0.439965
O O15 0.416128 0.778051 0.483706
O O16 0.987410 0.849644 0.637733
O O17 0.511540 0.500000 0.358684
#
# Coordination Sequence:
#
# PCOD9187720 Si02
#       7
#     8   8   8   8   8   8   8
#     4  10  19  35  60  94 131 162 200 262 327 380
#     4  11  25  44  62  89 129 167 216 262 312 375
#     4  10  23  44  68  94 125 164 210 262 318 378
#     4  10  21  39  66  99 129 158 203 265 324 378
#     4  12  22  39  64  91 128 167 211 259 319 371
#     4  11  25  43  61  87 128 177 213 258 310 376
#     4  10  21  39  62  91 126 164 208 258 314 376
#
# _framework density 23.859636999999999
#
# number of rings (size 3 to 8) (size 9 to 14) (size 15 to 20)
#    0.000    1.429    4.286    0.857    2.000    2.857 
#    0.000    0.000    0.000    8.571    0.000    0.000 
#    0.000    0.000    0.000    0.000    0.000    0.000 
#
# Total GULP energy -156421.013893 kJ/mol
# GULP energy per Si atom -5586.464782 kJ/mol
# Density = 2.380533 g / cm^3
# Si number density = 23.859637 Si / 1000 Ang^3
#
#
#
# Elastic Constant Matrix: (Units=GPa)
#
#
# Indices 1 2 3 4 5 6 
#
# 1 33.9160 33.3760 27.4608 0.0000 0.9835 0.0030
# 2 33.3760 210.3442 61.5961 0.0006 -15.5937 0.0035
# 3 27.4608 61.5961 116.9466 0.0003 -5.3639 0.0052
# 4 0.0000 0.0006 0.0003 40.3976 -0.0002 11.7844
# 5 0.9835 -15.5937 -5.3639 -0.0002 31.5543 -0.0035
# 6 0.0030 0.0035 0.0052 11.7844 -0.0035 124.5236
#
#
#
# Elastic Compliance Matrix: (Units=1/GPa)
#
#
# Indices 1 2 3 4 5 6 
#
# 1 0.039951 -0.004587 -0.007182 0.000000 -0.004733 -0.000001
# 2 -0.004587 0.006317 -0.002117 0.000000 0.002905 0.000000
# 3 -0.007182 -0.002117 0.011404 0.000000 0.001116 0.000000
# 4 0.000000 0.000000 0.000000 0.025457 0.000000 -0.002409
# 5 -0.004733 0.002905 0.001116 0.000000 0.033464 0.000001
# 6 -0.000001 0.000000 0.000000 -0.002409 0.000001 0.008259
#
#
# Mechanical properties :
#
#
# Convention : Reuss Voigt Hill
#
# Bulk Modulus (GPa) = 33.44525 67.34140 50.39332
# Shear Modulus (GPa) = 30.75223 55.21337 42.98280
#
# Velocity S-wave (km/s) = 3.59399 4.81572 4.24900
# Velocity P-wave (km/s) = 5.59199 7.69459 6.72596
#
# Compressibility (1/GPa) = 0.02989961
#
# Stress axis : x y z
#
# Youngs Moduli (GPa) = 25.03076 158.29794 87.69129
#
# Poissons Ratio (x) = 0.72608 0.62982
# Poissons Ratio (y) = 0.11481 0.18564
# Poissons Ratio (z) = 0.17978 0.33512
#
# Static dielectric constant tensor:
#      x y z
#    x 1.975340 0.000000 0.065900 
#    y 0.000000 1.924620 0.000000 
#    z 0.065900 0.000000 1.940290 
# 
# From -- ./inp_files/240878.got.cif
#   From: 2010.05.17/outbox.cif.g08.bks.cpg/sg12_121_cif.got.tgz:240878.got - 2010.06.03 13:09:07.
