data_PCOD9188408
_publ_section_title
;
Structure prediction by ZEFSAII (Michael W. Deem and Ramdas Pophale) SiO2 
 PCOD9188408
Probable space group: C 2/M
;
_chemical_formula_sum "Si O2"
_cell_formula_units_Z 64
_cell_length_a 16.072575
_cell_length_b 7.733750
_cell_length_c 29.297061
_cell_angle_alpha 90.000000
_cell_angle_beta 56.682216
_cell_angle_gamma 90.000000
_cell_volume 3043.107259
_symmetry_space_group_name_H-M "C 2/M"
_symmetry_group_IT_number 12
_symmetry_cell_setting 'monoclinic'
loop_
_space_group_symop_operation_xyz
x,y,z
-x,y,-z
-x,-y,-z
x,-y,z
1/2+x,1/2+y,z
1/2-x,1/2+y,-z
1/2-x,1/2-y,-z
1/2+x,1/2-y,z
loop_
_atom_site_type_symbol
_atom_site_label
_atom_site_fract_x
_atom_site_fract_y
_atom_site_fract_z
Si Si1 0.009286 0.787846 0.865288
Si Si2 0.860390 0.208832 0.259989
Si Si3 0.870364 0.792394 0.671814
Si Si4 0.782694 0.294024 0.439019
Si Si5 0.909761 0.211288 0.559082
Si Si6 0.218597 0.794613 0.061174
Si Si7 0.456354 0.701634 0.323821
Si Si8 0.413066 0.707008 0.059846
O O1 0.894194 0.728761 0.897377
O O2 0.072118 0.732046 0.802473
O O3 0.062481 0.730995 0.896341
O O4 0.008232 0.000000 0.865809
O O5 0.745664 0.257024 0.288936
O O6 0.902773 0.276909 0.295499
O O7 0.863372 0.000000 0.259768
O O8 0.910355 0.727559 0.610869
O O9 0.938542 0.722495 0.692054
O O10 0.882802 0.000000 0.667267
O O11 0.793021 0.500000 0.432468
O O12 0.750000 0.250000 0.500000
O O13 0.693773 0.236407 0.432633
O O14 0.883505 0.213613 0.389381
O O15 0.000000 0.270156 0.500000
O O16 0.912498 0.000000 0.558484
O O17 0.304798 0.739924 0.070584
O O18 0.213252 0.000000 0.066058
O O19 0.250000 0.750000 0.000000
O O20 0.472306 0.500000 0.308304
O O21 0.423861 0.500000 0.058170
O O22 0.500000 0.774346 0.000000
#
# Coordination Sequence:
#
# PCOD9188408 Si02
#       8
#     8   8   8   8   8   8   8   8
#     4   9  20  38  58  81 117 159 192 230 293 353
#     4  10  21  39  60  83 114 153 194 237 283 339
#     4  10  20  37  59  82 111 150 190 233 285 342
#     4  11  21  34  55  82 114 149 186 233 286 344
#     4   9  17  31  52  77 106 141 179 219 275 338
#     4  11  21  36  59  88 120 155 196 241 292 349
#     4  10  21  37  59  83 112 149 189 232 286 343
#     4  10  19  36  59  83 115 159 198 237 293 348
#
# _framework density 21.031136
#
# number of rings (size 3 to 8) (size 9 to 14) (size 15 to 20)
#    0.000    2.000    2.500    1.500    0.000    3.750 
#    0.000    3.125    0.000    1.875    0.000    0.000 
#    0.000    0.000    0.000    0.000    0.000    0.000 
#
# Total GULP energy -178705.010593 kJ/mol
# GULP energy per Si atom -5584.531581 kJ/mol
# Density = 2.098327 g / cm^3
# Si number density = 21.031136 Si / 1000 Ang^3
#
#
#
# Elastic Constant Matrix: (Units=GPa)
#
#
# Indices 1 2 3 4 5 6 
#
# 1 210.4729 0.9542 86.5413 0.0001 -4.5662 -0.0002
# 2 0.9542 30.0734 -8.4178 0.0000 3.3646 -0.0006
# 3 86.5413 -8.4178 138.5637 0.0002 -7.8886 0.0002
# 4 0.0001 0.0000 0.0002 11.8298 0.0001 -3.8593
# 5 -4.5662 3.3646 -7.8886 0.0001 30.5008 0.0000
# 6 -0.0002 -0.0006 0.0002 -3.8593 0.0000 21.2219
#
#
#
# Elastic Compliance Matrix: (Units=1/GPa)
#
#
# Indices 1 2 3 4 5 6 
#
# 1 0.006447 -0.001360 -0.004106 0.000000 0.000053 0.000000
# 2 -0.001360 0.034434 0.002754 0.000000 -0.003290 0.000001
# 3 -0.004106 0.002754 0.010044 0.000000 0.001679 0.000000
# 4 0.000000 0.000000 0.000000 0.089863 0.000000 0.016342
# 5 0.000053 -0.003290 0.001679 0.000000 0.033591 0.000000
# 6 0.000000 0.000001 0.000000 0.016342 0.000000 0.050093
#
#
# Mechanical properties :
#
#
# Convention : Reuss Voigt Hill
#
# Bulk Modulus (GPa) = 21.97742 59.69616 40.83679
# Shear Modulus (GPa) = 20.40286 32.71267 26.55777
#
# Velocity S-wave (km/s) = 3.11806 3.94819 3.55742
# Velocity P-wave (km/s) = 4.84105 7.01644 6.02770
#
# Compressibility (1/GPa) = 0.04550124
#
# Stress axis : x y z
#
# Youngs Moduli (GPa) = 155.11555 29.04101 99.55955
#
# Poissons Ratio (x) = 0.03949 0.40879
# Poissons Ratio (y) = 0.21093 -0.27418
# Poissons Ratio (z) = 0.63690 -0.07998
#
# Static dielectric constant tensor:
#      x y z
#    x 1.761330 0.000000 0.007410 
#    y 0.000000 1.774640 0.000000 
#    z 0.007410 0.000000 1.730940 
# 
# From -- ./inp_files/375066.got.cif
#   From: 2010.05.17/outbox.cif.g08.bks.cpg/sg12_188_cif.got.tgz:375066.got - 2010.06.03 13:09:07.
