data_PCOD9188181
_publ_section_title
;
Structure prediction by ZEFSAII (Michael W. Deem and Ramdas Pophale) SiO2 
 PCOD9188181
Probable space group: C 2/M
;
_chemical_formula_sum "Si O2"
_cell_formula_units_Z 58
_cell_length_a 32.436719
_cell_length_b 7.595960
_cell_length_c 25.145237
_cell_angle_alpha 90.000000
_cell_angle_beta 152.865356
_cell_angle_gamma 90.000000
_cell_volume 2825.656032
_symmetry_space_group_name_H-M "C 2/M"
_symmetry_group_IT_number 12
_symmetry_cell_setting 'monoclinic'
loop_
_space_group_symop_operation_xyz
x,y,z
-x,y,-z
-x,-y,-z
x,-y,z
1/2+x,1/2+y,z
1/2-x,1/2+y,-z
1/2-x,1/2-y,-z
1/2+x,1/2-y,z
loop_
_atom_site_type_symbol
_atom_site_label
_atom_site_fract_x
_atom_site_fract_y
_atom_site_fract_z
Si Si1 0.304417 0.791078 0.616096
Si Si2 0.191974 0.791743 0.880403
Si Si3 0.500000 0.000000 0.000000
Si Si4 0.664605 0.290544 0.042462
Si Si5 0.350696 0.293323 0.853122
Si Si6 0.509668 0.293775 0.216810
Si Si7 0.802424 0.214011 0.401930
Si Si8 0.511831 0.284169 0.339021
O O1 0.250000 0.750000 0.500000
O O2 0.405355 0.722015 0.724280
O O3 0.251545 0.726983 0.607027
O O4 0.310911 0.000000 0.628311
O O5 0.246886 0.739893 0.891026
O O6 0.089550 0.721689 0.764830
O O7 0.183374 0.000000 0.870149
O O8 0.250000 0.750000 0.000000
O O9 0.420977 0.156871 0.907765
O O10 0.652576 0.500000 0.031849
O O11 0.662110 0.231621 0.100406
O O12 0.579538 0.214642 0.911993
O O13 0.380044 0.500000 0.885323
O O14 0.254753 0.280990 0.713184
O O15 0.491005 0.500000 0.203743
O O16 0.531868 0.226145 0.301216
O O17 0.906271 0.271135 0.528897
O O18 0.801535 0.000000 0.399513
O O19 0.512767 0.500000 0.341322
#
# Coordination Sequence:
#
# PCOD9188181 Si02
#       8
#     8   8   2   8   8   8   8   8
#     4  11  22  34  54  85 120 161 205 252 315 384
#     4  11  21  36  63  95 128 169 216 271 337 397
#     4  12  26  48  72  94 134 172 230 276 328 386
#     4  10  23  42  63  90 129 162 210 275 332 391
#     4  11  26  45  68  99 132 177 224 274 331 392
#     4  10  19  36  57  81 119 160 198 254 319 378
#     4  10  21  41  62  84 126 174 217 269 325 395
#     4   9  18  36  60  87 120 165 212 254 321 394
#
# _framework density 20.526206999999999
#
# number of rings (size 3 to 8) (size 9 to 14) (size 15 to 20)
#    0.000    1.655    3.448    1.034    2.897    1.655 
#    0.000    2.069    0.000    4.138    0.000    0.000 
#    0.000    0.000    0.000    0.000    0.000    0.000 
#
# Total GULP energy -161658.740900 kJ/mol
# GULP energy per Si atom -5574.439341 kJ/mol
# Density = 2.047949 g / cm^3
# Si number density = 20.526207 Si / 1000 Ang^3
#
#
#
# Elastic Constant Matrix: (Units=GPa)
#
#
# Indices 1 2 3 4 5 6 
#
# 1 23.3289 2.2746 46.7818 0.0000 4.0379 0.0000
# 2 2.2746 64.1782 22.1006 0.0000 -8.9783 0.0000
# 3 46.7818 22.1006 156.8944 0.0000 13.5600 0.0000
# 4 0.0000 0.0000 0.0000 22.8048 0.0000 2.7609
# 5 4.0379 -8.9783 13.5600 0.0000 32.6276 0.0000
# 6 0.0000 0.0000 0.0000 2.7609 0.0000 21.5980
#
#
#
# Elastic Compliance Matrix: (Units=1/GPa)
#
#
# Indices 1 2 3 4 5 6 
#
# 1 0.110442 0.008321 -0.034354 0.000000 0.002899 0.000000
# 2 0.008321 0.018080 -0.005569 0.000000 0.006260 0.000000
# 3 -0.034354 -0.005569 0.017806 0.000000 -0.004681 0.000000
# 4 0.000000 0.000000 0.000000 0.044540 0.000000 -0.005693
# 5 0.002899 0.006260 -0.004681 0.000000 0.033958 0.000000
# 6 0.000000 0.000000 0.000000 -0.005693 0.000000 0.047028
#
#
# Mechanical properties :
#
#
# Convention : Reuss Voigt Hill
#
# Bulk Modulus (GPa) = 12.02997 42.96840 27.49919
# Shear Modulus (GPa) = 13.78300 26.95573 20.36936
#
# Velocity S-wave (km/s) = 2.59411 3.62779 3.15359
# Velocity P-wave (km/s) = 3.85306 6.20699 5.16589
#
# Compressibility (1/GPa) = 0.08312574
#
# Stress axis : x y z
#
# Youngs Moduli (GPa) = 9.05452 55.30909 56.16042
#
# Poissons Ratio (x) = -0.46025 1.92932
# Poissons Ratio (y) = -0.07535 0.31276
# Poissons Ratio (z) = 0.31106 0.30802
#
# Static dielectric constant tensor:
#      x y z
#    x 1.710250 0.000000 0.002670 
#    y 0.000000 1.774540 0.000000 
#    z 0.002670 0.000000 1.739680 
# 
# From -- ./inp_files/353095.got.cif
#   From: 2010.05.17/outbox.cif.g08.bks.cpg/sg12_177_cif.got.tgz:353095.got - 2010.06.03 13:09:07.
