data_PCOD9188804
_publ_section_title
;
Structure prediction by ZEFSAII (Michael W. Deem and Ramdas Pophale) SiO2 
 PCOD9188804
Probable space group: C 2/M
;
_chemical_formula_sum "Si O2"
_cell_formula_units_Z 60
_cell_length_a 20.413680
_cell_length_b 9.256897
_cell_length_c 16.958940
_cell_angle_alpha 90.000000
_cell_angle_beta 52.518066
_cell_angle_gamma 90.000000
_cell_volume 2543.063088
_symmetry_space_group_name_H-M "C 2/M"
_symmetry_group_IT_number 12
_symmetry_cell_setting 'monoclinic'
loop_
_space_group_symop_operation_xyz
x,y,z
-x,y,-z
-x,-y,-z
x,-y,z
1/2+x,1/2+y,z
1/2-x,1/2+y,-z
1/2-x,1/2-y,-z
1/2+x,1/2-y,z
loop_
_atom_site_type_symbol
_atom_site_label
_atom_site_fract_x
_atom_site_fract_y
_atom_site_fract_z
Si Si1 0.823837 0.341100 0.371658
Si Si2 0.525326 0.500000 0.825379
Si Si3 0.434504 0.661721 0.754124
Si Si4 0.683069 0.676750 0.356804
Si Si5 0.869663 0.652377 0.035625
Si Si6 0.054811 0.702022 0.852658
Si Si7 0.072420 0.323121 0.557517
Si Si8 0.782715 0.671405 0.836439
O O1 0.792078 0.500000 0.416799
O O2 0.756107 0.274488 0.363652
O O3 0.902588 0.352415 0.257388
O O4 0.858649 0.276393 0.426692
O O5 0.488548 0.622953 0.790983
O O6 0.561053 0.373406 0.854399
O O7 0.413067 0.500000 0.737608
O O8 0.488773 0.753940 0.652939
O O9 0.354925 0.754888 0.834548
O O10 0.681215 0.500000 0.355608
O O11 0.601841 0.747856 0.455525
O O12 0.702679 0.748440 0.258528
O O13 0.828510 0.500000 0.043582
O O14 0.892417 0.648496 0.111520
O O15 0.807270 0.782629 0.067149
O O16 0.959465 0.661091 0.931329
O O17 0.068945 0.500000 0.555775
O O18 0.791554 0.500000 0.823943
#
# Coordination Sequence:
#
# PCOD9188804 Si02
#       8
#     8   4   8   8   8   8   8   8
#     4  10  19  36  61  92 131 171 212 265 328 393
#     4  10  24  41  70 101 132 175 219 283 327 400
#     4  10  22  45  68  89 126 175 223 268 328 390
#     4  11  23  39  63  95 130 176 221 271 338 393
#     4  11  24  41  69 104 138 175 216 271 336 403
#     4  11  21  39  69 101 136 169 218 271 330 401
#     4  11  22  39  63  96 133 171 223 274 327 395
#     4  12  26  44  66  95 133 176 224 282 330 390
#
# _framework density 23.593595000000001
#
# number of rings (size 3 to 8) (size 9 to 14) (size 15 to 20)
#    0.400    0.800    2.667    4.400    1.867    1.067 
#    1.200    3.333    0.000    0.000    0.000    0.000 
#    0.000    0.000    0.000    0.000    0.000    0.000 
#
# Total GULP energy -167057.512023 kJ/mol
# GULP energy per Si atom -5568.583734 kJ/mol
# Density = 2.353989 g / cm^3
# Si number density = 23.593595 Si / 1000 Ang^3
#
#
#
# Elastic Constant Matrix: (Units=GPa)
#
#
# Indices 1 2 3 4 5 6 
#
# 1 45.5906 18.4183 1.5104 0.0000 -9.2576 0.0000
# 2 18.4183 197.7781 21.2001 -0.0001 -14.2943 0.0001
# 3 1.5104 21.2001 63.0339 0.0000 -0.4586 0.0000
# 4 0.0000 -0.0001 0.0000 60.3036 0.0000 -14.6701
# 5 -9.2576 -14.2943 -0.4586 0.0000 33.0876 0.0000
# 6 0.0000 0.0001 0.0000 -14.6701 0.0000 34.6142
#
#
#
# Elastic Compliance Matrix: (Units=1/GPa)
#
#
# Indices 1 2 3 4 5 6 
#
# 1 0.023858 -0.001804 0.000078 0.000000 0.005897 0.000000
# 2 -0.001804 0.005553 -0.001811 0.000000 0.001869 0.000000
# 3 0.000078 -0.001811 0.016468 0.000000 -0.000532 0.000000
# 4 0.000000 0.000000 0.000000 0.018489 0.000000 0.007836
# 5 0.005897 0.001869 -0.000532 0.000000 0.032673 0.000000
# 6 0.000000 0.000000 0.000000 0.007836 0.000000 0.032211
#
#
# Mechanical properties :
#
#
# Convention : Reuss Voigt Hill
#
# Bulk Modulus (GPa) = 25.76966 43.18445 34.47705
# Shear Modulus (GPa) = 33.49839 43.28602 38.39221
#
# Velocity S-wave (km/s) = 3.77212 4.28793 4.03827
# Velocity P-wave (km/s) = 5.46973 6.54663 6.03226
#
# Compressibility (1/GPa) = 0.03880533
#
# Stress axis : x y z
#
# Youngs Moduli (GPa) = 41.91467 180.07035 60.72453
#
# Poissons Ratio (x) = 0.32484 -0.00473
# Poissons Ratio (y) = 0.07561 0.10997
# Poissons Ratio (z) = -0.00327 0.32610
#
# Static dielectric constant tensor:
#      x y z
#    x 1.955000 0.000000 -0.019860 
#    y 0.000000 1.920280 0.000000 
#    z -0.019860 0.000000 1.895630 
# 
# From -- ./inp_files/320505.got.cif
#   From: 2010.05.17/outbox.cif.g08.bks.cpg/sg12_161_cif.got.tgz:320505.got - 2010.06.03 13:09:07.
