data_PCOD9188233
_publ_section_title
;
Structure prediction by ZEFSAII (Michael W. Deem and Ramdas Pophale) SiO2 
 PCOD9188233
Probable space group: C 2/M
;
_chemical_formula_sum "Si O2"
_cell_formula_units_Z 64
_cell_length_a 15.186857
_cell_length_b 7.877873
_cell_length_c 30.461591
_cell_angle_alpha 90.000000
_cell_angle_beta 119.896229
_cell_angle_gamma 90.000000
_cell_volume 3159.462979
_symmetry_space_group_name_H-M "C 2/M"
_symmetry_group_IT_number 12
_symmetry_cell_setting 'monoclinic'
loop_
_space_group_symop_operation_xyz
x,y,z
-x,y,-z
-x,-y,-z
x,-y,z
1/2+x,1/2+y,z
1/2-x,1/2+y,-z
1/2-x,1/2-y,-z
1/2+x,1/2-y,z
loop_
_atom_site_type_symbol
_atom_site_label
_atom_site_fract_x
_atom_site_fract_y
_atom_site_fract_z
Si Si1 0.438382 0.295267 0.619745
Si Si2 0.103848 0.800904 0.004704
Si Si3 0.046598 0.197401 0.813756
Si Si4 0.241952 0.793787 0.363118
Si Si5 0.893508 0.207798 0.268165
Si Si6 0.678218 0.800009 0.249684
Si Si7 0.330392 0.801646 0.072172
Si Si8 0.035111 0.297639 0.555763
O O1 0.441278 0.500000 0.619768
O O2 0.333729 0.243702 0.616650
O O3 0.529822 0.236055 0.674423
O O4 0.456068 0.233603 0.575056
O O5 0.109746 0.783250 0.953412
O O6 0.104457 0.000000 0.016875
O O7 0.214746 0.731865 0.047077
O O8 0.000000 0.728241 0.000000
O O9 0.070955 0.264345 0.770977
O O10 0.109294 0.284049 0.867797
O O11 0.926117 0.213978 0.790080
O O12 0.075201 0.000000 0.821668
O O13 0.199273 0.728349 0.306467
O O14 0.355576 0.731567 0.400873
O O15 0.241656 0.000000 0.360205
O O16 0.779290 0.262249 0.250316
O O17 0.896192 0.000000 0.269416
O O18 0.667384 0.000000 0.238664
O O19 0.322179 0.000000 0.058370
O O20 0.047903 0.500000 0.553881
O O21 0.000000 0.228732 0.500000
#
# Coordination Sequence:
#
# PCOD9188233 Si02
#       8
#     8   8   8   8   8   8   8   8
#     4  10  19  36  58  79 105 142 186 224 271 335
#     4   9  19  38  63  87 116 155 196 235 282 335
#     4  11  22  39  58  80 116 156 189 227 282 338
#     4  10  20  36  57  78 107 146 181 219 276 339
#     4   9  19  35  55  79 109 144 182 226 276 333
#     4  11  21  35  56  83 110 140 184 234 278 328
#     4  10  21  37  57  87 121 151 191 240 283 328
#     4  10  22  38  55  81 114 143 179 231 283 330
#
# _framework density 20.256606999999999
#
# number of rings (size 3 to 8) (size 9 to 14) (size 15 to 20)
#    0.000    2.000    2.500    1.125    0.000    3.000 
#    0.000    5.000    0.000    0.000    0.000    0.000 
#    0.000    0.000    0.000    0.000    0.000    0.000 
#
# Total GULP energy -178666.505291 kJ/mol
# GULP energy per Si atom -5583.328290 kJ/mol
# Density = 2.021050 g / cm^3
# Si number density = 20.256607 Si / 1000 Ang^3
#
#
#
# Elastic Constant Matrix: (Units=GPa)
#
#
# Indices 1 2 3 4 5 6 
#
# 1 90.0177 3.2680 -12.1143 0.0000 1.1898 0.0000
# 2 3.2680 18.0811 1.6558 0.0000 3.5405 0.0000
# 3 -12.1143 1.6558 52.9183 0.0000 0.6229 0.0000
# 4 0.0000 0.0000 0.0000 21.4716 0.0000 -5.7445
# 5 1.1898 3.5405 0.6229 0.0000 18.3462 0.0000
# 6 0.0000 0.0000 0.0000 -5.7445 0.0000 15.3574
#
#
#
# Elastic Compliance Matrix: (Units=1/GPa)
#
#
# Indices 1 2 3 4 5 6 
#
# 1 0.011563 -0.002260 0.002722 0.000000 -0.000406 0.000000
# 2 -0.002260 0.058068 -0.002205 0.000000 -0.010984 0.000000
# 3 0.002722 -0.002205 0.019594 0.000000 -0.000416 0.000000
# 4 0.000000 0.000000 0.000000 0.051752 0.000000 0.019358
# 5 -0.000406 -0.010984 -0.000416 0.000000 0.056667 0.000000
# 6 0.000000 0.000000 0.000000 0.019358 0.000000 0.072356
#
#
# Mechanical properties :
#
#
# Convention : Reuss Voigt Hill
#
# Bulk Modulus (GPa) = 11.66312 16.29289 13.97801
# Shear Modulus (GPa) = 16.55275 22.24888 19.40082
#
# Velocity S-wave (km/s) = 2.86169 3.31773 3.09812
# Velocity P-wave (km/s) = 4.08524 4.76835 4.43996
#
# Compressibility (1/GPa) = 0.08574038
#
# Stress axis : x y z
#
# Youngs Moduli (GPa) = 86.48491 17.22131 51.03558
#
# Poissons Ratio (x) = 0.03891 -0.13894
# Poissons Ratio (y) = 0.19542 0.11253
# Poissons Ratio (z) = -0.23545 0.03797
#
# Static dielectric constant tensor:
#      x y z
#    x 1.719930 0.000000 0.010630 
#    y 0.000000 1.750310 0.000000 
#    z 0.010630 0.000000 1.680700 
# 
# From -- ./inp_files/375098.got.cif
#   From: 2010.05.17/outbox.cif.g08.bks.cpg/sg12_188_cif.got.tgz:375098.got - 2010.06.03 13:09:07.
