data_PCOD9188847
_publ_section_title
;
Structure prediction by ZEFSAII (Michael W. Deem and Ramdas Pophale) SiO2 
 PCOD9188847
Probable space group: C 2/M
;
_chemical_formula_sum "Si O2"
_cell_formula_units_Z 56
_cell_length_a 28.358321
_cell_length_b 16.307810
_cell_length_c 9.997258
_cell_angle_alpha 90.000000
_cell_angle_beta 37.688536
_cell_angle_gamma 90.000000
_cell_volume 2826.573411
_symmetry_space_group_name_H-M "C 2/M"
_symmetry_group_IT_number 12
_symmetry_cell_setting 'monoclinic'
loop_
_space_group_symop_operation_xyz
x,y,z
-x,y,-z
-x,-y,-z
x,-y,z
1/2+x,1/2+y,z
1/2-x,1/2+y,-z
1/2-x,1/2-y,-z
1/2+x,1/2-y,z
loop_
_atom_site_type_symbol
_atom_site_label
_atom_site_fract_x
_atom_site_fract_y
_atom_site_fract_z
Si Si1 0.286793 0.404699 0.606545
Si Si2 0.811449 0.405603 0.908775
Si Si3 0.091742 0.908164 0.299312
Si Si4 0.800126 0.327125 0.429092
Si Si5 0.219473 0.909703 0.842530
Si Si6 0.428690 0.763583 0.555392
Si Si7 0.072594 0.225197 0.748624
O O1 0.310682 0.500000 0.562058
O O2 0.226392 0.393590 0.619329
O O3 0.361267 0.345534 0.418447
O O4 0.236432 0.383281 0.851085
O O5 0.841221 0.500000 0.858091
O O6 0.752873 0.407774 0.916194
O O7 0.874550 0.338568 0.723357
O O8 0.111248 0.825414 0.333518
O O9 0.000000 0.910874 0.500000
O O10 0.115536 0.000000 0.293445
O O11 0.129018 0.896108 0.068690
O O12 0.750000 0.250000 0.500000
O O13 0.766968 0.349172 0.647732
O O14 0.886971 0.297888 0.255585
O O15 0.230516 0.000000 0.760168
O O16 0.500000 0.765644 0.500000
O O17 0.448112 0.760573 0.353043
O O18 0.000000 0.195974 0.000000
#
# Coordination Sequence:
#
# PCOD9188847 Si02
#       7
#     8   8   8   8   8   8   8
#     4  10  23  42  66  97 130 170 213 269 331 388
#     4  10  22  40  65  94 123 160 219 276 319 377
#     4   9  20  35  56  92 128 158 204 259 315 386
#     4  10  22  38  61  90 125 170 215 259 309 386
#     4  10  19  36  62  87 119 163 210 258 312 375
#     4  11  24  39  66  92 129 173 213 263 334 382
#     4  11  25  42  61  95 134 170 215 266 322 398
#
# _framework density 19.811973999999999
#
# number of rings (size 3 to 8) (size 9 to 14) (size 15 to 20)
#    0.000    1.857    1.429    1.286    6.000    6.857 
#    0.000    1.429    0.000    2.143    0.000    0.000 
#    0.000    0.000    0.000    0.000    0.000    0.000 
#
# Total GULP energy -155935.626199 kJ/mol
# GULP energy per Si atom -5569.129507 kJ/mol
# Density = 1.976688 g / cm^3
# Si number density = 19.811974 Si / 1000 Ang^3
#
#
#
# Elastic Constant Matrix: (Units=GPa)
#
#
# Indices 1 2 3 4 5 6 
#
# 1 87.8018 24.6567 35.2962 0.0000 11.4765 0.0000
# 2 24.6567 93.2819 64.6281 0.0000 -7.1885 0.0000
# 3 35.2962 64.6281 108.4495 0.0000 12.0750 0.0000
# 4 0.0000 0.0000 0.0000 37.3842 0.0000 -0.4999
# 5 11.4765 -7.1885 12.0750 0.0000 25.1268 0.0000
# 6 0.0000 0.0000 0.0000 -0.4999 0.0000 21.9044
#
#
#
# Elastic Compliance Matrix: (Units=1/GPa)
#
#
# Indices 1 2 3 4 5 6 
#
# 1 0.013800 -0.002452 -0.002377 0.000000 -0.005862 0.000000
# 2 -0.002452 0.022143 -0.013975 0.000000 0.014171 0.000000
# 3 -0.002377 -0.013975 0.019701 0.000000 -0.012380 0.000000
# 4 0.000000 0.000000 0.000000 0.026757 0.000000 0.000611
# 5 -0.005862 0.014171 -0.012380 0.000000 0.052479 0.000000
# 6 0.000000 0.000000 0.000000 0.000611 0.000000 0.045667
#
#
# Mechanical properties :
#
#
# Convention : Reuss Voigt Hill
#
# Bulk Modulus (GPa) = 55.44980 59.85503 57.65241
# Shear Modulus (GPa) = 22.30467 27.87990 25.09229
#
# Velocity S-wave (km/s) = 3.35896 3.75537 3.56268
# Velocity P-wave (km/s) = 6.56447 7.00577 6.78871
#
# Compressibility (1/GPa) = 0.01803433
#
# Stress axis : x y z
#
# Youngs Moduli (GPa) = 72.46452 45.16133 50.75846
#
# Poissons Ratio (x) = 0.11076 0.12066
# Poissons Ratio (y) = 0.17772 0.70936
# Poissons Ratio (z) = 0.17226 0.63114
#
# Static dielectric constant tensor:
#      x y z
#    x 1.751520 0.000000 -0.013080 
#    y 0.000000 1.731090 0.000000 
#    z -0.013080 0.000000 1.728440 
# 
# From -- ./inp_files/105978.got.cif
#   From: 2010.05.17/outbox.cif.g08.bks.cpg/sg12_53_cif.got.tgz:105978.got - 2010.06.03 13:09:07.
