data_PCOD9188922
_publ_section_title
;
Structure prediction by ZEFSAII (Michael W. Deem and Ramdas Pophale) SiO2 
 PCOD9188922
Probable space group: C 2/M
;
_chemical_formula_sum "Si O2"
_cell_formula_units_Z 60
_cell_length_a 26.583300
_cell_length_b 16.401324
_cell_length_c 21.976228
_cell_angle_alpha 90.000000
_cell_angle_beta 18.946025
_cell_angle_gamma 90.000000
_cell_volume 3110.948833
_symmetry_space_group_name_H-M "C 2/M"
_symmetry_group_IT_number 12
_symmetry_cell_setting 'monoclinic'
loop_
_space_group_symop_operation_xyz
x,y,z
-x,y,-z
-x,-y,-z
x,-y,z
1/2+x,1/2+y,z
1/2-x,1/2+y,-z
1/2-x,1/2-y,-z
1/2+x,1/2-y,z
loop_
_atom_site_type_symbol
_atom_site_label
_atom_site_fract_x
_atom_site_fract_y
_atom_site_fract_z
Si Si1 0.095962 0.908828 0.785517
Si Si2 0.896069 0.294404 0.892363
Si Si3 0.276516 0.094382 0.786117
Si Si4 0.000000 0.336797 0.000000
Si Si5 0.407714 0.201150 0.742989
Si Si6 0.081890 0.404668 0.776166
Si Si7 0.233305 0.291332 0.316097
Si Si8 0.653527 0.331189 0.594474
O O1 0.165986 0.844416 0.751857
O O2 0.158243 0.890049 0.647127
O O3 0.136873 0.000000 0.758746
O O4 0.910568 0.901837 0.995186
O O5 0.911652 0.332297 0.807442
O O6 0.977926 0.349210 0.849691
O O7 0.982621 0.206532 0.784882
O O8 0.721067 0.272252 0.109705
O O9 0.352477 0.132535 0.759045
O O10 0.314107 0.151517 0.685909
O O11 0.319226 0.000000 0.728391
O O12 0.032564 0.386844 0.901581
O O13 0.152042 0.280245 0.835808
O O14 0.575958 0.232800 0.530367
O O15 0.067490 0.500000 0.778689
O O16 0.258074 0.374316 0.561756
O O17 0.750000 0.250000 0.500000
#
# Coordination Sequence:
#
# PCOD9188922 Si02
#       8
#     8   8   8   4   8   8   8   8
#     4  11  21  37  60  88 123 158 195 248 307 359
#     4  10  21  41  62  86 122 155 205 253 301 355
#     4  11  23  38  56  86 127 161 194 241 302 361
#     4  12  23  40  63  88 124 152 210 260 305 346
#     4  11  23  38  61  88 118 162 205 246 299 361
#     4  11  23  39  63  92 121 159 201 253 308 361
#     4  12  22  38  63  88 119 166 205 245 299 365
#     4  10  19  36  63  89 116 150 200 249 293 352
#
# _framework density 19.286719999999999
#
# number of rings (size 3 to 8) (size 9 to 14) (size 15 to 20)
#    0.000    1.067    2.667    6.200    0.000    3.200 
#    0.000    0.000    0.000    2.400    0.000    0.000 
#    0.000    0.000    0.000    0.000    0.000    0.000 
#
# Total GULP energy -167616.198702 kJ/mol
# GULP energy per Si atom -5587.206623 kJ/mol
# Density = 1.924282 g / cm^3
# Si number density = 19.286720 Si / 1000 Ang^3
#
#
#
# Elastic Constant Matrix: (Units=GPa)
#
#
# Indices 1 2 3 4 5 6 
#
# 1 95.8783 26.4143 13.4970 0.0011 15.8227 -0.0001
# 2 26.4143 71.0180 38.3246 0.0029 5.9575 -0.0018
# 3 13.4970 38.3246 107.9981 0.0011 12.8630 -0.0042
# 4 0.0011 0.0029 0.0011 18.4718 -0.0003 0.0858
# 5 15.8227 5.9575 12.8630 -0.0003 31.5259 -0.0007
# 6 -0.0001 -0.0018 -0.0042 0.0858 -0.0007 10.4663
#
#
#
# Elastic Compliance Matrix: (Units=1/GPa)
#
#
# Indices 1 2 3 4 5 6 
#
# 1 0.012533 -0.004581 0.000741 0.000000 -0.005727 -0.000001
# 2 -0.004581 0.019110 -0.006362 -0.000002 0.001284 0.000001
# 3 0.000741 -0.006362 0.011904 0.000000 -0.004027 0.000003
# 4 0.000000 -0.000002 0.000000 0.054139 0.000001 -0.000444
# 5 -0.005727 0.001284 -0.004027 0.000001 0.035995 0.000001
# 6 -0.000001 0.000001 0.000003 -0.000444 0.000001 0.095548
#
#
# Mechanical properties :
#
#
# Convention : Reuss Voigt Hill
#
# Bulk Modulus (GPa) = 43.20784 47.92958 45.56871
# Shear Modulus (GPa) = 19.42907 25.20337 22.31622
#
# Velocity S-wave (km/s) = 3.17737 3.61885 3.40527
# Velocity P-wave (km/s) = 5.99270 6.50895 6.25615
#
# Compressibility (1/GPa) = 0.02314395
#
# Stress axis : x y z
#
# Youngs Moduli (GPa) = 79.79119 52.32769 84.00548
#
# Poissons Ratio (x) = 0.23972 -0.06229
# Poissons Ratio (y) = 0.36553 0.53444
# Poissons Ratio (z) = -0.05917 0.33290
#
# Static dielectric constant tensor:
#      x y z
#    x 1.688830 -0.000010 -0.006730 
#    y -0.000010 1.686440 0.000000 
#    z -0.006730 0.000000 1.719250 
# 
# From -- ./inp_files/328374.got.cif
#   From: 2010.05.17/outbox.cif.g08.bks.cpg/sg12_165_cif.got.tgz:328374.got - 2010.06.03 13:09:07.
