data_PCOD9188773
_publ_section_title
;
Structure prediction by ZEFSAII (Michael W. Deem and Ramdas Pophale) SiO2 
 PCOD9188773
Probable space group: C 2/M
;
_chemical_formula_sum "Si O2"
_cell_formula_units_Z 56
_cell_length_a 23.419759
_cell_length_b 8.758739
_cell_length_c 16.469294
_cell_angle_alpha 90.000000
_cell_angle_beta 127.027325
_cell_angle_gamma 90.000000
_cell_volume 2697.065242
_symmetry_space_group_name_H-M "C 2/M"
_symmetry_group_IT_number 12
_symmetry_cell_setting 'monoclinic'
loop_
_space_group_symop_operation_xyz
x,y,z
-x,y,-z
-x,-y,-z
x,-y,z
1/2+x,1/2+y,z
1/2-x,1/2+y,-z
1/2-x,1/2-y,-z
1/2+x,1/2-y,z
loop_
_atom_site_type_symbol
_atom_site_label
_atom_site_fract_x
_atom_site_fract_y
_atom_site_fract_z
Si Si1 0.544025 0.684956 0.957007
Si Si2 0.889124 0.324585 0.243874
Si Si3 0.839372 0.818238 0.356538
Si Si4 0.081441 0.175889 0.271919
Si Si5 0.469134 0.674108 0.588589
Si Si6 0.271253 0.179734 0.604228
Si Si7 0.326269 0.319875 0.036469
O O1 0.549453 0.500000 0.968278
O O2 0.490402 0.719996 0.836575
O O3 0.624420 0.736652 0.998178
O O4 0.500000 0.737143 0.000000
O O5 0.879739 0.500000 0.212263
O O6 0.837155 0.274339 0.271810
O O7 0.876154 0.215029 0.156848
O O8 0.967316 0.292650 0.347241
O O9 0.914372 0.799156 0.468802
O O10 0.779511 0.763578 0.367677
O O11 0.831174 0.000000 0.333695
O O12 0.071941 0.180127 0.360745
O O13 0.147522 0.280757 0.306249
O O14 0.097524 0.000000 0.263259
O O15 0.497988 0.500000 0.605166
O O16 0.250000 0.250000 0.500000
O O17 0.259825 0.000000 0.588140
O O18 0.315256 0.500000 0.016018
O O19 0.250000 0.250000 0.000000
#
# Coordination Sequence:
#
# PCOD9188773 Si02
#       7
#     8   8   8   8   8   8   8
#     4   9  19  38  66  95 122 156 202 252 305 370
#     4  12  25  39  59  90 122 156 207 259 308 361
#     4  10  22  39  58  83 122 167 208 246 304 373
#     4  10  19  36  61  89 119 159 201 239 298 365
#     4  10  19  37  61  85 117 163 204 240 300 370
#     4  11  22  37  57  85 120 160 203 249 303 361
#     4  11  23  43  68  94 127 164 206 256 319 383
#
# _framework density 20.763309
#
# number of rings (size 3 to 8) (size 9 to 14) (size 15 to 20)
#    0.000    1.571    2.857    2.571    0.000    5.143 
#    0.000    1.429    0.000    3.000    0.000    0.000 
#    0.000    0.000    0.000    0.000    0.000    0.000 
#
# Total GULP energy -156276.963430 kJ/mol
# GULP energy per Si atom -5581.320123 kJ/mol
# Density = 2.071605 g / cm^3
# Si number density = 20.763309 Si / 1000 Ang^3
#
#
#
# Elastic Constant Matrix: (Units=GPa)
#
#
# Indices 1 2 3 4 5 6 
#
# 1 152.7869 17.7053 21.3809 0.0000 2.0366 0.0000
# 2 17.7053 16.5471 -2.0572 0.0000 6.5752 0.0000
# 3 21.3809 -2.0572 30.8722 0.0000 -2.6368 0.0000
# 4 0.0000 0.0000 0.0000 22.2153 0.0000 8.6091
# 5 2.0366 6.5752 -2.6368 0.0000 25.6896 0.0000
# 6 0.0000 0.0000 0.0000 8.6091 0.0000 28.7073
#
#
#
# Elastic Compliance Matrix: (Units=1/GPa)
#
#
# Indices 1 2 3 4 5 6 
#
# 1 0.008687 -0.010658 -0.006610 0.000000 0.001361 0.000000
# 2 -0.010658 0.080635 0.011161 0.000000 -0.018648 0.000000
# 3 -0.006610 0.011161 0.037846 0.000000 0.001552 0.000000
# 4 0.000000 0.000000 0.000000 0.050933 0.000000 -0.015275
# 5 0.001361 -0.018648 0.001552 0.000000 0.043751 0.000000
# 6 0.000000 0.000000 0.000000 -0.015275 0.000000 0.039415
#
#
# Mechanical properties :
#
#
# Convention : Reuss Voigt Hill
#
# Bulk Modulus (GPa) = 8.69906 30.47380 19.58643
# Shear Modulus (GPa) = 16.03604 26.20091 21.11847
#
# Velocity S-wave (km/s) = 2.78209 3.55616 3.19267
# Velocity P-wave (km/s) = 3.81035 5.61874 4.80047
#
# Compressibility (1/GPa) = 0.11495491
#
# Stress axis : x y z
#
# Youngs Moduli (GPa) = 115.11483 12.40160 26.42298
#
# Poissons Ratio (x) = 0.13217 0.17466
# Poissons Ratio (y) = 1.22684 -0.29492
# Poissons Ratio (z) = 0.76093 -0.13842
#
# Static dielectric constant tensor:
#      x y z
#    x 1.824540 0.000000 0.011590 
#    y 0.000000 1.731940 0.000000 
#    z 0.011590 0.000000 1.732440 
# 
# From -- ./inp_files/288425.got.cif
#   From: 2010.05.17/outbox.cif.g08.bks.cpg/sg12_145_cif.got.tgz:288425.got - 2010.06.03 13:09:07.
