data_PCOD9188378
_publ_section_title
;
Structure prediction by ZEFSAII (Michael W. Deem and Ramdas Pophale) SiO2 
 PCOD9188378
Probable space group: C 2/M
;
_chemical_formula_sum "Si O2"
_cell_formula_units_Z 56
_cell_length_a 20.826810
_cell_length_b 7.509754
_cell_length_c 16.196120
_cell_angle_alpha 90.000000
_cell_angle_beta 120.451453
_cell_angle_gamma 90.000000
_cell_volume 2183.717161
_symmetry_space_group_name_H-M "C 2/M"
_symmetry_group_IT_number 12
_symmetry_cell_setting 'monoclinic'
loop_
_space_group_symop_operation_xyz
x,y,z
-x,y,-z
-x,-y,-z
x,-y,z
1/2+x,1/2+y,z
1/2-x,1/2+y,-z
1/2-x,1/2-y,-z
1/2+x,1/2-y,z
loop_
_atom_site_type_symbol
_atom_site_label
_atom_site_fract_x
_atom_site_fract_y
_atom_site_fract_z
Si Si1 0.335534 0.286183 0.574244
Si Si2 0.678119 0.787889 0.898250
Si Si3 0.647239 0.787642 0.691238
Si Si4 0.516527 0.785529 0.814795
Si Si5 0.570509 0.699231 0.088241
Si Si6 0.801032 0.219027 0.729634
Si Si7 0.517808 0.296099 0.398236
O O1 0.345663 0.500000 0.583231
O O2 0.250000 0.250000 0.500000
O O3 0.339373 0.216023 0.670635
O O4 0.398763 0.213481 0.552935
O O5 0.668619 0.719105 0.797757
O O6 0.601424 0.736859 0.893541
O O7 0.675905 0.000000 0.887990
O O8 0.750000 0.750000 0.000000
O O9 0.714987 0.723291 0.678324
O O10 0.560627 0.757760 0.610619
O O11 0.653262 0.000000 0.698272
O O12 0.461494 0.689667 0.840182
O O13 0.503760 0.727072 0.712659
O O14 0.508321 0.000000 0.814042
O O15 0.578362 0.500000 0.057886
O O16 0.652185 0.775882 0.158549
O O17 0.500000 0.793589 0.000000
O O18 0.802669 0.000000 0.730808
O O19 0.527069 0.500000 0.427040
#
# Coordination Sequence:
#
# PCOD9188378 Si02
#       7
#     8   8   8   8   8   8   8
#     4  10  21  38  62  88 113 144 183 231 281 339
#     4   9  19  31  46  71 102 139 184 230 272 319
#     4   9  19  35  56  79 108 147 187 230 283 333
#     4  10  20  34  51  74 107 145 186 233 279 326
#     4  10  20  33  55  81 108 149 193 232 281 334
#     4   9  18  37  58  82 115 147 187 236 280 332
#     4  10  19  36  59  82 111 144 184 228 274 334
#
# _framework density 25.644348999999998
#
# number of rings (size 3 to 8) (size 9 to 14) (size 15 to 20)
#    0.000    2.429    1.429    1.714    2.000    4.286 
#    0.000    2.143    0.000    4.286    0.000    0.000 
#    0.000    0.000    0.000    0.000    0.000    0.000 
#
# Total GULP energy -156169.060613 kJ/mol
# GULP energy per Si atom -5577.466450 kJ/mol
# Density = 2.558598 g / cm^3
# Si number density = 25.644349 Si / 1000 Ang^3
#
#
#
# Elastic Constant Matrix: (Units=GPa)
#
#
# Indices 1 2 3 4 5 6 
#
# 1 161.3494 14.2615 40.6745 0.0000 42.4409 0.0000
# 2 14.2615 83.0348 -7.0850 0.0000 -5.1504 0.0000
# 3 40.6745 -7.0850 121.9642 0.0000 44.7193 0.0000
# 4 0.0000 0.0000 0.0000 18.7057 0.0000 4.2390
# 5 42.4409 -5.1504 44.7193 0.0000 48.5121 0.0000
# 6 0.0000 0.0000 0.0000 4.2390 0.0000 -0.0982
#
#
#
# Elastic Compliance Matrix: (Units=1/GPa)
#
#
# Indices 1 2 3 4 5 6 
#
# 1 0.008341 -0.001904 -0.000215 0.000000 -0.007300 0.000000
# 2 -0.001904 0.012567 0.000400 0.000000 0.002631 0.000000
# 3 -0.000215 0.000400 0.012401 0.000000 -0.011200 0.000000
# 4 0.000000 0.000000 0.000000 0.004960 0.000000 0.214016
# 5 -0.007300 0.002631 -0.011200 0.000000 0.037604 0.000000
# 6 0.000000 0.000000 0.000000 0.214016 0.000000 -0.944394
#
#
# Mechanical properties :
#
#
# Convention : Reuss Voigt Hill
#
# Bulk Modulus (GPa) = 33.47668 51.33892 42.40780
# Shear Modulus (GPa) = -5.84709 34.65706 14.40499
#
# Velocity S-wave (km/s) = -1.51163 3.68020 2.37264
# Velocity P-wave (km/s) = 3.16794 6.17426 4.90700
#
# Compressibility (1/GPa) = 0.02987154
#
# Stress axis : x y z
#
# Youngs Moduli (GPa) = 119.89625 79.57068 80.63872
#
# Poissons Ratio (x) = 0.15148 0.01737
# Poissons Ratio (y) = 0.22825 -0.03229
# Poissons Ratio (z) = 0.02583 -0.03186
#
# Static dielectric constant tensor:
#      x y z
#    x 2.082290 0.000000 0.036650 
#    y 0.000000 1.887250 0.000000 
#    z 0.036650 0.000000 2.170890 
# 
# From -- ./inp_files/280997.got.cif
#   From: 2010.05.17/outbox.cif.g08.bks.cpg/sg12_141_cif.got.tgz:280997.got - 2010.06.03 13:09:07.
