data_PCOD9188267
_publ_section_title
;
Structure prediction by ZEFSAII (Michael W. Deem and Ramdas Pophale) SiO2 
 PCOD9188267
Probable space group: C 2/M
;
_chemical_formula_sum "Si O2"
_cell_formula_units_Z 40
_cell_length_a 10.585023
_cell_length_b 22.249032
_cell_length_c 7.988021
_cell_angle_alpha 90.000000
_cell_angle_beta 115.013817
_cell_angle_gamma 90.000000
_cell_volume 1704.782521
_symmetry_space_group_name_H-M "C 2/M"
_symmetry_group_IT_number 12
_symmetry_cell_setting 'monoclinic'
loop_
_space_group_symop_operation_xyz
x,y,z
-x,y,-z
-x,-y,-z
x,-y,z
1/2+x,1/2+y,z
1/2-x,1/2+y,-z
1/2-x,1/2-y,-z
1/2+x,1/2-y,z
loop_
_atom_site_type_symbol
_atom_site_label
_atom_site_fract_x
_atom_site_fract_y
_atom_site_fract_z
Si Si1 0.412159 0.871376 0.796413
Si Si2 0.083767 0.185499 0.870193
Si Si3 0.273930 0.000000 0.343634
Si Si4 0.677138 0.629588 0.417843
Si Si5 0.986036 0.500000 0.764448
Si Si6 0.158285 0.316831 0.782039
O O1 0.256252 0.861772 0.639941
O O2 0.428504 0.941895 0.823985
O O3 0.517639 0.854624 0.705107
O O4 0.500000 0.841922 0.000000
O O5 0.118817 0.248866 0.804288
O O6 0.983380 0.147270 0.695182
O O7 0.232092 0.159400 0.015183
O O8 0.000000 0.194639 0.000000
O O9 0.195999 0.937279 0.346069
O O10 0.396286 0.000000 0.546061
O O11 0.352067 0.000000 0.206108
O O12 0.760391 0.675610 0.344161
#
# Coordination Sequence:
#
# PCOD9188267 Si02
#       6
#     8   8   4   8   4   8
#     4  11  21  34  56  85 117 152 197 240 284 344
#     4   9  20  37  57  83 116 150 192 240 290 347
#     4   9  16  32  60  88 114 146 193 243 288 348
#     4  10  20  37  60  86 116 152 196 238 291 345
#     4   9  17  32  55  85 114 152 192 239 293 339
#     4  10  19  36  58  81 114 150 188 241 288 347
#
# _framework density 23.463405999999999
#
# number of rings (size 3 to 8) (size 9 to 14) (size 15 to 20)
#    0.000    2.200    2.000    1.500    0.000    0.800 
#    0.000   10.500    0.000    0.000    0.000    5.600 
#    0.000    0.000    0.000    0.000    0.000    0.000 
#
# Total GULP energy -111464.532988 kJ/mol
# GULP energy per Si atom -5573.226649 kJ/mol
# Density = 2.341000 g / cm^3
# Si number density = 23.463406 Si / 1000 Ang^3
#
#
#
# Elastic Constant Matrix: (Units=GPa)
#
#
# Indices 1 2 3 4 5 6 
#
# 1 86.1887 13.4266 45.3554 0.0000 37.7424 0.0000
# 2 13.4266 71.1990 36.6855 0.0000 26.8393 0.0000
# 3 45.3554 36.6855 184.6793 0.0000 30.2671 0.0000
# 4 0.0000 0.0000 0.0000 9.0088 0.0000 38.8396
# 5 37.7424 26.8393 30.2671 0.0000 43.2053 0.0000
# 6 0.0000 0.0000 0.0000 38.8396 0.0000 -51.3503
#
#
#
# Elastic Compliance Matrix: (Units=1/GPa)
#
#
# Indices 1 2 3 4 5 6 
#
# 1 0.020725 0.004766 -0.002919 0.000000 -0.019020 0.000000
# 2 0.004766 0.020118 -0.002752 0.000000 -0.014733 0.000000
# 3 -0.002919 -0.002752 0.006756 0.000000 -0.000473 0.000000
# 4 0.000000 0.000000 0.000000 0.026051 0.000000 0.019704
# 5 -0.019020 -0.014733 -0.000473 0.000000 0.049244 0.000000
# 6 0.000000 0.000000 0.000000 0.019704 0.000000 -0.004570
#
#
# Mechanical properties :
#
#
# Convention : Reuss Voigt Hill
#
# Bulk Modulus (GPa) = 21.83992 59.22246 40.53119
# Shear Modulus (GPa) = 36.92796 16.61272 26.77034
#
# Velocity S-wave (km/s) = 3.97149 2.66376 3.38144
# Velocity P-wave (km/s) = 5.50986 5.89542 5.70590
#
# Compressibility (1/GPa) = 0.04578771
#
# Stress axis : x y z
#
# Youngs Moduli (GPa) = 48.25005 49.70633 148.01690
#
# Poissons Ratio (x) = -0.23689 0.43212
# Poissons Ratio (y) = -0.22995 0.40738
# Poissons Ratio (z) = 0.14086 0.13680
#
# Static dielectric constant tensor:
#      x y z
#    x 1.928670 0.000000 -0.091070 
#    y 0.000000 1.904010 0.000000 
#    z -0.091070 0.000000 2.004390 
# 
# From -- ./inp_files/52889.got.cif
#   From: 2010.05.17/outbox.cif.g08.bks.cpg/sg12_27_cif.got.tgz:52889.got - 2010.06.03 13:09:07.
