data_PCOD9188159
_publ_section_title
;
Structure prediction by ZEFSAII (Michael W. Deem and Ramdas Pophale) SiO2 
 PCOD9188159
Probable space group: C 2/M
;
_chemical_formula_sum "Si O2"
_cell_formula_units_Z 50
_cell_length_a 10.361925
_cell_length_b 12.862351
_cell_length_c 24.251207
_cell_angle_alpha 90.000000
_cell_angle_beta 39.124345
_cell_angle_gamma 90.000000
_cell_volume 2039.516860
_symmetry_space_group_name_H-M "C 2/M"
_symmetry_group_IT_number 12
_symmetry_cell_setting 'monoclinic'
loop_
_space_group_symop_operation_xyz
x,y,z
-x,y,-z
-x,-y,-z
x,-y,z
1/2+x,1/2+y,z
1/2-x,1/2+y,-z
1/2-x,1/2-y,-z
1/2+x,1/2-y,z
loop_
_atom_site_type_symbol
_atom_site_label
_atom_site_fract_x
_atom_site_fract_y
_atom_site_fract_z
Si Si1 0.925514 0.382860 0.652411
Si Si2 0.965008 0.161971 0.802505
Si Si3 0.908909 0.888478 0.948444
Si Si4 0.532481 0.158170 0.926481
Si Si5 0.958691 0.381649 0.259763
Si Si6 0.504227 0.697536 0.440884
Si Si7 0.000000 0.000000 0.500000
O O1 0.985164 0.500000 0.618093
O O2 0.690189 0.370540 0.709380
O O3 0.929866 0.375384 0.717652
O O4 0.042016 0.281613 0.590350
O O5 0.934861 0.119175 0.873757
O O6 0.764700 0.130973 0.833642
O O7 0.967691 0.287623 0.802409
O O8 0.011562 0.783393 0.934969
O O9 0.991590 0.000000 0.939466
O O10 0.665407 0.881342 0.040265
O O11 0.500000 0.121444 0.000000
O O12 0.975462 0.500000 0.234208
O O13 0.721813 0.355077 0.351606
O O14 0.500000 0.760781 0.500000
O O15 0.393780 0.592594 0.497575
#
# Coordination Sequence:
#
# PCOD9188159 Si02
#       7
#     8   8   8   8   8   8   2
#     4  10  21  33  54  82 111 143 179 223 272 320
#     4  10  20  33  53  76 109 139 177 216 265 324
#     4  10  20  36  57  77 103 138 177 223 270 318
#     4   9  20  36  54  79 104 135 178 219 266 321
#     4  10  19  36  57  79 106 143 180 219 267 316
#     4   9  18  35  59  78 110 141 185 220 268 322
#     4   8  16  36  58  80 104 150 178 226 264 324
#
# _framework density 24.515609999999999
#
# number of rings (size 3 to 8) (size 9 to 14) (size 15 to 20)
#    0.480    1.920    0.800    1.440    0.000    6.720 
#    0.000    6.400    8.800    9.600    0.000    0.000 
#    0.000    0.000    0.000    0.000    0.000    0.000 
#
# Total GULP energy -139177.036353 kJ/mol
# GULP energy per Si atom -5567.081454 kJ/mol
# Density = 2.445981 g / cm^3
# Si number density = 24.515610 Si / 1000 Ang^3
#
#
#
# Elastic Constant Matrix: (Units=GPa)
#
#
# Indices 1 2 3 4 5 6 
#
# 1 46.4048 41.7869 14.7286 -0.0001 -15.5852 0.0001
# 2 41.7869 206.7519 44.7199 0.0000 -2.7581 0.0001
# 3 14.7286 44.7199 44.0179 0.0003 -7.2807 0.0000
# 4 -0.0001 0.0000 0.0003 4.4899 -0.0001 4.5132
# 5 -15.5852 -2.7581 -7.2807 -0.0001 34.6468 -0.0001
# 6 0.0001 0.0001 0.0000 4.5132 -0.0001 26.9099
#
#
#
# Elastic Compliance Matrix: (Units=1/GPa)
#
#
# Indices 1 2 3 4 5 6 
#
# 1 0.032052 -0.005715 -0.002703 0.000001 0.013395 0.000000
# 2 -0.005715 0.007243 -0.005984 0.000000 -0.003252 0.000000
# 3 -0.002703 -0.005984 0.030481 -0.000002 0.004713 0.000000
# 4 0.000001 0.000000 -0.000002 0.267880 0.000000 -0.044927
# 5 0.013395 -0.003252 0.004713 0.000000 0.035620 0.000000
# 6 0.000000 0.000000 0.000000 -0.044927 0.000000 0.044696
#
#
# Mechanical properties :
#
#
# Convention : Reuss Voigt Hill
#
# Bulk Modulus (GPa) = 24.40662 55.51616 39.96139
# Shear Modulus (GPa) = 10.85934 26.27196 18.56565
#
# Velocity S-wave (km/s) = 2.10694 3.27715 2.75489
# Velocity P-wave (km/s) = 3.98699 6.08391 5.14344
#
# Compressibility (1/GPa) = 0.04097249
#
# Stress axis : x y z
#
# Youngs Moduli (GPa) = 31.19899 138.07163 32.80699
#
# Poissons Ratio (x) = 0.78904 0.08869
# Poissons Ratio (y) = 0.17829 0.19631
# Poissons Ratio (z) = 0.08434 0.82619
#
# Static dielectric constant tensor:
#      x y z
#    x 2.026440 0.000000 -0.086240 
#    y 0.000000 1.918100 0.000000 
#    z -0.086240 0.000000 2.055470 
# 
# From -- ./inp_files/373793.got.cif
#   From: 2010.05.17/outbox.cif.g08.bks.cpg/sg12_187_cif.got.tgz:373793.got - 2010.06.03 13:09:07.
