data_PCOD9188931
_publ_section_title
;
Structure prediction by ZEFSAII (Michael W. Deem and Ramdas Pophale) SiO2 
 PCOD9188931
Probable space group: C 2/M
;
_chemical_formula_sum "Si O2"
_cell_formula_units_Z 52
_cell_length_a 8.181689
_cell_length_b 17.186139
_cell_length_c 18.944564
_cell_angle_alpha 90.000000
_cell_angle_beta 95.543607
_cell_angle_gamma 90.000000
_cell_volume 2651.367483
_symmetry_space_group_name_H-M "C 2/M"
_symmetry_group_IT_number 12
_symmetry_cell_setting 'monoclinic'
loop_
_space_group_symop_operation_xyz
x,y,z
-x,y,-z
-x,-y,-z
x,-y,z
1/2+x,1/2+y,z
1/2-x,1/2+y,-z
1/2-x,1/2-y,-z
1/2+x,1/2-y,z
loop_
_atom_site_type_symbol
_atom_site_label
_atom_site_fract_x
_atom_site_fract_y
_atom_site_fract_z
Si Si1 0.000000 0.276852 0.000000
Si Si2 0.350551 0.906064 0.651216
Si Si3 0.802628 0.160300 0.498413
Si Si4 0.553671 0.405207 0.741712
Si Si5 0.000410 0.134990 0.897269
Si Si6 0.240409 0.584456 0.979149
Si Si7 0.719291 0.906399 0.647289
O O1 0.983949 0.220013 0.932230
O O2 0.143174 0.337055 0.989684
O O3 0.283390 0.877405 0.573141
O O4 0.540286 0.879466 0.668123
O O5 0.215140 0.881960 0.703799
O O6 0.351509 0.000000 0.651277
O O7 0.750000 0.250000 0.500000
O O8 0.741938 0.120249 0.567702
O O9 0.000000 0.152888 0.500000
O O10 0.554427 0.500000 0.747698
O O11 0.552708 0.369114 0.819383
O O12 0.383361 0.381617 0.696135
O O13 0.827878 0.094217 0.907257
O O14 0.127648 0.088539 0.952087
O O15 0.159809 0.500000 0.977034
O O16 0.718033 0.000000 0.649249
#
# Coordination Sequence:
#
# PCOD9188931 Si02
#       7
#     4   8   8   8   8   8   8
#     4  10  21  38  61  92 126 152 204 250 305 362
#     4  10  21  39  63  91 120 155 202 255 303 362
#     4  12  23  38  61  86 121 160 205 255 306 362
#     4  10  20  37  62  89 122 161 203 248 304 367
#     4  10  19  37  61  86 120 164 197 246 308 369
#     4  10  19  36  63  90 118 156 206 252 293 354
#     4  10  21  39  63  91 120 155 202 255 303 362
#
# _framework density 19.612521999999998
#
# number of rings (size 3 to 8) (size 9 to 14) (size 15 to 20)
#    0.000    1.846    1.538    5.769    0.000    1.846 
#    2.769    3.077    0.000    0.000    0.000    0.000 
#    0.000    0.000    0.000    0.000    0.000    0.000 
#
# Total GULP energy -145001.471376 kJ/mol
# GULP energy per Si atom -5576.979668 kJ/mol
# Density = 1.956788 g / cm^3
# Si number density = 19.612522 Si / 1000 Ang^3
#
#
#
# Elastic Constant Matrix: (Units=GPa)
#
#
# Indices 1 2 3 4 5 6 
#
# 1 154.1391 31.7138 57.9841 0.0000 -33.4350 0.0000
# 2 31.7138 72.8742 22.0692 0.0000 -11.9569 0.0000
# 3 57.9841 22.0692 138.2026 0.0000 -36.8741 0.0000
# 4 0.0000 0.0000 0.0000 -12.8406 0.0000 -100.7034
# 5 -33.4350 -11.9569 -36.8741 0.0000 20.3347 0.0000
# 6 0.0000 0.0000 0.0000 -100.7034 0.0000 -346.8570
#
#
#
# Elastic Compliance Matrix: (Units=1/GPa)
#
#
# Indices 1 2 3 4 5 6 
#
# 1 0.010325 -0.001892 0.000393 0.000000 0.016577 0.000000
# 2 -0.001892 0.015535 -0.000154 0.000000 0.005743 0.000000
# 3 0.000393 -0.000154 0.014033 0.000000 0.026003 0.000000
# 4 0.000000 0.000000 0.000000 0.060988 0.000000 -0.017707
# 5 0.016577 0.005743 0.026003 0.000000 0.126963 0.000000
# 6 0.000000 0.000000 0.000000 -0.017707 0.000000 0.002258
#
#
# Mechanical properties :
#
#
# Convention : Reuss Voigt Hill
#
# Bulk Modulus (GPa) = 27.33305 65.41668 46.37487
# Shear Modulus (GPa) = 20.35792 -50.97600 -15.30904
#
# Velocity S-wave (km/s) = 3.22531 -5.10372 -2.79691
# Velocity P-wave (km/s) = 5.27607 1.14179 3.64234
#
# Compressibility (1/GPa) = 0.03658574
#
# Stress axis : x y z
#
# Youngs Moduli (GPa) = 96.85404 64.37119 71.25818
#
# Poissons Ratio (x) = 0.12182 -0.02802
# Poissons Ratio (y) = 0.18329 0.01101
# Poissons Ratio (z) = -0.03808 0.00994
#
# Static dielectric constant tensor:
#      x y z
#    x 1.801910 0.000000 -0.009720 
#    y 0.000000 1.679230 0.000000 
#    z -0.009720 0.000000 1.642300 
# 
# From -- ./inp_files/256613.got.cif
#   From: 2010.05.17/outbox.cif.g08.bks.cpg/sg12_129_cif.got.tgz:256613.got - 2010.06.03 13:09:07.
