data_PCOD9188503
_publ_section_title
;
Structure prediction by ZEFSAII (Michael W. Deem and Ramdas Pophale) SiO2 
 PCOD9188503
Probable space group: C 2/M
;
_chemical_formula_sum "Si O2"
_cell_formula_units_Z 56
_cell_length_a 21.119732
_cell_length_b 7.601667
_cell_length_c 18.289150
_cell_angle_alpha 90.000000
_cell_angle_beta 62.943166
_cell_angle_gamma 90.000000
_cell_volume 2614.880701
_symmetry_space_group_name_H-M "C 2/M"
_symmetry_group_IT_number 12
_symmetry_cell_setting 'monoclinic'
loop_
_space_group_symop_operation_xyz
x,y,z
-x,y,-z
-x,-y,-z
x,-y,z
1/2+x,1/2+y,z
1/2-x,1/2+y,-z
1/2-x,1/2-y,-z
1/2+x,1/2-y,z
loop_
_atom_site_type_symbol
_atom_site_label
_atom_site_fract_x
_atom_site_fract_y
_atom_site_fract_z
Si Si1 0.542510 0.706827 0.675343
Si Si2 0.074795 0.712469 0.495501
Si Si3 0.080727 0.713013 0.942165
Si Si4 0.857276 0.208186 0.249045
Si Si5 0.881806 0.295365 0.782323
Si Si6 0.303410 0.216327 0.680246
Si Si7 0.166868 0.711107 0.037225
O O1 0.531622 0.500000 0.693871
O O2 0.577921 0.731958 0.577896
O O3 0.591418 0.780430 0.714691
O O4 0.463889 0.787127 0.716483
O O5 0.073734 0.500000 0.494438
O O6 0.140862 0.770750 0.411372
O O7 0.000000 0.773761 0.500000
O O8 0.080939 0.500000 0.942026
O O9 0.108450 0.768693 0.848505
O O10 0.131414 0.777527 0.981157
O O11 0.000000 0.770404 0.000000
O O12 0.776761 0.277389 0.291097
O O13 0.851127 0.000000 0.266873
O O14 0.861259 0.500000 0.798618
O O15 0.833322 0.221257 0.742879
O O16 0.870053 0.219735 0.869317
O O17 0.303698 0.000000 0.681177
O O18 0.157394 0.500000 0.039871
O O19 0.250000 0.750000 0.000000
#
# Coordination Sequence:
#
# PCOD9188503 Si02
#       7
#     8   8   8   8   8   8   8
#     4  11  23  36  54  84 117 143 176 229 284 331
#     4  10  19  36  61  85 107 143 191 227 264 327
#     4  10  21  38  58  82 112 147 190 235 274 321
#     4  10  22  39  57  81 113 149 185 225 280 336
#     4  10  19  36  60  81 104 146 194 228 267 326
#     4   9  18  35  59  82 107 143 189 230 263 320
#     4  10  21  35  56  84 113 145 184 232 282 331
#
# _framework density 21.415890999999998
#
# number of rings (size 3 to 8) (size 9 to 14) (size 15 to 20)
#    0.000    2.000    1.429    2.143    0.000    5.714 
#    0.000    1.429    0.000    0.000    0.000    0.000 
#    0.000    0.000    0.000    0.000    0.000    0.000 
#
# Total GULP energy -156472.783180 kJ/mol
# GULP energy per Si atom -5588.313685 kJ/mol
# Density = 2.136715 g / cm^3
# Si number density = 21.415891 Si / 1000 Ang^3
#
#
#
# Elastic Constant Matrix: (Units=GPa)
#
#
# Indices 1 2 3 4 5 6 
#
# 1 125.6509 -11.9490 30.6456 0.0008 11.4912 0.0008
# 2 -11.9490 39.3869 -18.1228 0.0017 1.4842 0.0006
# 3 30.6456 -18.1228 105.6244 0.0006 13.9845 0.0004
# 4 0.0008 0.0017 0.0006 -19.7431 0.0003 -33.7142
# 5 11.4912 1.4842 13.9845 0.0003 42.6555 0.0004
# 6 0.0008 0.0006 0.0004 -33.7142 0.0004 -15.1672
#
#
#
# Elastic Compliance Matrix: (Units=1/GPa)
#
#
# Indices 1 2 3 4 5 6 
#
# 1 0.008781 0.001809 -0.002003 0.000000 -0.001772 0.000000
# 2 0.001809 0.028222 0.004717 0.000000 -0.003016 0.000002
# 3 -0.002003 0.004717 0.011299 0.000000 -0.003329 0.000000
# 4 0.000000 0.000000 0.000000 0.018117 0.000000 -0.040270
# 5 -0.001772 -0.003016 -0.003329 0.000000 0.025117 0.000000
# 6 0.000000 0.000002 0.000000 -0.040270 0.000000 0.023582
#
#
# Mechanical properties :
#
#
# Convention : Reuss Voigt Hill
#
# Bulk Modulus (GPa) = 17.43745 30.20110 23.81928
# Shear Modulus (GPa) = 39.94016 19.55493 29.74754
#
# Velocity S-wave (km/s) = 4.32322 3.02504 3.73103
# Velocity P-wave (km/s) = 5.75155 5.13166 5.45043
#
# Compressibility (1/GPa) = 0.05734783
#
# Stress axis : x y z
#
# Youngs Moduli (GPa) = 113.88078 35.43350 88.50690
#
# Poissons Ratio (x) = -0.06411 0.17725
# Poissons Ratio (y) = -0.20604 -0.41745
# Poissons Ratio (z) = 0.22807 -0.16713
#
# Static dielectric constant tensor:
#      x y z
#    x 1.739450 0.000000 0.036600 
#    y 0.000000 1.811360 0.000000 
#    z 0.036600 0.000000 1.711440 
# 
# From -- ./inp_files/275630.got.cif
#   From: 2010.05.17/outbox.cif.g08.bks.cpg/sg12_138_cif.got.tgz:275630.got - 2010.06.03 13:09:07.
