data_PCOD9188471
_publ_section_title
;
Structure prediction by ZEFSAII (Michael W. Deem and Ramdas Pophale) SiO2 
 PCOD9188471
Probable space group: C 2/M
;
_chemical_formula_sum "Si O2"
_cell_formula_units_Z 48
_cell_length_a 11.719566
_cell_length_b 26.504752
_cell_length_c 7.215077
_cell_angle_alpha 90.000000
_cell_angle_beta 72.939892
_cell_angle_gamma 90.000000
_cell_volume 2142.560058
_symmetry_space_group_name_H-M "C 2/M"
_symmetry_group_IT_number 12
_symmetry_cell_setting 'monoclinic'
loop_
_space_group_symop_operation_xyz
x,y,z
-x,y,-z
-x,-y,-z
x,-y,z
1/2+x,1/2+y,z
1/2-x,1/2+y,-z
1/2-x,1/2-y,-z
1/2+x,1/2-y,z
loop_
_atom_site_type_symbol
_atom_site_label
_atom_site_fract_x
_atom_site_fract_y
_atom_site_fract_z
Si Si1 0.119418 0.410237 0.734039
Si Si2 0.129439 0.118942 0.998397
Si Si3 0.357121 0.695820 0.300813
Si Si4 0.625486 0.601875 0.435258
Si Si5 0.139527 0.442101 0.151281
Si Si6 0.599970 0.197433 0.598468
O O1 0.246495 0.423000 0.577398
O O2 0.115350 0.348984 0.732479
O O3 0.992021 0.427273 0.713966
O O4 0.127575 0.433693 0.934475
O O5 0.140734 0.118015 0.213525
O O6 0.132422 0.174504 0.909975
O O7 0.244239 0.090908 0.857235
O O8 0.000000 0.096976 0.000000
O O9 0.393981 0.650092 0.421271
O O10 0.424280 0.748207 0.300266
O O11 0.220059 0.703700 0.421977
O O12 0.500000 0.572094 0.500000
O O13 0.162919 0.500000 0.182000
O O14 0.500000 0.183300 0.500000
#
# Coordination Sequence:
#
# PCOD9188471 Si02
#       6
#     8   8   8   8   8   8
#     4   9  19  36  60  87 119 163 208 257 311 376
#     4  11  22  37  65  94 122 169 214 259 319 383
#     4  10  21  38  58  90 131 170 208 253 310 373
#     4  10  19  36  59  88 125 169 206 253 310 369
#     4  10  21  41  66  90 121 162 214 276 333 374
#     4  10  20  35  58  88 131 170 207 256 308 375
#
# _framework density 22.403106000000001
#
# number of rings (size 3 to 8) (size 9 to 14) (size 15 to 20)
#    0.000    2.000    1.667    2.500    0.000    0.333 
#    3.000   13.333    0.000   41.500    0.000    0.000 
#    0.000    0.000    0.000    0.000    0.000    0.000 
#
# Total GULP energy -133848.470208 kJ/mol
# GULP energy per Si atom -5577.019592 kJ/mol
# Density = 2.235212 g / cm^3
# Si number density = 22.403106 Si / 1000 Ang^3
#
#
#
# Elastic Constant Matrix: (Units=GPa)
#
#
# Indices 1 2 3 4 5 6 
#
# 1 146.2799 19.1728 2.8998 0.0000 -39.6944 0.0000
# 2 19.1728 66.9742 3.3862 0.0000 -11.6602 0.0000
# 3 2.8998 3.3862 74.0709 0.0000 2.1025 0.0000
# 4 0.0000 0.0000 0.0000 28.5332 0.0000 -3.3026
# 5 -39.6944 -11.6602 2.1025 0.0000 41.4134 0.0000
# 6 0.0000 0.0000 0.0000 -3.3026 0.0000 12.2933
#
#
#
# Elastic Compliance Matrix: (Units=1/GPa)
#
#
# Indices 1 2 3 4 5 6 
#
# 1 0.009349 -0.001139 -0.000560 0.000000 0.008669 0.000000
# 2 -0.001139 0.015892 -0.000779 0.000000 0.003423 0.000000
# 3 -0.000560 -0.000779 0.013599 0.000000 -0.001447 0.000000
# 4 0.000000 0.000000 0.000000 0.036172 0.000000 0.009718
# 5 0.008669 0.003423 -0.001447 0.000000 0.033493 0.000000
# 6 0.000000 0.000000 0.000000 0.009718 0.000000 0.083956
#
#
# Mechanical properties :
#
#
# Convention : Reuss Voigt Hill
#
# Bulk Modulus (GPa) = 29.51186 37.58251 33.54719
# Shear Modulus (GPa) = 23.95656 33.90575 28.93115
#
# Velocity S-wave (km/s) = 3.27363 3.89452 3.59749
# Velocity P-wave (km/s) = 5.24314 6.08564 5.68003
#
# Compressibility (1/GPa) = 0.03388468
#
# Stress axis : x y z
#
# Youngs Moduli (GPa) = 106.96460 62.92318 73.53388
#
# Poissons Ratio (x) = 0.07166 0.04118
# Poissons Ratio (y) = 0.12181 0.05729
# Poissons Ratio (z) = 0.05990 0.04902
#
# Static dielectric constant tensor:
#      x y z
#    x 1.911790 0.000000 -0.029290 
#    y 0.000000 1.789380 0.000000 
#    z -0.029290 0.000000 1.841400 
# 
# From -- ./inp_files/51313.got.cif
#   From: 2010.05.17/outbox.cif.g08.bks.cpg/sg12_26_cif.got.tgz:51313.got - 2010.06.03 13:09:07.
