data_PCOD9188983
_publ_section_title
;
Structure prediction by ZEFSAII (Michael W. Deem and Ramdas Pophale) SiO2 
 PCOD9188983
Probable space group: C 2/M
;
_chemical_formula_sum "Si O2"
_cell_formula_units_Z 56
_cell_length_a 25.032794
_cell_length_b 7.859990
_cell_length_c 14.602824
_cell_angle_alpha 90.000000
_cell_angle_beta 117.420424
_cell_angle_gamma 90.000000
_cell_volume 2550.413245
_symmetry_space_group_name_H-M "C 2/M"
_symmetry_group_IT_number 12
_symmetry_cell_setting 'monoclinic'
loop_
_space_group_symop_operation_xyz
x,y,z
-x,y,-z
-x,-y,-z
x,-y,z
1/2+x,1/2+y,z
1/2-x,1/2+y,-z
1/2-x,1/2-y,-z
1/2+x,1/2-y,z
loop_
_atom_site_type_symbol
_atom_site_label
_atom_site_fract_x
_atom_site_fract_y
_atom_site_fract_z
Si Si1 0.439149 0.807654 0.676471
Si Si2 0.534233 0.695735 0.613076
Si Si3 0.286632 0.702887 0.794086
Si Si4 0.337218 0.706650 0.215488
Si Si5 0.857144 0.792522 0.028691
Si Si6 0.307934 0.703248 0.605170
Si Si7 0.006254 0.205418 0.900172
O O1 0.486310 0.696387 0.657217
O O2 0.369486 0.767028 0.608384
O O3 0.455402 0.780447 0.795354
O O4 0.451551 0.000000 0.659156
O O5 0.500000 0.777111 0.500000
O O6 0.548012 0.500000 0.597999
O O7 0.598026 0.767894 0.696177
O O8 0.297559 0.500000 0.799716
O O9 0.217353 0.734224 0.764868
O O10 0.301973 0.769902 0.705056
O O11 0.325009 0.770152 0.910936
O O12 0.337699 0.500000 0.214433
O O13 0.329382 0.763965 0.103557
O O14 0.927534 0.746660 0.082872
O O15 0.854504 0.000000 0.025082
O O16 0.311865 0.500000 0.612676
O O17 0.250000 0.750000 0.500000
O O18 0.001117 0.000000 0.892716
O O19 0.000000 0.258281 0.000000
#
# Coordination Sequence:
#
# PCOD9188983 Si02
#       7
#     8   8   8   8   8   8   8
#     4  12  25  41  63  94 129 162 202 258 316 372
#     4  10  22  41  65  92 121 162 209 256 312 374
#     4  10  22  39  61  89 121 158 202 250 302 365
#     4  10  20  36  60  90 124 159 199 248 303 365
#     4   9  17  34  58  87 121 157 200 242 295 365
#     4  11  25  45  66  89 120 162 210 258 311 370
#     4  10  19  36  64  90 120 166 213 255 304 368
#
# _framework density 21.957228000000001
#
# number of rings (size 3 to 8) (size 9 to 14) (size 15 to 20)
#    0.000    1.714    1.429    3.000    2.000    4.571 
#    0.000    0.714    0.000    0.000    0.000    0.000 
#    0.000    0.000    0.000    0.000    0.000    0.000 
#
# Total GULP energy -156496.631797 kJ/mol
# GULP energy per Si atom -5589.165421 kJ/mol
# Density = 2.190725 g / cm^3
# Si number density = 21.957228 Si / 1000 Ang^3
#
#
#
# Elastic Constant Matrix: (Units=GPa)
#
#
# Indices 1 2 3 4 5 6 
#
# 1 57.8907 -12.5284 4.6296 0.0000 18.5464 0.0000
# 2 -12.5284 31.4300 1.2231 0.0000 -0.4160 0.0000
# 3 4.6296 1.2231 111.3361 0.0000 18.7784 0.0000
# 4 0.0000 0.0000 0.0000 15.2391 0.0000 -4.9968
# 5 18.5464 -0.4160 18.7784 0.0000 39.9398 0.0000
# 6 0.0000 0.0000 0.0000 -4.9968 0.0000 -25.5668
#
#
#
# Elastic Compliance Matrix: (Units=1/GPa)
#
#
# Indices 1 2 3 4 5 6 
#
# 1 0.022566 0.008822 0.000778 0.000000 -0.010753 0.000000
# 2 0.008822 0.035290 -0.000136 0.000000 -0.003665 0.000000
# 3 0.000778 -0.000136 0.009788 0.000000 -0.004965 0.000000
# 4 0.000000 0.000000 0.000000 0.061669 0.000000 -0.012053
# 5 -0.010753 -0.003665 -0.004965 0.000000 0.032327 0.000000
# 6 0.000000 0.000000 0.000000 -0.012053 0.000000 -0.036758
#
#
# Mechanical properties :
#
#
# Convention : Reuss Voigt Hill
#
# Bulk Modulus (GPa) = 11.55092 20.81171 16.18131
# Shear Modulus (GPa) = 37.08876 19.74457 28.41667
#
# Velocity S-wave (km/s) = 4.11437 3.00197 3.60138
# Velocity P-wave (km/s) = 5.27663 4.63839 4.96777
#
# Compressibility (1/GPa) = 0.08657321
#
# Stress axis : x y z
#
# Youngs Moduli (GPa) = 44.31483 28.33640 102.16211
#
# Poissons Ratio (x) = -0.25000 -0.07951
# Poissons Ratio (y) = -0.39097 0.01393
# Poissons Ratio (z) = -0.03449 0.00386
#
# Static dielectric constant tensor:
#      x y z
#    x 1.764610 0.000000 -0.014870 
#    y 0.000000 1.829900 0.000000 
#    z -0.014870 0.000000 1.816100 
# 
# From -- ./inp_files/238889.got.cif
#   From: 2010.05.17/outbox.cif.g08.bks.cpg/sg12_120_cif.got.tgz:238889.got - 2010.06.03 13:09:07.
