data_PCOD9188465
_publ_section_title
;
Structure prediction by ZEFSAII (Michael W. Deem and Ramdas Pophale) SiO2 
 PCOD9188465
Probable space group: C 2/M
;
_chemical_formula_sum "Si O2"
_cell_formula_units_Z 60
_cell_length_a 24.326702
_cell_length_b 9.773732
_cell_length_c 13.715226
_cell_angle_alpha 90.000000
_cell_angle_beta 68.365296
_cell_angle_gamma 90.000000
_cell_volume 3031.244351
_symmetry_space_group_name_H-M "C 2/M"
_symmetry_group_IT_number 12
_symmetry_cell_setting 'monoclinic'
loop_
_space_group_symop_operation_xyz
x,y,z
-x,y,-z
-x,-y,-z
x,-y,z
1/2+x,1/2+y,z
1/2-x,1/2+y,-z
1/2-x,1/2-y,-z
1/2+x,1/2-y,z
loop_
_atom_site_type_symbol
_atom_site_label
_atom_site_fract_x
_atom_site_fract_y
_atom_site_fract_z
Si Si1 0.624126 0.835459 0.308741
Si Si2 0.008073 0.337992 0.278425
Si Si3 0.764508 0.500000 0.463580
Si Si4 0.731465 0.838776 0.104352
Si Si5 0.847853 0.837654 0.142363
Si Si6 0.942420 0.660170 0.970545
Si Si7 0.606137 0.342603 0.673521
Si Si8 0.805859 0.766130 0.554241
O O1 0.556881 0.799215 0.326636
O O2 0.666835 0.807412 0.188723
O O3 0.651996 0.759385 0.381968
O O4 0.626297 0.000000 0.323386
O O5 0.995274 0.500000 0.296037
O O6 0.038156 0.316538 0.153144
O O7 0.947964 0.253923 0.319538
O O8 0.782554 0.620990 0.531052
O O9 0.745062 0.377778 0.398895
O O10 0.779696 0.815797 0.158440
O O11 0.733148 0.000000 0.078206
O O12 0.750000 0.750000 0.000000
O O13 0.866038 0.800930 0.240717
O O14 0.859057 0.000000 0.123857
O O15 0.889347 0.753441 0.042283
O O16 0.926485 0.500000 0.991624
O O17 0.000000 0.686187 0.000000
O O18 0.586439 0.500000 0.695084
O O19 0.655492 0.332986 0.558266
#
# Coordination Sequence:
#
# PCOD9188465 Si02
#       8
#     8   8   4   8   8   8   8   8
#     4  10  22  42  66  87 122 171 204 241 310 373
#     4  10  22  40  63  87 121 165 209 250 299 370
#     4  10  24  40  70  90 128 156 206 254 306 362
#     4  10  22  41  62  89 122 159 201 249 304 367
#     4  10  22  36  60  88 120 160 200 247 310 372
#     4  10  19  36  59  88 119 156 203 252 298 345
#     4  11  24  41  60  91 124 159 202 258 310 354
#     4  11  23  43  64  96 121 165 200 255 306 367
#
# _framework density 19.793851
#
# number of rings (size 3 to 8) (size 9 to 14) (size 15 to 20)
#    0.000    1.733    2.667    0.800    4.667    2.933 
#    2.400    2.000    0.000    0.000    0.000    0.000 
#    0.000    0.000    0.000    0.000    0.000    0.000 
#
# Total GULP energy -167093.976842 kJ/mol
# GULP energy per Si atom -5569.799228 kJ/mol
# Density = 1.974880 g / cm^3
# Si number density = 19.793851 Si / 1000 Ang^3
#
#
#
# Elastic Constant Matrix: (Units=GPa)
#
#
# Indices 1 2 3 4 5 6 
#
# 1 87.2537 30.9003 12.8349 0.0000 18.4492 0.0000
# 2 30.9003 66.5747 7.6326 0.0000 8.2368 0.0000
# 3 12.8349 7.6326 24.0401 0.0000 10.2794 0.0000
# 4 0.0000 0.0000 0.0000 12.1389 0.0000 20.5569
# 5 18.4492 8.2368 10.2794 0.0000 37.3286 0.0000
# 6 0.0000 0.0000 0.0000 20.5569 0.0000 6.2484
#
#
#
# Elastic Compliance Matrix: (Units=1/GPa)
#
#
# Indices 1 2 3 4 5 6 
#
# 1 0.015256 -0.005984 -0.004064 0.000000 -0.005101 0.000000
# 2 -0.005984 0.018120 -0.002395 0.000000 -0.000381 0.000000
# 3 -0.004064 -0.002395 0.049241 0.000000 -0.011022 0.000000
# 4 0.000000 0.000000 0.000000 -0.018021 0.000000 0.059287
# 5 -0.005101 -0.000381 -0.011022 0.000000 0.032429 0.000000
# 6 0.000000 0.000000 0.000000 0.059287 0.000000 -0.035009
#
#
# Mechanical properties :
#
#
# Convention : Reuss Voigt Hill
#
# Bulk Modulus (GPa) = 17.32209 31.17823 24.25016
# Shear Modulus (GPa) = 47.10429 19.57655 33.34042
#
# Velocity S-wave (km/s) = 4.88355 3.14828 4.10858
# Velocity P-wave (km/s) = 6.36938 5.38528 5.89789
#
# Compressibility (1/GPa) = 0.05772975
#
# Stress axis : x y z
#
# Youngs Moduli (GPa) = 65.54599 55.18770 20.30842
#
# Poissons Ratio (x) = 0.33025 0.08254
# Poissons Ratio (y) = 0.39224 0.04864
# Poissons Ratio (z) = 0.26640 0.13218
#
# Static dielectric constant tensor:
#      x y z
#    x 1.734990 0.000000 -0.008360 
#    y 0.000000 1.666140 0.000000 
#    z -0.008360 0.000000 1.698840 
# 
# From -- ./inp_files/238538.got.cif
#   From: 2010.05.17/outbox.cif.g08.bks.cpg/sg12_120_cif.got.tgz:238538.got - 2010.06.03 13:09:07.
