data_PCOD9188165
_publ_section_title
;
Structure prediction by ZEFSAII (Michael W. Deem and Ramdas Pophale) SiO2 
 PCOD9188165
Probable space group: C 2/M
;
_chemical_formula_sum "Si O2"
_cell_formula_units_Z 28
_cell_length_a 14.255753
_cell_length_b 18.962458
_cell_length_c 8.503831
_cell_angle_alpha 90.000000
_cell_angle_beta 30.742380
_cell_angle_gamma 90.000000
_cell_volume 1175.092993
_symmetry_space_group_name_H-M "C 2/M"
_symmetry_group_IT_number 12
_symmetry_cell_setting 'monoclinic'
loop_
_space_group_symop_operation_xyz
x,y,z
-x,y,-z
-x,-y,-z
x,-y,z
1/2+x,1/2+y,z
1/2-x,1/2+y,-z
1/2-x,1/2-y,-z
1/2+x,1/2-y,z
loop_
_atom_site_type_symbol
_atom_site_label
_atom_site_fract_x
_atom_site_fract_y
_atom_site_fract_z
Si Si1 0.044210 0.500000 0.758567
Si Si2 0.379823 0.268197 0.518377
Si Si3 0.709722 0.000000 0.126175
Si Si4 0.500000 0.779473 0.000000
Si Si5 0.795222 0.885966 0.228604
O O1 0.163388 0.432974 0.529317
O O2 0.840218 0.500000 0.979796
O O3 0.000000 0.500000 0.000000
O O4 0.500000 0.286347 0.500000
O O5 0.464129 0.260566 0.220766
O O6 0.195641 0.314716 0.757639
O O7 0.303632 0.188481 0.654462
O O8 0.500000 0.000000 0.500000
O O9 0.803416 0.069754 0.055516
O O10 0.000000 0.884621 0.000000
#
# Coordination Sequence:
#
# PCOD9188165 Si02
#       5
#     4   8   4   4   8
#     4  10  20  33  56  83 112 141 188 236 273 332
#     4  11  21  40  62  84 118 153 190 241 289 338
#     4   8  16  33  54  79 102 147 183 210 281 338
#     4  10  24  38  60  90 112 148 204 236 286 340
#     4  10  19  36  57  79 110 151 184 223 286 344
#
# _framework density 23.827902000000002
#
# number of rings (size 3 to 8) (size 9 to 14) (size 15 to 20)
#    0.000    2.286    1.429    5.143    2.000    0.000 
#    0.000    2.857    0.000    0.000    0.000    0.000 
#    0.000    0.000    0.000    0.000    0.000    0.000 
#
# Total GULP energy -78006.167518 kJ/mol
# GULP energy per Si atom -5571.869108 kJ/mol
# Density = 2.377367 g / cm^3
# Si number density = 23.827902 Si / 1000 Ang^3
#
#
#
# Elastic Constant Matrix: (Units=GPa)
#
#
# Indices 1 2 3 4 5 6 
#
# 1 272.3740 25.9988 65.4460 -0.0073 -8.2466 0.0049
# 2 25.9988 82.5783 -6.6490 -0.0015 -9.7769 0.0023
# 3 65.4460 -6.6490 87.4040 -0.0110 -7.9356 0.0058
# 4 -0.0073 -0.0015 -0.0110 2.2355 0.0061 -4.7122
# 5 -8.2466 -9.7769 -7.9356 0.0061 44.0336 -0.0035
# 6 0.0049 0.0023 0.0058 -4.7122 -0.0035 24.5735
#
#
#
# Elastic Compliance Matrix: (Units=1/GPa)
#
#
# Indices 1 2 3 4 5 6 
#
# 1 0.004726 -0.001807 -0.003692 -0.000005 -0.000182 -0.000001
# 2 -0.001807 0.013256 0.002641 0.000009 0.003081 0.000001
# 3 -0.003692 0.002641 0.014637 0.000082 0.002533 0.000013
# 4 -0.000005 0.000009 0.000082 0.750823 -0.000078 0.143978
# 5 -0.000182 0.003081 0.002533 -0.000078 0.023816 -0.000012
# 6 -0.000001 0.000001 0.000013 0.143978 -0.000012 0.068303
#
#
# Mechanical properties :
#
#
# Convention : Reuss Voigt Hill
#
# Bulk Modulus (GPa) = 37.17186 67.99420 52.58303
# Shear Modulus (GPa) = 5.61644 38.00590 21.81117
#
# Velocity S-wave (km/s) = 1.53695 3.99810 3.02878
# Velocity P-wave (km/s) = 4.33401 7.06474 5.86064
#
# Compressibility (1/GPa) = 0.02690207
#
# Stress axis : x y z
#
# Youngs Moduli (GPa) = 211.61558 75.43815 68.32152
#
# Poissons Ratio (x) = 0.13628 0.25226
# Poissons Ratio (y) = 0.38230 -0.18043
# Poissons Ratio (z) = 0.78135 -0.19922
#
# Static dielectric constant tensor:
#      x y z
#    x 2.000000 0.000000 0.007890 
#    y 0.000000 1.983400 0.000000 
#    z 0.007890 0.000000 1.977260 
# 
# From -- ./inp_files/63084.got.cif
#   From: 2010.05.17/outbox.cif.g08.bks.cpg/sg12_32_cif.got.tgz:63084.got - 2010.06.03 13:09:07.
