data_PCOD9188642
_publ_section_title
;
Structure prediction by ZEFSAII (Michael W. Deem and Ramdas Pophale) SiO2 
 PCOD9188642
Probable space group: C 2/M
;
_chemical_formula_sum "Si O2"
_cell_formula_units_Z 50
_cell_length_a 14.515895
_cell_length_b 15.320802
_cell_length_c 11.868092
_cell_angle_alpha 90.000000
_cell_angle_beta 66.225665
_cell_angle_gamma 90.000000
_cell_volume 2415.427029
_symmetry_space_group_name_H-M "C 2/M"
_symmetry_group_IT_number 12
_symmetry_cell_setting 'monoclinic'
loop_
_space_group_symop_operation_xyz
x,y,z
-x,y,-z
-x,-y,-z
x,-y,z
1/2+x,1/2+y,z
1/2-x,1/2+y,-z
1/2-x,1/2-y,-z
1/2+x,1/2-y,z
loop_
_atom_site_type_symbol
_atom_site_label
_atom_site_fract_x
_atom_site_fract_y
_atom_site_fract_z
Si Si1 0.810089 0.690503 0.134406
Si Si2 0.519460 0.144017 0.618515
Si Si3 0.000000 0.000000 0.500000
Si Si4 0.354546 0.185633 0.867805
Si Si5 0.922884 0.154238 0.389503
Si Si6 0.734431 0.900544 0.615249
Si Si7 0.981171 0.812294 0.126910
O O1 0.741583 0.776275 0.149045
O O2 0.766112 0.633270 0.256684
O O3 0.916475 0.726500 0.126154
O O4 0.824300 0.646908 0.004584
O O5 0.500000 0.114481 0.500000
O O6 0.426390 0.130429 0.750522
O O7 0.533898 0.249262 0.609552
O O8 0.622642 0.106446 0.619192
O O9 0.012045 0.077765 0.589136
O O10 0.415898 0.273784 0.873248
O O11 0.813060 0.151233 0.499865
O O12 0.921913 0.141605 0.255699
O O13 0.772257 0.000000 0.595623
O O14 0.000000 0.860309 0.000000
#
# Coordination Sequence:
#
# PCOD9188642 Si02
#       7
#     8   8   2   8   8   8   8
#     4  10  19  36  60  89 122 154 206 253 295 355
#     4  11  22  38  64  86 118 164 209 242 308 369
#     4  12  24  40  62  92 120 146 200 274 312 356
#     4   9  19  34  60  92 115 153 206 254 295 357
#     4  11  22  39  60  91 120 153 198 257 313 359
#     4  12  25  38  58  91 127 163 203 252 300 359
#     4   9  19  36  61  88 118 156 202 248 299 370
#
# _framework density 20.700272999999999
#
# number of rings (size 3 to 8) (size 9 to 14) (size 15 to 20)
#    0.000    1.600    4.800    1.440    4.480    0.320 
#    0.000    2.000    0.000    0.000   12.480    0.000 
#    0.000    0.000    0.000    0.000    0.000    0.000 
#
# Total GULP energy -139233.956662 kJ/mol
# GULP energy per Si atom -5569.358266 kJ/mol
# Density = 2.065316 g / cm^3
# Si number density = 20.700273 Si / 1000 Ang^3
#
#
#
# Elastic Constant Matrix: (Units=GPa)
#
#
# Indices 1 2 3 4 5 6 
#
# 1 31.8224 -14.2501 24.4199 0.0000 2.0154 0.0000
# 2 -14.2501 41.0412 4.0104 0.0000 8.1178 0.0000
# 3 24.4199 4.0104 220.0389 0.0000 9.6857 0.0000
# 4 0.0000 0.0000 0.0000 2.5020 0.0000 -1.8756
# 5 2.0154 8.1178 9.6857 0.0000 36.2256 0.0000
# 6 0.0000 0.0000 0.0000 -1.8756 0.0000 -2.8705
#
#
#
# Elastic Compliance Matrix: (Units=1/GPa)
#
#
# Indices 1 2 3 4 5 6 
#
# 1 0.042695 0.016230 -0.004826 0.000000 -0.004722 0.000000
# 2 0.016230 0.031676 -0.002050 0.000000 -0.007453 0.000000
# 3 -0.004826 -0.002050 0.005146 0.000000 -0.000648 0.000000
# 4 0.000000 0.000000 0.000000 0.268273 0.000000 -0.175294
# 5 -0.004722 -0.007453 -0.000648 0.000000 0.029711 0.000000
# 6 0.000000 0.000000 0.000000 -0.175294 0.000000 -0.233834
#
#
# Mechanical properties :
#
#
# Convention : Reuss Voigt Hill
#
# Bulk Modulus (GPa) = 10.18094 35.69587 22.93841
# Shear Modulus (GPa) = 31.70558 25.75290 28.72924
#
# Velocity S-wave (km/s) = 3.91788 3.53099 3.72945
# Velocity P-wave (km/s) = 5.03937 5.82283 5.44521
#
# Compressibility (1/GPa) = 0.09822277
#
# Stress axis : x y z
#
# Youngs Moduli (GPa) = 23.42209 31.57013 194.31976
#
# Poissons Ratio (x) = -0.51238 0.93783
# Poissons Ratio (y) = -0.38014 0.39844
# Poissons Ratio (z) = 0.11304 0.06473
#
# Static dielectric constant tensor:
#      x y z
#    x 1.791540 0.000000 -0.017040 
#    y 0.000000 1.691340 0.000000 
#    z -0.017040 0.000000 1.818840 
# 
# From -- ./inp_files/143657.got.cif
#   From: 2010.05.17/outbox.cif.g08.bks.cpg/sg12_72_cif.got.tgz:143657.got - 2010.06.03 13:09:07.
