data_PCOD9188948
_publ_section_title
;
Structure prediction by ZEFSAII (Michael W. Deem and Ramdas Pophale) SiO2 
 PCOD9188948
Probable space group: C 2/M
;
_chemical_formula_sum "Si O2"
_cell_formula_units_Z 48
_cell_length_a 12.128371
_cell_length_b 13.420702
_cell_length_c 21.117312
_cell_angle_alpha 90.000000
_cell_angle_beta 142.655570
_cell_angle_gamma 90.000000
_cell_volume 2085.078342
_symmetry_space_group_name_H-M "C 2/M"
_symmetry_group_IT_number 12
_symmetry_cell_setting 'monoclinic'
loop_
_space_group_symop_operation_xyz
x,y,z
-x,y,-z
-x,-y,-z
x,-y,z
1/2+x,1/2+y,z
1/2-x,1/2+y,-z
1/2-x,1/2-y,-z
1/2+x,1/2-y,z
loop_
_atom_site_type_symbol
_atom_site_label
_atom_site_fract_x
_atom_site_fract_y
_atom_site_fract_z
Si Si1 0.162339 0.682490 0.759608
Si Si2 0.453386 0.679003 0.802478
Si Si3 0.028996 0.391553 0.206301
Si Si4 0.022928 0.110770 0.317994
Si Si5 0.917829 0.619707 0.529208
Si Si6 0.143610 0.384723 0.012293
O O1 0.362501 0.655629 0.827300
O O2 0.110980 0.624832 0.799902
O O3 0.125193 0.801450 0.749503
O O4 0.031454 0.651426 0.642054
O O5 0.368517 0.786216 0.743963
O O6 0.410571 0.607543 0.724733
O O7 0.671045 0.677275 0.906550
O O8 0.117471 0.500000 0.254822
O O9 0.943461 0.388314 0.097089
O O10 0.203178 0.142780 0.437708
O O11 0.959963 0.000000 0.307760
O O12 0.924903 0.500000 0.529280
O O13 0.000000 0.658706 0.500000
O O14 0.191329 0.500000 0.051394
O O15 0.000000 0.349979 0.000000
#
# Coordination Sequence:
#
# PCOD9188948 Si02
#       6
#     8   8   8   8   8   8
#     4  11  23  39  65  95 129 163 208 269 311 368
#     4  11  23  40  65  93 123 164 213 260 312 373
#     4  10  24  42  60  90 126 165 204 256 322 368
#     4  10  22  39  62  93 126 169 215 254 309 378
#     4  10  19  36  63  92 127 170 213 256 308 374
#     4  10  23  43  68  93 124 166 212 259 310 380
#
# _framework density 23.020719
#
# number of rings (size 3 to 8) (size 9 to 14) (size 15 to 20)
#    0.000    1.667    1.667    2.000    4.667    3.333 
#    0.000    1.667    0.000    0.500    0.000    0.000 
#    0.000    0.000    0.000    0.000    0.000    0.000 
#
# Total GULP energy -133963.249281 kJ/mol
# GULP energy per Si atom -5581.802053 kJ/mol
# Density = 2.296832 g / cm^3
# Si number density = 23.020719 Si / 1000 Ang^3
#
#
#
# Elastic Constant Matrix: (Units=GPa)
#
#
# Indices 1 2 3 4 5 6 
#
# 1 168.5318 7.5775 43.5490 0.0000 -11.2738 0.0000
# 2 7.5775 92.6489 15.1482 0.0000 6.6224 0.0000
# 3 43.5490 15.1482 77.6050 0.0000 -2.6322 0.0000
# 4 0.0000 0.0000 0.0000 21.7131 0.0000 -12.9150
# 5 -11.2738 6.6224 -2.6322 0.0000 29.9615 0.0000
# 6 0.0000 0.0000 0.0000 -12.9150 0.0000 15.4278
#
#
#
# Elastic Compliance Matrix: (Units=1/GPa)
#
#
# Indices 1 2 3 4 5 6 
#
# 1 0.007099 -0.000114 -0.003882 0.000000 0.002356 0.000000
# 2 -0.000114 0.011367 -0.002248 0.000000 -0.002753 0.000000
# 3 -0.003882 -0.002248 0.015516 0.000000 0.000399 0.000000
# 4 0.000000 0.000000 0.000000 0.091729 0.000000 0.076789
# 5 0.002356 -0.002753 0.000399 0.000000 0.034906 0.000000
# 6 0.000000 0.000000 0.000000 0.076789 0.000000 0.129100
#
#
# Mechanical properties :
#
#
# Convention : Reuss Voigt Hill
#
# Bulk Modulus (GPa) = 46.52297 52.37054 49.44675
# Shear Modulus (GPa) = 16.16178 31.58787 23.87483
#
# Velocity S-wave (km/s) = 2.65250 3.70827 3.22390
# Velocity P-wave (km/s) = 5.44372 6.41356 5.94844
#
# Compressibility (1/GPa) = 0.02149476
#
# Stress axis : x y z
#
# Youngs Moduli (GPa) = 140.85803 87.97298 64.44809
#
# Poissons Ratio (x) = 0.01006 0.25017
# Poissons Ratio (y) = 0.01611 0.14488
# Poissons Ratio (z) = 0.54676 0.19777
#
# Static dielectric constant tensor:
#      x y z
#    x 1.928080 0.000000 0.016440 
#    y 0.000000 1.914180 0.000000 
#    z 0.016440 0.000000 1.868090 
# 
# From -- ./inp_files/204858.got.cif
#   From: 2010.05.17/outbox.cif.g08.bks.cpg/sg12_103_cif.got.tgz:204858.got - 2010.06.03 13:09:07.
