data_PCOD9188075
_publ_section_title
;
Structure prediction by ZEFSAII (Michael W. Deem and Ramdas Pophale) SiO2 
 PCOD9188075
Probable space group: C 2/M
;
_chemical_formula_sum "Si O2"
_cell_formula_units_Z 64
_cell_length_a 12.267543
_cell_length_b 24.147071
_cell_length_c 21.501330
_cell_angle_alpha 90.000000
_cell_angle_beta 149.041493
_cell_angle_gamma 90.000000
_cell_volume 3276.444714
_symmetry_space_group_name_H-M "C 2/M"
_symmetry_group_IT_number 12
_symmetry_cell_setting 'monoclinic'
loop_
_space_group_symop_operation_xyz
x,y,z
-x,y,-z
-x,-y,-z
x,-y,z
1/2+x,1/2+y,z
1/2-x,1/2+y,-z
1/2-x,1/2-y,-z
1/2+x,1/2-y,z
loop_
_atom_site_type_symbol
_atom_site_label
_atom_site_fract_x
_atom_site_fract_y
_atom_site_fract_z
Si Si1 0.833023 0.355188 0.746131
Si Si2 0.979408 0.828075 0.133522
Si Si3 0.743733 0.721867 0.596417
Si Si4 0.511916 0.781523 0.932785
Si Si5 0.520150 0.063703 0.281436
Si Si6 0.154722 0.880727 0.474200
Si Si7 0.748164 0.655439 0.389777
Si Si8 0.066398 0.063483 0.104445
O O1 0.862284 0.302562 0.714334
O O2 0.967458 0.401380 0.775998
O O3 0.591486 0.376217 0.628659
O O4 0.883376 0.331779 0.838299
O O5 0.069200 0.777007 0.135945
O O6 0.120129 0.844397 0.262370
O O7 0.955272 0.885680 0.084618
O O8 0.753459 0.800918 0.038931
O O9 0.500000 0.724678 0.500000
O O10 0.759574 0.676759 0.550323
O O11 0.808027 0.783274 0.611706
O O12 0.500000 0.776596 0.000000
O O13 0.725661 0.075002 0.424435
O O14 0.316823 0.077540 0.224267
O O15 0.500888 0.000000 0.255213
O O16 0.186300 0.885447 0.415736
O O17 0.000000 0.650655 0.500000
O O18 0.035851 0.000000 0.113446
O O19 0.000000 0.062920 0.000000
#
# Coordination Sequence:
#
# PCOD9188075 Si02
#       8
#     8   8   8   8   8   8   8   8
#     4  10  19  36  55  82 118 152 192 238 298 353
#     4  11  23  39  59  88 121 158 199 239 303 346
#     4   8  16  30  48  74 106 144 184 228 273 341
#     4  11  23  39  59  86 124 159 194 244 295 359
#     4  10  21  38  62  90 117 150 198 250 296 346
#     4  10  20  33  53  81 115 153 191 237 292 346
#     4  11  20  34  52  80 116 154 197 236 287 356
#     4  10  21  40  64  87 112 151 203 249 289 344
#
# _framework density 19.533369
#
# number of rings (size 3 to 8) (size 9 to 14) (size 15 to 20)
#    0.000    1.875    1.250    4.125    0.000    2.000 
#    6.750    0.625    0.000    5.250    0.000    0.000 
#    0.000    0.000    0.000    0.000    0.000    0.000 
#
# Total GULP energy -178348.059373 kJ/mol
# GULP energy per Si atom -5573.376855 kJ/mol
# Density = 1.948891 g / cm^3
# Si number density = 19.533369 Si / 1000 Ang^3
#
#
#
# Elastic Constant Matrix: (Units=GPa)
#
#
# Indices 1 2 3 4 5 6 
#
# 1 61.1916 35.0945 8.8311 -0.0014 -18.0344 0.0041
# 2 35.0945 71.3760 2.5382 0.0107 -4.3598 -0.0012
# 3 8.8311 2.5382 72.5114 0.0507 -12.2501 -0.0168
# 4 -0.0014 0.0107 0.0507 6.8488 0.0009 17.2820
# 5 -18.0344 -4.3598 -12.2501 0.0009 30.0007 0.0018
# 6 0.0041 -0.0012 -0.0168 17.2820 0.0018 -4.9913
#
#
#
# Elastic Compliance Matrix: (Units=1/GPa)
#
#
# Indices 1 2 3 4 5 6 
#
# 1 0.028228 -0.012953 -0.000468 -0.000006 0.014895 0.000013
# 2 -0.012953 0.020081 0.000056 0.000001 -0.004845 -0.000014
# 3 -0.000468 0.000056 0.014822 0.000001 0.005779 -0.000044
# 4 -0.000006 0.000001 0.000001 0.014996 -0.000006 0.051921
# 5 0.014895 -0.004845 0.005779 -0.000006 0.043942 -0.000012
# 6 0.000013 -0.000014 -0.000044 0.051921 -0.000012 -0.020576
#
#
# Mechanical properties :
#
#
# Convention : Reuss Voigt Hill
#
# Bulk Modulus (GPa) = 27.47113 33.11187 30.29150
# Shear Modulus (GPa) = 35.62332 16.94600 26.28466
#
# Velocity S-wave (km/s) = 4.27513 2.94860 3.67226
# Velocity P-wave (km/s) = 6.20187 5.34608 5.78981
#
# Compressibility (1/GPa) = 0.03640185
#
# Stress axis : x y z
#
# Youngs Moduli (GPa) = 35.42534 49.79800 67.46596
#
# Poissons Ratio (x) = 0.64503 0.03158
# Poissons Ratio (y) = 0.45886 -0.00378
# Poissons Ratio (z) = 0.01658 -0.00279
#
# Static dielectric constant tensor:
#      x y z
#    x 1.696820 0.000000 0.006090 
#    y 0.000000 1.676370 -0.000010 
#    z 0.006090 -0.000010 1.738780 
# 
# From -- ./inp_files/307490.got.cif
#   From: 2010.05.17/outbox.cif.g08.bks.cpg/sg12_154_cif.got.tgz:307490.got - 2010.06.03 13:09:07.
