data_PCOD9188788
_publ_section_title
;
Structure prediction by ZEFSAII (Michael W. Deem and Ramdas Pophale) SiO2 
 PCOD9188788
Probable space group: C 2/M
;
_chemical_formula_sum "Si O2"
_cell_formula_units_Z 48
_cell_length_a 9.116906
_cell_length_b 12.798961
_cell_length_c 27.451520
_cell_angle_alpha 90.000000
_cell_angle_beta 138.405908
_cell_angle_gamma 90.000000
_cell_volume 2126.463636
_symmetry_space_group_name_H-M "C 2/M"
_symmetry_group_IT_number 12
_symmetry_cell_setting 'monoclinic'
loop_
_space_group_symop_operation_xyz
x,y,z
-x,y,-z
-x,-y,-z
x,-y,z
1/2+x,1/2+y,z
1/2-x,1/2+y,-z
1/2-x,1/2-y,-z
1/2+x,1/2-y,z
loop_
_atom_site_type_symbol
_atom_site_label
_atom_site_fract_x
_atom_site_fract_y
_atom_site_fract_z
Si Si1 0.625230 0.624331 0.984881
Si Si2 0.239242 0.618593 0.809705
Si Si3 0.038538 0.224073 0.218755
Si Si4 0.759839 0.208313 0.447165
Si Si5 0.089179 0.617675 0.077128
Si Si6 0.803829 0.623232 0.368784
O O1 0.666169 0.500000 0.002944
O O2 0.454862 0.623376 0.897934
O O3 0.500000 0.668223 0.000000
O O4 0.873188 0.667713 0.047613
O O5 0.222265 0.500000 0.787510
O O6 0.019951 0.656824 0.782898
O O7 0.282427 0.700990 0.777844
O O8 0.808858 0.180182 0.140764
O O9 0.113505 0.159627 0.284465
O O10 0.750000 0.250000 0.500000
O O11 0.774358 0.301223 0.409565
O O12 0.530419 0.143787 0.393185
O O13 0.000000 0.152794 0.500000
O O14 0.135338 0.500000 0.105753
O O15 0.000000 0.607879 0.000000
O O16 0.794445 0.500000 0.379134
#
# Coordination Sequence:
#
# PCOD9188788 Si02
#       6
#     8   8   8   8   8   8
#     4   9  19  36  58  84 119 164 227 300 354 398
#     4  11  25  45  63  90 132 174 232 302 350 403
#     4  12  25  41  67  97 133 188 230 280 358 413
#     4   9  21  43  72 106 139 174 223 263 316 408
#     4  10  19  36  61  90 126 175 240 296 343 406
#     4  11  23  43  70 104 147 183 221 279 339 398
#
# _framework density 22.572687999999999
#
# number of rings (size 3 to 8) (size 9 to 14) (size 15 to 20)
#    0.000    1.667    1.667    2.500    2.333    4.667 
#    0.000    6.667    0.000    0.000    0.000    0.000 
#    0.000    0.000    0.000    0.000    0.000    0.000 
#
# Total GULP energy -133873.169225 kJ/mol
# GULP energy per Si atom -5578.048718 kJ/mol
# Density = 2.252131 g / cm^3
# Si number density = 22.572688 Si / 1000 Ang^3
#
#
#
# Elastic Constant Matrix: (Units=GPa)
#
#
# Indices 1 2 3 4 5 6 
#
# 1 128.2982 24.0000 28.3669 0.0000 3.8104 0.0000
# 2 24.0000 94.7616 16.3479 0.0000 17.8306 0.0000
# 3 28.3669 16.3479 89.0039 0.0000 -1.6039 0.0000
# 4 0.0000 0.0000 0.0000 19.6544 0.0000 -3.0411
# 5 3.8104 17.8306 -1.6039 0.0000 30.4577 0.0000
# 6 0.0000 0.0000 0.0000 -3.0411 0.0000 27.0911
#
#
#
# Elastic Compliance Matrix: (Units=1/GPa)
#
#
# Indices 1 2 3 4 5 6 
#
# 1 0.008666 -0.001736 -0.002447 0.000000 -0.000197 0.000000
# 2 -0.001736 0.012699 -0.001911 0.000000 -0.007318 0.000000
# 3 -0.002447 -0.001911 0.012404 0.000000 0.002078 0.000000
# 4 0.000000 0.000000 0.000000 0.051778 0.000000 0.005812
# 5 -0.000197 -0.007318 0.002078 0.000000 0.037250 0.000000
# 6 0.000000 0.000000 0.000000 0.005812 0.000000 0.037565
#
#
# Mechanical properties :
#
#
# Convention : Reuss Voigt Hill
#
# Bulk Modulus (GPa) = 46.33584 49.94368 48.13976
# Shear Modulus (GPa) = 27.81744 31.66391 29.74067
#
# Velocity S-wave (km/s) = 3.51429 3.74940 3.63375
# Velocity P-wave (km/s) = 6.08596 6.39670 6.24326
#
# Compressibility (1/GPa) = 0.02158157
#
# Stress axis : x y z
#
# Youngs Moduli (GPa) = 115.39581 78.74620 80.62080
#
# Poissons Ratio (x) = 0.13667 0.19725
# Poissons Ratio (y) = 0.20028 0.15408
# Poissons Ratio (z) = 0.28234 0.15050
#
# Static dielectric constant tensor:
#      x y z
#    x 2.178450 0.000000 0.049030 
#    y 0.000000 1.885400 0.000000 
#    z 0.049030 0.000000 1.870590 
# 
# From -- ./inp_files/356355.got.cif
#   From: 2010.05.17/outbox.cif.g08.bks.cpg/sg12_179_cif.got.tgz:356355.got - 2010.06.03 13:09:07.
