data_PCOD9188101
_publ_section_title
;
Structure prediction by ZEFSAII (Michael W. Deem and Ramdas Pophale) SiO2 
 PCOD9188101
Probable space group: C 2/M
;
_chemical_formula_sum "Si O2"
_cell_formula_units_Z 48
_cell_length_a 10.497344
_cell_length_b 19.527382
_cell_length_c 11.799968
_cell_angle_alpha 90.000000
_cell_angle_beta 105.082508
_cell_angle_gamma 90.000000
_cell_volume 2335.500696
_symmetry_space_group_name_H-M "C 2/M"
_symmetry_group_IT_number 12
_symmetry_cell_setting 'monoclinic'
loop_
_space_group_symop_operation_xyz
x,y,z
-x,y,-z
-x,-y,-z
x,-y,z
1/2+x,1/2+y,z
1/2-x,1/2+y,-z
1/2-x,1/2-y,-z
1/2+x,1/2-y,z
loop_
_atom_site_type_symbol
_atom_site_label
_atom_site_fract_x
_atom_site_fract_y
_atom_site_fract_z
Si Si1 0.319463 0.647339 0.441861
Si Si2 0.730374 0.000000 0.919423
Si Si3 0.514712 0.000000 0.702533
Si Si4 0.201330 0.000000 0.584504
Si Si5 0.025754 0.794393 0.322708
Si Si6 0.574132 0.383840 0.128105
Si Si7 0.618306 0.500000 0.824746
Si Si8 0.510842 0.850767 0.369952
O O1 0.343529 0.569035 0.487284
O O2 0.364905 0.697969 0.551979
O O3 0.405924 0.663177 0.351450
O O4 0.166212 0.647563 0.377594
O O5 0.805724 0.067121 0.884740
O O6 0.580100 0.000000 0.841885
O O7 0.757628 0.000000 0.060003
O O8 0.555440 0.925091 0.663516
O O9 0.359520 0.000000 0.638622
O O10 0.150037 0.000000 0.700843
O O11 0.091359 0.825579 0.225973
O O12 0.968250 0.717843 0.295477
O O13 0.470396 0.435683 0.161376
O O14 0.500000 0.355670 0.000000
O O15 0.500000 0.835968 0.500000
#
# Coordination Sequence:
#
# PCOD9188101 Si02
#       8
#     8   4   4   4   8   8   4   8
#     4  10  22  35  54  89 113 149 185 222 284 331
#     4   9  20  35  58  85 107 150 197 224 273 328
#     4  10  24  38  54  80 107 157 192 223 274 336
#     4  10  19  36  56  80 124 145 181 234 271 333
#     4  11  21  35  62  83 113 148 184 232 285 338
#     4   9  19  35  59  89 113 141 184 239 284 319
#     4   9  16  34  59  81 115 147 179 238 281 317
#     4  11  23  39  56  80 118 150 184 230 281 334
#
# _framework density 20.552337000000001
#
# number of rings (size 3 to 8) (size 9 to 14) (size 15 to 20)
#    0.000    2.000    3.333    1.750    2.333    3.000 
#    0.000    0.000    7.333    3.000    0.000    0.000 
#    0.000    0.000    0.000    0.000    0.000    0.000 
#
# Total GULP energy -133683.553506 kJ/mol
# GULP energy per Si atom -5570.148063 kJ/mol
# Density = 2.050556 g / cm^3
# Si number density = 20.552337 Si / 1000 Ang^3
#
#
#
# Elastic Constant Matrix: (Units=GPa)
#
#
# Indices 1 2 3 4 5 6 
#
# 1 23.5692 0.9532 -0.0413 0.0000 10.0805 0.0000
# 2 0.9532 128.3171 11.6060 0.0000 -1.5338 0.0000
# 3 -0.0413 11.6060 59.4470 0.0000 -3.0847 0.0000
# 4 0.0000 0.0000 0.0000 9.8127 0.0000 -1.2924
# 5 10.0805 -1.5338 -3.0847 0.0000 22.4139 0.0000
# 6 0.0000 0.0000 0.0000 -1.2924 0.0000 10.7073
#
#
#
# Elastic Compliance Matrix: (Units=1/GPa)
#
#
# Indices 1 2 3 4 5 6 
#
# 1 0.052660 -0.000578 -0.001089 0.000000 -0.023873 0.000000
# 2 -0.000578 0.007942 -0.001520 0.000000 0.000594 0.000000
# 3 -0.001089 -0.001520 0.017261 0.000000 0.002762 0.000000
# 4 0.000000 0.000000 0.000000 0.103554 0.000000 0.012499
# 5 -0.023873 0.000594 0.002762 0.000000 0.055773 0.000000
# 6 0.000000 0.000000 0.000000 0.012499 0.000000 0.094903
#
#
# Mechanical properties :
#
#
# Convention : Reuss Voigt Hill
#
# Bulk Modulus (GPa) = 13.98830 26.26324 20.12577
# Shear Modulus (GPa) = 13.80081 21.84114 17.82098
#
# Velocity S-wave (km/s) = 2.59413 3.26346 2.94785
# Velocity P-wave (km/s) = 3.97413 5.19679 4.62603
#
# Compressibility (1/GPa) = 0.07148830
#
# Stress axis : x y z
#
# Youngs Moduli (GPa) = 18.98968 125.91153 57.93399
#
# Poissons Ratio (x) = 0.07278 0.06311
# Poissons Ratio (y) = 0.01098 0.08807
# Poissons Ratio (z) = 0.02069 0.19140
#
# Static dielectric constant tensor:
#      x y z
#    x 1.764810 0.000000 0.030070 
#    y 0.000000 1.835350 0.000000 
#    z 0.030070 0.000000 1.711920 
# 
# From -- ./inp_files/131832.got.cif
#   From: 2010.05.17/outbox.cif.g08.bks.cpg/sg12_66_cif.got.tgz:131832.got - 2010.06.03 13:09:07.
