data_PCOD9188912
_publ_section_title
;
Structure prediction by ZEFSAII (Michael W. Deem and Ramdas Pophale) SiO2 
 PCOD9188912
Probable space group: C 2/M
;
_chemical_formula_sum "Si O2"
_cell_formula_units_Z 56
_cell_length_a 14.020314
_cell_length_b 24.036048
_cell_length_c 11.454302
_cell_angle_alpha 90.000000
_cell_angle_beta 48.899760
_cell_angle_gamma 90.000000
_cell_volume 2908.758315
_symmetry_space_group_name_H-M "C 2/M"
_symmetry_group_IT_number 12
_symmetry_cell_setting 'monoclinic'
loop_
_space_group_symop_operation_xyz
x,y,z
-x,y,-z
-x,-y,-z
x,-y,z
1/2+x,1/2+y,z
1/2-x,1/2+y,-z
1/2-x,1/2-y,-z
1/2+x,1/2-y,z
loop_
_atom_site_type_symbol
_atom_site_label
_atom_site_fract_x
_atom_site_fract_y
_atom_site_fract_z
Si Si1 0.594000 0.208351 0.245654
Si Si2 0.860200 0.820981 0.646309
Si Si3 0.837879 0.342057 0.388438
Si Si4 0.365278 0.438280 0.046218
Si Si5 0.500305 0.062753 0.139504
Si Si6 0.140918 0.395312 0.380125
Si Si7 0.255059 0.865772 0.034238
O O1 0.621661 0.263313 0.296901
O O2 0.449295 0.203340 0.318310
O O3 0.709800 0.359251 0.202300
O O4 0.684950 0.191280 0.064775
O O5 0.775629 0.817838 0.597592
O O6 0.885554 0.657196 0.682438
O O7 0.000000 0.841050 0.500000
O O8 0.811927 0.369690 0.535215
O O9 0.899142 0.393264 0.267241
O O10 0.354429 0.500000 0.001397
O O11 0.251100 0.430344 0.230690
O O12 0.500000 0.434695 0.000000
O O13 0.353794 0.389064 0.961448
O O14 0.481421 0.000000 0.198716
O O15 0.500000 0.061710 0.000000
O O16 0.635017 0.088264 0.066525
O O17 0.000000 0.422623 0.500000
#
# Coordination Sequence:
#
# PCOD9188912 Si02
#       7
#     8   8   8   8   8   8   8
#     4   9  21  40  60  83 114 154 200 245 287 340
#     4  12  24  36  57  87 122 162 192 230 305 355
#     4  10  21  38  60  87 123 145 194 256 289 348
#     4  10  22  39  60  83 116 158 196 239 299 361
#     4  10  19  36  63  86 109 149 195 243 299 340
#     4   9  19  37  61  87 113 148 198 255 293 342
#     4  10  21  40  59  86 117 148 198 249 283 353
#
# _framework density 19.252200999999999
#
# number of rings (size 3 to 8) (size 9 to 14) (size 15 to 20)
#    0.000    2.000    1.429    3.000    2.000    3.143 
#    2.571    0.000    0.000    2.143    0.000    0.000 
#    0.000    0.000    0.000    0.000    0.000    0.000 
#
# Total GULP energy -156179.798920 kJ/mol
# GULP energy per Si atom -5577.849961 kJ/mol
# Density = 1.920838 g / cm^3
# Si number density = 19.252201 Si / 1000 Ang^3
#
#
#
# Elastic Constant Matrix: (Units=GPa)
#
#
# Indices 1 2 3 4 5 6 
#
# 1 135.0892 24.9619 37.9748 0.0000 -5.6713 0.0000
# 2 24.9619 49.7019 3.8743 0.0000 -14.1606 0.0000
# 3 37.9748 3.8743 79.4156 0.0000 0.5378 0.0000
# 4 0.0000 0.0000 0.0000 -18.7325 0.0000 -67.0336
# 5 -5.6713 -14.1606 0.5378 0.0000 32.5227 0.0000
# 6 0.0000 0.0000 0.0000 -67.0336 0.0000 -107.6715
#
#
#
# Elastic Compliance Matrix: (Units=1/GPa)
#
#
# Indices 1 2 3 4 5 6 
#
# 1 0.009423 -0.004464 -0.004286 0.000000 -0.000229 0.000000
# 2 -0.004464 0.025197 0.000836 0.000000 0.010179 0.000000
# 3 -0.004286 0.000836 0.014605 0.000000 -0.000625 0.000000
# 4 0.000000 0.000000 0.000000 0.043476 0.000000 -0.027067
# 5 -0.000229 0.010179 -0.000625 0.000000 0.035150 0.000000
# 6 0.000000 0.000000 0.000000 -0.027067 0.000000 0.007564
#
#
# Mechanical properties :
#
#
# Convention : Reuss Voigt Hill
#
# Bulk Modulus (GPa) = 29.94301 44.20319 37.07310
# Shear Modulus (GPa) = 30.79307 -5.61655 12.58826
#
# Velocity S-wave (km/s) = 4.00366 -1.70988 2.55984
# Velocity P-wave (km/s) = 6.07941 4.37169 5.29485
#
# Compressibility (1/GPa) = 0.03339678
#
# Stress axis : x y z
#
# Youngs Moduli (GPa) = 106.12772 39.68796 68.46935
#
# Poissons Ratio (x) = 0.17715 0.29349
# Poissons Ratio (y) = 0.47371 -0.05726
# Poissons Ratio (z) = 0.45490 -0.03319
#
# Static dielectric constant tensor:
#      x y z
#    x 1.686770 0.000000 0.005760 
#    y 0.000000 1.668530 0.000000 
#    z 0.005760 0.000000 1.708290 
# 
# From -- ./inp_files/217681.got.cif
#   From: 2010.05.17/outbox.cif.g08.bks.cpg/sg12_109_cif.got.tgz:217681.got - 2010.06.03 13:09:07.
