data_PCOD9188441
_publ_section_title
;
Structure prediction by ZEFSAII (Michael W. Deem and Ramdas Pophale) SiO2 
 PCOD9188441
Probable space group: C 2/M
;
_chemical_formula_sum "Si O2"
_cell_formula_units_Z 56
_cell_length_a 13.958181
_cell_length_b 18.038784
_cell_length_c 19.260206
_cell_angle_alpha 90.000000
_cell_angle_beta 148.492967
_cell_angle_gamma 90.000000
_cell_volume 2534.364604
_symmetry_space_group_name_H-M "C 2/M"
_symmetry_group_IT_number 12
_symmetry_cell_setting 'monoclinic'
loop_
_space_group_symop_operation_xyz
x,y,z
-x,y,-z
-x,-y,-z
x,-y,z
1/2+x,1/2+y,z
1/2-x,1/2+y,-z
1/2-x,1/2-y,-z
1/2+x,1/2-y,z
loop_
_atom_site_type_symbol
_atom_site_label
_atom_site_fract_x
_atom_site_fract_y
_atom_site_fract_z
Si Si1 0.265727 0.583967 0.045490
Si Si2 0.367727 0.692856 0.217092
Si Si3 0.816931 0.914377 0.556910
Si Si4 0.515137 0.800902 0.831468
Si Si5 0.890026 0.804960 0.866314
Si Si6 0.281335 0.415956 0.377538
Si Si7 0.291134 0.417403 0.694751
O O1 0.197975 0.500000 0.005792
O O2 0.166972 0.634407 0.927384
O O3 0.242873 0.631690 0.101029
O O4 0.485651 0.580884 0.172922
O O5 0.520779 0.644414 0.349141
O O6 0.467153 0.747618 0.223588
O O7 0.247229 0.744947 0.188703
O O8 0.725107 0.912702 0.424835
O O9 0.724349 0.898059 0.575050
O O10 0.883549 0.000000 0.606221
O O11 0.526418 0.742617 0.901694
O O12 0.328592 0.847930 0.722811
O O13 0.772457 0.860239 0.745590
O O14 0.000000 0.838762 0.000000
O O15 0.500000 0.408540 0.500000
O O16 0.235226 0.500000 0.324496
O O17 0.225072 0.500000 0.671008
#
# Coordination Sequence:
#
# PCOD9188441 Si02
#       7
#     8   8   8   8   8   8   8
#     4  10  19  36  59  85 119 160 197 240 303 365
#     4  11  21  36  59  89 121 158 194 251 307 357
#     4   9  18  38  63  83 112 157 202 244 299 356
#     4  12  22  38  58  89 124 156 200 252 308 354
#     4  12  22  35  56  86 124 159 195 244 305 357
#     4  10  22  40  62  88 121 160 204 252 302 361
#     4   9  19  37  60  85 115 160 206 242 293 364
#
# _framework density 22.096267999999998
#
# number of rings (size 3 to 8) (size 9 to 14) (size 15 to 20)
#    0.000    1.571    4.286    3.857    0.000    0.857 
#    0.000    4.286    0.000    0.000    0.000    3.000 
#    0.000    0.571    0.000    0.000    0.000    0.000 
#
# Total GULP energy -156168.894593 kJ/mol
# GULP energy per Si atom -5577.460521 kJ/mol
# Density = 2.204598 g / cm^3
# Si number density = 22.096268 Si / 1000 Ang^3
#
#
#
# Elastic Constant Matrix: (Units=GPa)
#
#
# Indices 1 2 3 4 5 6 
#
# 1 55.2922 34.4272 6.3807 0.0010 -14.3787 0.0004
# 2 34.4272 123.4646 24.6205 0.0014 -8.2636 0.0008
# 3 6.3807 24.6205 40.9629 0.0021 -7.7345 0.0007
# 4 0.0010 0.0014 0.0021 28.8830 0.0002 -11.7848
# 5 -14.3787 -8.2636 -7.7345 0.0002 23.4354 -0.0002
# 6 0.0004 0.0008 0.0007 -11.7848 -0.0002 32.1374
#
#
#
# Elastic Compliance Matrix: (Units=1/GPa)
#
#
# Indices 1 2 3 4 5 6 
#
# 1 0.025691 -0.006757 0.002758 -0.000001 0.014290 -0.000001
# 2 -0.006757 0.011030 -0.005999 0.000000 -0.002236 0.000000
# 3 0.002758 -0.005999 0.029337 -0.000003 0.009259 -0.000001
# 4 -0.000001 0.000000 -0.000003 0.040714 -0.000002 0.014930
# 5 0.014290 -0.002236 0.009259 -0.000002 0.053705 -0.000001
# 6 -0.000001 0.000000 -0.000001 0.014930 -0.000001 0.036591
#
#
# Mechanical properties :
#
#
# Convention : Reuss Voigt Hill
#
# Bulk Modulus (GPa) = 21.71064 38.95294 30.33179
# Shear Modulus (GPa) = 21.51277 27.17725 24.34501
#
# Velocity S-wave (km/s) = 3.12363 3.51087 3.32289
# Velocity P-wave (km/s) = 4.78082 5.83968 5.33658
#
# Compressibility (1/GPa) = 0.04606037
#
# Stress axis : x y z
#
# Youngs Moduli (GPa) = 38.92420 90.65875 34.08682
#
# Poissons Ratio (x) = 0.61260 -0.09400
# Poissons Ratio (y) = 0.26302 0.20450
# Poissons Ratio (z) = -0.10734 0.54390
#
# Static dielectric constant tensor:
#      x y z
#    x 1.868100 0.000000 -0.009600 
#    y 0.000000 1.793320 0.000000 
#    z -0.009600 0.000000 1.885220 
# 
# From -- ./inp_files/271455.got.cif
#   From: 2010.05.17/outbox.cif.g08.bks.cpg/sg12_136_cif.got.tgz:271455.got - 2010.06.03 13:09:07.
