data_PCOD9188262
_publ_section_title
;
Structure prediction by ZEFSAII (Michael W. Deem and Ramdas Pophale) SiO2 
 PCOD9188262
Probable space group: C 2/M
;
_chemical_formula_sum "Si O2"
_cell_formula_units_Z 48
_cell_length_a 15.528313
_cell_length_b 7.717220
_cell_length_c 21.362848
_cell_angle_alpha 90.000000
_cell_angle_beta 112.627267
_cell_angle_gamma 90.000000
_cell_volume 2362.973329
_symmetry_space_group_name_H-M "C 2/M"
_symmetry_group_IT_number 12
_symmetry_cell_setting 'monoclinic'
loop_
_space_group_symop_operation_xyz
x,y,z
-x,y,-z
-x,-y,-z
x,-y,z
1/2+x,1/2+y,z
1/2-x,1/2+y,-z
1/2-x,1/2-y,-z
1/2+x,1/2-y,z
loop_
_atom_site_type_symbol
_atom_site_label
_atom_site_fract_x
_atom_site_fract_y
_atom_site_fract_z
Si Si1 0.534762 0.286975 0.326853
Si Si2 0.259676 0.706211 0.575989
Si Si3 0.068678 0.787601 0.075606
Si Si4 0.437966 0.294699 0.425383
Si Si5 0.028578 0.795801 0.826037
Si Si6 0.735554 0.206722 0.923025
O O1 0.533029 0.500000 0.325727
O O2 0.640835 0.231624 0.370442
O O3 0.471120 0.227727 0.367333
O O4 0.499073 0.225079 0.249534
O O5 0.259687 0.500000 0.581345
O O6 0.250000 0.750000 0.500000
O O7 0.169955 0.771712 0.588345
O O8 0.173485 0.731146 0.089230
O O9 0.028632 0.724909 0.130565
O O10 0.067985 0.000000 0.075686
O O11 0.000000 0.734935 0.000000
O O12 0.500000 0.221472 0.500000
O O13 0.457379 0.500000 0.429080
O O14 0.137872 0.777480 0.871069
O O15 0.006826 0.000000 0.818082
O O16 0.731672 0.000000 0.916209
O O17 0.750000 0.250000 0.000000
#
# Coordination Sequence:
#
# PCOD9188262 Si02
#       6
#     8   8   8   8   8   8
#     4   9  20  37  57  80 111 149 182 223 287 342
#     4  11  21  36  58  86 112 146 193 235 279 335
#     4   9  17  32  55  80 105 141 181 216 267 330
#     4  10  19  36  58  81 112 149 187 231 282 339
#     4  10  20  38  59  79 109 147 185 225 276 339
#     4  11  21  35  57  84 111 143 185 231 276 327
#
# _framework density 20.313389999999998
#
# number of rings (size 3 to 8) (size 9 to 14) (size 15 to 20)
#    0.000    2.000    3.333    1.000    0.000    1.667 
#    0.000    6.667    0.000    0.000    0.000    0.000 
#    0.000    0.000    0.000    0.000    0.000    0.000 
#
# Total GULP energy -134037.817927 kJ/mol
# GULP energy per Si atom -5584.909080 kJ/mol
# Density = 2.026716 g / cm^3
# Si number density = 20.313390 Si / 1000 Ang^3
#
#
#
# Elastic Constant Matrix: (Units=GPa)
#
#
# Indices 1 2 3 4 5 6 
#
# 1 196.2962 -15.3320 118.1965 0.0000 -24.4654 0.0000
# 2 -15.3320 26.4530 -0.5541 0.0000 -9.5730 0.0000
# 3 118.1965 -0.5541 211.0077 0.0000 -17.0976 0.0000
# 4 0.0000 0.0000 0.0000 5.9910 0.0000 7.3914
# 5 -24.4654 -9.5730 -17.0976 0.0000 33.4454 0.0000
# 6 0.0000 0.0000 0.0000 7.3914 0.0000 25.9181
#
#
#
# Elastic Compliance Matrix: (Units=1/GPa)
#
#
# Indices 1 2 3 4 5 6 
#
# 1 0.009341 0.007724 -0.004673 0.000000 0.006655 0.000000
# 2 0.007724 0.048821 -0.002721 0.000000 0.018233 0.000000
# 3 -0.004673 -0.002721 0.007312 0.000000 -0.000459 0.000000
# 4 0.000000 0.000000 0.000000 0.257526 0.000000 -0.073442
# 5 0.006655 0.018233 -0.000459 0.000000 0.039752 0.000000
# 6 0.000000 0.000000 0.000000 -0.073442 0.000000 0.059528
#
#
# Mechanical properties :
#
#
# Convention : Reuss Voigt Hill
#
# Bulk Modulus (GPa) = 15.12055 70.93085 43.02570
# Shear Modulus (GPa) = 11.26980 35.16733 23.21856
#
# Velocity S-wave (km/s) = 2.35797 4.16533 3.38452
# Velocity P-wave (km/s) = 3.85657 7.62413 6.04154
#
# Compressibility (1/GPa) = 0.06613516
#
# Stress axis : x y z
#
# Youngs Moduli (GPa) = 107.05866 20.48285 136.75682
#
# Poissons Ratio (x) = -0.15821 0.63902
# Poissons Ratio (y) = -0.82695 0.37213
# Poissons Ratio (z) = 0.50025 0.05574
#
# Static dielectric constant tensor:
#      x y z
#    x 1.685080 0.000000 -0.016790 
#    y 0.000000 1.747060 0.000000 
#    z -0.016790 0.000000 1.692310 
# 
# From -- ./inp_files/308305.got.cif
#   From: 2010.05.17/outbox.cif.g08.bks.cpg/sg12_155_cif.got.tgz:308305.got - 2010.06.03 13:09:07.
