data_PCOD9188766
_publ_section_title
;
Structure prediction by ZEFSAII (Michael W. Deem and Ramdas Pophale) SiO2 
 PCOD9188766
Probable space group: C 2/M
;
_chemical_formula_sum "Si O2"
_cell_formula_units_Z 52
_cell_length_a 14.824482
_cell_length_b 11.205171
_cell_length_c 20.297287
_cell_angle_alpha 90.000000
_cell_angle_beta 50.782414
_cell_angle_gamma 90.000000
_cell_volume 2612.148433
_symmetry_space_group_name_H-M "C 2/M"
_symmetry_group_IT_number 12
_symmetry_cell_setting 'monoclinic'
loop_
_space_group_symop_operation_xyz
x,y,z
-x,y,-z
-x,-y,-z
x,-y,z
1/2+x,1/2+y,z
1/2-x,1/2+y,-z
1/2-x,1/2-y,-z
1/2+x,1/2-y,z
loop_
_atom_site_type_symbol
_atom_site_label
_atom_site_fract_x
_atom_site_fract_y
_atom_site_fract_z
Si Si1 0.636162 0.000000 0.624311
Si Si2 0.866073 0.000000 0.586144
Si Si3 0.827749 0.860877 0.988831
Si Si4 0.921580 0.140288 0.191173
Si Si5 0.062775 0.237346 0.399343
Si Si6 0.545279 0.000000 0.405862
Si Si7 0.016723 0.742694 0.704515
Si Si8 0.737325 0.859806 0.175584
O O1 0.572221 0.000000 0.583512
O O2 0.586324 0.880590 0.679404
O O3 0.774361 0.000000 0.569000
O O4 0.854167 0.123012 0.632220
O O5 0.000000 0.000000 0.500000
O O6 0.956505 0.836950 0.901977
O O7 0.796506 0.000000 0.983399
O O8 0.750000 0.750000 0.000000
O O9 0.814485 0.859000 0.073794
O O10 0.933728 0.174242 0.261680
O O11 0.816607 0.193435 0.197024
O O12 0.901577 0.000000 0.196233
O O13 0.108049 0.372961 0.366466
O O14 0.979901 0.216091 0.373777
O O15 0.000000 0.244150 0.500000
O O16 0.500000 0.000000 0.500000
O O17 0.880655 0.714386 0.779784
O O18 0.703119 0.000000 0.201710
#
# Coordination Sequence:
#
# PCOD9188766 Si02
#       8
#     4   4   8   8   8   4   8   8
#     4  10  22  38  62  88 117 160 197 242 317 378
#     4  10  22  42  64  86 121 154 196 245 314 376
#     4  10  19  36  61  88 123 164 205 250 299 360
#     4  10  22  37  59  90 119 158 210 252 300 352
#     4   9  20  38  61  85 121 155 197 246 302 359
#     4   8  16  38  62  84 112 153 197 244 288 353
#     4  11  21  37  62  88 121 156 203 250 305 364
#     4  10  20  37  61  87 121 160 201 251 297 363
#
# _framework density 19.906986
#
# number of rings (size 3 to 8) (size 9 to 14) (size 15 to 20)
#    0.000    2.154    2.308    0.462    3.231    1.846 
#    0.000   19.231    1.692    0.923    0.000    0.000 
#    0.000    0.000    0.000    0.000    0.000    0.000 
#
# Total GULP energy -144813.524480 kJ/mol
# GULP energy per Si atom -5569.750942 kJ/mol
# Density = 1.986168 g / cm^3
# Si number density = 19.906986 Si / 1000 Ang^3
#
#
#
# Elastic Constant Matrix: (Units=GPa)
#
#
# Indices 1 2 3 4 5 6 
#
# 1 103.2163 37.5536 31.5315 0.0000 -2.1802 0.0000
# 2 37.5536 92.2166 4.3359 0.0000 -7.6660 0.0000
# 3 31.5315 4.3359 70.0472 0.0000 9.4246 0.0000
# 4 0.0000 0.0000 0.0000 26.4675 0.0000 12.4344
# 5 -2.1802 -7.6660 9.4246 0.0000 23.5862 0.0000
# 6 0.0000 0.0000 0.0000 12.4344 0.0000 19.0640
#
#
#
# Elastic Compliance Matrix: (Units=1/GPa)
#
#
# Indices 1 2 3 4 5 6 
#
# 1 0.013377 -0.005000 -0.005981 0.000000 0.002001 0.000000
# 2 -0.005000 0.013118 0.000980 0.000000 0.003410 0.000000
# 3 -0.005981 0.000980 0.017902 0.000000 -0.007388 0.000000
# 4 0.000000 0.000000 0.000000 0.054475 0.000000 -0.035531
# 5 0.002001 0.003410 -0.007388 0.000000 0.046643 0.000000
# 6 0.000000 0.000000 0.000000 -0.035531 0.000000 0.075630
#
#
# Mechanical properties :
#
#
# Convention : Reuss Voigt Hill
#
# Bulk Modulus (GPa) = 40.99416 45.81357 43.40387
# Shear Modulus (GPa) = 20.05796 26.62749 23.34273
#
# Velocity S-wave (km/s) = 3.17769 3.66128 3.42802
# Velocity P-wave (km/s) = 5.83962 6.39821 6.12529
#
# Compressibility (1/GPa) = 0.02439372
#
# Stress axis : x y z
#
# Youngs Moduli (GPa) = 74.75469 76.23366 55.85991
#
# Poissons Ratio (x) = 0.38117 0.33412
# Poissons Ratio (y) = 0.37377 -0.05474
# Poissons Ratio (z) = 0.44714 -0.07471
#
# Static dielectric constant tensor:
#      x y z
#    x 1.669680 0.000000 -0.030460 
#    y 0.000000 1.742480 0.000000 
#    z -0.030460 0.000000 1.691380 
# 
# From -- ./inp_files/304675.got.cif
#   From: 2010.05.17/outbox.cif.g08.bks.cpg/sg12_153_cif.got.tgz:304675.got - 2010.06.03 13:09:07.
