data_PCOD9188717
_publ_section_title
;
Structure prediction by ZEFSAII (Michael W. Deem and Ramdas Pophale) SiO2 
 PCOD9188717
Probable space group: C 2/M
;
_chemical_formula_sum "Si O2"
_cell_formula_units_Z 58
_cell_length_a 5.275323
_cell_length_b 19.087134
_cell_length_c 26.225495
_cell_angle_alpha 90.000000
_cell_angle_beta 110.877291
_cell_angle_gamma 90.000000
_cell_volume 2467.295161
_symmetry_space_group_name_H-M "C 2/M"
_symmetry_group_IT_number 12
_symmetry_cell_setting 'monoclinic'
loop_
_space_group_symop_operation_xyz
x,y,z
-x,y,-z
-x,-y,-z
x,-y,z
1/2+x,1/2+y,z
1/2-x,1/2+y,-z
1/2-x,1/2-y,-z
1/2+x,1/2-y,z
loop_
_atom_site_type_symbol
_atom_site_label
_atom_site_fract_x
_atom_site_fract_y
_atom_site_fract_z
Si Si1 0.806990 0.277834 0.420096
Si Si2 0.026447 0.277458 0.295988
Si Si3 0.463772 0.415876 0.213071
Si Si4 0.843110 0.415109 0.148376
Si Si5 0.270922 0.072215 0.427404
Si Si6 0.888310 0.205557 0.934616
Si Si7 0.000000 0.000000 0.500000
Si Si8 0.290725 0.579098 0.311923
O O1 0.063817 0.228141 0.442455
O O2 0.920847 0.356059 0.428693
O O3 0.648329 0.260278 0.355819
O O4 0.222914 0.247419 0.266956
O O5 0.076668 0.359772 0.306536
O O6 0.477730 0.500000 0.212690
O O7 0.701858 0.393732 0.192028
O O8 0.453556 0.400000 0.272456
O O9 0.162157 0.397192 0.171932
O O10 0.816986 0.500000 0.140044
O O11 0.694592 0.368517 0.095610
O O12 0.006023 0.076467 0.372652
O O13 0.573139 0.000000 0.576526
O O14 0.155995 0.059074 0.475217
O O15 0.624589 0.255372 0.920163
O O16 0.000000 0.195516 0.000000
O O17 0.175603 0.500000 0.297034
#
# Coordination Sequence:
#
# PCOD9188717 Si02
#       8
#     8   8   8   8   8   8   2   8
#     4  10  19  37  61  86 116 150 184 233 292 354
#     4  10  20  36  55  84 119 144 188 240 288 348
#     4   9  20  36  57  87 120 157 208 252 320 363
#     4  10  20  39  61  86 126 160 206 274 302 364
#     4   9  18  37  63  89 123 156 197 254 299 372
#     4  10  21  38  62  90 127 173 217 259 313 376
#     4   8  20  36  68  94 128 146 214 250 318 346
#     4  10  19  36  61  86 116 165 205 246 304 382
#
# _framework density 23.507521000000001
#
# number of rings (size 3 to 8) (size 9 to 14) (size 15 to 20)
#    0.414    1.931    2.759    0.828    0.000    1.379 
#    0.000   10.345    0.000    5.793    0.000    0.000 
#    0.000    0.000    0.000    0.000    0.000    0.000 
#
# Total GULP energy -161825.854614 kJ/mol
# GULP energy per Si atom -5580.201883 kJ/mol
# Density = 2.345402 g / cm^3
# Si number density = 23.507521 Si / 1000 Ang^3
#
#
#
# Elastic Constant Matrix: (Units=GPa)
#
#
# Indices 1 2 3 4 5 6 
#
# 1 100.3494 20.8789 10.9766 0.0000 9.5311 0.0000
# 2 20.8789 139.7619 26.8036 0.0000 5.2519 0.0000
# 3 10.9766 26.8036 61.2582 0.0000 8.8078 0.0000
# 4 0.0000 0.0000 0.0000 23.3821 0.0000 -5.8720
# 5 9.5311 5.2519 8.8078 0.0000 20.2122 0.0000
# 6 0.0000 0.0000 0.0000 -5.8720 0.0000 24.8700
#
#
#
# Elastic Compliance Matrix: (Units=1/GPa)
#
#
# Indices 1 2 3 4 5 6 
#
# 1 0.010733 -0.001300 -0.000721 0.000000 -0.004410 0.000000
# 2 -0.001300 0.007974 -0.003250 0.000000 -0.000043 0.000000
# 3 -0.000721 -0.003250 0.018889 0.000000 -0.007047 0.000000
# 4 0.000000 0.000000 0.000000 0.045464 0.000000 0.010734
# 5 -0.004410 -0.000043 -0.007047 0.000000 0.054636 0.000000
# 6 0.000000 0.000000 0.000000 0.010734 0.000000 0.042744
#
#
# Mechanical properties :
#
#
# Convention : Reuss Voigt Hill
#
# Bulk Modulus (GPa) = 36.96082 46.52084 41.74083
# Shear Modulus (GPa) = 25.00021 29.87356 27.43688
#
# Velocity S-wave (km/s) = 3.26467 3.56871 3.42007
# Velocity P-wave (km/s) = 5.47429 6.06742 5.77847
#
# Compressibility (1/GPa) = 0.02705568
#
# Stress axis : x y z
#
# Youngs Moduli (GPa) = 93.16883 125.40656 52.94160
#
# Poissons Ratio (x) = 0.16297 0.03815
# Poissons Ratio (y) = 0.12108 0.17206
# Poissons Ratio (z) = 0.06714 0.40758
#
# Static dielectric constant tensor:
#      x y z
#    x 2.010350 0.000000 -0.013470 
#    y 0.000000 1.923280 0.000000 
#    z -0.013470 0.000000 1.910000 
# 
# From -- ./inp_files/355118.got.cif
#   From: 2010.05.17/outbox.cif.g08.bks.cpg/sg12_178_cif.got.tgz:355118.got - 2010.06.03 13:09:07.
