data_PCOD9188906
_publ_section_title
;
Structure prediction by ZEFSAII (Michael W. Deem and Ramdas Pophale) SiO2 
 PCOD9188906
Probable space group: C 2/M
;
_chemical_formula_sum "Si O2"
_cell_formula_units_Z 56
_cell_length_a 16.822074
_cell_length_b 21.411246
_cell_length_c 10.248062
_cell_angle_alpha 90.000000
_cell_angle_beta 53.702783
_cell_angle_gamma 90.000000
_cell_volume 2974.918799
_symmetry_space_group_name_H-M "C 2/M"
_symmetry_group_IT_number 12
_symmetry_cell_setting 'monoclinic'
loop_
_space_group_symop_operation_xyz
x,y,z
-x,y,-z
-x,-y,-z
x,-y,z
1/2+x,1/2+y,z
1/2-x,1/2+y,-z
1/2-x,1/2-y,-z
1/2+x,1/2-y,z
loop_
_atom_site_type_symbol
_atom_site_label
_atom_site_fract_x
_atom_site_fract_y
_atom_site_fract_z
Si Si1 0.116069 0.128634 0.889627
Si Si2 0.889311 0.379351 0.976438
Si Si3 0.281975 0.244458 0.120542
Si Si4 0.685706 0.571932 0.082812
Si Si5 0.387523 0.659366 0.616805
Si Si6 0.906821 0.572154 0.249993
Si Si7 0.687776 0.574539 0.546631
O O1 0.177476 0.191407 0.861451
O O2 0.147501 0.097437 0.723754
O O3 0.140453 0.082370 0.985090
O O4 0.000000 0.142826 0.000000
O O5 0.996675 0.387918 0.810971
O O6 0.866221 0.308464 0.037243
O O7 0.799401 0.405112 0.977704
O O8 0.886856 0.417291 0.115184
O O9 0.190708 0.215312 0.289839
O O10 0.250000 0.250000 0.000000
O O11 0.680448 0.500000 0.127930
O O12 0.629138 0.615925 0.240019
O O13 0.500000 0.680892 0.500000
O O14 0.361275 0.615762 0.519429
O O15 0.932350 0.500000 0.246554
O O16 0.805520 0.586091 0.421809
O O17 0.671669 0.500000 0.543073
#
# Coordination Sequence:
#
# PCOD9188906 Si02
#       7
#     8   8   8   8   8   8   8
#     4  12  27  43  63  91 131 173 209 256 323 387
#     4  10  19  36  66  92 121 164 208 259 317 363
#     4  11  23  45  63  88 127 164 216 259 300 379
#     4  11  21  40  66  92 125 169 216 259 316 379
#     4  11  23  41  66  96 121 163 216 269 313 365
#     4  10  19  36  63 100 128 152 205 267 321 374
#     4  11  24  42  62  96 135 160 208 272 320 375
#
# _framework density 18.824043
#
# number of rings (size 3 to 8) (size 9 to 14) (size 15 to 20)
#    0.000    1.143    5.714    3.429    2.000    4.000 
#    2.571    0.714    0.000    2.571    0.000    0.000 
#    0.000    0.000    0.000    0.000    0.000    0.000 
#
# Total GULP energy -156414.060556 kJ/mol
# GULP energy per Si atom -5586.216448 kJ/mol
# Density = 1.878120 g / cm^3
# Si number density = 18.824043 Si / 1000 Ang^3
#
#
#
# Elastic Constant Matrix: (Units=GPa)
#
#
# Indices 1 2 3 4 5 6 
#
# 1 94.4669 20.6685 48.0866 0.0000 -13.9202 0.0000
# 2 20.6685 56.5424 8.8022 0.0000 -19.3627 0.0000
# 3 48.0866 8.8022 89.2376 0.0000 2.9391 0.0000
# 4 0.0000 0.0000 0.0000 17.7446 0.0000 5.9709
# 5 -13.9202 -19.3627 2.9391 0.0000 32.0058 0.0000
# 6 0.0000 0.0000 0.0000 5.9709 0.0000 5.2743
#
#
#
# Elastic Compliance Matrix: (Units=1/GPa)
#
#
# Indices 1 2 3 4 5 6 
#
# 1 0.016642 -0.002436 -0.008944 0.000000 0.006586 0.000000
# 2 -0.002436 0.023308 -0.001420 0.000000 0.013172 0.000000
# 3 -0.008944 -0.001420 0.016372 0.000000 -0.006253 0.000000
# 4 0.000000 0.000000 0.000000 0.091032 0.000000 -0.103055
# 5 0.006586 0.013172 -0.006253 0.000000 0.042652 0.000000
# 6 0.000000 0.000000 0.000000 -0.103055 0.000000 0.306265
#
#
# Mechanical properties :
#
#
# Convention : Reuss Voigt Hill
#
# Bulk Modulus (GPa) = 32.55102 43.92904 38.24003
# Shear Modulus (GPa) = 9.39653 21.85092 15.62372
#
# Velocity S-wave (km/s) = 2.23665 3.41075 2.88408
# Velocity P-wave (km/s) = 4.89897 6.23685 5.60795
#
# Compressibility (1/GPa) = 0.03072101
#
# Stress axis : x y z
#
# Youngs Moduli (GPa) = 60.08863 42.90390 61.08026
#
# Poissons Ratio (x) = 0.10449 0.54633
# Poissons Ratio (y) = 0.14635 0.08676
# Poissons Ratio (z) = 0.53746 0.06094
#
# Static dielectric constant tensor:
#      x y z
#    x 1.695080 0.000000 0.000390 
#    y 0.000000 1.650930 0.000000 
#    z 0.000390 0.000000 1.647490 
# 
# From -- ./inp_files/65730.got.cif
#   From: 2010.05.17/outbox.cif.g08.bks.cpg/sg12_33_cif.got.tgz:65730.got - 2010.06.03 13:09:07.
