data_PCOD9188346
_publ_section_title
;
Structure prediction by ZEFSAII (Michael W. Deem and Ramdas Pophale) SiO2 
 PCOD9188346
Probable space group: C 2/M
;
_chemical_formula_sum "Si O2"
_cell_formula_units_Z 56
_cell_length_a 20.343182
_cell_length_b 7.775352
_cell_length_c 25.136930
_cell_angle_alpha 90.000000
_cell_angle_beta 45.276436
_cell_angle_gamma 90.000000
_cell_volume 2825.019521
_symmetry_space_group_name_H-M "C 2/M"
_symmetry_group_IT_number 12
_symmetry_cell_setting 'monoclinic'
loop_
_space_group_symop_operation_xyz
x,y,z
-x,y,-z
-x,-y,-z
x,-y,z
1/2+x,1/2+y,z
1/2-x,1/2+y,-z
1/2-x,1/2-y,-z
1/2+x,1/2-y,z
loop_
_atom_site_type_symbol
_atom_site_label
_atom_site_fract_x
_atom_site_fract_y
_atom_site_fract_z
Si Si1 0.015398 0.292254 0.052032
Si Si2 0.822308 0.198275 0.202586
Si Si3 0.186826 0.792755 0.371153
Si Si4 0.672868 0.707127 0.499870
Si Si5 0.177682 0.197193 0.201337
Si Si6 0.720833 0.792715 0.957657
Si Si7 0.038233 0.211059 0.368936
O O1 0.014222 0.500000 0.054426
O O2 0.930872 0.230779 0.136264
O O3 0.000000 0.238468 0.000000
O O4 0.116523 0.229111 0.009738
O O5 0.775152 0.243854 0.285294
O O6 0.768282 0.302416 0.187627
O O7 0.803174 0.000000 0.202034
O O8 0.193134 0.730082 0.428122
O O9 0.096145 0.736258 0.388770
O O10 0.182010 0.000000 0.375623
O O11 0.669623 0.500000 0.499542
O O12 0.750000 0.750000 0.500000
O O13 0.568123 0.766107 0.572365
O O14 0.209968 0.275913 0.127268
O O15 0.096917 0.272432 0.284359
O O16 0.149796 0.000000 0.206825
O O17 0.718533 0.000000 0.951964
O O18 0.750000 0.750000 0.000000
O O19 0.039971 0.000000 0.368023
#
# Coordination Sequence:
#
# PCOD9188346 Si02
#       7
#     8   8   8   8   8   8   8
#     4  10  19  36  59  78 105 146 186 216 260 329
#     4  11  21  32  53  86 113 134 174 235 280 305
#     4   9  18  35  58  78 104 142 184 220 258 322
#     4  10  20  35  55  81 111 142 175 216 267 322
#     4   9  17  35  58  78 104 143 184 218 264 327
#     4  10  21  36  55  78 108 146 182 221 265 318
#     4   8  15  31  59  83  98 130 183 227 254 302
#
# _framework density 19.822872
#
# number of rings (size 3 to 8) (size 9 to 14) (size 15 to 20)
#    0.000    2.429    1.429    2.571    0.000    3.714 
#    2.571    2.857    0.000    4.286    0.000    0.000 
#    0.000    0.000    0.000    0.000    0.000    0.000 
#
# Total GULP energy -156179.013256 kJ/mol
# GULP energy per Si atom -5577.821902 kJ/mol
# Density = 1.977775 g / cm^3
# Si number density = 19.822872 Si / 1000 Ang^3
#
#
#
# Elastic Constant Matrix: (Units=GPa)
#
#
# Indices 1 2 3 4 5 6 
#
# 1 148.5420 5.7036 113.6205 0.0001 3.5145 0.0000
# 2 5.7036 32.8937 7.6941 0.0003 -1.2210 0.0000
# 3 113.6205 7.6941 184.5595 0.0000 10.2326 -0.0001
# 4 0.0001 0.0003 0.0000 1.0029 0.0000 6.0137
# 5 3.5145 -1.2210 10.2326 0.0000 26.8584 0.0001
# 6 0.0000 0.0000 -0.0001 6.0137 0.0001 19.9289
#
#
#
# Elastic Compliance Matrix: (Units=1/GPa)
#
#
# Indices 1 2 3 4 5 6 
#
# 1 0.012775 -0.000312 -0.007925 0.000001 0.001334 0.000000
# 2 -0.000312 0.030806 -0.001198 0.000010 0.001897 -0.000003
# 3 -0.007925 -0.001198 0.010515 -0.000001 -0.003023 0.000000
# 4 0.000001 0.000010 -0.000001 -1.231838 -0.000002 0.371714
# 5 0.001334 0.001897 -0.003023 -0.000002 0.038296 0.000000
# 6 0.000000 -0.000003 0.000000 0.371714 0.000000 -0.061988
#
#
# Mechanical properties :
#
#
# Convention : Reuss Voigt Hill
#
# Bulk Modulus (GPa) = 28.38827 68.89239 48.64033
# Shear Modulus (GPa) = -4.27050 25.48983 10.60967
#
# Velocity S-wave (km/s) = -1.46936 3.58981 2.31600
# Velocity P-wave (km/s) = 3.38724 7.21192 5.63405
#
# Compressibility (1/GPa) = 0.03522582
#
# Stress axis : x y z
#
# Youngs Moduli (GPa) = 78.27944 32.46169 95.10206
#
# Poissons Ratio (x) = 0.01012 0.75373
# Poissons Ratio (y) = 0.02440 0.11389
# Poissons Ratio (z) = 0.62040 0.03887
#
# Static dielectric constant tensor:
#      x y z
#    x 1.658010 0.000000 0.001860 
#    y 0.000000 1.747420 0.000000 
#    z 0.001860 0.000000 1.710980 
# 
# From -- ./inp_files/342226.got.cif
#   From: 2010.05.17/outbox.cif.g08.bks.cpg/sg12_172_cif.got.tgz:342226.got - 2010.06.03 13:09:07.
