data_PCOD9188581
_publ_section_title
;
Structure prediction by ZEFSAII (Michael W. Deem and Ramdas Pophale) SiO2 
 PCOD9188581
Probable space group: C 2/M
;
_chemical_formula_sum "Si O2"
_cell_formula_units_Z 56
_cell_length_a 20.787090
_cell_length_b 8.906590
_cell_length_c 23.469138
_cell_angle_alpha 90.000000
_cell_angle_beta 133.268324
_cell_angle_gamma 90.000000
_cell_volume 3163.910750
_symmetry_space_group_name_H-M "C 2/M"
_symmetry_group_IT_number 12
_symmetry_cell_setting 'monoclinic'
loop_
_space_group_symop_operation_xyz
x,y,z
-x,y,-z
-x,-y,-z
x,-y,z
1/2+x,1/2+y,z
1/2-x,1/2+y,-z
1/2-x,1/2-y,-z
1/2+x,1/2-y,z
loop_
_atom_site_type_symbol
_atom_site_label
_atom_site_fract_x
_atom_site_fract_y
_atom_site_fract_z
Si Si1 0.503434 0.321056 0.664283
Si Si2 0.564403 0.820440 0.260722
Si Si3 0.887306 0.319348 0.093901
Si Si4 0.736547 0.180809 0.081178
Si Si5 0.290626 0.680084 0.237163
Si Si6 0.081853 0.179924 0.508536
Si Si7 0.253132 0.321472 0.668547
O O1 0.497192 0.500000 0.672168
O O2 0.469931 0.231103 0.698351
O O3 0.605930 0.289217 0.712355
O O4 0.446561 0.287860 0.573375
O O5 0.487064 0.776151 0.169184
O O6 0.656384 0.743939 0.301503
O O7 0.574444 0.000000 0.265284
O O8 0.881592 0.500000 0.095222
O O9 0.821038 0.248802 0.100008
O O10 0.848374 0.276956 0.008420
O O11 0.738013 0.224807 0.148080
O O12 0.745107 0.000000 0.085016
O O13 0.282033 0.500000 0.240497
O O14 0.259904 0.762433 0.275065
O O15 0.169898 0.261390 0.581994
O O16 0.000000 0.220940 0.500000
O O17 0.094495 0.000000 0.521964
O O18 0.254845 0.500000 0.668463
#
# Coordination Sequence:
#
# PCOD9188581 Si02
#       7
#     8   8   8   8   8   8   8
#     4  10  20  36  62  89 114 147 189 232 279 339
#     4  11  23  39  58  82 119 157 191 232 284 339
#     4   9  18  32  53  85 117 148 187 232 278 329
#     4   9  17  31  56  86 115 147 186 231 279 333
#     4  10  19  36  60  86 115 151 190 230 283 341
#     4  10  20  39  63  86 114 148 186 231 285 341
#     4  12  26  40  58  83 115 151 193 239 286 339
#
# _framework density 17.699614
#
# number of rings (size 3 to 8) (size 9 to 14) (size 15 to 20)
#    0.000    1.857    2.857    1.714    0.000    3.143 
#    0.000    0.714    0.000    4.286    0.000    0.000 
#    0.000    0.000    0.000    0.000    0.000    0.000 
#
# Total GULP energy -156331.018676 kJ/mol
# GULP energy per Si atom -5583.250667 kJ/mol
# Density = 1.765933 g / cm^3
# Si number density = 17.699614 Si / 1000 Ang^3
#
#
#
# Elastic Constant Matrix: (Units=GPa)
#
#
# Indices 1 2 3 4 5 6 
#
# 1 83.1086 44.2756 54.3195 0.0000 9.9418 0.0000
# 2 44.2756 45.5849 53.3261 0.0000 3.9068 0.0000
# 3 54.3195 53.3261 128.9023 0.0000 4.5544 0.0000
# 4 0.0000 0.0000 0.0000 18.5656 0.0000 -5.5437
# 5 9.9418 3.9068 4.5544 0.0000 27.5400 0.0000
# 6 0.0000 0.0000 0.0000 -5.5437 0.0000 29.0369
#
#
#
# Elastic Compliance Matrix: (Units=1/GPa)
#
#
# Indices 1 2 3 4 5 6 
#
# 1 0.025894 -0.023497 -0.000984 0.000000 -0.005852 0.000000
# 2 -0.023497 0.064103 -0.016693 0.000000 0.002149 0.000000
# 3 -0.000984 -0.016693 0.015070 0.000000 0.000231 0.000000
# 4 0.000000 0.000000 0.000000 0.057119 0.000000 0.010905
# 5 -0.005852 0.002149 0.000231 0.000000 0.038080 0.000000
# 6 0.000000 0.000000 0.000000 0.010905 0.000000 0.036521
#
#
# Mechanical properties :
#
#
# Convention : Reuss Voigt Hill
#
# Bulk Modulus (GPa) = 44.01816 62.38203 53.20010
# Shear Modulus (GPa) = 15.30409 22.07347 18.68878
#
# Velocity S-wave (km/s) = 2.94369 3.53528 3.25297
# Velocity P-wave (km/s) = 6.03965 7.21011 6.65068
#
# Compressibility (1/GPa) = 0.02271790
#
# Stress axis : x y z
#
# Youngs Moduli (GPa) = 38.61945 15.59980 66.35528
#
# Poissons Ratio (x) = 0.36655 0.06531
# Poissons Ratio (y) = 0.90744 1.10770
# Poissons Ratio (z) = 0.03801 0.26041
#
# Static dielectric constant tensor:
#      x y z
#    x 1.558400 0.000000 -0.007530 
#    y 0.000000 1.589460 0.000000 
#    z -0.007530 0.000000 1.623590 
# 
# From -- ./inp_files/342599.got.cif
#   From: 2010.05.17/outbox.cif.g08.bks.cpg/sg12_172_cif.got.tgz:342599.got - 2010.06.03 13:09:07.
