data_PCOD9188878
_publ_section_title
;
Structure prediction by ZEFSAII (Michael W. Deem and Ramdas Pophale) SiO2 
 PCOD9188878
Probable space group: C 2/M
;
_chemical_formula_sum "Si O2"
_cell_formula_units_Z 64
_cell_length_a 13.336990
_cell_length_b 12.252402
_cell_length_c 20.594745
_cell_angle_alpha 90.000000
_cell_angle_beta 100.525064
_cell_angle_gamma 90.000000
_cell_volume 3308.768258
_symmetry_space_group_name_H-M "C 2/M"
_symmetry_group_IT_number 12
_symmetry_cell_setting 'monoclinic'
loop_
_space_group_symop_operation_xyz
x,y,z
-x,y,-z
-x,-y,-z
x,-y,z
1/2+x,1/2+y,z
1/2-x,1/2+y,-z
1/2-x,1/2-y,-z
1/2+x,1/2-y,z
loop_
_atom_site_type_symbol
_atom_site_label
_atom_site_fract_x
_atom_site_fract_y
_atom_site_fract_z
Si Si1 0.802620 0.369679 0.489822
Si Si2 0.303179 0.620822 0.172266
Si Si3 0.663979 0.715986 0.071852
Si Si4 0.064260 0.627808 0.374815
Si Si5 0.687478 0.206819 0.272127
Si Si6 0.495615 0.736184 0.844106
Si Si7 0.659264 0.873838 0.659686
Si Si8 0.367187 0.876780 0.049149
O O1 0.764218 0.500000 0.498880
O O2 0.750000 0.250000 0.500000
O O3 0.903139 0.362438 0.546579
O O4 0.818618 0.368481 0.414679
O O5 0.292027 0.500000 0.144449
O O6 0.231637 0.701494 0.123205
O O7 0.260328 0.626844 0.240219
O O8 0.418561 0.660404 0.177332
O O9 0.571246 0.679659 0.106677
O O10 0.748542 0.630686 0.057580
O O11 0.624392 0.787533 0.006884
O O12 0.055886 0.500000 0.359849
O O13 0.152896 0.671445 0.339256
O O14 0.953707 0.676450 0.345646
O O15 0.585009 0.224230 0.218730
O O16 0.755189 0.314185 0.288950
O O17 0.557143 0.835805 0.885163
O O18 0.657988 0.000000 0.678554
O O19 0.391006 0.000000 0.032131
#
# Coordination Sequence:
#
# PCOD9188878 Si02
#       8
#     8   8   8   8   8   8   8   8
#     4  10  19  36  62  91 121 156 196 245 301 357
#     4  10  21  37  55  77 108 147 187 231 285 340
#     4   9  20  37  56  83 114 142 182 232 282 337
#     4  10  20  35  59  86 112 149 195 242 289 345
#     4  11  21  37  55  79 114 148 190 241 289 336
#     4  10  22  36  53  80 111 146 188 232 277 341
#     4  10  21  37  59  85 115 154 198 239 288 352
#     4  10  20  36  59  85 112 145 185 232 285 339
#
# _framework density 19.342545000000001
#
# number of rings (size 3 to 8) (size 9 to 14) (size 15 to 20)
#    0.000    2.000    1.250    2.250    0.000    6.000 
#    0.000    7.500    0.000    7.500    0.000    0.000 
#    0.000    0.000    0.000    0.000    0.000    0.000 
#
# Total GULP energy -178211.077360 kJ/mol
# GULP energy per Si atom -5569.096167 kJ/mol
# Density = 1.929852 g / cm^3
# Si number density = 19.342545 Si / 1000 Ang^3
#
#
#
# Elastic Constant Matrix: (Units=GPa)
#
#
# Indices 1 2 3 4 5 6 
#
# 1 106.7066 28.8931 23.7383 0.0000 3.2062 0.0000
# 2 28.8931 70.7641 10.9041 0.0000 5.9143 0.0000
# 3 23.7383 10.9041 59.5402 0.0000 9.1608 0.0000
# 4 0.0000 0.0000 0.0000 -2.5538 0.0000 -0.2565
# 5 3.2062 5.9143 9.1608 0.0000 29.4117 0.0000
# 6 0.0000 0.0000 0.0000 -0.2565 0.0000 12.9168
#
#
#
# Elastic Compliance Matrix: (Units=1/GPa)
#
#
# Indices 1 2 3 4 5 6 
#
# 1 0.011320 -0.004090 -0.003887 0.000000 0.000799 0.000000
# 2 -0.004090 0.016156 -0.000942 0.000000 -0.002509 0.000000
# 3 -0.003887 -0.000942 0.019351 0.000000 -0.005414 0.000000
# 4 0.000000 0.000000 0.000000 -0.390789 0.000000 -0.007761
# 5 0.000799 -0.002509 -0.005414 0.000000 0.036104 0.000000
# 6 0.000000 0.000000 0.000000 -0.007761 0.000000 0.077265
#
#
# Mechanical properties :
#
#
# Convention : Reuss Voigt Hill
#
# Bulk Modulus (GPa) = 34.49621 40.45354 37.47487
# Shear Modulus (GPa) = -24.61921 19.51994 -2.54964
#
# Velocity S-wave (km/s) = -3.57150 3.18019 -1.14935
# Velocity P-wave (km/s) = 0.93035 5.86894 4.20179
#
# Compressibility (1/GPa) = 0.02898869
#
# Stress axis : x y z
#
# Youngs Moduli (GPa) = 88.34271 61.89579 51.67788
#
# Poissons Ratio (x) = 0.25313 0.20087
# Poissons Ratio (y) = 0.36129 0.04869
# Poissons Ratio (z) = 0.34339 0.05832
#
# Static dielectric constant tensor:
#      x y z
#    x 1.735050 0.000000 -0.030200 
#    y 0.000000 1.686330 0.000000 
#    z -0.030200 0.000000 1.697310 
# 
# From -- ./inp_files/335214.got.cif
#   From: 2010.05.17/outbox.cif.g08.bks.cpg/sg12_168_cif.got.tgz:335214.got - 2010.06.03 13:09:07.
