data_PCOD9189143
_publ_section_title
;
Structure prediction by ZEFSAII (Michael W. Deem and Ramdas Pophale) SiO2 
 PCOD9189143
Probable space group: C 2/M
;
_chemical_formula_sum "Si O2"
_cell_formula_units_Z 42
_cell_length_a 15.124694
_cell_length_b 12.899354
_cell_length_c 11.133397
_cell_angle_alpha 90.000000
_cell_angle_beta 69.760497
_cell_angle_gamma 90.000000
_cell_volume 2037.994544
_symmetry_space_group_name_H-M "C 2/M"
_symmetry_group_IT_number 12
_symmetry_cell_setting 'monoclinic'
loop_
_space_group_symop_operation_xyz
x,y,z
-x,y,-z
-x,-y,-z
x,-y,z
1/2+x,1/2+y,z
1/2-x,1/2+y,-z
1/2-x,1/2-y,-z
1/2+x,1/2-y,z
loop_
_atom_site_type_symbol
_atom_site_label
_atom_site_fract_x
_atom_site_fract_y
_atom_site_fract_z
Si Si1 0.500000 0.000000 0.000000
Si Si2 0.188811 0.379827 0.610539
Si Si3 0.471499 0.120210 0.690932
Si Si4 0.683083 0.383630 0.952173
Si Si5 0.872934 0.661843 0.989511
Si Si6 0.787258 0.312066 0.664669
O O1 0.420792 0.909235 0.065165
O O2 0.193340 0.500000 0.641387
O O3 0.228658 0.365654 0.456203
O O4 0.245453 0.302927 0.670427
O O5 0.079261 0.346178 0.649788
O O6 0.425826 0.123232 0.844487
O O7 0.398397 0.183254 0.643614
O O8 0.470282 0.000000 0.650948
O O9 0.645041 0.500000 0.979753
O O10 0.764166 0.365640 0.014922
O O11 0.734781 0.368840 0.799237
O O12 0.616437 0.284116 0.997385
#
# Coordination Sequence:
#
# PCOD9189143 Si02
#       6
#     2   8   8   8   8   8
#     4  12  20  36  58  88 114 142 186 262 266 330
#     4  10  21  35  59  88 108 142 194 236 280 335
#     4  10  19  37  58  83 112 146 188 235 282 336
#     4  10  20  39  55  81 115 158 184 224 285 355
#     4  10  21  33  59  84 113 144 191 234 287 322
#     4  10  20  35  58  84 115 147 184 235 287 336
#
# _framework density 20.608495000000001
#
# number of rings (size 3 to 8) (size 9 to 14) (size 15 to 20)
#    0.000    1.905    1.905    3.429    2.667    1.524 
#    0.000    3.333    0.000   12.571    0.000    0.000 
#    0.000    0.000    0.000    0.000    0.000    0.000 
#
# Total GULP energy -116998.132189 kJ/mol
# GULP energy per Si atom -5571.339628 kJ/mol
# Density = 2.056159 g / cm^3
# Si number density = 20.608495 Si / 1000 Ang^3
#
#
#
# Elastic Constant Matrix: (Units=GPa)
#
#
# Indices 1 2 3 4 5 6 
#
# 1 103.5343 70.0817 3.4188 0.0000 13.2215 0.0000
# 2 70.0817 184.9551 9.1186 0.0000 7.8247 0.0000
# 3 3.4188 9.1186 44.5960 0.0000 4.9059 0.0000
# 4 0.0000 0.0000 0.0000 9.1419 0.0000 -2.4778
# 5 13.2215 7.8247 4.9059 0.0000 25.4414 0.0000
# 6 0.0000 0.0000 0.0000 -2.4778 0.0000 43.8831
#
#
#
# Elastic Compliance Matrix: (Units=1/GPa)
#
#
# Indices 1 2 3 4 5 6 
#
# 1 0.013754 -0.004999 0.000598 0.000000 -0.005725 0.000000
# 2 -0.004999 0.007335 -0.001179 0.000000 0.000569 0.000000
# 3 0.000598 -0.001179 0.023103 0.000000 -0.004403 0.000000
# 4 0.000000 0.000000 0.000000 0.111086 0.000000 0.006272
# 5 -0.005725 0.000569 -0.004403 0.000000 0.042955 0.000000
# 6 0.000000 0.000000 0.000000 0.006272 0.000000 0.023142
#
#
# Mechanical properties :
#
#
# Convention : Reuss Voigt Hill
#
# Bulk Modulus (GPa) = 30.27456 55.36930 42.82193
# Shear Modulus (GPa) = 20.52998 32.39103 26.46050
#
# Velocity S-wave (km/s) = 3.15967 3.96881 3.58713
# Velocity P-wave (km/s) = 5.29468 6.92297 6.16283
#
# Compressibility (1/GPa) = 0.03303104
#
# Stress axis : x y z
#
# Youngs Moduli (GPa) = 72.70827 136.33599 43.28407
#
# Poissons Ratio (x) = 0.68150 -0.02586
# Poissons Ratio (y) = 0.36344 0.05104
# Poissons Ratio (z) = -0.04345 0.16076
#
# Static dielectric constant tensor:
#      x y z
#    x 1.796520 0.000000 0.067440 
#    y 0.000000 1.658350 0.000000 
#    z 0.067440 0.000000 1.880590 
# 
# From -- ./inp_files/140960.got.cif
#   From: 2010.05.17/outbox.cif.g08.bks.cpg/sg12_71_cif.got.tgz:140960.got - 2010.06.03 13:09:07.
