data_PCOD9189018
_publ_section_title
;
Structure prediction by ZEFSAII (Michael W. Deem and Ramdas Pophale) SiO2 
 PCOD9189018
Probable space group: C 2/M
;
_chemical_formula_sum "Si O2"
_cell_formula_units_Z 58
_cell_length_a 8.990960
_cell_length_b 17.392539
_cell_length_c 21.476888
_cell_angle_alpha 90.000000
_cell_angle_beta 131.968899
_cell_angle_gamma 90.000000
_cell_volume 2497.042928
_symmetry_space_group_name_H-M "C 2/M"
_symmetry_group_IT_number 12
_symmetry_cell_setting 'monoclinic'
loop_
_space_group_symop_operation_xyz
x,y,z
-x,y,-z
-x,-y,-z
x,-y,z
1/2+x,1/2+y,z
1/2-x,1/2+y,-z
1/2-x,1/2-y,-z
1/2+x,1/2-y,z
loop_
_atom_site_type_symbol
_atom_site_label
_atom_site_fract_x
_atom_site_fract_y
_atom_site_fract_z
Si Si1 0.272125 0.714027 0.939389
Si Si2 0.921392 0.639050 0.572712
Si Si3 0.525076 0.079245 0.833806
Si Si4 0.500000 0.000000 0.500000
Si Si5 0.055938 0.913013 0.678957
Si Si6 0.005427 0.203723 0.225865
Si Si7 0.341070 0.294488 0.390384
Si Si8 0.255232 0.084506 0.236295
O O1 0.104292 0.649320 0.893453
O O2 0.201630 0.765817 0.860361
O O3 0.500000 0.686073 0.000000
O O4 0.250000 0.750000 0.000000
O O5 0.898610 0.570593 0.515869
O O6 0.030678 0.715498 0.575556
O O7 0.076728 0.600925 0.665095
O O8 0.744821 0.672778 0.568444
O O9 0.292363 0.078792 0.754917
O O10 0.640380 0.081764 0.800771
O O11 0.577715 0.000000 0.881695
O O12 0.992421 0.859183 0.718263
O O13 0.039302 0.861576 0.612386
O O14 0.968084 0.000000 0.654398
O O15 0.146458 0.270898 0.293278
O O16 0.109261 0.156682 0.199471
O O17 0.162973 0.000000 0.222739
#
# Coordination Sequence:
#
# PCOD9189018 Si02
#       8
#     8   8   8   2   8   8   8   8
#     4  12  24  37  56  81 120 170 211 258 336 401
#     4  11  23  42  66 101 131 175 204 256 315 377
#     4  10  21  37  59  85 117 158 216 271 315 377
#     4  12  28  44  72  98 150 168 212 244 308 412
#     4  11  21  36  62  96 124 161 203 287 325 363
#     4  11  22  38  60  92 126 157 219 281 314 371
#     4  11  22  40  70  95 127 165 224 267 312 360
#     4  10  19  36  65  94 118 154 213 267 313 356
#
# _framework density 23.227473
#
# number of rings (size 3 to 8) (size 9 to 14) (size 15 to 20)
#    0.000    1.103    4.828    2.069    2.897    0.828 
#    0.000    1.379    0.000    4.552    0.000    0.000 
#    0.000    0.000    0.000    0.000    0.000    0.000 
#
# Total GULP energy -161766.591354 kJ/mol
# GULP energy per Si atom -5578.158323 kJ/mol
# Density = 2.317461 g / cm^3
# Si number density = 23.227473 Si / 1000 Ang^3
#
#
#
# Elastic Constant Matrix: (Units=GPa)
#
#
# Indices 1 2 3 4 5 6 
#
# 1 64.9826 34.9869 -1.7043 0.0000 -27.6643 0.0000
# 2 34.9869 181.0413 46.7645 0.0000 -18.7850 0.0000
# 3 -1.7043 46.7645 87.6171 0.0000 -10.2612 0.0000
# 4 0.0000 0.0000 0.0000 37.9631 0.0000 -11.2474
# 5 -27.6643 -18.7850 -10.2612 0.0000 22.6439 0.0000
# 6 0.0000 0.0000 0.0000 -11.2474 0.0000 48.7181
#
#
#
# Elastic Compliance Matrix: (Units=1/GPa)
#
#
# Indices 1 2 3 4 5 6 
#
# 1 0.037879 -0.004767 0.008699 0.000000 0.046265 0.000000
# 2 -0.004767 0.007365 -0.004214 0.000000 -0.001624 0.000000
# 3 0.008699 -0.004214 0.015489 0.000000 0.014151 0.000000
# 4 0.000000 0.000000 0.000000 0.028275 0.000000 0.006528
# 5 0.046265 -0.001624 0.014151 0.000000 0.105751 0.000000
# 6 0.000000 0.000000 0.000000 0.006528 0.000000 0.022033
#
#
# Mechanical properties :
#
#
# Convention : Reuss Voigt Hill
#
# Bulk Modulus (GPa) = 16.61942 54.85948 35.73945
# Shear Modulus (GPa) = 21.06043 38.77127 29.91585
#
# Velocity S-wave (km/s) = 3.01442 4.09002 3.59270
# Velocity P-wave (km/s) = 4.39161 6.78041 5.71227
#
# Compressibility (1/GPa) = 0.06017059
#
# Stress axis : x y z
#
# Youngs Moduli (GPa) = 26.39953 135.78079 64.56252
#
# Poissons Ratio (x) = 0.64726 -0.56166
# Poissons Ratio (y) = 0.12585 0.27205
# Poissons Ratio (z) = -0.22966 0.57214
#
# Static dielectric constant tensor:
#      x y z
#    x 1.908060 0.000000 0.020030 
#    y 0.000000 2.027640 0.000000 
#    z 0.020030 0.000000 1.870700 
# 
# From -- ./inp_files/257100.got.cif
#   From: 2010.05.17/outbox.cif.g08.bks.cpg/sg12_129_cif.got.tgz:257100.got - 2010.06.03 13:09:07.
