data_PCOD9189269
_publ_section_title
;
Structure prediction by ZEFSAII (Michael W. Deem and Ramdas Pophale) SiO2 
 PCOD9189269
Probable space group: C 2/M
;
_chemical_formula_sum "Si O2"
_cell_formula_units_Z 56
_cell_length_a 20.717980
_cell_length_b 7.782459
_cell_length_c 19.518925
_cell_angle_alpha 90.000000
_cell_angle_beta 120.074945
_cell_angle_gamma 90.000000
_cell_volume 2723.468177
_symmetry_space_group_name_H-M "C 2/M"
_symmetry_group_IT_number 12
_symmetry_cell_setting 'monoclinic'
loop_
_space_group_symop_operation_xyz
x,y,z
-x,y,-z
-x,-y,-z
x,-y,z
1/2+x,1/2+y,z
1/2-x,1/2+y,-z
1/2-x,1/2-y,-z
1/2+x,1/2-y,z
loop_
_atom_site_type_symbol
_atom_site_label
_atom_site_fract_x
_atom_site_fract_y
_atom_site_fract_z
Si Si1 0.391944 0.709769 0.264861
Si Si2 0.446998 0.706836 0.146466
Si Si3 0.725299 0.208045 0.191508
Si Si4 0.684965 0.202996 0.019163
Si Si5 0.333174 0.706861 0.567521
Si Si6 0.614968 0.294392 0.255489
Si Si7 0.022855 0.789721 0.436555
O O1 0.392298 0.500000 0.264790
O O2 0.406809 0.765954 0.194976
O O3 0.310778 0.765131 0.246854
O O4 0.459621 0.764132 0.349033
O O5 0.449336 0.500000 0.150229
O O6 0.395015 0.752312 0.055143
O O7 0.532027 0.771213 0.193090
O O8 0.671793 0.260248 0.224472
O O9 0.725621 0.000000 0.190229
O O10 0.698862 0.273711 0.102817
O O11 0.689013 0.000000 0.028015
O O12 0.750000 0.250000 0.000000
O O13 0.337961 0.500000 0.571973
O O14 0.250000 0.750000 0.500000
O O15 0.354737 0.771165 0.655171
O O16 0.396463 0.766840 0.547767
O O17 0.607892 0.500000 0.259311
O O18 0.000000 0.732307 0.500000
O O19 0.023443 0.000000 0.437704
#
# Coordination Sequence:
#
# PCOD9189269 Si02
#       7
#     8   8   8   8   8   8   8
#     4   9  16  32  55  79 108 144 186 229 273 325
#     4  10  19  37  61  81 110 151 192 234 281 335
#     4  10  22  37  57  84 113 146 186 237 284 331
#     4  11  22  37  58  86 116 147 188 238 287 337
#     4  10  21  37  57  83 115 150 185 230 284 337
#     4  10  22  39  58  81 115 155 190 230 282 342
#     4   9  17  30  54  85 109 137 186 234 270 321
#
# _framework density 20.562017999999998
#
# number of rings (size 3 to 8) (size 9 to 14) (size 15 to 20)
#    0.000    2.143    2.857    0.429    2.000    2.857 
#    0.000    2.857    0.000    1.286    0.000    0.000 
#    0.000    0.000    0.000    0.000    0.000    0.000 
#
# Total GULP energy -156352.201366 kJ/mol
# GULP energy per Si atom -5584.007192 kJ/mol
# Density = 2.051522 g / cm^3
# Si number density = 20.562018 Si / 1000 Ang^3
#
#
#
# Elastic Constant Matrix: (Units=GPa)
#
#
# Indices 1 2 3 4 5 6 
#
# 1 193.2660 5.8663 90.9663 0.0000 9.3001 0.0000
# 2 5.8663 26.6383 4.9240 0.0000 1.2281 0.0000
# 3 90.9663 4.9240 137.4163 0.0000 10.7722 0.0000
# 4 0.0000 0.0000 0.0000 17.5928 0.0000 3.1196
# 5 9.3001 1.2281 10.7722 0.0000 41.4571 0.0000
# 6 0.0000 0.0000 0.0000 3.1196 0.0000 26.9853
#
#
#
# Elastic Compliance Matrix: (Units=1/GPa)
#
#
# Indices 1 2 3 4 5 6 
#
# 1 0.007537 -0.000730 -0.004933 0.000000 -0.000387 0.000000
# 2 -0.000730 0.037886 -0.000816 0.000000 -0.000747 0.000000
# 3 -0.004933 -0.000816 0.010701 0.000000 -0.001650 0.000000
# 4 0.000000 0.000000 0.000000 0.058031 0.000000 -0.006709
# 5 -0.000387 -0.000747 -0.001650 0.000000 0.024659 0.000000
# 6 0.000000 0.000000 0.000000 -0.006709 0.000000 0.037833
#
#
# Mechanical properties :
#
#
# Convention : Reuss Voigt Hill
#
# Bulk Modulus (GPa) = 23.16600 62.31487 42.74044
# Shear Modulus (GPa) = 24.51073 34.24462 29.37768
#
# Velocity S-wave (km/s) = 3.45634 4.08540 3.78396
# Velocity P-wave (km/s) = 5.21720 7.25435 6.31842
#
# Compressibility (1/GPa) = 0.04316671
#
# Stress axis : x y z
#
# Youngs Moduli (GPa) = 132.68443 26.39507 93.44952
#
# Poissons Ratio (x) = 0.01927 0.46095
# Poissons Ratio (y) = 0.09687 0.07623
# Poissons Ratio (z) = 0.65448 0.02153
#
# Static dielectric constant tensor:
#      x y z
#    x 1.698320 0.000000 0.002150 
#    y 0.000000 1.772850 0.000000 
#    z 0.002150 0.000000 1.723320 
# 
# From -- ./inp_files/275636.got.cif
#   From: 2010.05.17/outbox.cif.g08.bks.cpg/sg12_138_cif.got.tgz:275636.got - 2010.06.03 13:09:07.
