data_PCOD9189914
_publ_section_title
;
Structure prediction by ZEFSAII (Michael W. Deem and Ramdas Pophale) SiO2 
 PCOD9189914
Probable space group: C 2/M
;
_chemical_formula_sum "Si O2"
_cell_formula_units_Z 32
_cell_length_a 9.725719
_cell_length_b 19.483668
_cell_length_c 9.503140
_cell_angle_alpha 90.000000
_cell_angle_beta 62.219735
_cell_angle_gamma 90.000000
_cell_volume 1593.220906
_symmetry_space_group_name_H-M "C 2/M"
_symmetry_group_IT_number 12
_symmetry_cell_setting 'monoclinic'
loop_
_space_group_symop_operation_xyz
x,y,z
-x,y,-z
-x,-y,-z
x,-y,z
1/2+x,1/2+y,z
1/2-x,1/2+y,-z
1/2-x,1/2-y,-z
1/2+x,1/2-y,z
loop_
_atom_site_type_symbol
_atom_site_label
_atom_site_fract_x
_atom_site_fract_y
_atom_site_fract_z
Si Si1 0.828135 0.577147 0.015582
Si Si2 0.848016 0.080344 0.173937
Si Si3 0.219514 0.785061 0.163936
Si Si4 0.626834 0.716172 0.663446
O O1 0.770670 0.500000 0.066300
O O2 0.730065 0.633921 0.140790
O O3 0.799442 0.590147 0.862328
O O4 0.000000 0.581629 0.000000
O O5 0.850874 0.257807 0.203168
O O6 0.847394 0.136973 0.298117
O O7 0.850030 0.000000 0.217655
O O8 0.000000 0.091298 0.000000
O O9 0.048067 0.770865 0.302491
O O10 0.250000 0.750000 0.000000
O O11 0.750000 0.750000 0.500000
#
# Coordination Sequence:
#
# PCOD9189914 Si02
#       4
#     8   8   8   8
#     4  10  20  35  62  98 125 153 212 279 316 357
#     4  10  19  38  67  94 121 166 226 269 310 380
#     4  12  22  40  64  89 120 169 220 262 307 376
#     4  12  25  40  59  93 134 165 203 264 331 380
#
# _framework density 20.085099
#
# number of rings (size 3 to 8) (size 9 to 14) (size 15 to 20)
#    0.000    1.000    5.000    3.000    0.000    0.000 
#    0.000    1.250    0.000    7.500    0.000    0.000 
#    0.000    0.000    0.000    0.000    0.000    0.000 
#
# Total GULP energy -89263.347116 kJ/mol
# GULP energy per Si atom -5578.959195 kJ/mol
# Density = 2.003938 g / cm^3
# Si number density = 20.085099 Si / 1000 Ang^3
#
#
#
# Elastic Constant Matrix: (Units=GPa)
#
#
# Indices 1 2 3 4 5 6 
#
# 1 76.6779 11.4930 1.9061 0.0000 -11.3484 0.0000
# 2 11.4930 121.4674 39.2415 0.0000 -2.0258 0.0000
# 3 1.9061 39.2415 78.8587 0.0000 -8.5662 0.0000
# 4 0.0000 0.0000 0.0000 27.2723 0.0000 1.9557
# 5 -11.3484 -2.0258 -8.5662 0.0000 29.6525 0.0000
# 6 0.0000 0.0000 0.0000 1.9557 0.0000 32.5921
#
#
#
# Elastic Compliance Matrix: (Units=1/GPa)
#
#
# Indices 1 2 3 4 5 6 
#
# 1 0.014079 -0.001579 0.001052 0.000000 0.005584 0.000000
# 2 -0.001579 0.010004 -0.005091 0.000000 -0.001392 0.000000
# 3 0.001052 -0.005091 0.015687 0.000000 0.004587 0.000000
# 4 0.000000 0.000000 0.000000 0.036826 0.000000 -0.002210
# 5 0.005584 -0.001392 0.004587 0.000000 0.037091 0.000000
# 6 0.000000 0.000000 0.000000 -0.002210 0.000000 0.030815
#
#
# Mechanical properties :
#
#
# Convention : Reuss Voigt Hill
#
# Bulk Modulus (GPa) = 35.04654 42.47614 38.76134
# Shear Modulus (GPa) = 30.25766 32.86094 31.55930
#
# Velocity S-wave (km/s) = 3.88554 4.04924 3.96824
# Velocity P-wave (km/s) = 6.13325 6.56169 6.35109
#
# Compressibility (1/GPa) = 0.02853349
#
# Stress axis : x y z
#
# Youngs Moduli (GPa) = 71.03022 99.96475 63.74688
#
# Poissons Ratio (x) = 0.15782 -0.06706
# Poissons Ratio (y) = 0.11214 0.32453
# Poissons Ratio (z) = -0.07472 0.50891
#
# Static dielectric constant tensor:
#      x y z
#    x 1.763220 0.000000 -0.006540 
#    y 0.000000 1.735160 0.000000 
#    z -0.006540 0.000000 1.665490 
# 
# From -- ./inp_files/205257.got.cif
#   From: 2010.05.17/outbox.cif.g08.bks.cpg/sg12_103_cif.got.tgz:205257.got - 2010.06.03 13:09:07.
