data_PCOD9189579
_publ_section_title
;
Structure prediction by ZEFSAII (Michael W. Deem and Ramdas Pophale) SiO2 
 PCOD9189579
Probable space group: C 2/M
;
_chemical_formula_sum "Si O2"
_cell_formula_units_Z 60
_cell_length_a 11.318641
_cell_length_b 27.041707
_cell_length_c 16.502869
_cell_angle_alpha 90.000000
_cell_angle_beta 146.183431
_cell_angle_gamma 90.000000
_cell_volume 2811.130610
_symmetry_space_group_name_H-M "C 2/M"
_symmetry_group_IT_number 12
_symmetry_cell_setting 'monoclinic'
loop_
_space_group_symop_operation_xyz
x,y,z
-x,y,-z
-x,-y,-z
x,-y,z
1/2+x,1/2+y,z
1/2-x,1/2+y,-z
1/2-x,1/2-y,-z
1/2+x,1/2-y,z
loop_
_atom_site_type_symbol
_atom_site_label
_atom_site_fract_x
_atom_site_fract_y
_atom_site_fract_z
Si Si1 0.739237 0.663260 0.131874
Si Si2 0.280151 0.055370 0.342205
Si Si3 0.000000 0.350783 0.000000
Si Si4 0.773880 0.695701 0.329659
Si Si5 0.187236 0.894962 0.554020
Si Si6 0.517399 0.625160 0.737690
Si Si7 0.139370 0.444478 0.801550
Si Si8 0.096722 0.304046 0.226600
O O1 0.804747 0.666373 0.262961
O O2 0.754264 0.606768 0.106202
O O3 0.886784 0.697999 0.162377
O O4 0.500000 0.680504 0.000000
O O5 0.500000 0.078838 0.500000
O O6 0.077230 0.082264 0.260707
O O7 0.287485 0.053502 0.249975
O O8 0.277828 0.000000 0.374456
O O9 0.771341 0.377530 0.877446
O O10 0.971463 0.320681 0.901195
O O11 0.582537 0.672971 0.274306
O O12 0.719099 0.753050 0.287488
O O13 0.000000 0.692465 0.500000
O O14 0.091186 0.879604 0.412566
O O15 0.389554 0.930788 0.660541
O O16 0.266155 0.846573 0.649295
O O17 0.000000 0.918575 0.500000
O O18 0.179093 0.500000 0.858741
#
# Coordination Sequence:
#
# PCOD9189579 Si02
#       8
#     8   8   4   8   8   8   8   8
#     4  11  25  44  68 100 137 175 224 273 330 402
#     4  10  19  37  68 103 132 166 220 282 338 388
#     4  12  28  46  65  88 138 186 223 256 346 406
#     4  12  26  44  72 101 130 169 227 279 338 390
#     4  11  22  42  66  96 133 176 225 276 328 392
#     4  12  24  42  69  97 133 179 218 273 332 407
#     4  10  21  39  67 102 136 170 220 283 339 389
#     4  11  27  44  65  95 134 177 221 279 328 398
#
# _framework density 21.343724999999999
#
# number of rings (size 3 to 8) (size 9 to 14) (size 15 to 20)
#    0.000    0.933    4.000    3.200    2.800    2.667 
#    0.000    0.333    0.000    0.000    0.000    0.000 
#    0.000    0.000    0.000    0.000    0.000    0.000 
#
# Total GULP energy -167611.371287 kJ/mol
# GULP energy per Si atom -5587.045710 kJ/mol
# Density = 2.129515 g / cm^3
# Si number density = 21.343725 Si / 1000 Ang^3
#
#
#
# Elastic Constant Matrix: (Units=GPa)
#
#
# Indices 1 2 3 4 5 6 
#
# 1 124.3282 10.0111 35.6043 0.0000 16.0147 0.0000
# 2 10.0111 76.2937 8.4599 0.0000 -2.6168 0.0000
# 3 35.6043 8.4599 83.6121 0.0001 20.8554 -0.0002
# 4 0.0000 0.0000 0.0001 19.9659 0.0000 -3.8390
# 5 16.0147 -2.6168 20.8554 0.0000 43.7177 -0.0001
# 6 0.0000 0.0000 -0.0002 -3.8390 -0.0001 48.1633
#
#
#
# Elastic Compliance Matrix: (Units=1/GPa)
#
#
# Indices 1 2 3 4 5 6 
#
# 1 0.009334 -0.000908 -0.003424 0.000000 -0.001840 0.000000
# 2 -0.000908 0.013447 -0.001427 0.000000 0.001819 0.000000
# 3 -0.003424 -0.001427 0.015063 0.000000 -0.006017 0.000000
# 4 0.000000 0.000000 0.000000 0.050865 0.000000 0.004054
# 5 -0.001840 0.001819 -0.006017 0.000000 0.026527 0.000000
# 6 0.000000 0.000000 0.000000 0.004054 0.000000 0.021086
#
#
# Mechanical properties :
#
#
# Convention : Reuss Voigt Hill
#
# Bulk Modulus (GPa) = 37.98617 43.59830 40.79224
# Shear Modulus (GPa) = 31.92517 37.71330 34.81923
#
# Velocity S-wave (km/s) = 3.87171 4.20807 4.04339
# Velocity P-wave (km/s) = 6.15002 6.63940 6.39939
#
# Compressibility (1/GPa) = 0.02632537
#
# Stress axis : x y z
#
# Youngs Moduli (GPa) = 107.13672 74.36565 66.38707
#
# Poissons Ratio (x) = 0.06754 0.22729
# Poissons Ratio (y) = 0.09731 0.09476
# Poissons Ratio (z) = 0.36680 0.10615
#
# Static dielectric constant tensor:
#      x y z
#    x 1.742760 0.000000 0.061510 
#    y 0.000000 1.801420 0.000000 
#    z 0.061510 0.000000 1.676160 
# 
# From -- ./inp_files/266036.got.cif
#   From: 2010.05.17/outbox.cif.g08.bks.cpg/sg12_134_cif.got.tgz:266036.got - 2010.06.03 13:09:07.
