data_PCOD9189217
_publ_section_title
;
Structure prediction by ZEFSAII (Michael W. Deem and Ramdas Pophale) SiO2 
 PCOD9189217
Probable space group: C 2/M
;
_chemical_formula_sum "Si O2"
_cell_formula_units_Z 58
_cell_length_a 12.930106
_cell_length_b 22.407666
_cell_length_c 18.003186
_cell_angle_alpha 90.000000
_cell_angle_beta 143.030985
_cell_angle_gamma 90.000000
_cell_volume 3136.889733
_symmetry_space_group_name_H-M "C 2/M"
_symmetry_group_IT_number 12
_symmetry_cell_setting 'monoclinic'
loop_
_space_group_symop_operation_xyz
x,y,z
-x,y,-z
-x,-y,-z
x,-y,z
1/2+x,1/2+y,z
1/2-x,1/2+y,-z
1/2-x,1/2-y,-z
1/2+x,1/2-y,z
loop_
_atom_site_type_symbol
_atom_site_label
_atom_site_fract_x
_atom_site_fract_y
_atom_site_fract_z
Si Si1 0.270866 0.822133 0.593429
Si Si2 0.509311 0.662579 0.834531
Si Si3 0.113648 0.606909 0.961512
Si Si4 0.500000 0.000000 0.000000
Si Si5 0.632844 0.783263 0.186252
Si Si6 0.001217 0.431365 0.268004
Si Si7 0.354671 0.429184 0.853752
Si Si8 0.495142 0.718001 0.327044
O O1 0.285648 0.801151 0.686970
O O2 0.339081 0.888830 0.624981
O O3 0.409516 0.780724 0.630293
O O4 0.087882 0.811976 0.450600
O O5 0.478685 0.723606 0.863662
O O6 0.392025 0.612190 0.804878
O O7 0.469492 0.679518 0.726553
O O8 0.701409 0.636777 0.944824
O O9 0.052587 0.579303 0.848120
O O10 0.105952 0.553390 0.015767
O O11 0.983537 0.661136 0.904342
O O12 0.792758 0.773752 0.223322
O O13 0.044187 0.500000 0.304570
O O14 0.832758 0.416664 0.219905
O O15 0.366689 0.500000 0.843813
O O16 0.500000 0.416519 0.000000
#
# Coordination Sequence:
#
# PCOD9189217 Si02
#       8
#     8   8   8   2   8   8   8   8
#     4   9  20  36  62  82 112 156 199 245 290 362
#     4  11  22  37  60  89 123 151 200 254 303 361
#     4  11  22  37  56  87 117 165 192 238 299 361
#     4  12  24  36  56  82 130 164 198 236 296 372
#     4  10  21  38  58  86 119 153 201 247 301 352
#     4  10  19  37  60  82 114 154 207 237 287 350
#     4  10  20  35  58  86 114 157 197 239 291 369
#     4  10  20  38  58  87 115 152 194 249 312 347
#
# _framework density 18.489653000000001
#
# number of rings (size 3 to 8) (size 9 to 14) (size 15 to 20)
#    0.000    1.793    2.069    2.483    0.966    0.000 
#    3.724    2.759    1.517    3.310    0.000    0.000 
#    0.000    0.000    0.000    0.000    0.000    0.000 
#
# Total GULP energy -161611.675338 kJ/mol
# GULP energy per Si atom -5572.816391 kJ/mol
# Density = 1.844757 g / cm^3
# Si number density = 18.489653 Si / 1000 Ang^3
#
#
#
# Elastic Constant Matrix: (Units=GPa)
#
#
# Indices 1 2 3 4 5 6 
#
# 1 87.9928 45.7631 7.0714 0.0004 14.6553 0.0002
# 2 45.7631 93.4886 19.5781 0.0002 10.5969 0.0001
# 3 7.0714 19.5781 12.4254 0.0011 3.4810 0.0007
# 4 0.0004 0.0002 0.0011 18.4815 0.0005 0.2691
# 5 14.6553 10.5969 3.4810 0.0005 26.2293 0.0003
# 6 0.0002 0.0001 0.0007 0.2691 0.0003 35.0282
#
#
#
# Elastic Compliance Matrix: (Units=1/GPa)
#
#
# Indices 1 2 3 4 5 6 
#
# 1 0.016413 -0.008540 0.005939 0.000000 -0.006508 0.000000
# 2 -0.008540 0.020676 -0.027746 0.000002 0.000101 0.000001
# 3 0.005939 -0.027746 0.123187 -0.000007 -0.008457 -0.000002
# 4 0.000000 0.000002 -0.000007 0.054114 0.000000 -0.000416
# 5 -0.006508 0.000101 -0.008457 0.000000 0.042843 0.000000
# 6 0.000000 0.000001 -0.000002 -0.000416 0.000000 0.028552
#
#
# Mechanical properties :
#
#
# Convention : Reuss Voigt Hill
#
# Bulk Modulus (GPa) = 10.04202 37.63691 23.83946
# Shear Modulus (GPa) = 13.16919 24.04742 18.60830
#
# Velocity S-wave (km/s) = 2.67169 3.61028 3.17585
# Velocity P-wave (km/s) = 3.86784 6.14644 5.13512
#
# Compressibility (1/GPa) = 0.09958159
#
# Stress axis : x y z
#
# Youngs Moduli (GPa) = 60.92815 48.36522 8.11771
#
# Poissons Ratio (x) = 0.41304 -0.04821
# Poissons Ratio (y) = 0.52033 0.22523
# Poissons Ratio (z) = -0.36184 1.34195
#
# Static dielectric constant tensor:
#      x y z
#    x 1.647570 0.000000 -0.020450 
#    y 0.000000 1.620080 0.000000 
#    z -0.020450 0.000000 1.626030 
# 
# From -- ./inp_files/265277.got.cif
#   From: 2010.05.17/outbox.cif.g08.bks.cpg/sg12_133_cif.got.tgz:265277.got - 2010.06.03 13:09:07.
