data_PCOD9189729
_publ_section_title
;
Structure prediction by ZEFSAII (Michael W. Deem and Ramdas Pophale) SiO2 
 PCOD9189729
Probable space group: C 2/M
;
_chemical_formula_sum "Si O2"
_cell_formula_units_Z 56
_cell_length_a 23.328506
_cell_length_b 14.400473
_cell_length_c 9.439365
_cell_angle_alpha 90.000000
_cell_angle_beta 58.937407
_cell_angle_gamma 90.000000
_cell_volume 2716.355640
_symmetry_space_group_name_H-M "C 2/M"
_symmetry_group_IT_number 12
_symmetry_cell_setting 'monoclinic'
loop_
_space_group_symop_operation_xyz
x,y,z
-x,y,-z
-x,-y,-z
x,-y,z
1/2+x,1/2+y,z
1/2-x,1/2+y,-z
1/2-x,1/2-y,-z
1/2+x,1/2-y,z
loop_
_atom_site_type_symbol
_atom_site_label
_atom_site_fract_x
_atom_site_fract_y
_atom_site_fract_z
Si Si1 0.592850 0.201180 0.241581
Si Si2 0.096956 0.103599 0.679307
Si Si3 0.627322 0.108541 0.490275
Si Si4 0.718240 0.185908 0.919073
Si Si5 0.226338 0.818991 0.653149
Si Si6 0.529542 0.206096 0.811135
Si Si7 0.640452 0.604853 0.296713
O O1 0.595197 0.157981 0.394578
O O2 0.525308 0.192069 0.241025
O O3 0.610883 0.310810 0.241170
O O4 0.650570 0.150425 0.075829
O O5 0.167439 0.117124 0.670019
O O6 0.049159 0.185616 0.790239
O O7 0.112166 0.115779 0.492086
O O8 0.070852 0.000000 0.735159
O O9 0.706766 0.128079 0.383716
O O10 0.595438 0.152683 0.672423
O O11 0.613977 0.000000 0.503919
O O12 0.701067 0.253502 0.811631
O O13 0.778884 0.118352 0.799519
O O14 0.750000 0.250000 0.000000
O O15 0.250000 0.750000 0.500000
O O16 0.500000 0.176806 0.000000
O O17 0.625128 0.500000 0.266751
#
# Coordination Sequence:
#
# PCOD9189729 Si02
#       7
#     8   8   8   8   8   8   8
#     4  11  23  43  66  94 131 175 218 262 321 384
#     4  11  23  40  66 101 131 167 214 263 324 389
#     4  12  26  45  68  95 126 171 225 270 322 382
#     4  10  19  38  61  93 128 163 211 262 314 379
#     4  12  19  41  71  93 132 171 208 266 327 379
#     4  12  26  45  68  91 133 174 211 271 324 384
#     4  10  20  38  65  97 130 167 214 265 319 383
#
# _framework density 20.615856999999998
#
# number of rings (size 3 to 8) (size 9 to 14) (size 15 to 20)
#    0.000    0.857    7.143    1.714    0.000    2.857 
#    0.000    5.000    0.000    0.000    0.000    0.000 
#    0.000    0.000    0.000    0.000    0.000    0.000 
#
# Total GULP energy -156462.857908 kJ/mol
# GULP energy per Si atom -5587.959211 kJ/mol
# Density = 2.056893 g / cm^3
# Si number density = 20.615857 Si / 1000 Ang^3
#
#
#
# Elastic Constant Matrix: (Units=GPa)
#
#
# Indices 1 2 3 4 5 6 
#
# 1 51.1718 -20.9118 -13.1500 0.0000 1.1612 0.0000
# 2 -20.9118 76.0286 6.0053 0.0000 7.5694 0.0000
# 3 -13.1500 6.0053 97.4388 0.0000 0.3383 0.0000
# 4 0.0000 0.0000 0.0000 1.6625 0.0000 0.7350
# 5 1.1612 7.5694 0.3383 0.0000 28.1556 0.0000
# 6 0.0000 0.0000 0.0000 0.7350 0.0000 9.8491
#
#
#
# Elastic Compliance Matrix: (Units=1/GPa)
#
#
# Indices 1 2 3 4 5 6 
#
# 1 0.022894 0.006350 0.002708 0.000000 -0.002684 0.000000
# 2 0.006350 0.015342 -0.000073 0.000000 -0.004386 0.000000
# 3 0.002708 -0.000073 0.010634 0.000000 -0.000220 0.000000
# 4 0.000000 0.000000 0.000000 0.622013 0.000000 -0.046419
# 5 -0.002684 -0.004386 -0.000220 0.000000 0.036809 0.000000
# 6 0.000000 0.000000 0.000000 -0.046419 0.000000 0.104997
#
#
# Mechanical properties :
#
#
# Convention : Reuss Voigt Hill
#
# Bulk Modulus (GPa) = 14.96141 18.72514 16.84327
# Shear Modulus (GPa) = 6.11996 24.77981 15.44989
#
# Velocity S-wave (km/s) = 1.72482 3.47072 2.74052
# Velocity P-wave (km/s) = 3.35256 5.01635 4.26635
#
# Compressibility (1/GPa) = 0.06683864
#
# Stress axis : x y z
#
# Youngs Moduli (GPa) = 43.67988 65.18047 94.04202
#
# Poissons Ratio (x) = -0.41392 -0.25463
# Poissons Ratio (y) = -0.27738 0.00689
# Poissons Ratio (z) = -0.11827 0.00478
#
# Static dielectric constant tensor:
#      x y z
#    x 1.749970 0.000000 -0.043270 
#    y 0.000000 1.718650 0.000000 
#    z -0.043270 0.000000 1.707760 
# 
# From -- ./inp_files/96800.got.cif
#   From: 2010.05.17/outbox.cif.g08.bks.cpg/sg12_49_cif.got.tgz:96800.got - 2010.06.03 13:09:07.
