data_PCOD9189692
_publ_section_title
;
Structure prediction by ZEFSAII (Michael W. Deem and Ramdas Pophale) SiO2 
 PCOD9189692
Probable space group: C 2/M
;
_chemical_formula_sum "Si O2"
_cell_formula_units_Z 28
_cell_length_a 13.361029
_cell_length_b 19.401484
_cell_length_c 10.816127
_cell_angle_alpha 90.000000
_cell_angle_beta 147.580712
_cell_angle_gamma 90.000000
_cell_volume 1503.146644
_symmetry_space_group_name_H-M "C 2/M"
_symmetry_group_IT_number 12
_symmetry_cell_setting 'monoclinic'
loop_
_space_group_symop_operation_xyz
x,y,z
-x,y,-z
-x,-y,-z
x,-y,z
1/2+x,1/2+y,z
1/2-x,1/2+y,-z
1/2-x,1/2-y,-z
1/2+x,1/2-y,z
loop_
_atom_site_type_symbol
_atom_site_label
_atom_site_fract_x
_atom_site_fract_y
_atom_site_fract_z
Si Si1 0.009355 0.921491 0.658885
Si Si2 0.500000 0.215258 0.500000
Si Si3 0.278195 0.804794 0.638315
Si Si4 0.346904 0.175508 0.087047
O O1 0.000000 0.923380 0.500000
O O2 0.835435 0.873570 0.512629
O O3 0.000955 0.000000 0.695268
O O4 0.194277 0.882116 0.897858
O O5 0.670995 0.266415 0.639166
O O6 0.445178 0.169661 0.324154
O O7 0.250000 0.750000 0.500000
O O8 0.496588 0.821718 0.856686
O O9 0.250000 0.250000 0.000000
#
# Coordination Sequence:
#
# PCOD9189692 Si02
#       4
#     8   4   8   8
#     4  11  23  40  59  89 125 155 194 248 305 353
#     4  10  20  36  60  92 116 152 208 248 288 342
#     4  10  19  38  60  89 119 154 200 247 289 353
#     4  11  21  37  61  90 118 156 202 245 292 352
#
# _framework density 18.627589
#
# number of rings (size 3 to 8) (size 9 to 14) (size 15 to 20)
#    0.000    1.429    7.143    0.000    0.000    5.714 
#    0.000    3.571    0.000    8.571    0.000    0.000 
#    0.000    0.000    0.000    0.000    0.000    0.000 
#
# Total GULP energy -78056.442414 kJ/mol
# GULP energy per Si atom -5575.460172 kJ/mol
# Density = 1.858519 g / cm^3
# Si number density = 18.627589 Si / 1000 Ang^3
#
#
#
# Elastic Constant Matrix: (Units=GPa)
#
#
# Indices 1 2 3 4 5 6 
#
# 1 120.3023 42.6564 51.2631 0.0000 19.6492 0.0000
# 2 42.6564 154.8315 52.6614 0.0000 15.9931 0.0000
# 3 51.2631 52.6614 112.7704 0.0000 11.6193 0.0000
# 4 0.0000 0.0000 0.0000 22.1193 0.0000 -3.3756
# 5 19.6492 15.9931 11.6193 0.0000 48.9062 0.0000
# 6 0.0000 0.0000 0.0000 -3.3756 0.0000 19.8715
#
#
#
# Elastic Compliance Matrix: (Units=1/GPa)
#
#
# Indices 1 2 3 4 5 6 
#
# 1 0.011015 -0.001338 -0.004071 0.000000 -0.003021 0.000000
# 2 -0.001338 0.007981 -0.002978 0.000000 -0.001365 0.000000
# 3 -0.004071 -0.002978 0.012137 0.000000 -0.000274 0.000000
# 4 0.000000 0.000000 0.000000 0.046413 0.000000 0.007884
# 5 -0.003021 -0.001365 -0.000274 0.000000 0.022172 0.000000
# 6 0.000000 0.000000 0.000000 0.007884 0.000000 0.051663
#
#
# Mechanical properties :
#
#
# Convention : Reuss Voigt Hill
#
# Bulk Modulus (GPa) = 69.64379 75.67399 72.65889
# Shear Modulus (GPa) = 28.91147 34.26763 31.58955
#
# Velocity S-wave (km/s) = 3.94392 4.29373 4.12253
# Velocity P-wave (km/s) = 7.62941 8.08049 7.85819
#
# Compressibility (1/GPa) = 0.01435878
#
# Stress axis : x y z
#
# Youngs Moduli (GPa) = 90.78546 125.29490 82.39113
#
# Poissons Ratio (x) = 0.16764 0.33543
# Poissons Ratio (y) = 0.12147 0.24538
# Poissons Ratio (z) = 0.36960 0.37315
#
# Static dielectric constant tensor:
#      x y z
#    x 1.697660 0.000000 -0.012010 
#    y 0.000000 1.601730 0.000000 
#    z -0.012010 0.000000 1.706610 
# 
# From -- ./inp_files/144540.got.cif
#   From: 2010.05.17/outbox.cif.g08.bks.cpg/sg12_73_cif.got.tgz:144540.got - 2010.06.03 13:09:07.
