data_PCOD9189581
_publ_section_title
;
Structure prediction by ZEFSAII (Michael W. Deem and Ramdas Pophale) SiO2 
 PCOD9189581
Probable space group: C 2/M
;
_chemical_formula_sum "Si O2"
_cell_formula_units_Z 48
_cell_length_a 17.908417
_cell_length_b 15.404456
_cell_length_c 15.970726
_cell_angle_alpha 90.000000
_cell_angle_beta 30.115084
_cell_angle_gamma 90.000000
_cell_volume 2210.576948
_symmetry_space_group_name_H-M "C 2/M"
_symmetry_group_IT_number 12
_symmetry_cell_setting 'monoclinic'
loop_
_space_group_symop_operation_xyz
x,y,z
-x,y,-z
-x,-y,-z
x,-y,z
1/2+x,1/2+y,z
1/2-x,1/2+y,-z
1/2-x,1/2-y,-z
1/2+x,1/2-y,z
loop_
_atom_site_type_symbol
_atom_site_label
_atom_site_fract_x
_atom_site_fract_y
_atom_site_fract_z
Si Si1 0.583998 0.675828 0.087983
Si Si2 0.500000 0.312930 0.500000
Si Si3 0.279488 0.900054 0.300673
Si Si4 0.500000 0.231937 0.000000
Si Si5 0.247532 0.500000 0.236584
Si Si6 0.896491 0.342062 0.712997
Si Si7 0.613044 0.183465 0.637806
Si Si8 0.970883 0.000000 0.165837
O O1 0.542708 0.705586 0.034142
O O2 0.522826 0.754267 0.201839
O O3 0.494597 0.587873 0.194499
O O4 0.759364 0.659238 0.912115
O O5 0.610134 0.371057 0.448856
O O6 0.586559 0.248193 0.353008
O O7 0.371427 0.832469 0.154961
O O8 0.340299 0.883501 0.335409
O O9 0.301101 0.000000 0.256205
O O10 0.151460 0.415917 0.306044
O O11 0.321435 0.500000 0.256153
O O12 0.389386 0.500000 0.035043
O O13 0.051270 0.357266 0.612111
O O14 0.750000 0.250000 0.500000
#
# Coordination Sequence:
#
# PCOD9189581 Si02
#       8
#     8   4   8   4   4   8   8   4
#     4  10  20  38  64  90 124 161 199 249 304 371
#     4  12  23  41  66  86 120 164 206 253 305 364
#     4  11  24  42  65  90 121 159 208 263 306 361
#     4  10  19  37  68  94 116 156 204 255 311 358
#     4   9  20  33  62  90 126 149 197 254 295 366
#     4  11  22  40  61  91 123 162 203 247 307 371
#     4  11  24  41  61  87 124 164 201 252 318 365
#     4   9  18  34  62 100 118 152 202 248 308 364
#
# _framework density 21.713788000000001
#
# number of rings (size 3 to 8) (size 9 to 14) (size 15 to 20)
#    0.000    1.500    3.333    3.000    3.500    0.333 
#    1.500    0.000    0.000    0.000    0.000    0.000 
#    0.000    0.000    0.000    0.000    0.000    0.000 
#
# Total GULP energy -134089.475044 kJ/mol
# GULP energy per Si atom -5587.061460 kJ/mol
# Density = 2.166437 g / cm^3
# Si number density = 21.713788 Si / 1000 Ang^3
#
#
#
# Elastic Constant Matrix: (Units=GPa)
#
#
# Indices 1 2 3 4 5 6 
#
# 1 106.1573 48.0146 21.2009 0.0000 -37.5013 0.0001
# 2 48.0146 103.9495 9.3611 0.0003 -28.0070 0.0006
# 3 21.2009 9.3611 56.0989 0.0006 -23.1863 0.0009
# 4 0.0000 0.0003 0.0006 18.4123 -0.0001 -23.0167
# 5 -37.5013 -28.0070 -23.1863 -0.0001 33.3577 -0.0003
# 6 0.0001 0.0006 0.0009 -23.0167 -0.0003 -202.9770
#
#
#
# Elastic Compliance Matrix: (Units=1/GPa)
#
#
# Indices 1 2 3 4 5 6 
#
# 1 0.016556 -0.003252 0.001193 0.000000 0.016711 0.000000
# 2 -0.003252 0.013479 0.003011 0.000000 0.009754 0.000000
# 3 0.001193 0.003011 0.025917 -0.000001 0.021884 0.000000
# 4 0.000000 0.000000 -0.000001 0.047569 0.000000 -0.005394
# 5 0.016711 0.009754 0.021884 0.000000 0.072165 0.000000
# 6 0.000000 0.000000 0.000000 -0.005394 0.000000 -0.004315
#
#
# Mechanical properties :
#
#
# Convention : Reuss Voigt Hill
#
# Bulk Modulus (GPa) = 17.28444 47.03988 32.16216
# Shear Modulus (GPa) = 26.48965 -17.73280 4.37843
#
# Velocity S-wave (km/s) = 3.49656 -2.86083 1.42155
# Velocity P-wave (km/s) = 4.92734 3.28606 4.18789
#
# Compressibility (1/GPa) = 0.05785550
#
# Stress axis : x y z
#
# Youngs Moduli (GPa) = 60.40036 74.18927 38.58453
#
# Poissons Ratio (x) = 0.24129 -0.04602
# Poissons Ratio (y) = 0.19644 -0.11618
# Poissons Ratio (z) = -0.07204 -0.22340
#
# Static dielectric constant tensor:
#      x y z
#    x 1.820860 0.000000 0.021190 
#    y 0.000000 1.835610 0.000000 
#    z 0.021190 0.000000 1.865320 
# 
# From -- ./inp_files/278112.got.cif
#   From: 2010.05.17/outbox.cif.g08.bks.cpg/sg12_140_cif.got.tgz:278112.got - 2010.06.03 13:09:07.
