data_PCOD9189277
_publ_section_title
;
Structure prediction by ZEFSAII (Michael W. Deem and Ramdas Pophale) SiO2 
 PCOD9189277
Probable space group: C 2/M
;
_chemical_formula_sum "Si O2"
_cell_formula_units_Z 56
_cell_length_a 23.526010
_cell_length_b 7.894241
_cell_length_c 16.406301
_cell_angle_alpha 90.000000
_cell_angle_beta 127.023135
_cell_angle_gamma 90.000000
_cell_volume 2432.684290
_symmetry_space_group_name_H-M "C 2/M"
_symmetry_group_IT_number 12
_symmetry_cell_setting 'monoclinic'
loop_
_space_group_symop_operation_xyz
x,y,z
-x,y,-z
-x,-y,-z
x,-y,z
1/2+x,1/2+y,z
1/2-x,1/2+y,-z
1/2-x,1/2-y,-z
1/2+x,1/2-y,z
loop_
_atom_site_type_symbol
_atom_site_label
_atom_site_fract_x
_atom_site_fract_y
_atom_site_fract_z
Si Si1 0.869422 0.694368 0.270045
Si Si2 0.427550 0.307407 0.479301
Si Si3 0.180472 0.805222 0.221497
Si Si4 0.206527 0.202561 0.544747
Si Si5 0.027009 0.294964 0.112861
Si Si6 0.592657 0.792883 0.865837
Si Si7 0.780027 0.694235 0.914533
O O1 0.885599 0.500000 0.305323
O O2 0.876542 0.805016 0.355983
O O3 0.917277 0.756725 0.236301
O O4 0.790924 0.703031 0.164452
O O5 0.500000 0.231058 0.500000
O O6 0.446387 0.500000 0.519226
O O7 0.374838 0.233766 0.504436
O O8 0.242805 0.758999 0.337289
O O9 0.104622 0.776077 0.197256
O O10 0.180061 0.697968 0.138139
O O11 0.188710 0.000000 0.204581
O O12 0.250000 0.250000 0.500000
O O13 0.200691 0.000000 0.540258
O O14 0.030149 0.500000 0.116631
O O15 0.970706 0.237983 0.131172
O O16 0.000000 0.242655 0.000000
O O17 0.595290 0.000000 0.868767
O O18 0.666592 0.736792 0.971241
O O19 0.761533 0.500000 0.917665
#
# Coordination Sequence:
#
# PCOD9189277 Si02
#       7
#     8   8   8   8   8   8   8
#     4  11  22  37  59  91 125 157 201 257 309 363
#     4  10  23  44  68  92 122 163 209 256 314 380
#     4  12  24  38  60  92 125 158 204 255 305 365
#     4  11  24  44  70  96 126 161 205 260 320 383
#     4  10  19  37  61  83 118 168 212 251 303 366
#     4   9  20  36  57  88 124 163 207 252 303 365
#     4  11  20  37  61  85 118 164 208 245 299 365
#
# _framework density 23.019838
#
# number of rings (size 3 to 8) (size 9 to 14) (size 15 to 20)
#    0.000    1.429    2.857    3.000    0.000    2.286 
#    0.000    6.429    0.000    0.000    0.000    0.000 
#    0.000    0.000    0.000    0.000    0.000    0.000 
#
# Total GULP energy -156372.784646 kJ/mol
# GULP energy per Si atom -5584.742309 kJ/mol
# Density = 2.296744 g / cm^3
# Si number density = 23.019838 Si / 1000 Ang^3
#
#
#
# Elastic Constant Matrix: (Units=GPa)
#
#
# Indices 1 2 3 4 5 6 
#
# 1 155.3194 10.6826 22.2722 0.0000 10.8090 0.0000
# 2 10.6826 60.9526 3.5296 0.0000 0.1135 0.0000
# 3 22.2722 3.5296 34.8945 0.0000 6.3291 0.0000
# 4 0.0000 0.0000 0.0000 8.3872 0.0000 3.4553
# 5 10.8090 0.1135 6.3291 0.0000 39.4495 0.0000
# 6 0.0000 0.0000 0.0000 3.4553 0.0000 17.8566
#
#
#
# Elastic Compliance Matrix: (Units=1/GPa)
#
#
# Indices 1 2 3 4 5 6 
#
# 1 0.007209 -0.001014 -0.004265 0.000000 -0.001288 0.000000
# 2 -0.001014 0.016647 -0.001111 0.000000 0.000408 0.000000
# 3 -0.004265 -0.001111 0.032218 0.000000 -0.003997 0.000000
# 4 0.000000 0.000000 0.000000 0.129557 0.000000 -0.025070
# 5 -0.001288 0.000408 -0.003997 0.000000 0.026342 0.000000
# 6 0.000000 0.000000 0.000000 -0.025070 0.000000 0.060853
#
#
# Mechanical properties :
#
#
# Convention : Reuss Voigt Hill
#
# Bulk Modulus (GPa) = 23.09781 36.01503 29.55642
# Shear Modulus (GPa) = 16.66456 27.45080 22.05768
#
# Velocity S-wave (km/s) = 2.69350 3.45698 3.09884
# Velocity P-wave (km/s) = 4.44172 5.62259 5.06667
#
# Compressibility (1/GPa) = 0.04329415
#
# Stress axis : x y z
#
# Youngs Moduli (GPa) = 138.70843 60.06916 31.03902
#
# Poissons Ratio (x) = 0.06092 0.13239
# Poissons Ratio (y) = 0.14067 0.03447
# Poissons Ratio (z) = 0.59164 0.06672
#
# Static dielectric constant tensor:
#      x y z
#    x 1.983900 0.000000 0.011420 
#    y 0.000000 1.822200 0.000000 
#    z 0.011420 0.000000 1.823920 
# 
# From -- ./inp_files/288427.got.cif
#   From: 2010.05.17/outbox.cif.g08.bks.cpg/sg12_145_cif.got.tgz:288427.got - 2010.06.03 13:09:07.
