data_PCOD9189241
_publ_section_title
;
Structure prediction by ZEFSAII (Michael W. Deem and Ramdas Pophale) SiO2 
 PCOD9189241
Probable space group: C 2/M
;
_chemical_formula_sum "Si O2"
_cell_formula_units_Z 64
_cell_length_a 14.852937
_cell_length_b 18.123090
_cell_length_c 14.544908
_cell_angle_alpha 90.000000
_cell_angle_beta 60.135520
_cell_angle_gamma 90.000000
_cell_volume 3395.296033
_symmetry_space_group_name_H-M "C 2/M"
_symmetry_group_IT_number 12
_symmetry_cell_setting 'monoclinic'
loop_
_space_group_symop_operation_xyz
x,y,z
-x,y,-z
-x,-y,-z
x,-y,z
1/2+x,1/2+y,z
1/2-x,1/2+y,-z
1/2-x,1/2-y,-z
1/2+x,1/2-y,z
loop_
_atom_site_type_symbol
_atom_site_label
_atom_site_fract_x
_atom_site_fract_y
_atom_site_fract_z
Si Si1 0.405077 0.799794 0.671097
Si Si2 0.232206 0.084136 0.726085
Si Si3 0.120056 0.084374 0.225319
Si Si4 0.383216 0.379860 0.389532
Si Si5 0.673710 0.345585 0.388332
Si Si6 0.086850 0.214982 0.878759
Si Si7 0.895795 0.717707 0.323811
Si Si8 0.228464 0.781081 0.109782
O O1 0.340856 0.871976 0.676111
O O2 0.384441 0.732306 0.609088
O O3 0.521809 0.814748 0.645588
O O4 0.351761 0.766814 0.789977
O O5 0.195740 0.081208 0.638658
O O6 0.149872 0.140070 0.818464
O O7 0.234464 0.000000 0.760824
O O8 0.166276 0.105756 0.300932
O O9 0.179404 0.138408 0.126756
O O10 0.998338 0.102880 0.295101
O O11 0.133558 0.000000 0.195251
O O12 0.376320 0.389672 0.501671
O O13 0.359748 0.293524 0.388904
O O14 0.792900 0.328023 0.353258
O O15 0.055038 0.254012 0.798719
O O16 0.167090 0.272404 0.884270
O O17 0.000000 0.200130 0.000000
O O18 0.250000 0.750000 0.000000
#
# Coordination Sequence:
#
# PCOD9189241 Si02
#       8
#     8   8   8   8   8   8   8   8
#     4  10  20  36  59  85 116 157 203 250 284 348
#     4  10  22  39  54  83 126 156 192 245 302 358
#     4  11  23  39  59  92 129 153 190 247 306 360
#     4  11  21  35  61  87 120 156 199 247 303 352
#     4  11  21  38  58  90 119 159 203 246 291 358
#     4  10  20  35  61  91 112 150 200 248 296 350
#     4  11  19  36  59  89 116 150 207 257 284 340
#     4  10  19  37  60  86 118 155 197 242 290 349
#
# _framework density 18.849608
#
# number of rings (size 3 to 8) (size 9 to 14) (size 15 to 20)
#    0.000    1.500    7.500    1.875    1.750    1.750 
#    0.000    3.125    0.000    1.125    0.000    0.000 
#    0.000    0.000    0.000    0.000    0.000    0.000 
#
# Total GULP energy -178440.084864 kJ/mol
# GULP energy per Si atom -5576.252652 kJ/mol
# Density = 1.880671 g / cm^3
# Si number density = 18.849608 Si / 1000 Ang^3
#
#
#
# Elastic Constant Matrix: (Units=GPa)
#
#
# Indices 1 2 3 4 5 6 
#
# 1 133.8259 39.1325 14.1400 0.0000 2.0550 0.0000
# 2 39.1325 109.8681 26.4669 0.0000 -7.3057 0.0000
# 3 14.1400 26.4669 74.8675 0.0000 10.4038 0.0000
# 4 0.0000 0.0000 0.0000 5.2903 0.0000 7.0661
# 5 2.0550 -7.3057 10.4038 0.0000 15.6979 0.0000
# 6 0.0000 0.0000 0.0000 7.0661 0.0000 -5.8102
#
#
#
# Elastic Compliance Matrix: (Units=1/GPa)
#
#
# Indices 1 2 3 4 5 6 
#
# 1 0.008443 -0.003137 -0.000142 0.000000 -0.002471 0.000000
# 2 -0.003137 0.012030 -0.004951 0.000000 0.009291 0.000000
# 3 -0.000142 -0.004951 0.017019 0.000000 -0.013565 0.000000
# 4 0.000000 0.000000 0.000000 0.072027 0.000000 0.087596
# 5 -0.002471 0.009291 -0.013565 0.000000 0.077340 0.000000
# 6 0.000000 0.000000 0.000000 0.087596 0.000000 -0.065582
#
#
# Mechanical properties :
#
#
# Convention : Reuss Voigt Hill
#
# Bulk Modulus (GPa) = 47.54998 53.11559 50.33279
# Shear Modulus (GPa) = 34.54257 18.95706 26.74981
#
# Velocity S-wave (km/s) = 4.28546 3.17472 3.77120
# Velocity P-wave (km/s) = 7.05461 6.45587 6.76187
#
# Compressibility (1/GPa) = 0.02103050
#
# Stress axis : x y z
#
# Youngs Moduli (GPa) = 118.44533 83.12730 58.75731
#
# Poissons Ratio (x) = 0.26079 0.00835
# Poissons Ratio (y) = 0.37158 0.29092
# Poissons Ratio (z) = 0.01683 0.41158
#
# Static dielectric constant tensor:
#      x y z
#    x 1.712320 0.000000 0.008320 
#    y 0.000000 1.655060 0.000000 
#    z 0.008320 0.000000 1.695510 
# 
# From -- ./inp_files/216361.got.cif
#   From: 2010.05.17/outbox.cif.g08.bks.cpg/sg12_109_cif.got.tgz:216361.got - 2010.06.03 13:09:07.
