data_PCOD9189021
_publ_section_title
;
Structure prediction by ZEFSAII (Michael W. Deem and Ramdas Pophale) SiO2 
 PCOD9189021
Probable space group: C 2/M
;
_chemical_formula_sum "Si O2"
_cell_formula_units_Z 32
_cell_length_a 7.195642
_cell_length_b 18.602016
_cell_length_c 10.956163
_cell_angle_alpha 90.000000
_cell_angle_beta 83.703075
_cell_angle_gamma 90.000000
_cell_volume 1457.672444
_symmetry_space_group_name_H-M "C 2/M"
_symmetry_group_IT_number 12
_symmetry_cell_setting 'monoclinic'
loop_
_space_group_symop_operation_xyz
x,y,z
-x,y,-z
-x,-y,-z
x,-y,z
1/2+x,1/2+y,z
1/2-x,1/2+y,-z
1/2-x,1/2-y,-z
1/2+x,1/2-y,z
loop_
_atom_site_type_symbol
_atom_site_label
_atom_site_fract_x
_atom_site_fract_y
_atom_site_fract_z
Si Si1 0.789197 0.166566 0.474736
Si Si2 0.408012 0.824084 0.874765
Si Si3 0.455399 0.669237 0.209025
Si Si4 0.309075 0.084811 0.286242
O O1 0.750000 0.250000 0.500000
O O2 0.804114 0.157184 0.329249
O O3 0.673635 0.120135 0.579778
O O4 0.000000 0.150750 0.500000
O O5 0.458398 0.749607 0.800235
O O6 0.184794 0.836324 0.895508
O O7 0.514034 0.889690 0.803571
O O8 0.500000 0.815773 0.000000
O O9 0.627827 0.617466 0.228132
O O10 0.291660 0.000000 0.298298
#
# Coordination Sequence:
#
# PCOD9189021 Si02
#       4
#     8   8   8   8
#     4  10  19  36  65  94 125 163 214 259 325 392
#     4  12  24  41  70  99 127 175 233 267 310 389
#     4  11  22  40  69  96 126 171 223 270 324 382
#     4  11  26  43  64 100 139 168 210 275 332 385
#
# _framework density 21.952805000000001
#
# number of rings (size 3 to 8) (size 9 to 14) (size 15 to 20)
#    0.000    1.000    5.000    2.250    0.000    6.000 
#    0.000    2.500    0.000    0.000    0.000    0.000 
#    0.000    0.000    0.000    0.000    0.000    0.000 
#
# Total GULP energy -89359.673979 kJ/mol
# GULP energy per Si atom -5584.979624 kJ/mol
# Density = 2.190284 g / cm^3
# Si number density = 21.952805 Si / 1000 Ang^3
#
#
#
# Elastic Constant Matrix: (Units=GPa)
#
#
# Indices 1 2 3 4 5 6 
#
# 1 111.5428 12.6981 20.6888 0.0000 22.5827 0.0000
# 2 12.6981 135.3003 32.9299 0.0000 8.1907 0.0000
# 3 20.6888 32.9299 59.7726 0.0000 9.9131 0.0000
# 4 0.0000 0.0000 0.0000 17.6465 0.0000 0.5183
# 5 22.5827 8.1907 9.9131 0.0000 39.6202 0.0000
# 6 0.0000 0.0000 0.0000 0.5183 0.0000 23.9949
#
#
#
# Elastic Compliance Matrix: (Units=1/GPa)
#
#
# Indices 1 2 3 4 5 6 
#
# 1 0.010557 0.000007 -0.002775 0.000000 -0.005324 0.000000
# 2 0.000007 0.008550 -0.004610 0.000000 -0.000618 0.000000
# 3 -0.002775 -0.004610 0.020668 0.000000 -0.002636 0.000000
# 4 0.000000 0.000000 0.000000 0.056705 0.000000 -0.001225
# 5 -0.005324 -0.000618 -0.002636 0.000000 0.029062 0.000000
# 6 0.000000 0.000000 0.000000 -0.001225 0.000000 0.041702
#
#
# Mechanical properties :
#
#
# Convention : Reuss Voigt Hill
#
# Bulk Modulus (GPa) = 39.97085 48.80548 44.38817
# Shear Modulus (GPa) = 26.26901 32.27223 29.27062
#
# Velocity S-wave (km/s) = 3.46296 3.83831 3.65546
# Velocity P-wave (km/s) = 5.85121 6.47486 6.17092
#
# Compressibility (1/GPa) = 0.02501823
#
# Stress axis : x y z
#
# Youngs Moduli (GPa) = 94.72367 116.96228 48.38498
#
# Poissons Ratio (x) = -0.00081 0.13426
# Poissons Ratio (y) = -0.00065 0.22306
# Poissons Ratio (z) = 0.26284 0.53921
#
# Static dielectric constant tensor:
#      x y z
#    x 1.826480 0.000000 0.030110 
#    y 0.000000 1.726630 0.000000 
#    z 0.030110 0.000000 1.985410 
# 
# From -- ./inp_files/117462.got.cif
#   From: 2010.05.17/outbox.cif.g08.bks.cpg/sg12_59_cif.got.tgz:117462.got - 2010.06.03 13:09:07.
