data_PCOD9189452
_publ_section_title
;
Structure prediction by ZEFSAII (Michael W. Deem and Ramdas Pophale) SiO2 
 PCOD9189452
Probable space group: C 2/M
;
_chemical_formula_sum "Si O2"
_cell_formula_units_Z 64
_cell_length_a 13.970903
_cell_length_b 12.381531
_cell_length_c 24.597720
_cell_angle_alpha 90.000000
_cell_angle_beta 60.458266
_cell_angle_gamma 90.000000
_cell_volume 3701.786169
_symmetry_space_group_name_H-M "C 2/M"
_symmetry_group_IT_number 12
_symmetry_cell_setting 'monoclinic'
loop_
_space_group_symop_operation_xyz
x,y,z
-x,y,-z
-x,-y,-z
x,-y,z
1/2+x,1/2+y,z
1/2-x,1/2+y,-z
1/2-x,1/2-y,-z
1/2+x,1/2-y,z
loop_
_atom_site_type_symbol
_atom_site_label
_atom_site_fract_x
_atom_site_fract_y
_atom_site_fract_z
Si Si1 0.955411 0.254504 0.274622
Si Si2 0.810127 0.622470 0.941727
Si Si3 0.302357 0.369823 0.501991
Si Si4 0.679912 0.130155 0.186049
Si Si5 0.931620 0.811578 0.963306
Si Si6 0.989670 0.873577 0.633092
Si Si7 0.405399 0.373073 0.179031
Si Si8 0.271613 0.373579 0.639451
O O1 0.968941 0.180779 0.323797
O O2 0.943581 0.188868 0.221958
O O3 0.843410 0.319681 0.314658
O O4 0.064416 0.327358 0.240280
O O5 0.849283 0.500000 0.929897
O O6 0.809172 0.665260 0.880017
O O7 0.889271 0.693900 0.956680
O O8 0.684015 0.626634 0.997044
O O9 0.263240 0.500000 0.500446
O O10 0.250000 0.250000 0.500000
O O11 0.420510 0.364878 0.439895
O O12 0.300475 0.365290 0.567604
O O13 0.786271 0.166394 0.190589
O O14 0.681706 0.000000 0.185870
O O15 0.008255 0.857163 0.894148
O O16 0.000000 0.812731 0.000000
O O17 0.873547 0.827201 0.645154
O O18 0.974738 0.000000 0.648156
O O19 0.396587 0.500000 0.193712
O O20 0.262046 0.500000 0.654676
#
# Coordination Sequence:
#
# PCOD9189452 Si02
#       8
#     8   8   8   8   8   8   8   8
#     4  12  21  37  57  81 117 151 184 234 286 333
#     4  10  21  37  57  82 108 137 179 230 280 331
#     4  10  19  37  63  89 118 155 197 246 292 339
#     4  10  21  37  56  79 110 146 184 225 277 343
#     4  11  21  37  61  81 105 141 184 232 278 330
#     4  10  21  37  59  85 115 153 196 238 284 337
#     4  11  23  37  55  83 111 144 187 228 281 339
#     4  10  21  37  60  87 114 152 200 236 276 341
#
# _framework density 17.288951000000001
#
# number of rings (size 3 to 8) (size 9 to 14) (size 15 to 20)
#    0.000    1.500    3.750    2.250    0.000    2.250 
#    0.000    0.000    0.000    3.750    0.000    0.000 
#    0.000    0.000    0.000    0.000    0.000    0.000 
#
# Total GULP energy -178273.822022 kJ/mol
# GULP energy per Si atom -5571.056938 kJ/mol
# Density = 1.724960 g / cm^3
# Si number density = 17.288951 Si / 1000 Ang^3
#
#
#
# Elastic Constant Matrix: (Units=GPa)
#
#
# Indices 1 2 3 4 5 6 
#
# 1 79.1611 28.2103 41.0883 0.0000 -7.0389 0.0000
# 2 28.2103 53.3031 11.7239 0.0000 4.5055 0.0000
# 3 41.0883 11.7239 98.7152 0.0000 -8.5645 0.0000
# 4 0.0000 0.0000 0.0000 140.1545 0.0000 43.4919
# 5 -7.0389 4.5055 -8.5645 0.0000 26.6726 0.0000
# 6 0.0000 0.0000 0.0000 43.4919 0.0000 34.4082
#
#
#
# Elastic Compliance Matrix: (Units=1/GPa)
#
#
# Indices 1 2 3 4 5 6 
#
# 1 0.019931 -0.009456 -0.006766 0.000000 0.004684 0.000000
# 2 -0.009456 0.024197 0.000505 0.000000 -0.006421 0.000000
# 3 -0.006766 0.000505 0.013089 0.000000 0.002332 0.000000
# 4 0.000000 0.000000 0.000000 0.011740 0.000000 -0.014839
# 5 0.004684 -0.006421 0.002332 0.000000 0.040561 0.000000
# 6 0.000000 0.000000 0.000000 -0.014839 0.000000 0.047819
#
#
# Mechanical properties :
#
#
# Convention : Reuss Voigt Hill
#
# Bulk Modulus (GPa) = 38.78680 43.69158 41.23919
# Shear Modulus (GPa) = 25.33378 50.25754 37.79566
#
# Velocity S-wave (km/s) = 3.83210 5.39743 4.68066
# Velocity P-wave (km/s) = 6.48561 8.01057 7.28809
#
# Compressibility (1/GPa) = 0.02578197
#
# Stress axis : x y z
#
# Youngs Moduli (GPa) = 50.17347 41.32782 76.40091
#
# Poissons Ratio (x) = 0.39079 0.51696
# Poissons Ratio (y) = 0.47444 -0.03859
# Poissons Ratio (z) = 0.33949 -0.02087
#
# Static dielectric constant tensor:
#      x y z
#    x 1.583770 0.000000 0.000260 
#    y 0.000000 1.603080 0.000000 
#    z 0.000260 0.000000 1.565730 
# 
# From -- ./inp_files/335631.got.cif
#   From: 2010.05.17/outbox.cif.g08.bks.cpg/sg12_168_cif.got.tgz:335631.got - 2010.06.03 13:09:07.
