data_PCOD9189003
_publ_section_title
;
Structure prediction by ZEFSAII (Michael W. Deem and Ramdas Pophale) SiO2 
 PCOD9189003
Probable space group: C 2/M
;
_chemical_formula_sum "Si O2"
_cell_formula_units_Z 64
_cell_length_a 31.773729
_cell_length_b 16.868642
_cell_length_c 9.730215
_cell_angle_alpha 90.000000
_cell_angle_beta 143.497857
_cell_angle_gamma 90.000000
_cell_volume 3102.275004
_symmetry_space_group_name_H-M "C 2/M"
_symmetry_group_IT_number 12
_symmetry_cell_setting 'monoclinic'
loop_
_space_group_symop_operation_xyz
x,y,z
-x,y,-z
-x,-y,-z
x,-y,z
1/2+x,1/2+y,z
1/2-x,1/2+y,-z
1/2-x,1/2-y,-z
1/2+x,1/2-y,z
loop_
_atom_site_type_symbol
_atom_site_label
_atom_site_fract_x
_atom_site_fract_y
_atom_site_fract_z
Si Si1 0.379904 0.595387 0.928156
Si Si2 0.746817 0.096116 0.394517
Si Si3 0.021168 0.331661 0.394970
Si Si4 0.164987 0.904274 0.623050
Si Si5 0.096451 0.404064 0.114842
Si Si6 0.519614 0.682573 0.201621
Si Si7 0.635323 0.095472 0.519383
Si Si8 0.702735 0.403399 0.028585
O O1 0.382863 0.500000 0.932595
O O2 0.313777 0.620972 0.660967
O O3 0.453815 0.627715 0.070703
O O4 0.356239 0.622196 0.017464
O O5 0.768546 0.117646 0.297751
O O6 0.672213 0.124347 0.255131
O O7 0.743568 0.000000 0.395020
O O8 0.094979 0.373550 0.547613
O O9 0.000000 0.334187 0.500000
O O10 0.026846 0.244967 0.343440
O O11 0.962664 0.373848 0.144395
O O12 0.180969 0.879753 0.819635
O O13 0.092614 0.865430 0.381973
O O14 0.157301 0.000000 0.596756
O O15 0.093736 0.500000 0.106949
O O16 0.095419 0.380365 0.273246
O O17 0.500000 0.717040 0.000000
O O18 0.635147 0.000000 0.522462
O O19 0.717151 0.121976 0.726573
O O20 0.704268 0.500000 0.037632
#
# Coordination Sequence:
#
# PCOD9189003 Si02
#       8
#     8   8   8   8   8   8   8   8
#     4  10  19  36  64  95 122 154 200 248 295 354
#     4   9  17  33  61  97 124 145 193 252 298 352
#     4  12  29  44  57  86 123 160 204 251 299 356
#     4  10  21  36  61  96 126 157 198 248 301 350
#     4  10  20  40  70  95 119 154 194 244 302 362
#     4  12  25  42  61  82 122 171 206 246 294 351
#     4  10  20  41  70  94 119 154 195 243 301 366
#     4   9  19  35  61  96 127 152 188 246 307 356
#
# _framework density 20.630022
#
# number of rings (size 3 to 8) (size 9 to 14) (size 15 to 20)
#    0.000    1.750    2.500    1.875    3.500    2.500 
#    0.000    4.375    0.000    0.000    0.000    0.000 
#    0.000    0.000    0.000    0.000    0.000    0.000 
#
# Total GULP energy -178670.552160 kJ/mol
# GULP energy per Si atom -5583.454755 kJ/mol
# Density = 2.058307 g / cm^3
# Si number density = 20.630022 Si / 1000 Ang^3
#
#
#
# Elastic Constant Matrix: (Units=GPa)
#
#
# Indices 1 2 3 4 5 6 
#
# 1 144.3756 17.4589 26.5703 0.0000 -13.3170 0.0000
# 2 17.4589 21.3630 12.2370 0.0000 -0.0372 0.0000
# 3 26.5703 12.2370 61.1912 0.0000 -7.0928 0.0000
# 4 0.0000 0.0000 0.0000 -583.9851 0.0000 -481.5348
# 5 -13.3170 -0.0372 -7.0928 0.0000 42.9061 0.0000
# 6 0.0000 0.0000 0.0000 -481.5348 0.0000 -360.9645
#
#
#
# Elastic Compliance Matrix: (Units=1/GPa)
#
#
# Indices 1 2 3 4 5 6 
#
# 1 0.008190 -0.005417 -0.002222 0.000000 0.002170 0.000000
# 2 -0.005417 0.056576 -0.009330 0.000000 -0.003175 0.000000
# 3 -0.002222 -0.009330 0.019465 0.000000 0.002520 0.000000
# 4 0.000000 0.000000 0.000000 0.017125 0.000000 -0.022846
# 5 0.002170 -0.003175 0.002520 0.000000 0.024394 0.000000
# 6 0.000000 0.000000 0.000000 -0.022846 0.000000 0.027706
#
#
# Mechanical properties :
#
#
# Convention : Reuss Voigt Hill
#
# Bulk Modulus (GPa) = 19.88314 37.71802 28.80058
# Shear Modulus (GPa) = 24.49078 -169.03112 -72.27017
#
# Velocity S-wave (km/s) = 3.44923 -9.06159 -5.92517
# Velocity P-wave (km/s) = 5.05191 9.54780 5.72881
#
# Compressibility (1/GPa) = 0.05029386
#
# Stress axis : x y z
#
# Youngs Moduli (GPa) = 122.09269 17.67538 51.37494
#
# Poissons Ratio (x) = 0.09575 0.11413
# Poissons Ratio (y) = 0.66142 0.47931
# Poissons Ratio (z) = 0.27123 0.16491
#
# Static dielectric constant tensor:
#      x y z
#    x 1.745210 0.000000 -0.014000 
#    y 0.000000 1.753740 0.000000 
#    z -0.014000 0.000000 1.721040 
# 
# From -- ./inp_files/112869.got.cif
#   From: 2010.05.17/outbox.cif.g08.bks.cpg/sg12_57_cif.got.tgz:112869.got - 2010.06.03 13:09:07.
