data_PCOD9189670
_publ_section_title
;
Structure prediction by ZEFSAII (Michael W. Deem and Ramdas Pophale) SiO2 
 PCOD9189670
Probable space group: C 2/M
;
_chemical_formula_sum "Si O2"
_cell_formula_units_Z 50
_cell_length_a 8.843841
_cell_length_b 16.966124
_cell_length_c 18.401266
_cell_angle_alpha 90.000000
_cell_angle_beta 67.603705
_cell_angle_gamma 90.000000
_cell_volume 2552.768193
_symmetry_space_group_name_H-M "C 2/M"
_symmetry_group_IT_number 12
_symmetry_cell_setting 'monoclinic'
loop_
_space_group_symop_operation_xyz
x,y,z
-x,y,-z
-x,-y,-z
x,-y,z
1/2+x,1/2+y,z
1/2-x,1/2+y,-z
1/2-x,1/2-y,-z
1/2+x,1/2-y,z
loop_
_atom_site_type_symbol
_atom_site_label
_atom_site_fract_x
_atom_site_fract_y
_atom_site_fract_z
Si Si1 0.924007 0.783652 0.442906
Si Si2 0.500000 0.000000 0.000000
Si Si3 0.796821 0.914616 0.873628
Si Si4 0.804355 0.592617 0.795465
Si Si5 0.862439 0.333774 0.219502
Si Si6 0.462182 0.300279 0.089635
Si Si7 0.239391 0.692663 0.339548
O O1 0.750000 0.750000 0.500000
O O2 0.868982 0.827318 0.379254
O O3 0.000000 0.826439 0.500000
O O4 0.056321 0.714884 0.400332
O O5 0.620092 0.066883 0.940620
O O6 0.773975 0.885164 0.795811
O O7 0.890608 0.849525 0.901890
O O8 0.115979 0.000000 0.139364
O O9 0.777120 0.500000 0.806199
O O10 0.693948 0.641997 0.872221
O O11 0.763841 0.628491 0.723652
O O12 0.992072 0.612718 0.778081
O O13 0.929390 0.275767 0.144396
O O14 0.797987 0.275266 0.293025
O O15 0.500000 0.282047 0.000000
#
# Coordination Sequence:
#
# PCOD9189670 Si02
#       7
#     8   2   8   8   8   8   8
#     4   9  18  34  65  98 119 151 191 238 284 342
#     4   8  24  40  58  72 116 152 204 250 298 354
#     4  10  23  40  56  78 110 157 198 242 303 358
#     4  11  24  38  58  87 120 163 196 244 302 348
#     4  11  23  38  60  85 118 157 201 246 298 349
#     4  11  25  38  58  84 115 151 209 264 302 337
#     4  10  19  38  59  94 126 149 199 241 281 352
#
# _framework density 19.586582
#
# number of rings (size 3 to 8) (size 9 to 14) (size 15 to 20)
#    0.480    1.280    1.600    2.880    5.600    2.560 
#    0.000    0.000    0.000    4.800    0.000    0.000 
#    0.000    0.000    0.000    0.000    0.000    0.000 
#
# Total GULP energy -139202.449700 kJ/mol
# GULP energy per Si atom -5568.097988 kJ/mol
# Density = 1.954200 g / cm^3
# Si number density = 19.586582 Si / 1000 Ang^3
#
#
#
# Elastic Constant Matrix: (Units=GPa)
#
#
# Indices 1 2 3 4 5 6 
#
# 1 83.0892 4.4869 25.8069 0.0000 12.7166 0.0000
# 2 4.4869 62.8804 4.0080 0.0000 -6.2144 0.0000
# 3 25.8069 4.0080 77.5763 0.0000 -0.2596 0.0000
# 4 0.0000 0.0000 0.0000 63.4469 0.0000 -51.5433
# 5 12.7166 -6.2144 -0.2596 0.0000 33.7122 0.0000
# 6 0.0000 0.0000 0.0000 -51.5433 0.0000 54.1339
#
#
#
# Elastic Compliance Matrix: (Units=1/GPa)
#
#
# Indices 1 2 3 4 5 6 
#
# 1 0.014462 -0.001295 -0.004763 0.000000 -0.005730 0.000000
# 2 -0.001295 0.016367 -0.000403 0.000000 0.003502 0.000000
# 3 -0.004763 -0.000403 0.014502 0.000000 0.001834 0.000000
# 4 0.000000 0.000000 0.000000 0.069588 0.000000 0.066258
# 5 -0.005730 0.003502 0.001834 0.000000 0.032484 0.000000
# 6 0.000000 0.000000 0.000000 0.066258 0.000000 0.081560
#
#
# Mechanical properties :
#
#
# Convention : Reuss Voigt Hill
#
# Bulk Modulus (GPa) = 30.85561 32.46105 31.65833
# Shear Modulus (GPa) = 19.78722 42.87488 31.33105
#
# Velocity S-wave (km/s) = 3.18188 4.68374 4.00386
# Velocity P-wave (km/s) = 5.41173 6.77193 6.12967
#
# Compressibility (1/GPa) = 0.03240902
#
# Stress axis : x y z
#
# Youngs Moduli (GPa) = 69.14871 61.09694 68.95581
#
# Poissons Ratio (x) = 0.07910 0.32845
# Poissons Ratio (y) = 0.08952 0.02780
# Poissons Ratio (z) = 0.32937 0.02464
#
# Static dielectric constant tensor:
#      x y z
#    x 1.739350 0.000000 0.007110 
#    y 0.000000 1.689130 0.000000 
#    z 0.007110 0.000000 1.725300 
# 
# From -- ./inp_files/256527.got.cif
#   From: 2010.05.17/outbox.cif.g08.bks.cpg/sg12_129_cif.got.tgz:256527.got - 2010.06.03 13:09:07.
