data_PCOD9189838
_publ_section_title
;
Structure prediction by ZEFSAII (Michael W. Deem and Ramdas Pophale) SiO2 
 PCOD9189838
Probable space group: C 2/M
;
_chemical_formula_sum "Si O2"
_cell_formula_units_Z 58
_cell_length_a 21.131756
_cell_length_b 7.619295
_cell_length_c 19.114439
_cell_angle_alpha 90.000000
_cell_angle_beta 61.201742
_cell_angle_gamma 90.000000
_cell_volume 2696.965019
_symmetry_space_group_name_H-M "C 2/M"
_symmetry_group_IT_number 12
_symmetry_cell_setting 'monoclinic'
loop_
_space_group_symop_operation_xyz
x,y,z
-x,y,-z
-x,-y,-z
x,-y,z
1/2+x,1/2+y,z
1/2-x,1/2+y,-z
1/2-x,1/2-y,-z
1/2+x,1/2-y,z
loop_
_atom_site_type_symbol
_atom_site_label
_atom_site_fract_x
_atom_site_fract_y
_atom_site_fract_z
Si Si1 0.392460 0.703499 0.753924
Si Si2 0.738204 0.709684 0.087142
Si Si3 0.298566 0.796173 0.674573
Si Si4 0.323935 0.709443 0.502070
Si Si5 0.000000 0.000000 0.000000
Si Si6 0.132783 0.213669 0.772728
Si Si7 0.392900 0.798234 0.059415
Si Si8 0.944647 0.214907 0.330011
O O1 0.402722 0.500000 0.768645
O O2 0.334856 0.782498 0.839401
O O3 0.353128 0.708892 0.699745
O O4 0.473085 0.778304 0.708191
O O5 0.734601 0.500000 0.097322
O O6 0.810725 0.762261 0.088947
O O7 0.750000 0.750000 0.000000
O O8 0.321128 0.781229 0.581912
O O9 0.216348 0.728835 0.724203
O O10 0.296776 0.000000 0.695298
O O11 0.329101 0.500000 0.505087
O O12 0.250000 0.750000 0.500000
O O13 0.391699 0.773961 0.420360
O O14 0.054055 0.155614 0.000783
O O15 0.098107 0.285886 0.861654
O O16 0.091107 0.264571 0.724787
O O17 0.130403 0.000000 0.778900
O O18 0.402822 0.000000 0.030852
O O19 0.943988 0.000000 0.333010
#
# Coordination Sequence:
#
# PCOD9189838 Si02
#       8
#     8   8   8   8   2   8   8   8
#     4  10  21  41  64  90 123 165 211 261 317 385
#     4  10  23  40  65  97 128 166 217 270 327 404
#     4  11  22  37  63  91 123 169 216 259 317 391
#     4  11  21  37  60  91 125 166 216 268 319 379
#     4  12  26  44  68  94 132 176 204 284 340 382
#     4  10  19  38  64  92 123 172 218 264 323 387
#     4  11  24  43  66 100 132 170 227 271 325 404
#     4   9  20  38  62  92 127 166 217 264 319 389
#
# _framework density 21.505655000000001
#
# number of rings (size 3 to 8) (size 9 to 14) (size 15 to 20)
#    0.000    1.655    3.448    1.034    0.966    2.759 
#    2.483    4.828    0.000    0.000    0.000    0.000 
#    0.000    0.000    0.000    0.000    0.000    0.000 
#
# Total GULP energy -161772.906549 kJ/mol
# GULP energy per Si atom -5578.376088 kJ/mol
# Density = 2.145671 g / cm^3
# Si number density = 21.505655 Si / 1000 Ang^3
#
#
#
# Elastic Constant Matrix: (Units=GPa)
#
#
# Indices 1 2 3 4 5 6 
#
# 1 139.1516 9.4315 59.9812 0.0000 -28.4728 0.0013
# 2 9.4315 68.7218 -0.3876 0.0002 -17.1899 0.0021
# 3 59.9812 -0.3876 110.4928 0.0004 -4.4269 0.0000
# 4 0.0000 0.0002 0.0004 23.0411 -0.0003 3.3785
# 5 -28.4728 -17.1899 -4.4269 -0.0003 38.4867 0.0004
# 6 0.0013 0.0021 0.0000 3.3785 0.0004 18.5426
#
#
#
# Elastic Compliance Matrix: (Units=1/GPa)
#
#
# Indices 1 2 3 4 5 6 
#
# 1 0.011264 0.000382 -0.005799 0.000000 0.007836 -0.000001
# 2 0.000382 0.016408 0.000156 0.000000 0.007629 -0.000002
# 3 -0.005799 0.000156 0.012086 0.000000 -0.002830 0.000001
# 4 0.000000 0.000000 0.000000 0.044592 0.000001 -0.008125
# 5 0.007836 0.007629 -0.002830 0.000001 0.034862 -0.000002
# 6 -0.000001 -0.000002 0.000001 -0.008125 -0.000002 0.055410
#
#
# Mechanical properties :
#
#
# Convention : Reuss Voigt Hill
#
# Bulk Modulus (GPa) = 34.20620 50.71295 42.45957
# Shear Modulus (GPa) = 25.65546 32.63682 29.14614
#
# Velocity S-wave (km/s) = 3.45768 3.89986 3.68540
# Velocity P-wave (km/s) = 5.64632 6.62653 6.15597
#
# Compressibility (1/GPa) = 0.02923446
#
# Stress axis : x y z
#
# Youngs Moduli (GPa) = 88.78024 60.94510 82.74289
#
# Poissons Ratio (x) = -0.02326 0.47985
# Poissons Ratio (y) = -0.03388 -0.01291
# Poissons Ratio (z) = 0.51486 -0.00951
#
# Static dielectric constant tensor:
#      x y z
#    x 1.737940 0.000000 -0.078550 
#    y 0.000000 1.820560 0.000000 
#    z -0.078550 0.000000 1.740850 
# 
# From -- ./inp_files/282133.got.cif
#   From: 2010.05.17/outbox.cif.g08.bks.cpg/sg12_142_cif.got.tgz:282133.got - 2010.06.03 13:09:07.
