data_PCOD9189759
_publ_section_title
;
Structure prediction by ZEFSAII (Michael W. Deem and Ramdas Pophale) SiO2 
 PCOD9189759
Probable space group: C 2/M
;
_chemical_formula_sum "Si O2"
_cell_formula_units_Z 40
_cell_length_a 18.002507
_cell_length_b 11.908726
_cell_length_c 11.019504
_cell_angle_alpha 90.000000
_cell_angle_beta 115.202977
_cell_angle_gamma 90.000000
_cell_volume 2137.545145
_symmetry_space_group_name_H-M "C 2/M"
_symmetry_group_IT_number 12
_symmetry_cell_setting 'monoclinic'
loop_
_space_group_symop_operation_xyz
x,y,z
-x,y,-z
-x,-y,-z
x,-y,z
1/2+x,1/2+y,z
1/2-x,1/2+y,-z
1/2-x,1/2-y,-z
1/2+x,1/2-y,z
loop_
_atom_site_type_symbol
_atom_site_label
_atom_site_fract_x
_atom_site_fract_y
_atom_site_fract_z
Si Si1 0.582758 0.368660 0.135538
Si Si2 0.077215 0.500000 0.955322
Si Si3 0.712877 0.630927 0.623548
Si Si4 0.486539 0.000000 0.636098
Si Si5 0.119269 0.717812 0.384670
Si Si6 0.202751 0.293438 0.084233
O O1 0.597597 0.500000 0.169339
O O2 0.578572 0.298424 0.256466
O O3 0.656822 0.312052 0.113243
O O4 0.500000 0.357097 0.000000
O O5 0.050760 0.500000 0.794667
O O6 0.133761 0.389999 0.016962
O O7 0.000000 0.500000 0.000000
O O8 0.696889 0.500000 0.592376
O O9 0.797091 0.666802 0.614232
O O10 0.643392 0.708742 0.517647
O O11 0.731184 0.656625 0.775848
O O12 0.500000 0.000000 0.500000
O O13 0.436312 0.886962 0.624610
O O14 0.250000 0.250000 0.000000
#
# Coordination Sequence:
#
# PCOD9189759 Si02
#       6
#     8   4   8   4   8   8
#     4  10  21  39  64  90 120 168 219 259 316 401
#     4  12  24  46  74  94 133 183 229 262 329 413
#     4  10  19  38  62  88 122 161 209 254 318 390
#     4  12  26  40  64  96 134 166 216 270 327 379
#     4  10  21  38  61  89 124 162 210 257 315 388
#     4  11  24  38  64  96 130 163 213 279 330 374
#
# _framework density 18.713054
#
# number of rings (size 3 to 8) (size 9 to 14) (size 15 to 20)
#    0.000    1.400    2.000    4.800    4.200    0.000 
#    1.800    0.000    0.000    1.200    0.000    0.000 
#    0.000    0.000    0.000    0.000    0.000    0.000 
#
# Total GULP energy -111647.686243 kJ/mol
# GULP energy per Si atom -5582.384312 kJ/mol
# Density = 1.867046 g / cm^3
# Si number density = 18.713054 Si / 1000 Ang^3
#
#
#
# Elastic Constant Matrix: (Units=GPa)
#
#
# Indices 1 2 3 4 5 6 
#
# 1 56.7282 49.2129 43.1139 0.0000 -14.6363 0.0000
# 2 49.2129 187.6265 85.7769 0.0000 1.7729 0.0000
# 3 43.1139 85.7769 159.2474 0.0000 -8.7733 0.0000
# 4 0.0000 0.0000 0.0000 29.3603 0.0000 -2.4880
# 5 -14.6363 1.7729 -8.7733 0.0000 24.2779 0.0000
# 6 0.0000 0.0000 0.0000 -2.4880 0.0000 13.1933
#
#
#
# Elastic Compliance Matrix: (Units=1/GPa)
#
#
# Indices 1 2 3 4 5 6 
#
# 1 0.030699 -0.006450 -0.003869 0.000000 0.017580 0.000000
# 2 -0.006450 0.008516 -0.003152 0.000000 -0.005649 0.000000
# 3 -0.003869 -0.003152 0.009090 0.000000 0.001183 0.000000
# 4 0.000000 0.000000 0.000000 0.034613 0.000000 0.006527
# 5 0.017580 -0.005649 0.001183 0.000000 0.052628 0.000000
# 6 0.000000 0.000000 0.000000 0.006527 0.000000 0.077027
#
#
# Mechanical properties :
#
#
# Convention : Reuss Voigt Hill
#
# Bulk Modulus (GPa) = 46.80748 84.42327 65.61537
# Shear Modulus (GPa) = 20.27284 28.39951 24.33618
#
# Velocity S-wave (km/s) = 3.29500 3.89990 3.61015
# Velocity P-wave (km/s) = 6.28837 8.09269 7.24690
#
# Compressibility (1/GPa) = 0.02136411
#
# Stress axis : x y z
#
# Youngs Moduli (GPa) = 32.57403 117.42882 110.01174
#
# Poissons Ratio (x) = 0.75737 0.42562
# Poissons Ratio (y) = 0.21009 0.34676
# Poissons Ratio (z) = 0.12602 0.37014
#
# Static dielectric constant tensor:
#      x y z
#    x 1.651210 0.000000 -0.027950 
#    y 0.000000 1.629460 0.000000 
#    z -0.027950 0.000000 1.692090 
# 
# From -- ./inp_files/153907.got.cif
#   From: 2010.05.17/outbox.cif.g08.bks.cpg/sg12_77_cif.got.tgz:153907.got - 2010.06.03 13:09:07.
