data_PCOD9189249
_publ_section_title
;
Structure prediction by ZEFSAII (Michael W. Deem and Ramdas Pophale) SiO2 
 PCOD9189249
Probable space group: C 2/M
;
_chemical_formula_sum "Si O2"
_cell_formula_units_Z 48
_cell_length_a 15.407384
_cell_length_b 19.712781
_cell_length_c 9.243152
_cell_angle_alpha 90.000000
_cell_angle_beta 59.341520
_cell_angle_gamma 90.000000
_cell_volume 2414.946157
_symmetry_space_group_name_H-M "C 2/M"
_symmetry_group_IT_number 12
_symmetry_cell_setting 'monoclinic'
loop_
_space_group_symop_operation_xyz
x,y,z
-x,y,-z
-x,-y,-z
x,-y,z
1/2+x,1/2+y,z
1/2-x,1/2+y,-z
1/2-x,1/2-y,-z
1/2+x,1/2-y,z
loop_
_atom_site_type_symbol
_atom_site_label
_atom_site_fract_x
_atom_site_fract_y
_atom_site_fract_z
Si Si1 0.271156 0.237302 0.748338
Si Si2 0.572975 0.209972 0.802807
Si Si3 0.518301 0.420498 0.155479
Si Si4 0.938409 0.196008 0.411815
Si Si5 0.257974 0.638203 0.983050
Si Si6 0.118505 0.426549 0.863353
O O1 0.160171 0.237809 0.772740
O O2 0.342554 0.263972 0.559149
O O3 0.283673 0.168088 0.829250
O O4 0.274773 0.297295 0.863872
O O5 0.512266 0.243084 0.723845
O O6 0.500000 0.205308 0.000000
O O7 0.624254 0.136223 0.746395
O O8 0.505000 0.500000 0.202960
O O9 0.443872 0.370978 0.308544
O O10 0.500000 0.411671 0.000000
O O11 0.634035 0.397807 0.088461
O O12 0.000000 0.176493 0.500000
O O13 0.179473 0.593262 0.956973
O O14 0.153859 0.500000 0.780077
O O15 0.000000 0.431947 0.000000
#
# Coordination Sequence:
#
# PCOD9189249 Si02
#       6
#     8   8   8   8   8   8
#     4  10  21  35  58  88 120 156 204 257 313 369
#     4  10  21  37  61  83 118 159 202 264 312 376
#     4  11  24  42  63  89 129 174 209 252 319 390
#     4  12  23  36  58  92 125 158 205 261 313 372
#     4  10  19  37  60  88 118 158 208 256 310 375
#     4   9  19  34  57  84 111 151 204 256 307 365
#
# _framework density 19.87622
#
# number of rings (size 3 to 8) (size 9 to 14) (size 15 to 20)
#    0.000    1.667    1.667    3.500    7.000    0.333 
#    0.000    0.833    0.000    2.500    0.000    0.000 
#    0.000    0.000    0.000    0.000    0.000    0.000 
#
# Total GULP energy -133656.201987 kJ/mol
# GULP energy per Si atom -5569.008416 kJ/mol
# Density = 1.983098 g / cm^3
# Si number density = 19.876220 Si / 1000 Ang^3
#
#
#
# Elastic Constant Matrix: (Units=GPa)
#
#
# Indices 1 2 3 4 5 6 
#
# 1 72.2260 24.7818 5.1772 0.0000 2.1182 0.0000
# 2 24.7818 136.3231 50.7645 0.0000 18.6938 0.0000
# 3 5.1772 50.7645 84.1631 0.0000 5.4958 0.0000
# 4 0.0000 0.0000 0.0000 27.2191 0.0000 7.5858
# 5 2.1182 18.6938 5.4958 0.0000 29.2160 0.0000
# 6 0.0000 0.0000 0.0000 7.5858 0.0000 12.6876
#
#
#
# Elastic Compliance Matrix: (Units=1/GPa)
#
#
# Indices 1 2 3 4 5 6 
#
# 1 0.014837 -0.003151 0.000938 0.000000 0.000764 0.000000
# 2 -0.003151 0.010925 -0.006028 0.000000 -0.005628 0.000000
# 3 0.000938 -0.006028 0.015402 0.000000 0.000892 0.000000
# 4 0.000000 0.000000 0.000000 0.044085 0.000000 -0.026358
# 5 0.000764 -0.005628 0.000892 0.000000 0.037606 0.000000
# 6 0.000000 0.000000 0.000000 -0.026358 0.000000 0.094576
#
#
# Mechanical properties :
#
#
# Convention : Reuss Voigt Hill
#
# Bulk Modulus (GPa) = 40.51701 50.46216 45.48958
# Shear Modulus (GPa) = 20.64920 27.95711 24.30316
#
# Velocity S-wave (km/s) = 3.22668 3.75448 3.50054
# Velocity P-wave (km/s) = 5.85755 6.65118 6.26694
#
# Compressibility (1/GPa) = 0.02468099
#
# Stress axis : x y z
#
# Youngs Moduli (GPa) = 67.39889 91.53361 64.92763
#
# Poissons Ratio (x) = 0.28846 -0.06092
# Poissons Ratio (y) = 0.21240 0.39140
# Poissons Ratio (z) = -0.06323 0.55179
#
# Static dielectric constant tensor:
#      x y z
#    x 1.780030 0.000000 0.019590 
#    y 0.000000 1.742560 0.000000 
#    z 0.019590 0.000000 1.752140 
# 
# From -- ./inp_files/76719.got.cif
#   From: 2010.05.17/outbox.cif.g08.bks.cpg/sg12_39_cif.got.tgz:76719.got - 2010.06.03 13:09:07.
