data_PCOD9189457
_publ_section_title
;
Structure prediction by ZEFSAII (Michael W. Deem and Ramdas Pophale) SiO2 
 PCOD9189457
Probable space group: C 2/M
;
_chemical_formula_sum "Si O2"
_cell_formula_units_Z 50
_cell_length_a 19.768848
_cell_length_b 9.449984
_cell_length_c 13.721346
_cell_angle_alpha 90.000000
_cell_angle_beta 90.148085
_cell_angle_gamma 90.000000
_cell_volume 2563.348771
_symmetry_space_group_name_H-M "C 2/M"
_symmetry_group_IT_number 12
_symmetry_cell_setting 'monoclinic'
loop_
_space_group_symop_operation_xyz
x,y,z
-x,y,-z
-x,-y,-z
x,-y,z
1/2+x,1/2+y,z
1/2-x,1/2+y,-z
1/2-x,1/2-y,-z
1/2+x,1/2-y,z
loop_
_atom_site_type_symbol
_atom_site_label
_atom_site_fract_x
_atom_site_fract_y
_atom_site_fract_z
Si Si1 0.704876 0.169427 0.078384
Si Si2 0.156619 0.336096 0.623315
Si Si3 0.783672 0.330067 0.693692
Si Si4 0.911921 0.263497 0.576548
Si Si5 0.549655 0.827910 0.088366
Si Si6 0.475769 0.161441 0.277970
Si Si7 0.000000 0.000000 0.500000
O O1 0.726371 0.193633 0.190819
O O2 0.626510 0.217307 0.071705
O O3 0.707983 0.000000 0.060785
O O4 0.750000 0.250000 0.000000
O O5 0.172862 0.500000 0.647837
O O6 0.221548 0.237882 0.635104
O O7 0.124420 0.334383 0.515790
O O8 0.096263 0.276398 0.691859
O O9 0.789578 0.500000 0.678514
O O10 0.852580 0.257595 0.656776
O O11 0.974063 0.340689 0.630114
O O12 0.946485 0.121937 0.537899
O O13 0.515886 0.772762 0.187855
O O14 0.553637 0.000000 0.096443
O O15 0.500000 0.793209 0.000000
O O16 0.460195 0.000000 0.250485
#
# Coordination Sequence:
#
# PCOD9189457 Si02
#       7
#     8   8   8   8   8   8   2
#     4  10  22  41  64  93 129 169 212 265 330 390
#     4  11  24  38  63  98 129 169 218 273 320 385
#     4  11  25  43  66  91 132 181 218 266 327 392
#     4  12  23  43  63  90 127 170 215 261 328 387
#     4   9  18  34  62  92 118 155 207 263 313 375
#     4  10  19  37  63  90 122 160 212 263 321 381
#     4  12  28  40  66  96 130 172 212 282 322 396
#
# _framework density 19.505734
#
# number of rings (size 3 to 8) (size 9 to 14) (size 15 to 20)
#    0.000    1.440    3.200    1.920    4.480    1.920 
#    0.000    0.000    0.000    0.480    0.000    0.000 
#    0.000    0.000    0.000    0.000    0.000    0.000 
#
# Total GULP energy -139188.662961 kJ/mol
# GULP energy per Si atom -5567.546518 kJ/mol
# Density = 1.946134 g / cm^3
# Si number density = 19.505734 Si / 1000 Ang^3
#
#
#
# Elastic Constant Matrix: (Units=GPa)
#
#
# Indices 1 2 3 4 5 6 
#
# 1 83.4571 26.3121 26.4641 0.0000 -14.2409 0.0000
# 2 26.3121 60.8519 34.5485 0.0000 -11.5784 0.0000
# 3 26.4641 34.5485 85.9766 0.0000 -18.6747 0.0000
# 4 0.0000 0.0000 0.0000 44.7632 0.0000 3.1593
# 5 -14.2409 -11.5784 -18.6747 0.0000 37.2213 0.0000
# 6 0.0000 0.0000 0.0000 3.1593 0.0000 28.0879
#
#
#
# Elastic Compliance Matrix: (Units=1/GPa)
#
#
# Indices 1 2 3 4 5 6 
#
# 1 0.014593 -0.004596 -0.001956 0.000000 0.003172 0.000000
# 2 -0.004596 0.022967 -0.007457 0.000000 0.001645 0.000000
# 3 -0.001956 -0.007457 0.016344 0.000000 0.005132 0.000000
# 4 0.000000 0.000000 0.000000 0.022519 0.000000 -0.002533
# 5 0.003172 0.001645 0.005132 0.000000 0.031167 0.000000
# 6 0.000000 0.000000 0.000000 -0.002533 0.000000 0.035887
#
#
# Mechanical properties :
#
#
# Convention : Reuss Voigt Hill
#
# Bulk Modulus (GPa) = 38.63012 44.99279 41.81145
# Shear Modulus (GPa) = 27.75869 31.54521 29.65195
#
# Velocity S-wave (km/s) = 3.77650 4.02584 3.90316
# Velocity P-wave (km/s) = 6.23405 6.68778 6.46490
#
# Compressibility (1/GPa) = 0.02588654
#
# Stress axis : x y z
#
# Youngs Moduli (GPa) = 68.52751 43.54016 61.18269
#
# Poissons Ratio (x) = 0.20010 0.11967
# Poissons Ratio (y) = 0.31494 0.45626
# Poissons Ratio (z) = 0.13404 0.32469
#
# Static dielectric constant tensor:
#      x y z
#    x 1.677140 0.000000 -0.019610 
#    y 0.000000 1.665350 0.000000 
#    z -0.019610 0.000000 1.722950 
# 
# From -- ./inp_files/230118.got.cif
#   From: 2010.05.17/outbox.cif.g08.bks.cpg/sg12_116_cif.got.tgz:230118.got - 2010.06.03 13:09:07.
