data_PCOD9189086
_publ_section_title
;
Structure prediction by ZEFSAII (Michael W. Deem and Ramdas Pophale) SiO2 
 PCOD9189086
Probable space group: C 2/M
;
_chemical_formula_sum "Si O2"
_cell_formula_units_Z 40
_cell_length_a 12.047120
_cell_length_b 24.854138
_cell_length_c 7.965414
_cell_angle_alpha 90.000000
_cell_angle_beta 54.151456
_cell_angle_gamma 90.000000
_cell_volume 1933.213000
_symmetry_space_group_name_H-M "C 2/M"
_symmetry_group_IT_number 12
_symmetry_cell_setting 'monoclinic'
loop_
_space_group_symop_operation_xyz
x,y,z
-x,y,-z
-x,-y,-z
x,-y,z
1/2+x,1/2+y,z
1/2-x,1/2+y,-z
1/2-x,1/2-y,-z
1/2+x,1/2-y,z
loop_
_atom_site_type_symbol
_atom_site_label
_atom_site_fract_x
_atom_site_fract_y
_atom_site_fract_z
Si Si1 0.766369 0.438218 0.433860
Si Si2 0.500000 0.610360 0.500000
Si Si3 0.915670 0.305031 0.828740
Si Si4 0.503013 0.313275 0.187964
Si Si5 0.500000 0.109777 0.000000
Si Si6 0.292073 0.168484 0.593674
O O1 0.764243 0.500000 0.487992
O O2 0.629731 0.423872 0.448882
O O3 0.902182 0.425452 0.204243
O O4 0.770844 0.395054 0.580685
O O5 0.454719 0.647786 0.698023
O O6 0.814001 0.317261 0.767368
O O7 0.917687 0.243112 0.880271
O O8 0.068636 0.315661 0.622138
O O9 0.901717 0.348820 0.986470
O O10 0.341091 0.303335 0.364433
O O11 0.500000 0.335941 0.000000
#
# Coordination Sequence:
#
# PCOD9189086 Si02
#       6
#     8   4   8   8   4   8
#     4  10  21  41  62  83 113 157 200 252 303 338
#     4  10  23  40  62  88 124 154 201 244 292 360
#     4  10  19  37  55  86 120 155 185 238 296 354
#     4  11  22  36  59  90 121 160 191 233 294 361
#     4  10  21  34  60  92 114 148 199 246 284 366
#     4   9  21  36  57  81 119 151 198 241 287 355
#
# _framework density 20.690943000000001
#
# number of rings (size 3 to 8) (size 9 to 14) (size 15 to 20)
#    0.000    2.000    1.000    2.400    2.800    4.000 
#    0.000    9.000    0.000    3.000    0.000    0.000 
#    0.000    0.000    0.000    0.000    0.000    0.000 
#
# Total GULP energy -111698.451240 kJ/mol
# GULP energy per Si atom -5584.922562 kJ/mol
# Density = 2.064385 g / cm^3
# Si number density = 20.690943 Si / 1000 Ang^3
#
#
#
# Elastic Constant Matrix: (Units=GPa)
#
#
# Indices 1 2 3 4 5 6 
#
# 1 82.1598 40.8128 21.3217 0.0000 -8.1782 0.0000
# 2 40.8128 142.8042 37.0721 0.0000 3.8565 0.0000
# 3 21.3217 37.0721 52.9815 0.0000 9.2171 0.0000
# 4 0.0000 0.0000 0.0000 12.2209 0.0000 -12.5681
# 5 -8.1782 3.8565 9.2171 0.0000 35.7928 0.0000
# 6 0.0000 0.0000 0.0000 -12.5681 0.0000 3.5150
#
#
#
# Elastic Compliance Matrix: (Units=1/GPa)
#
#
# Indices 1 2 3 4 5 6 
#
# 1 0.015603 -0.003342 -0.004840 0.000000 0.005171 0.000000
# 2 -0.003342 0.009287 -0.005074 0.000000 -0.000458 0.000000
# 3 -0.004840 -0.005074 0.025617 0.000000 -0.007156 0.000000
# 4 0.000000 0.000000 0.000000 -0.030564 0.000000 -0.109287
# 5 0.005171 -0.000458 -0.007156 0.000000 0.031012 0.000000
# 6 0.000000 0.000000 0.000000 -0.109287 0.000000 -0.106267
#
#
# Mechanical properties :
#
#
# Convention : Reuss Voigt Hill
#
# Bulk Modulus (GPa) = 41.67529 52.92875 47.30202
# Shear Modulus (GPa) = -240.36679 22.22166 -109.07257
#
# Velocity S-wave (km/s) = -10.78991 3.28072 -7.26839
# Velocity P-wave (km/s) = 11.62085 6.32353 6.89410
#
# Compressibility (1/GPa) = 0.02399504
#
# Stress axis : x y z
#
# Youngs Moduli (GPa) = 64.09222 107.67351 39.03584
#
# Poissons Ratio (x) = 0.35988 0.18894
# Poissons Ratio (y) = 0.21422 0.19806
# Poissons Ratio (z) = 0.31021 0.54631
#
# Static dielectric constant tensor:
#      x y z
#    x 1.770880 0.000000 -0.009160 
#    y 0.000000 1.699540 0.000000 
#    z -0.009160 0.000000 1.788470 
# 
# From -- ./inp_files/50478.got.cif
#   From: 2010.05.17/outbox.cif.g08.bks.cpg/sg12_26_cif.got.tgz:50478.got - 2010.06.03 13:09:07.
