data_PCOD9190845
_publ_section_title
;
Structure prediction by ZEFSAII (Michael W. Deem and Ramdas Pophale) SiO2 
 PCOD9190845
Probable space group: C 2/M
;
_chemical_formula_sum "Si O2"
_cell_formula_units_Z 64
_cell_length_a 31.797128
_cell_length_b 14.139126
_cell_length_c 9.066501
_cell_angle_alpha 90.000000
_cell_angle_beta 109.615942
_cell_angle_gamma 90.000000
_cell_volume 3839.587028
_symmetry_space_group_name_H-M "C 2/M"
_symmetry_group_IT_number 12
_symmetry_cell_setting 'monoclinic'
loop_
_space_group_symop_operation_xyz
x,y,z
-x,y,-z
-x,-y,-z
x,-y,z
1/2+x,1/2+y,z
1/2-x,1/2+y,-z
1/2-x,1/2-y,-z
1/2+x,1/2-y,z
loop_
_atom_site_type_symbol
_atom_site_label
_atom_site_fract_x
_atom_site_fract_y
_atom_site_fract_z
Si Si1 0.884643 0.767646 0.739156
Si Si2 0.557152 0.386379 0.710580
Si Si3 0.344464 0.109485 0.872059
Si Si4 0.953735 0.114928 0.640846
Si Si5 0.240372 0.393243 0.448927
Si Si6 0.308391 0.749209 0.411777
Si Si7 0.637756 0.612069 0.014030
Si Si8 0.696631 0.247251 0.932954
O O1 0.882877 0.671163 0.834564
O O2 0.928680 0.818879 0.728540
O O3 0.852325 0.749485 0.562978
O O4 0.863015 0.843366 0.825260
O O5 0.559731 0.500000 0.714481
O O6 0.563266 0.361220 0.545431
O O7 0.506689 0.364463 0.700398
O O8 0.594550 0.352946 0.868915
O O9 0.302016 0.109284 0.711004
O O10 0.356400 0.000000 0.915255
O O11 0.326408 0.166873 0.992785
O O12 0.947679 0.000000 0.658101
O O13 0.249385 0.500000 0.504232
O O14 0.282171 0.347808 0.414382
O O15 0.225961 0.328819 0.569503
O O16 0.317970 0.762420 0.252725
O O17 0.637258 0.500000 0.020338
O O18 0.679676 0.653564 0.977667
O O19 0.750000 0.250000 0.000000
#
# Coordination Sequence:
#
# PCOD9190845 Si02
#       8
#     8   8   8   8   8   8   8   8
#     4  10  20  32  49  74 101 133 166 205 248 296
#     4   8  16  31  50  75 108 140 169 200 240 300
#     4   9  19  36  51  67  95 129 167 207 251 296
#     4   9  16  29  51  78 107 138 169 201 243 297
#     4   9  18  32  49  65  89 127 160 199 249 293
#     4  10  20  33  47  69  97 121 165 210 243 297
#     4  10  21  34  48  73 106 136 168 206 249 300
#     4  11  21  34  51  71  95 126 168 214 255 293
#
# _framework density 16.668458000000001
#
# number of rings (size 3 to 8) (size 9 to 14) (size 15 to 20)
#    0.000    2.500    1.250    1.875    1.750    3.000 
#    0.000    1.875    0.000    0.000    0.000    8.750 
#    0.000    0.000    0.000    0.250    0.000    0.000 
#
# Total GULP energy -178261.306145 kJ/mol
# GULP energy per Si atom -5570.665817 kJ/mol
# Density = 1.663052 g / cm^3
# Si number density = 16.668458 Si / 1000 Ang^3
#
#
#
# Elastic Constant Matrix: (Units=GPa)
#
#
# Indices 1 2 3 4 5 6 
#
# 1 60.4564 24.7057 26.6545 0.0000 -17.4041 0.0000
# 2 24.7057 92.1073 21.7248 0.0000 -14.5324 0.0000
# 3 26.6545 21.7248 82.3040 0.0000 -18.4967 0.0000
# 4 0.0000 0.0000 0.0000 10.4749 0.0000 0.5011
# 5 -17.4041 -14.5324 -18.4967 0.0000 27.1432 0.0000
# 6 0.0000 0.0000 0.0000 0.5011 0.0000 25.0802
#
#
#
# Elastic Compliance Matrix: (Units=1/GPa)
#
#
# Indices 1 2 3 4 5 6 
#
# 1 0.022654 -0.003544 -0.004208 0.000000 0.009761 0.000000
# 2 -0.003544 0.012702 -0.001402 0.000000 0.003573 0.000000
# 3 -0.004208 -0.001402 0.015478 0.000000 0.007099 0.000000
# 4 0.000000 0.000000 0.000000 0.095557 0.000000 -0.001909
# 5 0.009761 0.003573 0.007099 0.000000 0.049851 0.000000
# 6 0.000000 0.000000 0.000000 -0.001909 0.000000 0.039910
#
#
# Mechanical properties :
#
#
# Convention : Reuss Voigt Hill
#
# Bulk Modulus (GPa) = 30.74366 42.33752 36.54059
# Shear Modulus (GPa) = 18.84643 23.32518 21.08580
#
# Velocity S-wave (km/s) = 3.36618 3.74486 3.56056
# Velocity P-wave (km/s) = 5.79590 6.64482 6.23482
#
# Compressibility (1/GPa) = 0.03252703
#
# Stress axis : x y z
#
# Youngs Moduli (GPa) = 44.14197 78.72843 64.60696
#
# Poissons Ratio (x) = 0.27901 0.27183
# Poissons Ratio (y) = 0.15644 0.09059
# Poissons Ratio (z) = 0.18573 0.11039
#
# Static dielectric constant tensor:
#      x y z
#    x 1.566610 0.000000 0.006410 
#    y 0.000000 1.562890 0.000000 
#    z 0.006410 0.000000 1.579650 
# 
# From -- ./inp_files/104621.got.cif
#   From: 2010.05.17/outbox.cif.g08.bks.cpg/sg12_53_cif.got.tgz:104621.got - 2010.06.03 13:09:07.
