data_PCOD9190370
_publ_section_title
;
Structure prediction by ZEFSAII (Michael W. Deem and Ramdas Pophale) SiO2 
 PCOD9190370
Probable space group: C 2/M
;
_chemical_formula_sum "Si O2"
_cell_formula_units_Z 48
_cell_length_a 24.416316
_cell_length_b 13.852349
_cell_length_c 6.821255
_cell_angle_alpha 90.000000
_cell_angle_beta 48.617447
_cell_angle_gamma 90.000000
_cell_volume 1731.051450
_symmetry_space_group_name_H-M "C 2/M"
_symmetry_group_IT_number 12
_symmetry_cell_setting 'monoclinic'
loop_
_space_group_symop_operation_xyz
x,y,z
-x,y,-z
-x,-y,-z
x,-y,z
1/2+x,1/2+y,z
1/2-x,1/2+y,-z
1/2-x,1/2-y,-z
1/2+x,1/2-y,z
loop_
_atom_site_type_symbol
_atom_site_label
_atom_site_fract_x
_atom_site_fract_y
_atom_site_fract_z
Si Si1 0.294065 0.136849 0.694591
Si Si2 0.330864 0.897878 0.148846
Si Si3 0.550423 0.104057 0.572075
Si Si4 0.137761 0.172446 0.975520
Si Si5 0.520299 0.327484 0.730233
Si Si6 0.325992 0.358220 0.567270
O O1 0.315428 0.107700 0.421197
O O2 0.361560 0.101182 0.665565
O O3 0.345205 0.356762 0.289713
O O4 0.695313 0.250513 0.323980
O O5 0.359601 0.790428 0.029629
O O6 0.251822 0.906836 0.235808
O O7 0.371608 0.000000 0.024100
O O8 0.500000 0.105345 0.500000
O O9 0.534728 0.210305 0.699757
O O10 0.535599 0.000000 0.708332
O O11 0.206689 0.124631 0.925740
O O12 0.053144 0.150407 0.216093
O O13 0.597634 0.378768 0.508415
O O14 0.500000 0.354332 0.000000
#
# Coordination Sequence:
#
# PCOD9190370 Si02
#       6
#     8   8   8   8   8   8
#     4   8  14  26  40  54  79 113 141 160 194 248
#     4   9  14  21  38  63  86 107 133 166 205 246
#     4  10  20  31  42  60  87 113 135 165 206 248
#     4   8  14  24  40  61  80 102 136 176 203 226
#     4   9  16  28  46  63  82 108 137 170 203 236
#     4   7  13  24  37  56  83 111 134 161 199 242
#
# _framework density 27.728812999999999
#
# number of rings (size 3 to 8) (size 9 to 14) (size 15 to 20)
#    0.000    3.500    0.000    3.500    0.000    1.000 
#    0.000    0.833    0.000   13.500    0.000    0.000 
#    0.000   54.000    0.000    0.000    0.000    0.000 
#
# Total GULP energy -133963.286528 kJ/mol
# GULP energy per Si atom -5581.803605 kJ/mol
# Density = 2.766570 g / cm^3
# Si number density = 27.728813 Si / 1000 Ang^3
#
#
#
# Elastic Constant Matrix: (Units=GPa)
#
#
# Indices 1 2 3 4 5 6 
#
# 1 205.3824 14.6749 86.1836 0.0000 -57.0038 0.0000
# 2 14.6749 75.3509 -8.0137 0.0000 -8.2176 0.0000
# 3 86.1836 -8.0137 166.2138 0.0000 -62.0098 0.0000
# 4 0.0000 0.0000 0.0000 3.7227 0.0000 7.8886
# 5 -57.0038 -8.2176 -62.0098 0.0000 73.0853 0.0000
# 6 0.0000 0.0000 0.0000 7.8886 0.0000 5.0907
#
#
#
# Elastic Compliance Matrix: (Units=1/GPa)
#
#
# Indices 1 2 3 4 5 6 
#
# 1 0.006854 -0.001254 -0.002447 0.000000 0.003128 0.000000
# 2 -0.001254 0.014032 0.002268 0.000000 0.002524 0.000000
# 3 -0.002447 0.002268 0.009917 0.000000 0.006760 0.000000
# 4 0.000000 0.000000 0.000000 -0.117625 0.000000 0.182274
# 5 0.003128 0.002524 0.006760 0.000000 0.022142 0.000000
# 6 0.000000 0.000000 0.000000 0.182274 0.000000 -0.086017
#
#
# Mechanical properties :
#
#
# Convention : Reuss Voigt Hill
#
# Bulk Modulus (GPa) = 35.79417 70.29296 53.04357
# Shear Modulus (GPa) = -36.09580 39.98655 1.94537
#
# Velocity S-wave (km/s) = -3.61188 3.80156 0.83851
# Velocity P-wave (km/s) = 2.11130 6.68389 4.48424
#
# Compressibility (1/GPa) = 0.02793751
#
# Stress axis : x y z
#
# Youngs Moduli (GPa) = 145.90686 71.26567 100.84093
#
# Poissons Ratio (x) = 0.08936 0.24676
# Poissons Ratio (y) = 0.18295 -0.22876
# Poissons Ratio (z) = 0.35704 -0.16166
#
# Static dielectric constant tensor:
#      x y z
#    x 2.209870 0.000000 0.039060 
#    y 0.000000 2.077940 0.000000 
#    z 0.039060 0.000000 2.205260 
# 
# From -- ./inp_files/176617.got.cif
#   From: 2010.05.17/outbox.cif.g08.bks.cpg/sg12_89_cif.got.tgz:176617.got - 2010.06.03 13:09:07.
