data_PCOD9190183
_publ_section_title
;
Structure prediction by ZEFSAII (Michael W. Deem and Ramdas Pophale) SiO2 
 PCOD9190183
Probable space group: C 2/M
;
_chemical_formula_sum "Si O2"
_cell_formula_units_Z 48
_cell_length_a 29.564907
_cell_length_b 13.904073
_cell_length_c 13.288369
_cell_angle_alpha 90.000000
_cell_angle_beta 152.245647
_cell_angle_gamma 90.000000
_cell_volume 2543.779476
_symmetry_space_group_name_H-M "C 2/M"
_symmetry_group_IT_number 12
_symmetry_cell_setting 'monoclinic'
loop_
_space_group_symop_operation_xyz
x,y,z
-x,y,-z
-x,-y,-z
x,-y,z
1/2+x,1/2+y,z
1/2-x,1/2+y,-z
1/2-x,1/2-y,-z
1/2+x,1/2-y,z
loop_
_atom_site_type_symbol
_atom_site_label
_atom_site_fract_x
_atom_site_fract_y
_atom_site_fract_z
Si Si1 0.956851 0.331226 0.513354
Si Si2 0.751528 0.199904 0.612823
Si Si3 0.374824 0.670464 0.494127
Si Si4 0.840364 0.500000 0.496031
Si Si5 0.307256 0.000000 0.196365
Si Si6 0.268893 0.500000 0.177960
Si Si7 0.457291 0.611936 0.024868
Si Si8 0.053419 0.500000 0.816213
O O1 0.922998 0.255121 0.526082
O O2 0.870603 0.403143 0.312475
O O3 0.000000 0.283008 0.500000
O O4 0.033289 0.404181 0.712687
O O5 0.750000 0.250000 0.500000
O O6 0.705842 0.278310 0.596532
O O7 0.692017 0.098347 0.510482
O O8 0.862170 0.174259 0.858180
O O9 0.328203 0.593018 0.329104
O O10 0.457405 0.625070 0.727253
O O11 0.787219 0.500000 0.279569
O O12 0.958673 0.500000 0.706604
O O13 0.244849 0.000000 0.970699
O O14 0.170033 0.500000 0.052632
O O15 0.427842 0.500000 0.962399
O O16 0.500000 0.638896 0.000000
#
# Coordination Sequence:
#
# PCOD9190183 Si02
#       8
#     8   8   8   4   4   4   8   4
#     4  10  19  40  68  95 132 177 224 273 341 402
#     4  12  24  42  75 100 131 180 229 276 341 406
#     4  12  26  43  65 105 134 173 234 281 330 412
#     4  10  22  43  69 105 133 175 235 276 334 415
#     4  10  19  40  68  94 134 180 221 278 342 398
#     4  12  26  41  64 102 141 177 228 288 339 395
#     4  11  24  45  68  89 134 182 214 274 342 403
#     4  10  19  40  68  92 132 172 222 283 325 384
#
# _framework density 18.869561000000001
#
# number of rings (size 3 to 8) (size 9 to 14) (size 15 to 20)
#    0.000    1.167    8.333    0.500    2.333    1.333 
#    3.000    0.417    0.000    2.000    0.000    0.000 
#    0.000    0.000    0.000    0.000    0.000    0.000 
#
# Total GULP energy -133739.233703 kJ/mol
# GULP energy per Si atom -5572.468071 kJ/mol
# Density = 1.882661 g / cm^3
# Si number density = 18.869561 Si / 1000 Ang^3
#
#
#
# Elastic Constant Matrix: (Units=GPa)
#
#
# Indices 1 2 3 4 5 6 
#
# 1 93.3801 12.9702 -0.0573 0.0000 -12.3627 0.0000
# 2 12.9702 49.4815 -4.0829 0.0000 -9.0896 0.0000
# 3 -0.0573 -4.0829 67.6191 0.0000 -2.8232 0.0000
# 4 0.0000 0.0000 0.0000 -338.2516 0.0000 13.5508
# 5 -12.3627 -9.0896 -2.8232 0.0000 28.0462 0.0000
# 6 0.0000 0.0000 0.0000 13.5508 0.0000 46.9751
#
#
#
# Elastic Compliance Matrix: (Units=1/GPa)
#
#
# Indices 1 2 3 4 5 6 
#
# 1 0.011601 -0.002228 0.000059 0.000000 0.004397 0.000000
# 2 -0.002228 0.022090 0.001596 0.000000 0.006338 0.000000
# 3 0.000059 0.001596 0.014971 0.000000 0.002050 0.000000
# 4 0.000000 0.000000 0.000000 -0.002923 0.000000 0.000843
# 5 0.004397 0.006338 0.002050 0.000000 0.039854 0.000000
# 6 0.000000 0.000000 0.000000 0.000843 0.000000 0.021045
#
#
# Mechanical properties :
#
#
# Convention : Reuss Voigt Hill
#
# Bulk Modulus (GPa) = 21.04580 25.34897 23.19738
# Shear Modulus (GPa) = 40.44616 -39.20269 0.62174
#
# Velocity S-wave (km/s) = 4.63477 -4.56297 0.57464
# Velocity P-wave (km/s) = 6.31023 3.78127 3.57219
#
# Compressibility (1/GPa) = 0.04751543
#
# Stress axis : x y z
#
# Youngs Moduli (GPa) = 86.20240 45.27025 66.79678
#
# Poissons Ratio (x) = 0.10087 -0.00393
# Poissons Ratio (y) = 0.19207 -0.10664
# Poissons Ratio (z) = -0.00508 -0.07227
#
# Static dielectric constant tensor:
#      x y z
#    x 1.681750 0.000000 0.011050 
#    y 0.000000 1.615170 0.000000 
#    z 0.011050 0.000000 1.651740 
# 
# From -- ./inp_files/183937.got.cif
#   From: 2010.05.17/outbox.cif.g08.bks.cpg/sg12_92_cif.got.tgz:183937.got - 2010.06.03 13:09:07.
