data_PCOD9190318
_publ_section_title
;
Structure prediction by ZEFSAII (Michael W. Deem and Ramdas Pophale) SiO2 
 PCOD9190318
Probable space group: C 2/M
;
_chemical_formula_sum "Si O2"
_cell_formula_units_Z 44
_cell_length_a 29.147999
_cell_length_b 15.546657
_cell_length_c 12.770850
_cell_angle_alpha 90.000000
_cell_angle_beta 160.588812
_cell_angle_gamma 90.000000
_cell_volume 1923.335804
_symmetry_space_group_name_H-M "C 2/M"
_symmetry_group_IT_number 12
_symmetry_cell_setting 'monoclinic'
loop_
_space_group_symop_operation_xyz
x,y,z
-x,y,-z
-x,-y,-z
x,-y,z
1/2+x,1/2+y,z
1/2-x,1/2+y,-z
1/2-x,1/2-y,-z
1/2+x,1/2-y,z
loop_
_atom_site_type_symbol
_atom_site_label
_atom_site_fract_x
_atom_site_fract_y
_atom_site_fract_z
Si Si1 0.500000 0.702166 0.000000
Si Si2 0.225878 0.605939 0.782604
Si Si3 0.648535 0.867526 0.291706
Si Si4 0.165774 0.599664 0.878543
Si Si5 0.908610 0.603805 0.063651
Si Si6 0.406909 0.595792 0.985266
O O1 0.374390 0.768588 0.726659
O O2 0.501200 0.649507 0.109915
O O3 0.227839 0.500000 0.785002
O O4 0.236893 0.635490 0.927135
O O5 0.348688 0.632986 0.969103
O O6 0.070746 0.631401 0.411481
O O7 0.768844 0.908281 0.616851
O O8 0.500000 0.907548 0.000000
O O9 0.662168 0.875005 0.197344
O O10 0.211894 0.500000 0.983761
O O11 0.172509 0.638436 0.009017
O O12 0.000000 0.598365 0.500000
O O13 0.912807 0.500000 0.083632
O O14 0.463235 0.500000 0.123835
#
# Coordination Sequence:
#
# PCOD9190318 Si02
#       6
#     4   8   8   8   8   8
#     4  10  23  36  45  66 102 136 156 186 237 288
#     4   8  13  22  40  65  91 119 151 193 234 270
#     4  10  20  30  48  69  98 126 152 190 243 285
#     4   7  11  19  34  60  94 120 143 185 238 275
#     4   9  14  23  40  68  97 120 151 193 235 277
#     4  11  20  33  52  72  94 124 165 198 228 277
#
# _framework density 22.876919999999998
#
# number of rings (size 3 to 8) (size 9 to 14) (size 15 to 20)
#    0.545    2.364    1.818    3.545    0.000    0.727 
#    0.000    0.000    0.000    1.091    0.000    3.818 
#    0.000    7.273    0.000    0.000    0.000    0.000 
#
# Total GULP energy -122610.637660 kJ/mol
# GULP energy per Si atom -5573.210803 kJ/mol
# Density = 2.282485 g / cm^3
# Si number density = 22.876920 Si / 1000 Ang^3
#
#
#
# Elastic Constant Matrix: (Units=GPa)
#
#
# Indices 1 2 3 4 5 6 
#
# 1 224.2335 43.3506 5.8160 0.0000 -14.4523 0.0000
# 2 43.3506 49.2370 -2.1894 0.0000 11.4342 0.0000
# 3 5.8160 -2.1894 16.1285 0.0001 3.7457 0.0000
# 4 0.0000 0.0000 0.0001 3.0647 0.0000 -0.3623
# 5 -14.4523 11.4342 3.7457 0.0000 30.4295 0.0000
# 6 0.0000 0.0000 0.0000 -0.3623 0.0000 22.9768
#
#
#
# Elastic Compliance Matrix: (Units=1/GPa)
#
#
# Indices 1 2 3 4 5 6 
#
# 1 0.006418 -0.007350 -0.004798 0.000000 0.006401 0.000000
# 2 -0.007350 0.031086 0.010700 0.000000 -0.016489 0.000000
# 3 -0.004798 0.010700 0.068609 -0.000001 -0.014745 0.000000
# 4 0.000000 0.000000 -0.000001 0.326908 0.000000 0.005155
# 5 0.006401 -0.016489 -0.014745 0.000000 0.043914 0.000000
# 6 0.000000 0.000000 0.000000 0.005155 0.000000 0.043603
#
#
# Mechanical properties :
#
#
# Convention : Reuss Voigt Hill
#
# Bulk Modulus (GPa) = 9.68842 42.61706 26.15274
# Shear Modulus (GPa) = 8.96312 27.46898 18.21605
#
# Velocity S-wave (km/s) = 1.98154 3.46891 2.82487
# Velocity P-wave (km/s) = 3.07888 5.89184 4.70071
#
# Compressibility (1/GPa) = 0.10321595
#
# Stress axis : x y z
#
# Youngs Moduli (GPa) = 155.82103 32.16842 14.57525
#
# Poissons Ratio (x) = 0.23644 0.06994
# Poissons Ratio (y) = 1.14531 -0.15595
# Poissons Ratio (z) = 0.74771 -0.34420
#
# Static dielectric constant tensor:
#      x y z
#    x 2.107980 0.000000 0.130020 
#    y 0.000000 1.879090 0.000000 
#    z 0.130020 0.000000 1.893040 
# 
# From -- ./inp_files/183592.got.cif
#   From: 2010.05.17/outbox.cif.g08.bks.cpg/sg12_92_cif.got.tgz:183592.got - 2010.06.03 13:09:07.
