data_PCOD9190682
_publ_section_title
;
Structure prediction by ZEFSAII (Michael W. Deem and Ramdas Pophale) SiO2 
 PCOD9190682
Probable space group: C 2/M
;
_chemical_formula_sum "Si O2"
_cell_formula_units_Z 64
_cell_length_a 25.943028
_cell_length_b 7.582249
_cell_length_c 18.816270
_cell_angle_alpha 90.000000
_cell_angle_beta 118.209663
_cell_angle_gamma 90.000000
_cell_volume 3261.658089
_symmetry_space_group_name_H-M "C 2/M"
_symmetry_group_IT_number 12
_symmetry_cell_setting 'monoclinic'
loop_
_space_group_symop_operation_xyz
x,y,z
-x,y,-z
-x,-y,-z
x,-y,z
1/2+x,1/2+y,z
1/2-x,1/2+y,-z
1/2-x,1/2-y,-z
1/2+x,1/2-y,z
loop_
_atom_site_type_symbol
_atom_site_label
_atom_site_fract_x
_atom_site_fract_y
_atom_site_fract_z
Si Si1 0.299487 0.290392 0.473492
Si Si2 0.287338 0.297171 0.698543
Si Si3 0.617513 0.283279 0.354149
Si Si4 0.759460 0.703634 0.187475
Si Si5 0.636840 0.212450 0.833298
Si Si6 0.993207 0.789246 0.218511
Si Si7 0.039108 0.214084 0.959591
Si Si8 0.169201 0.705687 0.011397
O O1 0.302943 0.500000 0.464157
O O2 0.250000 0.250000 0.500000
O O3 0.273343 0.208118 0.385240
O O4 0.357684 0.229119 0.552477
O O5 0.305856 0.500000 0.722202
O O6 0.337658 0.222916 0.679109
O O7 0.273902 0.215601 0.766611
O O8 0.619743 0.500000 0.355984
O O9 0.552114 0.224240 0.294011
O O10 0.770769 0.500000 0.214978
O O11 0.821076 0.780644 0.201333
O O12 0.717715 0.706258 0.091655
O O13 0.568307 0.252484 0.783441
O O14 0.642212 0.000000 0.838768
O O15 0.659940 0.277280 0.925468
O O16 0.986115 0.724274 0.132761
O O17 0.999212 0.000000 0.217992
O O18 0.039710 0.000000 0.959693
O O19 0.105946 0.274896 0.006870
O O20 0.000000 0.272474 0.000000
O O21 0.184543 0.500000 0.016429
#
# Coordination Sequence:
#
# PCOD9190682 Si02
#       8
#     8   8   8   8   8   8   8   8
#     4   9  16  29  48  70 100 130 156 190 234 288
#     4   9  18  31  49  73  98 123 154 198 245 286
#     4   8  15  28  48  72  95 120 152 190 231 278
#     4  10  20  33  52  71  93 126 164 204 242 287
#     4   9  19  35  49  67  95 127 162 202 245 283
#     4   9  17  30  49  70  91 121 161 199 231 277
#     4   9  18  30  47  68  93 127 164 197 232 283
#     4  10  20  32  47  68  97 127 160 202 246 287
#
# _framework density 19.621922000000001
#
# number of rings (size 3 to 8) (size 9 to 14) (size 15 to 20)
#    0.000    2.875    0.000    1.875    1.750    1.750 
#    0.000    3.125    0.000    0.750    0.000    5.250 
#    0.000    0.000    0.000    0.000    0.000    0.000 
#
# Total GULP energy -178348.098906 kJ/mol
# GULP energy per Si atom -5573.378091 kJ/mol
# Density = 1.957726 g / cm^3
# Si number density = 19.621922 Si / 1000 Ang^3
#
#
#
# Elastic Constant Matrix: (Units=GPa)
#
#
# Indices 1 2 3 4 5 6 
#
# 1 71.1297 -6.2347 39.3902 0.0000 10.2104 0.0000
# 2 -6.2347 44.4777 -5.8103 0.0000 -3.8480 0.0000
# 3 39.3902 -5.8103 74.3736 0.0000 27.0233 0.0000
# 4 0.0000 0.0000 0.0000 12.1839 0.0000 7.7116
# 5 10.2104 -3.8480 27.0233 0.0000 24.1341 0.0000
# 6 0.0000 0.0000 0.0000 7.7116 0.0000 13.1855
#
#
#
# Elastic Compliance Matrix: (Units=1/GPa)
#
#
# Indices 1 2 3 4 5 6 
#
# 1 0.020497 0.001710 -0.012932 0.000000 0.006081 0.000000
# 2 0.001710 0.022967 -0.000302 0.000000 0.003276 0.000000
# 3 -0.012932 -0.000302 0.030853 0.000000 -0.029124 0.000000
# 4 0.000000 0.000000 0.000000 0.130315 0.000000 -0.076215
# 5 0.006081 0.003276 -0.029124 0.000000 0.071995 0.000000
# 6 0.000000 0.000000 0.000000 -0.076215 0.000000 0.120416
#
#
# Mechanical properties :
#
#
# Convention : Reuss Voigt Hill
#
# Bulk Modulus (GPa) = 19.50464 27.18573 23.34519
# Shear Modulus (GPa) = 11.43695 20.74309 16.09002
#
# Velocity S-wave (km/s) = 2.41688 3.25489 2.86667
# Velocity P-wave (km/s) = 4.21310 5.29251 4.78335
#
# Compressibility (1/GPa) = 0.05126984
#
# Stress axis : x y z
#
# Youngs Moduli (GPa) = 48.78734 43.54097 32.41190
#
# Poissons Ratio (x) = -0.07445 0.41914
# Poissons Ratio (y) = -0.08342 0.00978
# Poissons Ratio (z) = 0.63090 0.01314
#
# Static dielectric constant tensor:
#      x y z
#    x 1.695060 0.000000 -0.004150 
#    y 0.000000 2.343560 0.000000 
#    z -0.004150 0.000000 1.697030 
# 
# From -- ./inp_files/323623.got.cif
#   From: 2010.05.17/outbox.cif.g08.bks.cpg/sg12_162_cif.got.tgz:323623.got - 2010.06.03 13:09:07.
