data_PCOD9190821
_publ_section_title
;
Structure prediction by ZEFSAII (Michael W. Deem and Ramdas Pophale) SiO2 
 PCOD9190821
Probable space group: C 2/M
;
_chemical_formula_sum "Si O2"
_cell_formula_units_Z 64
_cell_length_a 18.340636
_cell_length_b 23.298362
_cell_length_c 18.114625
_cell_angle_alpha 90.000000
_cell_angle_beta 28.791385
_cell_angle_gamma 90.000000
_cell_volume 3727.995346
_symmetry_space_group_name_H-M "C 2/M"
_symmetry_group_IT_number 12
_symmetry_cell_setting 'monoclinic'
loop_
_space_group_symop_operation_xyz
x,y,z
-x,y,-z
-x,-y,-z
x,-y,z
1/2+x,1/2+y,z
1/2-x,1/2+y,-z
1/2-x,1/2-y,-z
1/2+x,1/2-y,z
loop_
_atom_site_type_symbol
_atom_site_label
_atom_site_fract_x
_atom_site_fract_y
_atom_site_fract_z
Si Si1 0.623556 0.720255 0.954392
Si Si2 0.353039 0.855703 0.078488
Si Si3 0.415821 0.723552 0.850893
Si Si4 0.070547 0.182966 0.582825
Si Si5 0.033777 0.434204 0.814434
Si Si6 0.391059 0.164844 0.366063
Si Si7 0.469488 0.805251 0.611651
Si Si8 0.158818 0.094100 0.376852
O O1 0.647594 0.789033 0.942782
O O2 0.789475 0.695916 0.787834
O O3 0.500000 0.711471 0.000000
O O4 0.560647 0.698149 0.088666
O O5 0.213435 0.872812 0.254418
O O6 0.500000 0.859099 0.000000
O O7 0.395254 0.902106 0.978923
O O8 0.439106 0.680346 0.761568
O O9 0.519631 0.779393 0.744040
O O10 0.250000 0.750000 0.000000
O O11 0.217971 0.181325 0.504676
O O12 0.110011 0.137230 0.485385
O O13 0.036499 0.241606 0.568999
O O14 0.998390 0.500000 0.827483
O O15 0.071320 0.392121 0.713328
O O16 0.187277 0.434828 0.729141
O O17 0.443288 0.157850 0.404035
O O18 0.500000 0.820354 0.500000
O O19 0.000000 0.062774 0.500000
#
# Coordination Sequence:
#
# PCOD9190821 Si02
#       8
#     8   8   8   8   8   8   8   8
#     4  11  21  29  47  75 107 138 164 200 242 298
#     4   9  18  31  49  70 100 132 169 202 242 295
#     4  11  19  32  48  72 105 139 170 204 237 298
#     4  10  20  32  49  71 103 143 172 194 244 302
#     4  10  21  37  55  72  94 132 178 219 259 298
#     4  10  21  35  51  71 101 137 172 211 255 301
#     4  11  21  32  49  76 108 136 168 202 244 305
#     4  10  20  32  50  76 102 135 166 206 250 302
#
# _framework density 17.167403
#
# number of rings (size 3 to 8) (size 9 to 14) (size 15 to 20)
#    0.000    1.750    3.750    3.375    5.250    2.500 
#    0.000    0.000    0.000    0.375    0.000    0.000 
#    0.000    0.500    0.000    0.250    0.000    0.000 
#
# Total GULP energy -178218.151428 kJ/mol
# GULP energy per Si atom -5569.317232 kJ/mol
# Density = 1.712833 g / cm^3
# Si number density = 17.167403 Si / 1000 Ang^3
#
#
#
# Elastic Constant Matrix: (Units=GPa)
#
#
# Indices 1 2 3 4 5 6 
#
# 1 111.2223 8.2116 40.1369 0.0042 12.0309 -0.0013
# 2 8.2116 45.5012 12.7017 0.0021 12.7936 -0.0009
# 3 40.1369 12.7017 101.4689 0.0089 8.4445 -0.0054
# 4 0.0042 0.0021 0.0089 5.8360 -0.0035 -0.3285
# 5 12.0309 12.7936 8.4445 -0.0035 40.6761 0.0023
# 6 -0.0013 -0.0009 -0.0054 -0.3285 0.0023 4.6283
#
#
#
# Elastic Compliance Matrix: (Units=1/GPa)
#
#
# Indices 1 2 3 4 5 6 
#
# 1 0.010701 -0.000168 -0.004022 -0.000003 -0.002277 -0.000001
# 2 -0.000168 0.024715 -0.002426 -0.000009 -0.007220 0.000005
# 3 -0.004022 -0.002426 0.011791 -0.000014 -0.000495 0.000011
# 4 -0.000003 -0.000009 -0.000014 0.172038 0.000021 0.012212
# 5 -0.002277 -0.007220 -0.000495 0.000021 0.027632 -0.000015
# 6 -0.000001 0.000005 0.000011 0.012212 -0.000015 0.216929
#
#
# Mechanical properties :
#
#
# Convention : Reuss Voigt Hill
#
# Bulk Modulus (GPa) = 29.43443 42.25476 35.84459
# Shear Modulus (GPa) = 10.23825 23.37087 16.80456
#
# Velocity S-wave (km/s) = 2.44473 3.69365 3.13208
# Velocity P-wave (km/s) = 5.01515 6.54657 5.83135
#
# Compressibility (1/GPa) = 0.03397382
#
# Stress axis : x y z
#
# Youngs Moduli (GPa) = 93.44636 40.46093 84.80837
#
# Poissons Ratio (x) = 0.00680 0.34114
# Poissons Ratio (y) = 0.01571 0.20578
# Poissons Ratio (z) = 0.37588 0.09818
#
# Static dielectric constant tensor:
#      x y z
#    x 1.655860 0.000000 -0.002080 
#    y 0.000000 1.558960 0.000000 
#    z -0.002080 0.000000 1.656620 
# 
# From -- ./inp_files/279365.got.cif
#   From: 2010.05.17/outbox.cif.g08.bks.cpg/sg12_140_cif.got.tgz:279365.got - 2010.06.03 13:09:07.
