data_PCOD9190758
_publ_section_title
;
Structure prediction by ZEFSAII (Michael W. Deem and Ramdas Pophale) SiO2 
 PCOD9190758
Probable space group: C 2/M
;
_chemical_formula_sum "Si O2"
_cell_formula_units_Z 48
_cell_length_a 15.838514
_cell_length_b 8.039463
_cell_length_c 19.070960
_cell_angle_alpha 90.000000
_cell_angle_beta 49.256688
_cell_angle_gamma 90.000000
_cell_volume 1839.829582
_symmetry_space_group_name_H-M "C 2/M"
_symmetry_group_IT_number 12
_symmetry_cell_setting 'monoclinic'
loop_
_space_group_symop_operation_xyz
x,y,z
-x,y,-z
-x,-y,-z
x,-y,z
1/2+x,1/2+y,z
1/2-x,1/2+y,-z
1/2-x,1/2-y,-z
1/2+x,1/2-y,z
loop_
_atom_site_type_symbol
_atom_site_label
_atom_site_fract_x
_atom_site_fract_y
_atom_site_fract_z
Si Si1 0.321935 0.692948 0.700628
Si Si2 0.363059 0.805510 0.529750
Si Si3 0.612615 0.806139 0.184165
Si Si4 0.153388 0.806621 0.984026
Si Si5 0.418264 0.194975 0.130296
Si Si6 0.610907 0.795613 0.638565
O O1 0.335426 0.500000 0.712991
O O2 0.383577 0.726762 0.594347
O O3 0.354332 0.799528 0.750656
O O4 0.188230 0.721771 0.762440
O O5 0.414527 0.745527 0.428398
O O6 0.231055 0.777442 0.589299
O O7 0.386779 0.000000 0.522604
O O8 0.720941 0.731012 0.085789
O O9 0.488091 0.735892 0.257453
O O10 0.605036 0.000000 0.168187
O O11 0.114314 0.787485 0.923877
O O12 0.161946 0.000000 0.995078
O O13 0.045219 0.735878 0.082673
O O14 0.418848 0.000000 0.113082
O O15 0.616848 0.000000 0.638701
#
# Coordination Sequence:
#
# PCOD9190758 Si02
#       6
#     8   8   8   8   8   8
#     4  10  20  32  48  72 101 130 160 198 240 280
#     4  10  20  34  53  73  94 125 163 200 238 285
#     4   9  18  32  50  73 100 128 158 195 240 286
#     4   9  15  24  42  67  93 122 155 191 230 275
#     4   9  16  26  41  63  93 127 157 188 231 278
#     4   9  19  36  54  71  95 127 160 195 240 292
#
# _framework density 26.089372000000001
#
# number of rings (size 3 to 8) (size 9 to 14) (size 15 to 20)
#    0.000    2.667    0.000    3.000    0.000    4.667 
#    0.000    3.333    0.000    1.000    0.000    0.000 
#    0.000    0.000    0.000    0.000    0.000    0.000 
#
# Total GULP energy -134159.046610 kJ/mol
# GULP energy per Si atom -5589.960275 kJ/mol
# Density = 2.602999 g / cm^3
# Si number density = 26.089372 Si / 1000 Ang^3
#
#
#
# Elastic Constant Matrix: (Units=GPa)
#
#
# Indices 1 2 3 4 5 6 
#
# 1 95.9792 6.4767 15.3144 0.0000 -18.2058 0.0000
# 2 6.4767 59.1206 10.0987 0.0000 6.5331 0.0000
# 3 15.3144 10.0987 204.8930 0.0000 -1.4517 0.0000
# 4 0.0000 0.0000 0.0000 23.2674 0.0000 1.5397
# 5 -18.2058 6.5331 -1.4517 0.0000 46.8741 0.0000
# 6 0.0000 0.0000 0.0000 1.5397 0.0000 38.3555
#
#
#
# Elastic Compliance Matrix: (Units=1/GPa)
#
#
# Indices 1 2 3 4 5 6 
#
# 1 0.011539 -0.001655 -0.000748 0.000000 0.004689 0.000000
# 2 -0.001655 0.017571 -0.000764 0.000000 -0.003115 0.000000
# 3 -0.000748 -0.000764 0.004974 0.000000 -0.000030 0.000000
# 4 0.000000 0.000000 0.000000 0.043093 0.000000 -0.001730
# 5 0.004689 -0.003115 -0.000030 0.000000 0.023588 0.000000
# 6 0.000000 0.000000 0.000000 -0.001730 0.000000 0.026141
#
#
# Mechanical properties :
#
#
# Convention : Reuss Voigt Hill
#
# Bulk Modulus (GPa) = 36.03538 47.08581 41.56059
# Shear Modulus (GPa) = 35.09008 43.57293 39.33150
#
# Velocity S-wave (km/s) = 3.67140 4.09117 3.88695
# Velocity P-wave (km/s) = 5.64043 6.35641 6.00909
#
# Compressibility (1/GPa) = 0.02775051
#
# Stress axis : x y z
#
# Youngs Moduli (GPa) = 86.65978 56.91302 201.04755
#
# Poissons Ratio (x) = 0.09417 0.15033
# Poissons Ratio (y) = 0.14339 0.15368
# Poissons Ratio (z) = 0.06480 0.04351
#
# Static dielectric constant tensor:
#      x y z
#    x 2.173620 0.000000 -0.000660 
#    y 0.000000 1.897510 0.000000 
#    z -0.000660 0.000000 2.096090 
# 
# From -- ./inp_files/229264.got.cif
#   From: 2010.05.17/outbox.cif.g08.bks.cpg/sg12_115_cif.got.tgz:229264.got - 2010.06.03 13:09:07.
