data_PCOD9190197
_publ_section_title
;
Structure prediction by ZEFSAII (Michael W. Deem and Ramdas Pophale) SiO2 
 PCOD9190197
Probable space group: C 2/M
;
_chemical_formula_sum "Si O2"
_cell_formula_units_Z 48
_cell_length_a 9.140277
_cell_length_b 29.733411
_cell_length_c 8.148737
_cell_angle_alpha 90.000000
_cell_angle_beta 90.547470
_cell_angle_gamma 90.000000
_cell_volume 2214.494299
_symmetry_space_group_name_H-M "C 2/M"
_symmetry_group_IT_number 12
_symmetry_cell_setting 'monoclinic'
loop_
_space_group_symop_operation_xyz
x,y,z
-x,y,-z
-x,-y,-z
x,-y,z
1/2+x,1/2+y,z
1/2-x,1/2+y,-z
1/2-x,1/2-y,-z
1/2+x,1/2-y,z
loop_
_atom_site_type_symbol
_atom_site_label
_atom_site_fract_x
_atom_site_fract_y
_atom_site_fract_z
Si Si1 0.112489 0.728458 0.155246
Si Si2 0.677977 0.902768 0.852210
Si Si3 0.826820 0.500000 0.474425
Si Si4 0.659691 0.000000 0.920586
Si Si5 0.657649 0.681798 0.041666
Si Si6 0.674554 0.591700 0.503068
Si Si7 0.920336 0.362073 0.671887
O O1 0.133293 0.781729 0.188050
O O2 0.060998 0.690118 0.279338
O O3 0.272800 0.711750 0.101551
O O4 0.000000 0.726093 0.000000
O O5 0.727876 0.857666 0.939842
O O6 0.769297 0.900759 0.682591
O O7 0.507971 0.894890 0.798292
O O8 0.713368 0.948614 0.950788
O O9 0.822107 0.500000 0.276827
O O10 0.745163 0.543219 0.544183
O O11 0.000000 0.500000 0.500000
O O12 0.500000 0.000000 0.000000
O O13 0.500000 0.662572 0.000000
O O14 0.500000 0.592300 0.500000
O O15 0.752695 0.625309 0.631781
O O16 0.000000 0.370237 0.500000
#
# Coordination Sequence:
#
# PCOD9190197 Si02
#       7
#     8   8   4   4   8   8   8
#     4  10  20  39  64  86 114 161 208 242 295 367
#     4  10  21  40  58  87 123 156 203 253 297 365
#     4  10  19  41  60  83 120 160 205 243 289 377
#     4  10  22  35  61  91 113 152 204 249 290 343
#     4  10  22  37  61  87 119 159 201 245 304 357
#     4  10  21  36  59  87 118 158 201 250 306 351
#     4  10  21  38  61  87 120 159 202 250 300 357
#
# _framework density 21.675377999999998
#
# number of rings (size 3 to 8) (size 9 to 14) (size 15 to 20)
#    0.000    2.000    1.667    2.750    4.667    0.000 
#    0.000    4.583    0.000    0.000    0.000    0.000 
#    0.000    0.000    0.000    0.000    0.000    0.000 
#
# Total GULP energy -133685.580178 kJ/mol
# GULP energy per Si atom -5570.232507 kJ/mol
# Density = 2.162604 g / cm^3
# Si number density = 21.675378 Si / 1000 Ang^3
#
#
#
# Elastic Constant Matrix: (Units=GPa)
#
#
# Indices 1 2 3 4 5 6 
#
# 1 148.5172 25.0819 9.3839 0.0000 11.7113 0.0000
# 2 25.0819 141.4193 18.2957 0.0000 13.7074 0.0000
# 3 9.3839 18.2957 17.9244 0.0000 0.9627 0.0000
# 4 0.0000 0.0000 0.0000 17.5060 0.0000 -8.0722
# 5 11.7113 13.7074 0.9627 0.0000 18.8881 0.0000
# 6 0.0000 0.0000 0.0000 -8.0722 0.0000 35.0926
#
#
#
# Elastic Compliance Matrix: (Units=1/GPa)
#
#
# Indices 1 2 3 4 5 6 
#
# 1 0.007332 -0.000510 -0.003103 0.000000 -0.004018 0.000000
# 2 -0.000510 0.008796 -0.008409 0.000000 -0.005639 0.000000
# 3 -0.003103 -0.008409 0.065746 0.000000 0.004675 0.000000
# 4 0.000000 0.000000 0.000000 0.063901 0.000000 0.014699
# 5 -0.004018 -0.005639 0.004675 0.000000 0.059289 0.000000
# 6 0.000000 0.000000 0.000000 0.014699 0.000000 0.031877
#
#
# Mechanical properties :
#
#
# Convention : Reuss Voigt Hill
#
# Bulk Modulus (GPa) = 17.29129 45.93152 31.61141
# Shear Modulus (GPa) = 17.84058 31.30397 24.57228
#
# Velocity S-wave (km/s) = 2.87205 3.80441 3.37062
# Velocity P-wave (km/s) = 4.35809 6.36669 5.45562
#
# Compressibility (1/GPa) = 0.05783258
#
# Stress axis : x y z
#
# Youngs Moduli (GPa) = 136.38508 113.68902 15.21007
#
# Poissons Ratio (x) = 0.05793 0.04719
# Poissons Ratio (y) = 0.06949 0.12789
# Poissons Ratio (z) = 0.42316 0.95596
#
# Static dielectric constant tensor:
#      x y z
#    x 1.809450 0.000000 0.025530 
#    y 0.000000 1.948150 0.000000 
#    z 0.025530 0.000000 1.871730 
# 
# From -- ./inp_files/42267.got.cif
#   From: 2010.05.17/outbox.cif.g08.bks.cpg/sg12_22_cif.got.tgz:42267.got - 2010.06.03 13:09:07.
