data_PCOD9190435
_publ_section_title
;
Structure prediction by ZEFSAII (Michael W. Deem and Ramdas Pophale) SiO2 
 PCOD9190435
Probable space group: C 2/M
;
_chemical_formula_sum "Si O2"
_cell_formula_units_Z 56
_cell_length_a 13.165027
_cell_length_b 22.270348
_cell_length_c 13.153734
_cell_angle_alpha 90.000000
_cell_angle_beta 56.899899
_cell_angle_gamma 90.000000
_cell_volume 3230.691822
_symmetry_space_group_name_H-M "C 2/M"
_symmetry_group_IT_number 12
_symmetry_cell_setting 'monoclinic'
loop_
_space_group_symop_operation_xyz
x,y,z
-x,y,-z
-x,-y,-z
x,-y,z
1/2+x,1/2+y,z
1/2-x,1/2+y,-z
1/2-x,1/2-y,-z
1/2+x,1/2-y,z
loop_
_atom_site_type_symbol
_atom_site_label
_atom_site_fract_x
_atom_site_fract_y
_atom_site_fract_z
Si Si1 0.447170 0.569949 0.137781
Si Si2 0.841074 0.568476 0.681089
Si Si3 0.969229 0.655727 0.743288
Si Si4 0.156045 0.238484 0.297824
Si Si5 0.433982 0.777626 0.140000
Si Si6 0.955455 0.171025 0.293523
Si Si7 0.824374 0.673323 0.530192
O O1 0.481480 0.500000 0.133307
O O2 0.300921 0.573126 0.212904
O O3 0.483459 0.610987 0.213852
O O4 0.500000 0.590298 0.000000
O O5 0.867561 0.500000 0.639139
O O6 0.858747 0.615343 0.579513
O O7 0.921738 0.592300 0.730023
O O8 0.002088 0.665633 0.841526
O O9 0.090001 0.673340 0.613712
O O10 0.868501 0.704100 0.762244
O O11 0.290506 0.214208 0.206412
O O12 0.150668 0.268477 0.412746
O O13 0.054222 0.190529 0.322508
O O14 0.450900 0.722937 0.209967
O O15 0.500000 0.763029 0.000000
O O16 0.818834 0.168775 0.412275
#
# Coordination Sequence:
#
# PCOD9190435 Si02
#       7
#     8   8   8   8   8   8   8
#     4   9  17  29  46  70  97 122 154 195 231 268
#     4   9  17  30  49  72  95 120 150 188 236 278
#     4  10  20  31  47  69  95 122 151 191 231 271
#     4   9  18  30  47  67  91 122 151 183 228 274
#     4  10  21  33  45  67  96 123 155 190 223 270
#     4   9  18  30  48  69  93 125 153 186 232 277
#     4   9  18  31  45  72  99 114 148 195 231 272
#
# _framework density 17.333749000000001
#
# number of rings (size 3 to 8) (size 9 to 14) (size 15 to 20)
#    0.000    2.714    0.000    3.000    0.000   10.857 
#    0.000    0.000    0.000    1.286    0.000    0.000 
#    0.000   14.857    0.000    0.000    0.000    0.000 
#
# Total GULP energy -156158.747883 kJ/mol
# GULP energy per Si atom -5577.098139 kJ/mol
# Density = 1.729430 g / cm^3
# Si number density = 17.333749 Si / 1000 Ang^3
#
#
#
# Elastic Constant Matrix: (Units=GPa)
#
#
# Indices 1 2 3 4 5 6 
#
# 1 49.8267 19.2353 -3.2645 0.0000 -2.2043 0.0000
# 2 19.2353 72.1733 12.8139 0.0000 4.9053 0.0000
# 3 -3.2645 12.8139 35.3972 0.0000 -2.1973 0.0000
# 4 0.0000 0.0000 0.0000 13.5424 0.0000 -0.8617
# 5 -2.2043 4.9053 -2.1973 0.0000 9.3104 0.0000
# 6 0.0000 0.0000 0.0000 -0.8617 0.0000 24.1650
#
#
#
# Elastic Compliance Matrix: (Units=1/GPa)
#
#
# Indices 1 2 3 4 5 6 
#
# 1 0.024160 -0.008273 0.005936 0.000000 0.011480 0.000000
# 2 -0.008273 0.018460 -0.008292 0.000000 -0.013642 0.000000
# 3 0.005936 -0.008292 0.032637 0.000000 0.013477 0.000000
# 4 0.000000 0.000000 0.000000 0.074010 0.000000 0.002639
# 5 0.011480 -0.013642 0.013477 0.000000 0.120492 0.000000
# 6 0.000000 0.000000 0.000000 0.002639 0.000000 0.041476
#
#
# Mechanical properties :
#
#
# Convention : Reuss Voigt Hill
#
# Bulk Modulus (GPa) = 18.51952 23.88518 21.20235
# Shear Modulus (GPa) = 14.26558 17.97773 16.12166
#
# Velocity S-wave (km/s) = 2.87190 3.22398 3.05302
# Velocity P-wave (km/s) = 4.65879 5.26006 4.96853
#
# Compressibility (1/GPa) = 0.05399707
#
# Stress axis : x y z
#
# Youngs Moduli (GPa) = 41.39064 54.17159 30.64037
#
# Poissons Ratio (x) = 0.44817 -0.18187
# Poissons Ratio (y) = 0.34243 0.25408
# Poissons Ratio (z) = -0.24568 0.44921
#
# Static dielectric constant tensor:
#      x y z
#    x 1.611850 0.000000 -0.004210 
#    y 0.000000 1.607610 0.000000 
#    z -0.004210 0.000000 1.595170 
# 
# From -- ./inp_files/133882.got.cif
#   From: 2010.05.17/outbox.cif.g08.bks.cpg/sg12_67_cif.got.tgz:133882.got - 2010.06.03 13:09:07.
