data_PCOD9190927
_publ_section_title
;
Structure prediction by ZEFSAII (Michael W. Deem and Ramdas Pophale) SiO2 
 PCOD9190927
Probable space group: C 2/M
;
_chemical_formula_sum "Si O2"
_cell_formula_units_Z 40
_cell_length_a 10.377142
_cell_length_b 27.130116
_cell_length_c 7.138574
_cell_angle_alpha 90.000000
_cell_angle_beta 61.128166
_cell_angle_gamma 90.000000
_cell_volume 1759.937384
_symmetry_space_group_name_H-M "C 2/M"
_symmetry_group_IT_number 12
_symmetry_cell_setting 'monoclinic'
loop_
_space_group_symop_operation_xyz
x,y,z
-x,y,-z
-x,-y,-z
x,-y,z
1/2+x,1/2+y,z
1/2-x,1/2+y,-z
1/2-x,1/2-y,-z
1/2+x,1/2-y,z
loop_
_atom_site_type_symbol
_atom_site_label
_atom_site_fract_x
_atom_site_fract_y
_atom_site_fract_z
Si Si1 0.324263 0.693934 0.141831
Si Si2 0.330084 0.395406 0.652416
Si Si3 0.795890 0.500000 0.315451
Si Si4 0.627270 0.000000 0.186897
Si Si5 0.171563 0.087184 0.902103
Si Si6 0.673949 0.199420 0.839265
O O1 0.287606 0.745912 0.264638
O O2 0.500000 0.694416 0.000000
O O3 0.295411 0.638203 0.228779
O O4 0.251666 0.697165 0.987726
O O5 0.500000 0.383361 0.500000
O O6 0.289300 0.448371 0.590507
O O7 0.313600 0.403156 0.886742
O O8 0.230428 0.347434 0.683533
O O9 0.952066 0.500000 0.310394
O O10 0.831212 0.500000 0.065735
O O11 0.707303 0.953477 0.222082
O O12 0.000000 0.072108 0.000000
O O13 0.500000 0.195529 0.000000
#
# Coordination Sequence:
#
# PCOD9190927 Si02
#       6
#     8   8   4   4   8   8
#     4   8  15  28  46  72  97 127 162 207 248 289
#     4  10  20  32  50  75 105 133 161 208 262 302
#     4   9  19  30  47  73 109 128 162 212 256 292
#     4   9  17  28  49  83  96 123 178 220 233 281
#     4   9  17  30  52  74 101 133 169 207 246 301
#     4   9  17  28  50  75  94 128 177 209 238 294
#
# _framework density 22.728081
#
# number of rings (size 3 to 8) (size 9 to 14) (size 15 to 20)
#    0.000    3.000    0.000    0.600    8.400    0.000 
#    0.000    0.000    0.000   45.600    0.000    0.000 
#    0.000    0.000    0.000    0.000    0.000    0.000 
#
# Total GULP energy -111539.306277 kJ/mol
# GULP energy per Si atom -5576.965314 kJ/mol
# Density = 2.267635 g / cm^3
# Si number density = 22.728081 Si / 1000 Ang^3
#
#
#
# Elastic Constant Matrix: (Units=GPa)
#
#
# Indices 1 2 3 4 5 6 
#
# 1 121.3862 47.9810 31.6130 0.0000 -22.9106 0.0000
# 2 47.9810 238.3722 55.0921 0.0000 -44.0412 0.0000
# 3 31.6130 55.0921 64.8550 0.0000 -2.7686 0.0000
# 4 0.0000 0.0000 0.0000 -12.1441 0.0000 -27.6694
# 5 -22.9106 -44.0412 -2.7686 0.0000 39.5925 0.0000
# 6 0.0000 0.0000 0.0000 -27.6694 0.0000 24.5355
#
#
#
# Elastic Compliance Matrix: (Units=1/GPa)
#
#
# Indices 1 2 3 4 5 6 
#
# 1 0.010618 0.000118 -0.005023 0.000000 0.005924 0.000000
# 2 0.000118 0.006779 -0.005508 0.000000 0.007224 0.000000
# 3 -0.005023 -0.005508 0.022227 0.000000 -0.007479 0.000000
# 4 0.000000 0.000000 0.000000 -0.023069 0.000000 -0.026016
# 5 0.005924 0.007224 -0.007479 0.000000 0.036198 0.000000
# 6 0.000000 0.000000 0.000000 -0.026016 0.000000 0.011418
#
#
# Mechanical properties :
#
#
# Convention : Reuss Voigt Hill
#
# Bulk Modulus (GPa) = 53.19594 77.10952 65.15273
# Shear Modulus (GPa) = 54.78719 29.72526 42.25622
#
# Velocity S-wave (km/s) = 4.91506 3.62037 4.31653
# Velocity P-wave (km/s) = 7.46101 7.17473 7.31927
#
# Compressibility (1/GPa) = 0.01879843
#
# Stress axis : x y z
#
# Youngs Moduli (GPa) = 94.18173 147.51580 44.99056
#
# Poissons Ratio (x) = -0.01745 0.22599
# Poissons Ratio (y) = -0.01114 0.24780
# Poissons Ratio (z) = 0.47309 0.81248
#
# Static dielectric constant tensor:
#      x y z
#    x 1.812850 0.000000 0.039140 
#    y 0.000000 1.938790 0.000000 
#    z 0.039140 0.000000 1.808950 
# 
# From -- ./inp_files/52118.got.cif
#   From: 2010.05.17/outbox.cif.g08.bks.cpg/sg12_27_cif.got.tgz:52118.got - 2010.06.03 13:09:07.
