data_PCOD9190131
_publ_section_title
;
Structure prediction by ZEFSAII (Michael W. Deem and Ramdas Pophale) SiO2 
 PCOD9190131
Probable space group: C 2/M
;
_chemical_formula_sum "Si O2"
_cell_formula_units_Z 40
_cell_length_a 9.332845
_cell_length_b 35.192915
_cell_length_c 8.115514
_cell_angle_alpha 90.000000
_cell_angle_beta 50.648846
_cell_angle_gamma 90.000000
_cell_volume 2061.194459
_symmetry_space_group_name_H-M "C 2/M"
_symmetry_group_IT_number 12
_symmetry_cell_setting 'monoclinic'
loop_
_space_group_symop_operation_xyz
x,y,z
-x,y,-z
-x,-y,-z
x,-y,z
1/2+x,1/2+y,z
1/2-x,1/2+y,-z
1/2-x,1/2-y,-z
1/2+x,1/2-y,z
loop_
_atom_site_type_symbol
_atom_site_label
_atom_site_fract_x
_atom_site_fract_y
_atom_site_fract_z
Si Si1 0.500000 0.326555 0.500000
Si Si2 0.807634 0.042323 0.540377
Si Si3 0.000000 0.576315 0.000000
Si Si4 0.783637 0.121634 0.398274
Si Si5 0.867940 0.634793 0.836636
Si Si6 0.196316 0.286617 0.935439
O O1 0.577655 0.353270 0.591405
O O2 0.341720 0.299740 0.690769
O O3 0.635598 0.051786 0.786874
O O4 0.814275 0.077173 0.409638
O O5 0.000000 0.043038 0.500000
O O6 0.784515 0.000000 0.486468
O O7 0.870995 0.603849 0.981407
O O8 0.578467 0.132053 0.615855
O O9 0.771697 0.127830 0.211926
O O10 0.829748 0.676212 0.933732
O O11 0.250000 0.250000 0.000000
O O12 0.000000 0.278052 0.000000
#
# Coordination Sequence:
#
# PCOD9190131 Si02
#       6
#     4   8   4   8   8   8
#     4  12  24  44  69  88 128 170 212 250 309 376
#     4  10  20  36  59  91 128 163 205 261 313 364
#     4  10  19  40  62  84 122 174 206 256 306 372
#     4  10  21  39  68  94 119 176 212 254 309 371
#     4  10  21  42  65  91 129 160 219 260 298 380
#     4  12  27  45  64  96 129 162 205 261 314 369
#
# _framework density 19.406224000000002
#
# number of rings (size 3 to 8) (size 9 to 14) (size 15 to 20)
#    0.000    1.400    4.000    1.500    2.800    2.400 
#    0.000    9.000    0.000    2.400    0.000    0.000 
#    0.000    0.000    0.000    0.000    0.000    0.000 
#
# Total GULP energy -111725.891783 kJ/mol
# GULP energy per Si atom -5586.294589 kJ/mol
# Density = 1.936205 g / cm^3
# Si number density = 19.406224 Si / 1000 Ang^3
#
#
#
# Elastic Constant Matrix: (Units=GPa)
#
#
# Indices 1 2 3 4 5 6 
#
# 1 145.0174 71.7954 49.9693 0.0000 10.5889 0.0000
# 2 71.7954 153.8204 51.9714 0.0000 -3.0047 0.0000
# 3 49.9693 51.9714 38.8472 0.0000 2.4209 0.0000
# 4 0.0000 0.0000 0.0000 42.9362 0.0000 12.0810
# 5 10.5889 -3.0047 2.4209 0.0000 29.4513 0.0000
# 6 0.0000 0.0000 0.0000 12.0810 0.0000 35.9039
#
#
#
# Elastic Compliance Matrix: (Units=1/GPa)
#
#
# Indices 1 2 3 4 5 6 
#
# 1 0.012768 -0.001006 -0.014861 0.000000 -0.003472 0.000000
# 2 -0.001006 0.012133 -0.015115 0.000000 0.002842 0.000000
# 3 -0.014861 -0.015115 0.065177 0.000000 -0.001556 0.000000
# 4 0.000000 0.000000 0.000000 0.025726 0.000000 -0.008656
# 5 -0.003472 0.002842 -0.001556 0.000000 0.035620 0.000000
# 6 0.000000 0.000000 0.000000 -0.008656 0.000000 0.030765
#
#
# Mechanical properties :
#
#
# Convention : Reuss Voigt Hill
#
# Bulk Modulus (GPa) = 35.57100 76.12856 55.84978
# Shear Modulus (GPa) = 19.72186 32.58822 26.15504
#
# Velocity S-wave (km/s) = 3.19135 4.10233 3.67518
# Velocity P-wave (km/s) = 5.65235 7.85830 6.84478
#
# Compressibility (1/GPa) = 0.02811279
#
# Stress axis : x y z
#
# Youngs Moduli (GPa) = 78.31964 82.41850 15.34288
#
# Poissons Ratio (x) = 0.08292 0.22802
# Poissons Ratio (y) = 0.07880 0.23191
# Poissons Ratio (z) = 1.16394 1.24577
#
# Static dielectric constant tensor:
#      x y z
#    x 1.598130 0.000000 -0.006290 
#    y 0.000000 1.646470 0.000000 
#    z -0.006290 0.000000 1.714600 
# 
# From -- ./inp_files/41500.got.cif
#   From: 2010.05.17/outbox.cif.g08.bks.cpg/sg12_21_cif.got.tgz:41500.got - 2010.06.03 13:09:07.
