data_PCOD9190864
_publ_section_title
;
Structure prediction by ZEFSAII (Michael W. Deem and Ramdas Pophale) SiO2 
 PCOD9190864
Probable space group: C 2/M
;
_chemical_formula_sum "Si O2"
_cell_formula_units_Z 56
_cell_length_a 16.287714
_cell_length_b 7.615577
_cell_length_c 24.158257
_cell_angle_alpha 90.000000
_cell_angle_beta 135.482197
_cell_angle_gamma 90.000000
_cell_volume 2101.007601
_symmetry_space_group_name_H-M "C 2/M"
_symmetry_group_IT_number 12
_symmetry_cell_setting 'monoclinic'
loop_
_space_group_symop_operation_xyz
x,y,z
-x,y,-z
-x,-y,-z
x,-y,z
1/2+x,1/2+y,z
1/2-x,1/2+y,-z
1/2-x,1/2-y,-z
1/2+x,1/2-y,z
loop_
_atom_site_type_symbol
_atom_site_label
_atom_site_fract_x
_atom_site_fract_y
_atom_site_fract_z
Si Si1 0.663265 0.293967 0.267446
Si Si2 0.528069 0.287808 0.451878
Si Si3 0.902505 0.796469 0.159918
Si Si4 0.278132 0.797505 0.589478
Si Si5 0.655752 0.214418 0.023655
Si Si6 0.961253 0.707277 0.304409
Si Si7 0.097026 0.289028 0.121215
O O1 0.665123 0.500000 0.281091
O O2 0.530627 0.217627 0.211463
O O3 0.738997 0.207039 0.351865
O O4 0.680511 0.273319 0.210408
O O5 0.500000 0.225019 0.500000
O O6 0.529846 0.500000 0.453647
O O7 0.661629 0.222148 0.506131
O O8 0.444066 0.233454 0.361474
O O9 0.787083 0.718491 0.075733
O O10 0.886544 0.790692 0.219223
O O11 0.909936 0.000000 0.147722
O O12 0.405887 0.717899 0.640603
O O13 0.286012 0.000000 0.577025
O O14 0.631349 0.264158 0.075995
O O15 0.658797 0.000000 0.022929
O O16 0.538523 0.272062 0.935656
O O17 0.958791 0.500000 0.292239
O O18 0.096850 0.500000 0.122165
#
# Coordination Sequence:
#
# PCOD9190864 Si02
#       7
#     8   8   8   8   8   8   8
#     4  10  20  32  49  75 103 130 161 200 247 293
#     4  10  21  36  54  76 100 128 164 202 241 289
#     4   9  18  34  53  72  98 131 167 203 239 288
#     4   9  19  36  55  73  96 130 168 201 238 289
#     4   8  16  32  53  73  93 128 173 206 238 286
#     4  10  20  34  53  76 101 129 162 201 246 291
#     4   9  17  32  53  73  96 128 167 207 244 288
#
# _framework density 26.653877000000001
#
# number of rings (size 3 to 8) (size 9 to 14) (size 15 to 20)
#    0.000    2.714    0.000    2.143    0.000    3.714 
#    0.000    8.571    0.000    0.000    0.000    0.000 
#    0.000    0.000    0.000    0.000    0.000    0.000 
#
# Total GULP energy -156556.517374 kJ/mol
# GULP energy per Si atom -5591.304192 kJ/mol
# Density = 2.659321 g / cm^3
# Si number density = 26.653877 Si / 1000 Ang^3
#
#
#
# Elastic Constant Matrix: (Units=GPa)
#
#
# Indices 1 2 3 4 5 6 
#
# 1 53.4590 4.2790 14.3842 0.0000 -13.0464 0.0000
# 2 4.2790 85.7079 -2.8568 0.0000 -2.1404 0.0000
# 3 14.3842 -2.8568 175.5851 0.0000 -10.3281 0.0000
# 4 0.0000 0.0000 0.0000 18.5374 0.0000 -13.1400
# 5 -13.0464 -2.1404 -10.3281 0.0000 57.8437 0.0000
# 6 0.0000 0.0000 0.0000 -13.1400 0.0000 9.8837
#
#
#
# Elastic Compliance Matrix: (Units=1/GPa)
#
#
# Indices 1 2 3 4 5 6 
#
# 1 0.020206 -0.000949 -0.001420 0.000000 0.004269 0.000000
# 2 -0.000949 0.011731 0.000285 0.000000 0.000271 0.000000
# 3 -0.001420 0.000285 0.005859 0.000000 0.000737 0.000000
# 4 0.000000 0.000000 0.000000 0.936098 0.000000 1.244506
# 5 0.004269 0.000271 0.000737 0.000000 0.018392 0.000000
# 6 0.000000 0.000000 0.000000 1.244506 0.000000 1.755699
#
#
# Mechanical properties :
#
#
# Convention : Reuss Voigt Hill
#
# Bulk Modulus (GPa) = 29.73780 38.48498 34.11139
# Shear Modulus (GPa) = 1.80939 37.18268 19.49604
#
# Velocity S-wave (km/s) = 0.82482 3.73905 2.70747
# Velocity P-wave (km/s) = 3.47683 5.75420 4.75390
#
# Compressibility (1/GPa) = 0.03362723
#
# Stress axis : x y z
#
# Youngs Moduli (GPa) = 49.49108 85.24288 170.66306
#
# Poissons Ratio (x) = 0.08094 0.24228
# Poissons Ratio (y) = 0.04699 -0.04857
# Poissons Ratio (z) = 0.07026 -0.02426
#
# Static dielectric constant tensor:
#      x y z
#    x 2.275160 0.000000 -0.000290 
#    y 0.000000 1.955920 0.000000 
#    z -0.000290 0.000000 2.063350 
# 
# From -- ./inp_files/342550.got.cif
#   From: 2010.05.17/outbox.cif.g08.bks.cpg/sg12_172_cif.got.tgz:342550.got - 2010.06.03 13:09:07.
