data_PCOD9190750
_publ_section_title
;
Structure prediction by ZEFSAII (Michael W. Deem and Ramdas Pophale) SiO2 
 PCOD9190750
Probable space group: C 2/M
;
_chemical_formula_sum "Si O2"
_cell_formula_units_Z 40
_cell_length_a 31.112214
_cell_length_b 8.078796
_cell_length_c 7.362671
_cell_angle_alpha 90.000000
_cell_angle_beta 104.383954
_cell_angle_gamma 90.000000
_cell_volume 1792.590450
_symmetry_space_group_name_H-M "C 2/M"
_symmetry_group_IT_number 12
_symmetry_cell_setting 'monoclinic'
loop_
_space_group_symop_operation_xyz
x,y,z
-x,y,-z
-x,-y,-z
x,-y,z
1/2+x,1/2+y,z
1/2-x,1/2+y,-z
1/2-x,1/2-y,-z
1/2+x,1/2-y,z
loop_
_atom_site_type_symbol
_atom_site_label
_atom_site_fract_x
_atom_site_fract_y
_atom_site_fract_z
Si Si1 0.107353 0.818710 0.390104
Si Si2 0.203575 0.195631 0.869016
Si Si3 0.948756 0.500000 0.666802
Si Si4 0.892282 0.814938 0.164774
Si Si5 0.299665 0.814970 0.524641
Si Si6 0.949159 0.500000 0.223928
O O1 0.077384 0.664436 0.302577
O O2 0.107824 0.817064 0.612739
O O3 0.157811 0.792284 0.374924
O O4 0.091120 0.000000 0.318239
O O5 0.159240 0.212865 0.941599
O O6 0.196379 0.311074 0.688595
O O7 0.205584 0.000000 0.818316
O O8 0.250000 0.250000 0.000000
O O9 0.948528 0.500000 0.444970
O O10 0.999716 0.500000 0.778695
O O11 0.923367 0.665419 0.138785
O O12 0.905900 0.000000 0.122090
O O13 0.250000 0.750000 0.500000
O O14 0.303637 0.000000 0.602410
#
# Coordination Sequence:
#
# PCOD9190750 Si02
#       6
#     8   8   4   8   8   4
#     4   9  16  28  42  60  89 121 154 194 240 286
#     4  10  20  32  48  71  97 131 168 201 245 292
#     4   9  16  26  38  64  83 121 159 195 234 291
#     4   8  16  27  40  60  88 120 154 193 237 285
#     4  11  20  32  49  70  98 131 167 203 243 293
#     4   9  16  24  42  58  87 119 161 191 238 287
#
# _framework density 22.314077000000001
#
# number of rings (size 3 to 8) (size 9 to 14) (size 15 to 20)
#    0.000    2.600    1.000    3.600    5.600    0.800 
#    0.000    4.000    0.000    0.000    0.000    0.000 
#    0.000    3.200    0.000    8.400    0.000    7.000 
#
# Total GULP energy -111640.976352 kJ/mol
# GULP energy per Si atom -5582.048818 kJ/mol
# Density = 2.226329 g / cm^3
# Si number density = 22.314077 Si / 1000 Ang^3
#
#
#
# Elastic Constant Matrix: (Units=GPa)
#
#
# Indices 1 2 3 4 5 6 
#
# 1 162.9130 113.0790 10.8912 0.0000 34.0448 0.0000
# 2 113.0790 205.2361 4.4393 0.0000 25.0944 0.0000
# 3 10.8912 4.4393 53.5847 0.0000 -8.2248 0.0000
# 4 0.0000 0.0000 0.0000 0.3477 0.0000 7.0980
# 5 34.0448 25.0944 -8.2248 0.0000 20.1727 0.0000
# 6 0.0000 0.0000 0.0000 7.0980 0.0000 30.5145
#
#
#
# Elastic Compliance Matrix: (Units=1/GPa)
#
#
# Indices 1 2 3 4 5 6 
#
# 1 0.014391 -0.005383 -0.005525 0.000000 -0.019843 0.000000
# 2 -0.005383 0.007905 0.000346 0.000000 -0.000608 0.000000
# 3 -0.005525 0.000346 0.022531 0.000000 0.018080 0.000000
# 4 0.000000 0.000000 0.000000 -0.767238 0.000000 0.178468
# 5 -0.019843 -0.000608 0.018080 0.000000 0.091188 0.000000
# 6 0.000000 0.000000 0.000000 0.178468 0.000000 -0.008742
#
#
# Mechanical properties :
#
#
# Convention : Reuss Voigt Hill
#
# Bulk Modulus (GPa) = 42.18780 75.39475 58.79128
# Shear Modulus (GPa) = -8.18410 29.76192 10.78891
#
# Velocity S-wave (km/s) = -1.91720 3.65605 2.20125
# Velocity P-wave (km/s) = 3.74787 7.18913 5.73281
#
# Compressibility (1/GPa) = 0.02370353
#
# Stress axis : x y z
#
# Youngs Moduli (GPa) = 69.48935 126.49812 44.38253
#
# Poissons Ratio (x) = 0.68096 0.24520
# Poissons Ratio (y) = 0.37407 -0.01535
# Poissons Ratio (z) = 0.38390 -0.04375
#
# Static dielectric constant tensor:
#      x y z
#    x 1.840300 0.000000 -0.064550 
#    y 0.000000 1.791590 0.000000 
#    z -0.064550 0.000000 1.973740 
# 
# From -- ./inp_files/101224.got.cif
#   From: 2010.05.17/outbox.cif.g08.bks.cpg/sg12_51_cif.got.tgz:101224.got - 2010.06.03 13:09:07.
