data_PCOD9190781
_publ_section_title
;
Structure prediction by ZEFSAII (Michael W. Deem and Ramdas Pophale) SiO2 
 PCOD9190781
Probable space group: C 2/M
;
_chemical_formula_sum "Si O2"
_cell_formula_units_Z 64
_cell_length_a 23.536234
_cell_length_b 8.793749
_cell_length_c 22.671967
_cell_angle_alpha 90.000000
_cell_angle_beta 125.761136
_cell_angle_gamma 90.000000
_cell_volume 3807.742545
_symmetry_space_group_name_H-M "C 2/M"
_symmetry_group_IT_number 12
_symmetry_cell_setting 'monoclinic'
loop_
_space_group_symop_operation_xyz
x,y,z
-x,y,-z
-x,-y,-z
x,-y,z
1/2+x,1/2+y,z
1/2-x,1/2+y,-z
1/2-x,1/2-y,-z
1/2+x,1/2-y,z
loop_
_atom_site_type_symbol
_atom_site_label
_atom_site_fract_x
_atom_site_fract_y
_atom_site_fract_z
Si Si1 0.315171 0.182814 0.880560
Si Si2 0.465319 0.682252 0.153024
Si Si3 0.479483 0.818393 0.285790
Si Si4 0.162144 0.816775 0.744324
Si Si5 0.322898 0.182318 0.022156
Si Si6 0.100784 0.181053 0.586387
Si Si7 0.041113 0.318423 0.443733
Si Si8 0.546956 0.683284 0.084509
O O1 0.236596 0.230967 0.815794
O O2 0.375420 0.253520 0.877055
O O3 0.317595 0.000000 0.877056
O O4 0.330706 0.223313 0.957892
O O5 0.461402 0.500000 0.151563
O O6 0.494557 0.742453 0.232479
O O7 0.387730 0.749127 0.097037
O O8 0.510856 0.730072 0.123833
O O9 0.403911 0.759619 0.263421
O O10 0.536331 0.782582 0.371466
O O11 0.476032 0.000000 0.277482
O O12 0.157672 0.783738 0.671352
O O13 0.154784 0.000000 0.746859
O O14 0.322219 0.000000 0.027020
O O15 0.250000 0.250000 0.000000
O O16 0.102643 0.256364 0.522985
O O17 0.029404 0.242732 0.572990
O O18 0.096536 0.000000 0.576935
O O19 0.036587 0.500000 0.447788
O O20 0.549048 0.500000 0.084540
O O21 0.500000 0.734134 0.000000
#
# Coordination Sequence:
#
# PCOD9190781 Si02
#       8
#     8   8   8   8   8   8   8   8
#     4  10  21  35  52  73  97 127 163 203 246 288
#     4  11  22  36  53  71  96 129 163 205 251 293
#     4  10  20  32  48  73 102 133 166 203 246 294
#     4   9  18  32  48  72 105 135 164 201 244 293
#     4  11  22  34  51  75 101 131 165 198 239 292
#     4   9  15  24  42  66  95 131 166 195 231 284
#     4   9  16  26  41  64  97 130 162 198 237 283
#     4  10  21  38  56  73  93 122 163 208 252 295
#
# _framework density 16.807858
#
# number of rings (size 3 to 8) (size 9 to 14) (size 15 to 20)
#    0.000    2.125    1.250    3.375    0.000    5.250 
#    0.000    0.000    0.000    0.000    0.000    0.875 
#    0.000    0.000    0.000    0.000    0.000    0.000 
#
# Total GULP energy -178435.534971 kJ/mol
# GULP energy per Si atom -5576.110468 kJ/mol
# Density = 1.676960 g / cm^3
# Si number density = 16.807858 Si / 1000 Ang^3
#
#
#
# Elastic Constant Matrix: (Units=GPa)
#
#
# Indices 1 2 3 4 5 6 
#
# 1 73.0806 20.6548 17.9422 0.0000 -22.2694 0.0000
# 2 20.6548 36.2512 24.8730 0.0000 -14.6368 0.0000
# 3 17.9422 24.8730 80.3970 0.0000 -36.7062 0.0000
# 4 0.0000 0.0000 0.0000 28.6235 0.0000 -0.3716
# 5 -22.2694 -14.6368 -36.7062 0.0000 25.1978 0.0000
# 6 0.0000 0.0000 0.0000 -0.3716 0.0000 26.0047
#
#
#
# Elastic Compliance Matrix: (Units=1/GPa)
#
#
# Indices 1 2 3 4 5 6 
#
# 1 0.023701 -0.008367 0.013865 0.000000 0.036284 0.000000
# 2 -0.008367 0.039610 -0.009730 0.000000 0.001440 0.000000
# 3 0.013865 -0.009730 0.045887 0.000000 0.073447 0.000000
# 4 0.000000 0.000000 0.000000 0.034943 0.000000 0.000499
# 5 0.036284 0.001440 0.073447 0.000000 0.179581 0.000000
# 6 0.000000 0.000000 0.000000 0.000499 0.000000 0.038462
#
#
# Mechanical properties :
#
#
# Convention : Reuss Voigt Hill
#
# Bulk Modulus (GPa) = 9.92710 35.18542 22.55626
# Shear Modulus (GPa) = 12.36932 24.38244 18.37588
#
# Velocity S-wave (km/s) = 2.71574 3.81288 3.31008
# Velocity P-wave (km/s) = 3.96897 6.35322 5.29699
#
# Compressibility (1/GPa) = 0.10073435
#
# Stress axis : x y z
#
# Youngs Moduli (GPa) = 42.19256 25.24613 21.79257
#
# Poissons Ratio (x) = 0.21124 -0.30216
# Poissons Ratio (y) = 0.35304 0.21203
# Poissons Ratio (z) = -0.58500 0.24563
#
# Static dielectric constant tensor:
#      x y z
#    x 1.538820 0.000000 -0.035780 
#    y 0.000000 1.563200 0.000000 
#    z -0.035780 0.000000 1.608500 
# 
# From -- ./inp_files/346191.got.cif
#   From: 2010.05.17/outbox.cif.g08.bks.cpg/sg12_174_cif.got.tgz:346191.got - 2010.06.03 13:09:07.
