data_PCOD9190405
_publ_section_title
;
Structure prediction by ZEFSAII (Michael W. Deem and Ramdas Pophale) SiO2 
 PCOD9190405
Probable space group: C 2/M
;
_chemical_formula_sum "Si O2"
_cell_formula_units_Z 56
_cell_length_a 23.089174
_cell_length_b 8.784043
_cell_length_c 26.640508
_cell_angle_alpha 90.000000
_cell_angle_beta 39.322875
_cell_angle_gamma 90.000000
_cell_volume 3423.907711
_symmetry_space_group_name_H-M "C 2/M"
_symmetry_group_IT_number 12
_symmetry_cell_setting 'monoclinic'
loop_
_space_group_symop_operation_xyz
x,y,z
-x,y,-z
-x,-y,-z
x,-y,z
1/2+x,1/2+y,z
1/2-x,1/2+y,-z
1/2-x,1/2-y,-z
1/2+x,1/2-y,z
loop_
_atom_site_type_symbol
_atom_site_label
_atom_site_fract_x
_atom_site_fract_y
_atom_site_fract_z
Si Si1 0.389143 0.816422 0.231831
Si Si2 0.476538 0.181477 0.940213
Si Si3 0.179129 0.683214 0.615057
Si Si4 0.865482 0.181393 0.094631
Si Si5 0.270329 0.181509 0.731089
Si Si6 0.373173 0.182168 0.461908
Si Si7 0.531827 0.317671 0.422834
O O1 0.484861 0.775874 0.140558
O O2 0.378448 0.774947 0.297168
O O3 0.305719 0.742490 0.256889
O O4 0.380118 0.000000 0.233489
O O5 0.560252 0.234911 0.919809
O O6 0.465806 0.000000 0.950422
O O7 0.387791 0.260392 0.023842
O O8 0.191091 0.500000 0.607055
O O9 0.279068 0.758335 0.549535
O O10 0.133623 0.725249 0.592459
O O11 0.769529 0.213383 0.186225
O O12 0.881029 0.000000 0.086492
O O13 0.367136 0.257170 0.656016
O O14 0.277643 0.000000 0.720689
O O15 0.459292 0.253329 0.431890
O O16 0.376935 0.000000 0.462951
O O17 0.500000 0.270457 0.500000
O O18 0.531723 0.500000 0.420984
#
# Coordination Sequence:
#
# PCOD9190405 Si02
#       7
#     8   8   8   8   8   8   8
#     4   9  17  29  45  67  95 124 152 183 223 269
#     4   9  15  23  39  62  87 117 151 182 214 260
#     4   9  18  33  50  68  93 122 150 184 227 269
#     4   9  16  26  39  58  88 120 147 180 223 265
#     4  10  20  31  45  67  93 122 155 188 224 267
#     4  10  20  33  50  70  91 118 153 190 225 264
#     4  11  23  36  49  66  91 122 152 185 227 271
#
# _framework density 16.355581999999998
#
# number of rings (size 3 to 8) (size 9 to 14) (size 15 to 20)
#    0.000    2.429    0.000    3.857    0.000    8.000 
#    0.000    0.000    0.000    0.000    0.000    1.000 
#    0.000    0.000    0.000    0.000    0.000    0.000 
#
# Total GULP energy -156020.471600 kJ/mol
# GULP energy per Si atom -5572.159700 kJ/mol
# Density = 1.631836 g / cm^3
# Si number density = 16.355582 Si / 1000 Ang^3
#
#
#
# Elastic Constant Matrix: (Units=GPa)
#
#
# Indices 1 2 3 4 5 6 
#
# 1 43.8837 16.0220 39.3837 -0.0007 -0.1036 0.0006
# 2 16.0220 31.8329 36.8629 0.0000 0.6418 -0.0012
# 3 39.3837 36.8629 160.7690 0.0008 11.7186 -0.0013
# 4 -0.0007 0.0000 0.0008 30.0485 0.0003 -1.3520
# 5 -0.1036 0.6418 11.7186 0.0003 19.2520 0.0000
# 6 0.0006 -0.0012 -0.0013 -1.3520 0.0000 17.5160
#
#
#
# Elastic Compliance Matrix: (Units=1/GPa)
#
#
# Indices 1 2 3 4 5 6 
#
# 1 0.031408 -0.009036 -0.005919 0.000001 0.004073 -0.000002
# 2 -0.009036 0.045790 -0.008550 0.000000 0.003629 0.000003
# 3 -0.005919 -0.008550 0.010058 0.000000 -0.005869 0.000000
# 4 0.000001 0.000000 0.000000 0.033395 0.000000 0.002578
# 5 0.004073 0.003629 -0.005869 0.000000 0.055416 0.000000
# 6 -0.000002 0.000003 0.000000 0.002578 0.000000 0.057290
#
#
# Mechanical properties :
#
#
# Convention : Reuss Voigt Hill
#
# Bulk Modulus (GPa) = 24.84711 46.78031 35.81371
# Shear Modulus (GPa) = 17.01926 22.97776 19.99851
#
# Velocity S-wave (km/s) = 3.22930 3.75225 3.50055
# Velocity P-wave (km/s) = 5.39716 6.88743 6.18732
#
# Compressibility (1/GPa) = 0.04024613
#
# Stress axis : x y z
#
# Youngs Moduli (GPa) = 31.83862 21.83873 99.41895
#
# Poissons Ratio (x) = 0.19734 0.58848
# Poissons Ratio (y) = 0.28770 0.85006
# Poissons Ratio (z) = 0.18846 0.18673
#
# Static dielectric constant tensor:
#      x y z
#    x 1.513670 0.000000 0.029620 
#    y 0.000000 1.547030 0.000000 
#    z 0.029620 0.000000 1.605490 
# 
# From -- ./inp_files/345494.got.cif
#   From: 2010.05.17/outbox.cif.g08.bks.cpg/sg12_173_cif.got.tgz:345494.got - 2010.06.03 13:09:07.
