data_PCOD9190984
_publ_section_title
;
Structure prediction by ZEFSAII (Michael W. Deem and Ramdas Pophale) SiO2 
 PCOD9190984
Probable space group: C 2/M
;
_chemical_formula_sum "Si O2"
_cell_formula_units_Z 56
_cell_length_a 23.025580
_cell_length_b 25.130848
_cell_length_c 8.031560
_cell_angle_alpha 90.000000
_cell_angle_beta 136.795825
_cell_angle_gamma 90.000000
_cell_volume 3181.666578
_symmetry_space_group_name_H-M "C 2/M"
_symmetry_group_IT_number 12
_symmetry_cell_setting 'monoclinic'
loop_
_space_group_symop_operation_xyz
x,y,z
-x,y,-z
-x,-y,-z
x,-y,z
1/2+x,1/2+y,z
1/2-x,1/2+y,-z
1/2-x,1/2-y,-z
1/2+x,1/2-y,z
loop_
_atom_site_type_symbol
_atom_site_label
_atom_site_fract_x
_atom_site_fract_y
_atom_site_fract_z
Si Si1 0.739925 0.663649 0.726890
Si Si2 0.438980 0.352847 0.524313
Si Si3 0.464742 0.735085 0.090623
Si Si4 0.288621 0.223072 0.248120
Si Si5 0.317917 0.350824 0.754115
Si Si6 0.413433 0.819233 0.265803
Si Si7 0.542437 0.560986 0.905975
O O1 0.662481 0.648082 0.689608
O O2 0.725890 0.726854 0.662838
O O3 0.725302 0.638202 0.515040
O O4 0.830965 0.654189 0.005031
O O5 0.500000 0.336749 0.500000
O O6 0.464895 0.308751 0.713592
O O7 0.472936 0.410514 0.645698
O O8 0.439160 0.773441 0.187601
O O9 0.500000 0.764010 0.000000
O O10 0.384375 0.697978 0.881967
O O11 0.246575 0.171445 0.242016
O O12 0.379460 0.206704 0.366948
O O13 0.250000 0.250000 0.000000
O O14 0.374406 0.401684 0.923761
O O15 0.500000 0.848929 0.500000
O O16 0.559715 0.500000 0.898963
O O17 0.500000 0.563084 0.000000
#
# Coordination Sequence:
#
# PCOD9190984 Si02
#       7
#     8   8   8   8   8   8   8
#     4  11  20  33  49  76 105 150 191 231 265 334
#     4  11  21  32  55  80 112 148 186 225 278 337
#     4  11  19  32  50  72 108 146 190 223 267 333
#     4  10  20  32  51  75 108 145 187 233 273 332
#     4  11  19  34  54  82 103 148 190 226 279 338
#     4  11  24  34  45  71 108 150 190 231 273 314
#     4  10  21  39  58  82 118 147 183 234 283 338
#
# _framework density 17.600839000000001
#
# number of rings (size 3 to 8) (size 9 to 14) (size 15 to 20)
#    0.000    1.286    5.714    3.429    6.000    0.286 
#    0.000    0.000    0.000    0.000    0.000    0.000 
#    0.000    6.286    0.000    0.000    0.000    0.143 
#
# Total GULP energy -155932.076765 kJ/mol
# GULP energy per Si atom -5569.002742 kJ/mol
# Density = 1.756078 g / cm^3
# Si number density = 17.600839 Si / 1000 Ang^3
#
#
#
# Elastic Constant Matrix: (Units=GPa)
#
#
# Indices 1 2 3 4 5 6 
#
# 1 113.1462 31.0816 30.2665 0.0000 12.3952 0.0000
# 2 31.0816 73.8166 23.0090 0.0000 5.3961 0.0000
# 3 30.2665 23.0090 113.9265 0.0000 29.3398 0.0000
# 4 0.0000 0.0000 0.0000 11.8194 0.0000 1.6111
# 5 12.3952 5.3961 29.3398 0.0000 27.9186 0.0000
# 6 0.0000 0.0000 0.0000 1.6111 0.0000 15.0769
#
#
#
# Elastic Compliance Matrix: (Units=1/GPa)
#
#
# Indices 1 2 3 4 5 6 
#
# 1 0.010530 -0.003820 -0.001388 0.000000 -0.002478 0.000000
# 2 -0.003820 0.015846 -0.002514 0.000000 0.001275 0.000000
# 3 -0.001388 -0.002514 0.012847 0.000000 -0.012399 0.000000
# 4 0.000000 0.000000 0.000000 0.085857 0.000000 -0.009175
# 5 -0.002478 0.001275 -0.012399 0.000000 0.049703 0.000000
# 6 0.000000 0.000000 0.000000 -0.009175 0.000000 0.067307
#
#
# Mechanical properties :
#
#
# Convention : Reuss Voigt Hill
#
# Bulk Modulus (GPa) = 42.05216 52.17814 47.11515
# Shear Modulus (GPa) = 18.83520 25.39846 22.11683
#
# Velocity S-wave (km/s) = 3.27483 3.80284 3.54867
# Velocity P-wave (km/s) = 6.18412 6.99941 6.60436
#
# Compressibility (1/GPa) = 0.02377999
#
# Stress axis : x y z
#
# Youngs Moduli (GPa) = 94.96431 63.10746 77.83836
#
# Poissons Ratio (x) = 0.24108 0.10802
# Poissons Ratio (y) = 0.36278 0.19567
# Poissons Ratio (z) = 0.13178 0.15864
#
# Static dielectric constant tensor:
#      x y z
#    x 1.756730 0.000000 -0.017650 
#    y 0.000000 1.576500 0.000000 
#    z -0.017650 0.000000 1.714640 
# 
# From -- ./inp_files/90456.got.cif
#   From: 2010.05.17/outbox.cif.g08.bks.cpg/sg12_46_cif.got.tgz:90456.got - 2010.06.03 13:09:07.
