data_PCOD9190169
_publ_section_title
;
Structure prediction by ZEFSAII (Michael W. Deem and Ramdas Pophale) SiO2 
 PCOD9190169
Probable space group: C 2/M
;
_chemical_formula_sum "Si O2"
_cell_formula_units_Z 58
_cell_length_a 18.696213
_cell_length_b 19.841733
_cell_length_c 8.181422
_cell_angle_alpha 90.000000
_cell_angle_beta 115.271783
_cell_angle_gamma 90.000000
_cell_volume 2744.550120
_symmetry_space_group_name_H-M "C 2/M"
_symmetry_group_IT_number 12
_symmetry_cell_setting 'monoclinic'
loop_
_space_group_symop_operation_xyz
x,y,z
-x,y,-z
-x,-y,-z
x,-y,z
1/2+x,1/2+y,z
1/2-x,1/2+y,-z
1/2-x,1/2-y,-z
1/2+x,1/2-y,z
loop_
_atom_site_type_symbol
_atom_site_label
_atom_site_fract_x
_atom_site_fract_y
_atom_site_fract_z
Si Si1 0.534031 0.619993 0.803423
Si Si2 0.893030 0.080470 0.478178
Si Si3 0.000000 0.000000 0.000000
Si Si4 0.589512 0.919824 0.525000
Si Si5 0.714767 0.829684 0.840940
Si Si6 0.133319 0.758993 0.034776
Si Si7 0.586309 0.878051 0.147036
Si Si8 0.754365 0.423853 0.842426
O O1 0.440957 0.620514 0.662155
O O2 0.574001 0.601000 0.668249
O O3 0.544505 0.558838 0.936709
O O4 0.568738 0.686621 0.917902
O O5 0.799978 0.092933 0.367239
O O6 0.907123 0.000000 0.522206
O O7 0.500000 0.906662 0.500000
O O8 0.655263 0.877216 0.685430
O O9 0.593057 0.897099 0.341352
O O10 0.604359 0.000000 0.555720
O O11 0.786024 0.792590 0.817271
O O12 0.662844 0.777153 0.895561
O O13 0.759489 0.874479 0.021151
O O14 0.101139 0.700646 0.120795
O O15 0.654497 0.916697 0.115255
O O16 0.500000 0.896961 0.000000
O O17 0.734435 0.500000 0.868710
#
# Coordination Sequence:
#
# PCOD9190169 Si02
#       8
#     8   8   2   8   8   8   8   8
#     4  11  21  41  62  95 131 185 222 271 323 380
#     4  10  19  40  66  94 131 173 226 268 326 394
#     4  12  24  38  60  96 144 178 232 280 312 374
#     4  11  24  45  72  99 129 170 223 287 345 397
#     4  10  21  43  65  99 130 168 225 273 330 406
#     4  10  23  43  66  94 135 182 218 265 338 399
#     4  11  25  46  65  96 134 171 224 273 337 417
#     4  10  20  38  70 100 129 172 217 278 337 391
#
# _framework density 21.13279
#
# number of rings (size 3 to 8) (size 9 to 14) (size 15 to 20)
#    0.000    1.517    2.759    2.897    0.966    2.759 
#   11.172    0.000    0.000    0.000    0.000    0.000 
#    0.000    0.000    0.000    0.000    0.000    0.000 
#
# Total GULP energy -161773.977514 kJ/mol
# GULP energy per Si atom -5578.413018 kJ/mol
# Density = 2.108469 g / cm^3
# Si number density = 21.132790 Si / 1000 Ang^3
#
#
#
# Elastic Constant Matrix: (Units=GPa)
#
#
# Indices 1 2 3 4 5 6 
#
# 1 43.2297 -2.0698 9.8554 0.0000 21.5515 0.0000
# 2 -2.0698 90.1276 33.7644 0.0000 18.1044 0.0000
# 3 9.8554 33.7644 70.3374 0.0000 29.8222 0.0000
# 4 0.0000 0.0000 0.0000 -58.5638 0.0000 36.0753
# 5 21.5515 18.1044 29.8222 0.0000 43.5284 0.0000
# 6 0.0000 0.0000 0.0000 36.0753 0.0000 20.0079
#
#
#
# Elastic Compliance Matrix: (Units=1/GPa)
#
#
# Indices 1 2 3 4 5 6 
#
# 1 0.032268 0.003924 0.001495 0.000000 -0.018633 0.000000
# 2 0.003924 0.014091 -0.005645 0.000000 -0.003936 0.000000
# 3 0.001495 -0.005645 0.022601 0.000000 -0.013877 0.000000
# 4 0.000000 0.000000 0.000000 -0.008090 0.000000 0.014587
# 5 -0.018633 -0.003936 -0.013877 0.000000 0.043343 0.000000
# 6 0.000000 0.000000 0.000000 0.014587 0.000000 0.023680
#
#
# Mechanical properties :
#
#
# Convention : Reuss Voigt Hill
#
# Bulk Modulus (GPa) = 14.59678 31.86610 23.23144
# Shear Modulus (GPa) = 33.07270 11.80413 22.43842
#
# Velocity S-wave (km/s) = 3.96029 2.36597 3.26203
# Velocity P-wave (km/s) = 5.27580 4.75137 5.02044
#
# Compressibility (1/GPa) = 0.06850824
#
# Stress axis : x y z
#
# Youngs Moduli (GPa) = 30.99010 70.96756 44.24533
#
# Poissons Ratio (x) = -0.27846 -0.06616
# Poissons Ratio (y) = -0.12160 0.24977
# Poissons Ratio (z) = -0.04634 0.40063
#
# Static dielectric constant tensor:
#      x y z
#    x 1.875610 0.000000 0.020020 
#    y 0.000000 1.749430 0.000000 
#    z 0.020020 0.000000 1.767600 
# 
# From -- ./inp_files/88459.got.cif
#   From: 2010.05.17/outbox.cif.g08.bks.cpg/sg12_45_cif.got.tgz:88459.got - 2010.06.03 13:09:07.
