data_PCOD9190155
_publ_section_title
;
Structure prediction by ZEFSAII (Michael W. Deem and Ramdas Pophale) SiO2 
 PCOD9190155
Probable space group: C 2/M
;
_chemical_formula_sum "Si O2"
_cell_formula_units_Z 40
_cell_length_a 17.234722
_cell_length_b 14.775063
_cell_length_c 22.003847
_cell_angle_alpha 90.000000
_cell_angle_beta 158.595602
_cell_angle_gamma 90.000000
_cell_volume 2044.859751
_symmetry_space_group_name_H-M "C 2/M"
_symmetry_group_IT_number 12
_symmetry_cell_setting 'monoclinic'
loop_
_space_group_symop_operation_xyz
x,y,z
-x,y,-z
-x,-y,-z
x,-y,z
1/2+x,1/2+y,z
1/2-x,1/2+y,-z
1/2-x,1/2-y,-z
1/2+x,1/2-y,z
loop_
_atom_site_type_symbol
_atom_site_label
_atom_site_fract_x
_atom_site_fract_y
_atom_site_fract_z
Si Si1 0.517709 0.352487 0.907992
Si Si2 0.506765 0.147144 0.935006
Si Si3 0.156182 0.000000 0.450621
Si Si4 0.830579 0.000000 0.325069
Si Si5 0.865431 0.500000 0.201573
Si Si6 0.546591 0.600230 0.798772
Si Si7 0.666604 0.000000 0.677729
O O1 0.499929 0.254884 0.924885
O O2 0.509449 0.336549 0.828980
O O3 0.316552 0.412903 0.779402
O O4 0.724941 0.411919 0.079305
O O5 0.312546 0.088879 0.768707
O O6 0.500000 0.120090 0.000000
O O7 0.725230 0.117696 0.063257
O O8 0.394862 0.000000 0.650141
O O9 0.116409 0.086049 0.375969
O O10 0.964609 0.000000 0.359555
O O11 0.000000 0.000000 0.500000
O O12 0.904247 0.500000 0.303272
O O13 0.546321 0.500000 0.828138
O O14 0.500000 0.000000 0.500000
#
# Coordination Sequence:
#
# PCOD9190155 Si02
#       7
#     8   8   4   4   4   8   4
#     4  11  23  38  67  96 124 161 214 257 314 371
#     4  12  22  43  66  91 126 168 213 256 311 377
#     4  10  21  41  66  90 131 168 207 252 325 365
#     4  12  26  41  67  92 125 168 212 270 305 364
#     4  11  21  39  62  98 128 162 204 265 306 375
#     4  10  19  40  65  90 122 175 202 250 320 370
#     4  11  21  40  63  87 130 169 204 255 317 375
#
# _framework density 19.561245
#
# number of rings (size 3 to 8) (size 9 to 14) (size 15 to 20)
#    0.600    0.400    5.000    4.500    2.800    0.800 
#    0.000    3.000    0.000    0.000    0.000    0.000 
#    0.000    0.000    0.000    0.000    0.000    0.000 
#
# Total GULP energy -111471.532643 kJ/mol
# GULP energy per Si atom -5573.576632 kJ/mol
# Density = 1.951672 g / cm^3
# Si number density = 19.561245 Si / 1000 Ang^3
#
#
#
# Elastic Constant Matrix: (Units=GPa)
#
#
# Indices 1 2 3 4 5 6 
#
# 1 57.9659 -9.1052 -8.8217 0.0096 3.7198 -0.0015
# 2 -9.1052 76.4749 52.2980 0.0003 -1.3418 0.0031
# 3 -8.8217 52.2980 118.5962 0.0200 2.7271 0.0098
# 4 0.0096 0.0003 0.0200 24.8413 0.0006 -5.9276
# 5 3.7198 -1.3418 2.7271 0.0006 34.4114 0.0027
# 6 -0.0015 0.0031 0.0098 -5.9276 0.0027 24.8691
#
#
#
# Elastic Compliance Matrix: (Units=1/GPa)
#
#
# Indices 1 2 3 4 5 6 
#
# 1 0.017729 0.001640 0.000639 -0.000008 -0.001903 -0.000001
# 2 0.001640 0.018940 -0.008258 0.000006 0.001216 0.000002
# 3 0.000639 -0.008258 0.012152 -0.000011 -0.001354 -0.000006
# 4 -0.000008 0.000006 -0.000011 0.042683 0.000000 0.010174
# 5 -0.001903 0.001216 -0.001354 0.000000 0.029421 -0.000003
# 6 -0.000001 0.000002 -0.000006 0.010174 -0.000003 0.042635
#
#
# Mechanical properties :
#
#
# Convention : Reuss Voigt Hill
#
# Bulk Modulus (GPa) = 27.12693 35.75326 31.44009
# Shear Modulus (GPa) = 26.62329 31.40209 29.01269
#
# Velocity S-wave (km/s) = 3.69321 4.01099 3.85538
# Velocity P-wave (km/s) = 5.66429 6.30619 5.99384
#
# Compressibility (1/GPa) = 0.03686374
#
# Stress axis : x y z
#
# Youngs Moduli (GPa) = 56.40612 52.79780 82.28906
#
# Poissons Ratio (x) = -0.08660 -0.05260
# Poissons Ratio (y) = -0.09252 0.67955
# Poissons Ratio (z) = -0.03605 0.43601
#
# Static dielectric constant tensor:
#      x y z
#    x 1.747420 0.000010 0.017900 
#    y 0.000010 1.689040 0.000010 
#    z 0.017900 0.000010 1.696290 
# 
# From -- ./inp_files/343893.got.cif
#   From: 2010.05.17/outbox.cif.g08.bks.cpg/sg12_172_cif.got.tgz:343893.got - 2010.06.03 13:09:07.
