data_PCOD9190741
_publ_section_title
;
Structure prediction by ZEFSAII (Michael W. Deem and Ramdas Pophale) SiO2 
 PCOD9190741
Probable space group: C 2/M
;
_chemical_formula_sum "Si O2"
_cell_formula_units_Z 56
_cell_length_a 13.197705
_cell_length_b 30.437079
_cell_length_c 11.438516
_cell_angle_alpha 90.000000
_cell_angle_beta 32.698457
_cell_angle_gamma 90.000000
_cell_volume 2482.217585
_symmetry_space_group_name_H-M "C 2/M"
_symmetry_group_IT_number 12
_symmetry_cell_setting 'monoclinic'
loop_
_space_group_symop_operation_xyz
x,y,z
-x,y,-z
-x,-y,-z
x,-y,z
1/2+x,1/2+y,z
1/2-x,1/2+y,-z
1/2-x,1/2-y,-z
1/2+x,1/2-y,z
loop_
_atom_site_type_symbol
_atom_site_label
_atom_site_fract_x
_atom_site_fract_y
_atom_site_fract_z
Si Si1 0.464003 0.409395 0.341546
Si Si2 0.210515 0.777814 0.924248
Si Si3 0.768517 0.139637 0.222686
Si Si4 0.224281 0.605035 0.797086
Si Si5 0.214350 0.704469 0.749768
Si Si6 0.809719 0.952290 0.257267
Si Si7 0.659578 0.315588 0.627875
O O1 0.675611 0.414825 0.185098
O O2 0.326479 0.415365 0.585314
O O3 0.383098 0.437878 0.314228
O O4 0.446697 0.358928 0.316466
O O5 0.280886 0.827488 0.834331
O O6 0.288938 0.746782 0.745423
O O7 0.250000 0.750000 0.000000
O O8 0.986254 0.785422 0.159430
O O9 0.709854 0.089282 0.292023
O O10 0.708626 0.164418 0.399846
O O11 0.000000 0.138118 0.000000
O O12 0.279039 0.657002 0.736123
O O13 0.000000 0.601152 0.000000
O O14 0.250199 0.704634 0.576093
O O15 0.000000 0.704602 0.000000
O O16 0.714564 0.000000 0.353059
O O17 0.000000 0.956953 0.000000
#
# Coordination Sequence:
#
# PCOD9190741 Si02
#       7
#     8   8   8   8   8   8   8
#     4   9  17  33  58  82 111 151 190 237 296 348
#     4  11  21  30  45  72 105 143 183 226 278 338
#     4   8  16  31  50  73 102 138 179 223 279 337
#     4   9  18  33  54  82 115 152 193 236 284 345
#     4  10  20  32  48  70  99 142 191 226 263 324
#     4   9  17  31  56  87 111 139 189 244 292 350
#     4   9  18  34  51  69 101 144 185 228 277 324
#
# _framework density 22.560472000000001
#
# number of rings (size 3 to 8) (size 9 to 14) (size 15 to 20)
#    0.000    2.714    0.000    3.000    0.000    4.000 
#    0.000    1.429    0.000    4.286    0.000    2.000 
#    0.000    0.000    0.000    0.000    0.000    1.571 
#
# Total GULP energy -155988.641149 kJ/mol
# GULP energy per Si atom -5571.022898 kJ/mol
# Density = 2.250912 g / cm^3
# Si number density = 22.560472 Si / 1000 Ang^3
#
#
#
# Elastic Constant Matrix: (Units=GPa)
#
#
# Indices 1 2 3 4 5 6 
#
# 1 44.0452 48.2200 36.1809 0.0000 12.2834 0.0000
# 2 48.2200 158.5620 31.9030 0.0000 19.5056 0.0000
# 3 36.1809 31.9030 110.8048 0.0000 7.2595 0.0000
# 4 0.0000 0.0000 0.0000 38.0756 0.0000 26.0468
# 5 12.2834 19.5056 7.2595 0.0000 49.5989 0.0000
# 6 0.0000 0.0000 0.0000 26.0468 0.0000 26.1726
#
#
#
# Elastic Compliance Matrix: (Units=1/GPa)
#
#
# Indices 1 2 3 4 5 6 
#
# 1 0.045412 -0.010873 -0.011350 0.000000 -0.005309 0.000000
# 2 -0.010873 0.009587 0.000869 0.000000 -0.001204 0.000000
# 3 -0.011350 0.000869 0.012438 0.000000 0.000649 0.000000
# 4 0.000000 0.000000 0.000000 0.082277 0.000000 -0.081882
# 5 -0.005309 -0.001204 0.000649 0.000000 0.021855 0.000000
# 6 0.000000 0.000000 0.000000 -0.081882 0.000000 0.119696
#
#
# Mechanical properties :
#
#
# Convention : Reuss Voigt Hill
#
# Bulk Modulus (GPa) = 40.43881 60.66889 50.55385
# Shear Modulus (GPa) = 14.61064 35.90996 25.26030
#
# Velocity S-wave (km/s) = 2.54760 3.99397 3.34978
# Velocity P-wave (km/s) = 5.15919 6.94399 6.11704
#
# Compressibility (1/GPa) = 0.02472872
#
# Stress axis : x y z
#
# Youngs Moduli (GPa) = 22.02069 104.31156 80.39784
#
# Poissons Ratio (x) = 1.13422 0.91249
# Poissons Ratio (y) = 0.23944 -0.06988
# Poissons Ratio (z) = 0.24993 -0.09067
#
# Static dielectric constant tensor:
#      x y z
#    x 1.962970 0.000000 -0.036860 
#    y 0.000000 1.908190 0.000000 
#    z -0.036860 0.000000 1.859680 
# 
# From -- ./inp_files/150420.got.cif
#   From: 2010.05.17/outbox.cif.g08.bks.cpg/sg12_76_cif.got.tgz:150420.got - 2010.06.03 13:09:07.
