data_PCOD9190368
_publ_section_title
;
Structure prediction by ZEFSAII (Michael W. Deem and Ramdas Pophale) SiO2 
 PCOD9190368
Probable space group: C 2/M
;
_chemical_formula_sum "Si O2"
_cell_formula_units_Z 64
_cell_length_a 15.988722
_cell_length_b 7.329255
_cell_length_c 21.541359
_cell_angle_alpha 90.000000
_cell_angle_beta 64.508024
_cell_angle_gamma 90.000000
_cell_volume 2278.578186
_symmetry_space_group_name_H-M "C 2/M"
_symmetry_group_IT_number 12
_symmetry_cell_setting 'monoclinic'
loop_
_space_group_symop_operation_xyz
x,y,z
-x,y,-z
-x,-y,-z
x,-y,z
1/2+x,1/2+y,z
1/2-x,1/2+y,-z
1/2-x,1/2-y,-z
1/2+x,1/2-y,z
loop_
_atom_site_type_symbol
_atom_site_label
_atom_site_fract_x
_atom_site_fract_y
_atom_site_fract_z
Si Si1 0.384617 0.219966 0.419336
Si Si2 0.401418 0.711141 0.548543
Si Si3 0.374660 0.776932 0.916603
Si Si4 0.104196 0.281705 0.957497
Si Si5 0.727093 0.777304 0.668195
Si Si6 0.944391 0.717152 0.205833
Si Si7 0.062070 0.283238 0.296790
Si Si8 0.268680 0.783671 0.827815
O O1 0.352386 0.285805 0.496506
O O2 0.325408 0.275561 0.378744
O O3 0.490482 0.285020 0.371495
O O4 0.384269 0.000000 0.420423
O O5 0.500000 0.798972 0.500000
O O6 0.415603 0.500000 0.559149
O O7 0.331805 0.787863 0.622444
O O8 0.481029 0.719348 0.868389
O O9 0.314484 0.713480 0.877633
O O10 0.373738 0.000000 0.915546
O O11 0.347018 0.716469 0.994265
O O12 0.100026 0.500000 0.960910
O O13 0.160695 0.242648 0.876954
O O14 0.000000 0.214836 0.000000
O O15 0.658800 0.711806 0.744903
O O16 0.728204 0.000000 0.669827
O O17 0.933297 0.500000 0.199212
O O18 0.003308 0.739408 0.251282
O O19 0.068278 0.500000 0.304228
O O20 0.164972 0.208994 0.248069
O O21 0.282355 0.000000 0.821439
#
# Coordination Sequence:
#
# PCOD9190368 Si02
#       8
#     8   8   8   8   8   8   8   8
#     4   9  16  29  50  69  83 107 147 188 221 257
#     4  10  20  31  41  61  96 126 145 174 216 259
#     4   8  14  26  45  66  85 109 145 186 222 256
#     4  10  20  31  41  61  96 126 145 174 216 259
#     4   8  14  26  45  66  85 109 145 186 222 256
#     4   7  10  20  41  65  83 103 140 185 220 254
#     4   7  12  24  44  69  87  99 132 189 232 252
#     4   9  16  29  50  69  83 107 147 188 221 257
#
# _framework density 28.087692000000001
#
# number of rings (size 3 to 8) (size 9 to 14) (size 15 to 20)
#    0.000    3.500    0.000    3.750    0.000    0.500 
#    0.000    1.875    0.000    3.000    0.000    2.625 
#    0.000    0.000    0.000    0.000    0.000    0.000 
#
# Total GULP energy -178899.890700 kJ/mol
# GULP energy per Si atom -5590.621584 kJ/mol
# Density = 2.802376 g / cm^3
# Si number density = 28.087692 Si / 1000 Ang^3
#
#
#
# Elastic Constant Matrix: (Units=GPa)
#
#
# Indices 1 2 3 4 5 6 
#
# 1 85.0539 2.8615 41.8273 -0.0001 -25.8541 -0.0001
# 2 2.8615 120.2446 4.4168 -0.0001 1.3570 -0.0001
# 3 41.8273 4.4168 268.5146 0.0000 -23.5684 0.0000
# 4 -0.0001 -0.0001 0.0000 13.2022 0.0000 4.7350
# 5 -25.8541 1.3570 -23.5684 0.0000 67.2919 0.0000
# 6 -0.0001 -0.0001 0.0000 4.7350 0.0000 -5.3101
#
#
#
# Elastic Compliance Matrix: (Units=1/GPa)
#
#
# Indices 1 2 3 4 5 6 
#
# 1 0.014098 -0.000325 -0.001769 0.000000 0.004804 0.000000
# 2 -0.000325 0.008332 -0.000116 0.000000 -0.000333 0.000000
# 3 -0.001769 -0.000116 0.004067 0.000000 0.000747 0.000000
# 4 0.000000 0.000000 0.000000 0.057391 0.000000 0.051175
# 5 0.004804 -0.000333 0.000747 0.000000 0.016975 0.000000
# 6 0.000000 0.000000 0.000000 0.051175 0.000000 -0.142688
#
#
# Mechanical properties :
#
#
# Convention : Reuss Voigt Hill
#
# Bulk Modulus (GPa) = 45.29291 63.55825 54.42558
# Shear Modulus (GPa) = -166.41355 43.35063 -61.53146
#
# Velocity S-wave (km/s) = -7.70561 3.93288 -4.68556
# Velocity P-wave (km/s) = 7.93776 6.58035 3.13903
#
# Compressibility (1/GPa) = 0.02207851
#
# Stress axis : x y z
#
# Youngs Moduli (GPa) = 70.93012 120.01741 245.86552
#
# Poissons Ratio (x) = 0.03897 0.43498
# Poissons Ratio (y) = 0.02303 0.02845
# Poissons Ratio (z) = 0.12549 0.01389
#
# Static dielectric constant tensor:
#      x y z
#    x 2.335930 0.000000 -0.040960 
#    y 0.000000 2.039480 0.000000 
#    z -0.040960 0.000000 2.154980 
# 
# From -- ./inp_files/363348.got.cif
#   From: 2010.05.17/outbox.cif.g08.bks.cpg/sg12_182_cif.got.tgz:363348.got - 2010.06.03 13:09:07.
