data_PCOD9190024
_publ_section_title
;
Structure prediction by ZEFSAII (Michael W. Deem and Ramdas Pophale) SiO2 
 PCOD9190024
Probable space group: C 2/M
;
_chemical_formula_sum "Si O2"
_cell_formula_units_Z 48
_cell_length_a 10.820235
_cell_length_b 23.367601
_cell_length_c 10.950756
_cell_angle_alpha 90.000000
_cell_angle_beta 59.929247
_cell_angle_gamma 90.000000
_cell_volume 2396.158167
_symmetry_space_group_name_H-M "C 2/M"
_symmetry_group_IT_number 12
_symmetry_cell_setting 'monoclinic'
loop_
_space_group_symop_operation_xyz
x,y,z
-x,y,-z
-x,-y,-z
x,-y,z
1/2+x,1/2+y,z
1/2-x,1/2+y,-z
1/2-x,1/2-y,-z
1/2+x,1/2-y,z
loop_
_atom_site_type_symbol
_atom_site_label
_atom_site_fract_x
_atom_site_fract_y
_atom_site_fract_z
Si Si1 0.914605 0.771055 0.416003
Si Si2 0.306645 0.766238 0.838860
Si Si3 0.678570 0.153990 0.807499
Si Si4 0.295749 0.000000 0.532575
Si Si5 0.634682 0.397124 0.502781
Si Si6 0.146278 0.619499 0.089614
Si Si7 0.409875 0.000000 0.751159
O O1 0.750000 0.750000 0.500000
O O2 0.912336 0.839522 0.405126
O O3 0.000000 0.757257 0.500000
O O4 0.025557 0.746245 0.263442
O O5 0.222796 0.720924 0.795638
O O6 0.288640 0.834905 0.845695
O O7 0.250000 0.750000 0.000000
O O8 0.762051 0.125644 0.654962
O O9 0.513450 0.142057 0.861480
O O10 0.717594 0.125454 0.919895
O O11 0.208081 0.942870 0.550937
O O12 0.343824 0.000000 0.648526
O O13 0.422562 0.000000 0.368345
O O14 0.500000 0.423247 0.500000
O O15 0.133488 0.556532 0.151854
#
# Coordination Sequence:
#
# PCOD9190024 Si02
#       7
#     8   8   8   4   8   8   4
#     4  11  23  38  63  95 132 167 218 268 329 398
#     4  10  21  39  63  97 133 170 210 277 338 391
#     4  10  19  39  63  99 123 164 221 277 324 391
#     4  11  25  41  63  88 132 169 218 263 329 398
#     4  11  21  41  64  92 125 162 222 268 321 387
#     4  10  22  38  67  90 135 165 219 270 330 392
#     4  11  24  44  60  95 129 176 212 265 334 402
#
# _framework density 20.032066
#
# number of rings (size 3 to 8) (size 9 to 14) (size 15 to 20)
#    0.000    1.500    5.000    1.250    0.000    3.333 
#    0.000    0.000    0.000    2.000    0.000    0.000 
#    0.000    0.000    0.000    0.000    0.000    0.000 
#
# Total GULP energy -133844.601241 kJ/mol
# GULP energy per Si atom -5576.858385 kJ/mol
# Density = 1.998647 g / cm^3
# Si number density = 20.032066 Si / 1000 Ang^3
#
#
#
# Elastic Constant Matrix: (Units=GPa)
#
#
# Indices 1 2 3 4 5 6 
#
# 1 65.3026 34.1762 -1.0561 0.0000 3.3581 0.0000
# 2 34.1762 147.2210 40.2063 0.0000 12.8924 0.0000
# 3 -1.0561 40.2063 82.0672 0.0000 2.5385 0.0000
# 4 0.0000 0.0000 0.0000 24.8380 0.0000 4.1967
# 5 3.3581 12.8924 2.5385 0.0000 18.6057 0.0000
# 6 0.0000 0.0000 0.0000 4.1967 0.0000 29.6744
#
#
#
# Elastic Compliance Matrix: (Units=1/GPa)
#
#
# Indices 1 2 3 4 5 6 
#
# 1 0.017906 -0.004851 0.002614 0.000000 -0.000227 0.000000
# 2 -0.004851 0.009634 -0.004622 0.000000 -0.005169 0.000000
# 3 0.002614 -0.004622 0.014460 0.000000 0.000758 0.000000
# 4 0.000000 0.000000 0.000000 0.041246 0.000000 -0.005833
# 5 -0.000227 -0.005169 0.000758 0.000000 0.057266 0.000000
# 6 0.000000 0.000000 0.000000 -0.005833 0.000000 0.034524
#
#
# Mechanical properties :
#
#
# Convention : Reuss Voigt Hill
#
# Bulk Modulus (GPa) = 35.35905 49.02706 42.19305
# Shear Modulus (GPa) = 25.22945 29.37460 27.30203
#
# Velocity S-wave (km/s) = 3.55273 3.83349 3.69577
# Velocity P-wave (km/s) = 5.87526 6.64241 6.27058
#
# Compressibility (1/GPa) = 0.02828130
#
# Stress axis : x y z
#
# Youngs Moduli (GPa) = 55.84762 103.80389 69.15722
#
# Poissons Ratio (x) = 0.50352 -0.18077
# Poissons Ratio (y) = 0.27090 0.31966
# Poissons Ratio (z) = -0.14598 0.47980
#
# Static dielectric constant tensor:
#      x y z
#    x 1.757110 0.000000 -0.016210 
#    y 0.000000 1.711660 0.000000 
#    z -0.016210 0.000000 1.811210 
# 
# From -- ./inp_files/133029.got.cif
#   From: 2010.05.17/outbox.cif.g08.bks.cpg/sg12_67_cif.got.tgz:133029.got - 2010.06.03 13:09:07.
