data_PCOD9190128
_publ_section_title
;
Structure prediction by ZEFSAII (Michael W. Deem and Ramdas Pophale) SiO2 
 PCOD9190128
Probable space group: C 2/M
;
_chemical_formula_sum "Si O2"
_cell_formula_units_Z 64
_cell_length_a 21.234733
_cell_length_b 27.391204
_cell_length_c 12.107040
_cell_angle_alpha 90.000000
_cell_angle_beta 153.423834
_cell_angle_gamma 90.000000
_cell_volume 3150.499094
_symmetry_space_group_name_H-M "C 2/M"
_symmetry_group_IT_number 12
_symmetry_cell_setting 'monoclinic'
loop_
_space_group_symop_operation_xyz
x,y,z
-x,y,-z
-x,-y,-z
x,-y,z
1/2+x,1/2+y,z
1/2-x,1/2+y,-z
1/2-x,1/2-y,-z
1/2+x,1/2-y,z
loop_
_atom_site_type_symbol
_atom_site_label
_atom_site_fract_x
_atom_site_fract_y
_atom_site_fract_z
Si Si1 0.997875 0.642085 0.741329
Si Si2 0.885641 0.555623 0.416146
Si Si3 0.415952 0.239245 0.251269
Si Si4 0.624629 0.401173 0.066754
Si Si5 0.633954 0.289074 0.444581
Si Si6 0.850343 0.626772 0.808866
Si Si7 0.823386 0.942243 0.607482
Si Si8 0.708982 0.694764 0.315089
O O1 0.059643 0.685105 0.761515
O O2 0.943584 0.595662 0.590600
O O3 0.857767 0.667389 0.575520
O O4 0.110280 0.620730 0.002257
O O5 0.866957 0.500000 0.427391
O O6 0.734362 0.579215 0.149119
O O7 0.000000 0.553893 0.500000
O O8 0.500000 0.242257 0.500000
O O9 0.490665 0.276960 0.282833
O O10 0.250000 0.250000 0.000000
O O11 0.670227 0.428491 0.252613
O O12 0.636750 0.344344 0.120671
O O13 0.468225 0.417457 0.793335
O O14 0.717192 0.337903 0.599996
O O15 0.628996 0.290396 0.302450
O O16 0.739370 0.245954 0.651572
O O17 0.805380 0.581382 0.661755
O O18 0.000000 0.647440 0.000000
O O19 0.827247 0.000000 0.601139
#
# Coordination Sequence:
#
# PCOD9190128 Si02
#       8
#     8   8   8   8   8   8   8   8
#     4  10  21  39  62  89 129 160 210 272 316 390
#     4  10  20  37  64  92 117 160 214 266 326 383
#     4  11  24  45  67  94 131 182 226 266 329 398
#     4  10  19  40  61  91 129 158 212 277 332 400
#     4  10  20  39  62  93 126 167 207 267 317 395
#     4  12  22  40  59  91 130 162 211 266 331 401
#     4  11  23  38  60  90 125 168 212 268 342 400
#     4   9  18  38  62  93 119 162 202 259 331 376
#
# _framework density 20.314242
#
# number of rings (size 3 to 8) (size 9 to 14) (size 15 to 20)
#    0.000    1.625    2.500    3.375    0.000    0.750 
#   15.750    1.250    0.000    0.000    0.000    2.625 
#    0.000    0.000    0.000    0.000    0.000    0.000 
#
# Total GULP energy -178471.693743 kJ/mol
# GULP energy per Si atom -5577.240429 kJ/mol
# Density = 2.026801 g / cm^3
# Si number density = 20.314242 Si / 1000 Ang^3
#
#
#
# Elastic Constant Matrix: (Units=GPa)
#
#
# Indices 1 2 3 4 5 6 
#
# 1 97.6927 30.5360 41.1215 0.0000 29.8107 0.0000
# 2 30.5360 128.2296 35.3960 0.0000 8.8319 0.0000
# 3 41.1215 35.3960 85.6118 0.0000 13.3963 0.0000
# 4 0.0000 0.0000 0.0000 21.6001 0.0000 6.0526
# 5 29.8107 8.8319 13.3963 0.0000 36.2495 0.0000
# 6 0.0000 0.0000 0.0000 6.0526 0.0000 23.5462
#
#
#
# Elastic Compliance Matrix: (Units=1/GPa)
#
#
# Indices 1 2 3 4 5 6 
#
# 1 0.016443 -0.001637 -0.005484 0.000000 -0.011096 0.000000
# 2 -0.001637 0.008991 -0.002971 0.000000 0.000254 0.000000
# 3 -0.005484 -0.002971 0.015628 0.000000 -0.000541 0.000000
# 4 0.000000 0.000000 0.000000 0.049889 0.000000 -0.012824
# 5 -0.011096 0.000254 -0.000541 0.000000 0.036850 0.000000
# 6 0.000000 0.000000 0.000000 -0.012824 0.000000 0.045766
#
#
# Mechanical properties :
#
#
# Convention : Reuss Voigt Hill
#
# Bulk Modulus (GPa) = 47.90070 58.40457 53.15264
# Shear Modulus (GPa) = 24.91149 29.91120 27.41135
#
# Velocity S-wave (km/s) = 3.50566 3.84138 3.67736
# Velocity P-wave (km/s) = 6.32592 6.96333 6.65226
#
# Compressibility (1/GPa) = 0.02087652
#
# Stress axis : x y z
#
# Youngs Moduli (GPa) = 60.81788 111.22332 63.98842
#
# Poissons Ratio (x) = 0.18212 0.35094
# Poissons Ratio (y) = 0.09958 0.19008
# Poissons Ratio (z) = 0.33356 0.33039
#
# Static dielectric constant tensor:
#      x y z
#    x 1.798240 0.000000 0.027200 
#    y 0.000000 1.730640 0.000000 
#    z 0.027200 0.000000 1.831420 
# 
# From -- ./inp_files/170611.got.cif
#   From: 2010.05.17/outbox.cif.g08.bks.cpg/sg12_86_cif.got.tgz:170611.got - 2010.06.03 13:09:07.
