data_PCOD9190780
_publ_section_title
;
Structure prediction by ZEFSAII (Michael W. Deem and Ramdas Pophale) SiO2 
 PCOD9190780
Probable space group: C 2/M
;
_chemical_formula_sum "Si O2"
_cell_formula_units_Z 48
_cell_length_a 15.003799
_cell_length_b 7.384857
_cell_length_c 16.710788
_cell_angle_alpha 90.000000
_cell_angle_beta 102.336118
_cell_angle_gamma 90.000000
_cell_volume 1808.819775
_symmetry_space_group_name_H-M "C 2/M"
_symmetry_group_IT_number 12
_symmetry_cell_setting 'monoclinic'
loop_
_space_group_symop_operation_xyz
x,y,z
-x,y,-z
-x,-y,-z
x,-y,z
1/2+x,1/2+y,z
1/2-x,1/2+y,-z
1/2-x,1/2-y,-z
1/2+x,1/2-y,z
loop_
_atom_site_type_symbol
_atom_site_label
_atom_site_fract_x
_atom_site_fract_y
_atom_site_fract_z
Si Si1 0.100670 0.218751 0.681337
Si Si2 0.620006 0.220270 0.196899
Si Si3 0.792097 0.215389 0.140654
Si Si4 0.566352 0.791112 0.446787
Si Si5 0.224908 0.279542 0.377586
Si Si6 0.453826 0.783695 0.071967
O O1 0.146509 0.282265 0.772550
O O2 0.000471 0.289349 0.643351
O O3 0.171683 0.272810 0.623822
O O4 0.097142 0.000000 0.681993
O O5 0.689437 0.276313 0.138812
O O6 0.667435 0.277322 0.287890
O O7 0.519138 0.284162 0.156284
O O8 0.617973 0.000000 0.199552
O O9 0.848575 0.251354 0.071640
O O10 0.788258 0.000000 0.147553
O O11 0.500000 0.703569 0.500000
O O12 0.663963 0.712172 0.440174
O O13 0.581144 0.000000 0.471864
O O14 0.223890 0.500000 0.380301
O O15 0.462306 0.000000 0.070859
O O16 0.500000 0.713956 0.000000
#
# Coordination Sequence:
#
# PCOD9190780 Si02
#       6
#     8   8   8   8   8   8
#     4   9  18  33  52  71  91 122 165 204 238 283
#     4   8  15  30  50  68  91 127 163 194 238 292
#     4   9  18  33  52  71  91 122 165 204 238 283
#     4  10  20  32  48  73 102 130 160 194 236 288
#     4   8  15  30  50  68  91 127 163 194 238 292
#     4  10  20  32  48  73 102 130 160 194 236 288
#
# _framework density 26.536640999999999
#
# number of rings (size 3 to 8) (size 9 to 14) (size 15 to 20)
#    0.000    3.000    0.000    3.000    0.000    4.000 
#    0.000    1.667    0.000    2.000    0.000    0.000 
#    0.000    0.000    0.000    0.000    0.000    0.000 
#
# Total GULP energy -134152.354696 kJ/mol
# GULP energy per Si atom -5589.681446 kJ/mol
# Density = 2.647624 g / cm^3
# Si number density = 26.536641 Si / 1000 Ang^3
#
#
#
# Elastic Constant Matrix: (Units=GPa)
#
#
# Indices 1 2 3 4 5 6 
#
# 1 186.0683 -3.8148 31.2163 0.0000 -33.5567 0.0000
# 2 -3.8148 103.4863 0.4506 0.0000 2.6569 0.0000
# 3 31.2163 0.4506 52.7936 0.0000 -26.1201 0.0000
# 4 0.0000 0.0000 0.0000 7.3771 0.0000 -0.7311
# 5 -33.5567 2.6569 -26.1201 0.0000 54.9237 0.0000
# 6 0.0000 0.0000 0.0000 -0.7311 0.0000 -0.5364
#
#
#
# Elastic Compliance Matrix: (Units=1/GPa)
#
#
# Indices 1 2 3 4 5 6 
#
# 1 0.006261 0.000172 -0.002373 0.000000 0.002688 0.000000
# 2 0.000172 0.009687 -0.000476 0.000000 -0.000590 0.000000
# 3 -0.002373 -0.000476 0.025687 0.000000 0.010789 0.000000
# 4 0.000000 0.000000 0.000000 0.119423 0.000000 -0.162768
# 5 0.002688 -0.000590 0.010789 0.000000 0.025009 0.000000
# 6 0.000000 0.000000 0.000000 -0.162768 0.000000 -1.642437
#
#
# Mechanical properties :
#
#
# Convention : Reuss Voigt Hill
#
# Bulk Modulus (GPa) = 27.56399 44.22804 35.89601
# Shear Modulus (GPa) = -3.47483 33.31929 14.92223
#
# Velocity S-wave (km/s) = -1.14555 3.54728 2.37391
# Velocity P-wave (km/s) = 2.94278 5.78624 4.59024
#
# Compressibility (1/GPa) = 0.03627922
#
# Stress axis : x y z
#
# Youngs Moduli (GPa) = 159.72173 103.23452 38.93008
#
# Poissons Ratio (x) = -0.01777 0.09240
# Poissons Ratio (y) = -0.02749 0.01854
# Poissons Ratio (z) = 0.37910 0.04917
#
# Static dielectric constant tensor:
#      x y z
#    x 2.037210 0.000000 -0.038400 
#    y 0.000000 1.998190 0.000000 
#    z -0.038400 0.000000 2.161820 
# 
# From -- ./inp_files/212638.got.cif
#   From: 2010.05.17/outbox.cif.g08.bks.cpg/sg12_107_cif.got.tgz:212638.got - 2010.06.03 13:09:07.
