data_PCOD9190407
_publ_section_title
;
Structure prediction by ZEFSAII (Michael W. Deem and Ramdas Pophale) SiO2 
 PCOD9190407
Probable space group: C 2/M
;
_chemical_formula_sum "Si O2"
_cell_formula_units_Z 48
_cell_length_a 19.861506
_cell_length_b 7.412683
_cell_length_c 31.410526
_cell_angle_alpha 90.000000
_cell_angle_beta 150.216502
_cell_angle_gamma 90.000000
_cell_volume 2297.089768
_symmetry_space_group_name_H-M "C 2/M"
_symmetry_group_IT_number 12
_symmetry_cell_setting 'monoclinic'
loop_
_space_group_symop_operation_xyz
x,y,z
-x,y,-z
-x,-y,-z
x,-y,z
1/2+x,1/2+y,z
1/2-x,1/2+y,-z
1/2-x,1/2-y,-z
1/2+x,1/2-y,z
loop_
_atom_site_type_symbol
_atom_site_label
_atom_site_fract_x
_atom_site_fract_y
_atom_site_fract_z
Si Si1 0.848109 0.720312 0.287013
Si Si2 0.906023 0.720700 0.224634
Si Si3 0.460476 0.717564 0.862892
Si Si4 0.581364 0.205378 0.583778
Si Si5 0.384252 0.790776 0.729047
Si Si6 0.384702 0.720043 0.970545
O O1 0.849066 0.500000 0.288548
O O2 0.908993 0.776753 0.275449
O O3 0.689663 0.772606 0.203307
O O4 0.921521 0.784956 0.370273
O O5 0.906768 0.500000 0.224360
O O6 0.763015 0.777853 0.125740
O O7 0.029640 0.781194 0.263067
O O8 0.462179 0.500000 0.863161
O O9 0.471704 0.779095 0.820454
O O10 0.570162 0.778311 0.957590
O O11 0.500000 0.290336 0.500000
O O12 0.740326 0.200571 0.659135
O O13 0.529566 0.000000 0.559417
O O14 0.353323 0.000000 0.704167
O O15 0.384244 0.500000 0.970138
O O16 0.500000 0.774608 0.000000
#
# Coordination Sequence:
#
# PCOD9190407 Si02
#       6
#     8   8   8   8   8   8
#     4   8  13  25  46  69  91 117 153 194 231 267
#     4   9  16  26  42  69  99 125 157 197 234 268
#     4   9  16  28  48  70  91 123 167 206 230 257
#     4   9  18  34  56  76  90 112 153 200 237 276
#     4  10  20  31  45  68 101 130 150 184 239 294
#     4   9  14  23  44  72  94 118 166 213 228 249
#
# _framework density 20.896006
#
# number of rings (size 3 to 8) (size 9 to 14) (size 15 to 20)
#    0.000    3.000    1.667    1.500    0.000    1.000 
#    0.000    0.833    0.000    9.500    0.000    0.000 
#    0.000    0.000    0.000    0.000    0.000    0.000 
#
# Total GULP energy -133893.324495 kJ/mol
# GULP energy per Si atom -5578.888521 kJ/mol
# Density = 2.084845 g / cm^3
# Si number density = 20.896006 Si / 1000 Ang^3
#
#
#
# Elastic Constant Matrix: (Units=GPa)
#
#
# Indices 1 2 3 4 5 6 
#
# 1 170.1747 -2.6272 59.2497 -0.0007 -31.5905 0.0009
# 2 -2.6272 68.4463 -2.6765 -0.0015 -1.7325 0.0029
# 3 59.2497 -2.6765 105.0192 -0.0009 -44.2987 0.0001
# 4 -0.0007 -0.0015 -0.0009 -68.4398 0.0002 9.2518
# 5 -31.5905 -1.7325 -44.2987 0.0002 34.1967 -0.0002
# 6 0.0009 0.0029 0.0001 9.2518 -0.0002 5.9209
#
#
#
# Elastic Compliance Matrix: (Units=1/GPa)
#
#
# Indices 1 2 3 4 5 6 
#
# 1 0.007470 0.000257 -0.002848 0.000000 0.003225 -0.000001
# 2 0.000257 0.014747 0.001425 -0.000001 0.002830 -0.000005
# 3 -0.002848 0.001425 0.022236 0.000000 0.026246 0.000000
# 4 0.000000 -0.000001 0.000000 -0.012063 0.000000 0.018850
# 5 0.003225 0.002830 0.026246 0.000000 0.066365 0.000000
# 6 -0.000001 -0.000005 0.000000 0.018850 0.000000 0.139440
#
#
# Mechanical properties :
#
#
# Convention : Reuss Voigt Hill
#
# Bulk Modulus (GPa) = 23.74076 50.17022 36.95549
# Shear Modulus (GPa) = 19.64105 13.64849 16.64477
#
# Velocity S-wave (km/s) = 3.06917 2.55848 2.82539
# Velocity P-wave (km/s) = 4.89345 5.72620 5.32612
#
# Compressibility (1/GPa) = 0.04212166
#
# Stress axis : x y z
#
# Youngs Moduli (GPa) = 133.86018 67.80946 44.97181
#
# Poissons Ratio (x) = -0.01743 0.12807
# Poissons Ratio (y) = -0.03441 -0.06407
# Poissons Ratio (z) = 0.38119 -0.09660
#
# Static dielectric constant tensor:
#      x y z
#    x 1.735890 0.000000 -0.035120 
#    y 0.000000 1.797110 0.000000 
#    z -0.035120 0.000000 1.724250 
# 
# From -- ./inp_files/274117.got.cif
#   From: 2010.05.17/outbox.cif.g08.bks.cpg/sg12_138_cif.got.tgz:274117.got - 2010.06.03 13:09:07.
