data_PCOD9191111
_publ_section_title
;
Structure prediction by ZEFSAII (Michael W. Deem and Ramdas Pophale) SiO2 
 PCOD9191111
Probable space group: C 2/M
;
_chemical_formula_sum "Si O2"
_cell_formula_units_Z 64
_cell_length_a 25.015129
_cell_length_b 8.794089
_cell_length_c 20.711694
_cell_angle_alpha 90.000000
_cell_angle_beta 125.982789
_cell_angle_gamma 90.000000
_cell_volume 3686.902236
_symmetry_space_group_name_H-M "C 2/M"
_symmetry_group_IT_number 12
_symmetry_cell_setting 'monoclinic'
loop_
_space_group_symop_operation_xyz
x,y,z
-x,y,-z
-x,-y,-z
x,-y,z
1/2+x,1/2+y,z
1/2-x,1/2+y,-z
1/2-x,1/2-y,-z
1/2+x,1/2-y,z
loop_
_atom_site_type_symbol
_atom_site_label
_atom_site_fract_x
_atom_site_fract_y
_atom_site_fract_z
Si Si1 0.572374 0.316747 0.526145
Si Si2 0.321397 0.315750 0.789737
Si Si3 0.677229 0.317643 0.710095
Si Si4 0.927511 0.814667 0.972416
Si Si5 0.092755 0.681785 0.763144
Si Si6 0.942100 0.318573 0.621668
Si Si7 0.908974 0.182054 0.731298
Si Si8 0.939186 0.182502 0.125847
O O1 0.500000 0.267659 0.500000
O O2 0.571969 0.500000 0.521789
O O3 0.627554 0.270815 0.617066
O O4 0.583379 0.250103 0.463091
O O5 0.317636 0.500000 0.788062
O O6 0.249622 0.246903 0.748689
O O7 0.371032 0.268068 0.882419
O O8 0.354996 0.270984 0.745663
O O9 0.678621 0.500000 0.713287
O O10 0.646460 0.254837 0.754480
O O11 0.928844 0.000000 0.973122
O O12 0.916633 0.768026 0.038762
O O13 0.000000 0.764923 0.000000
O O14 0.097293 0.500000 0.764003
O O15 0.096270 0.738701 0.839198
O O16 0.019318 0.727471 0.685847
O O17 0.939445 0.500000 0.617496
O O18 0.904822 0.259454 0.658743
O O19 0.982281 0.214890 0.811456
O O20 0.905049 0.000000 0.720378
O O21 0.931361 0.000000 0.125733
#
# Coordination Sequence:
#
# PCOD9191111 Si02
#       8
#     8   8   8   8   8   8   8   8
#     4  10  20  36  57  79 103 136 181 225 265 318
#     4  10  20  35  56  82 112 145 179 219 267 318
#     4  11  23  38  56  78 107 143 180 220 268 324
#     4   9  15  29  55  85 110 137 181 225 260 308
#     4  10  20  34  52  78 111 142 174 217 270 321
#     4  10  20  32  53  83 111 136 170 223 273 313
#     4   9  17  31  53  79 109 144 178 213 259 317
#     4   9  16  29  54  83 108 137 178 223 261 307
#
# _framework density 17.358746
#
# number of rings (size 3 to 8) (size 9 to 14) (size 15 to 20)
#    0.000    2.250    2.500    1.125    0.000    2.750 
#    0.000    1.875    0.000    0.750    0.000    0.000 
#    0.000    0.000    0.000    0.000    0.000    0.000 
#
# Total GULP energy -178555.783164 kJ/mol
# GULP energy per Si atom -5579.868224 kJ/mol
# Density = 1.731924 g / cm^3
# Si number density = 17.358746 Si / 1000 Ang^3
#
#
#
# Elastic Constant Matrix: (Units=GPa)
#
#
# Indices 1 2 3 4 5 6 
#
# 1 167.6707 43.3492 93.4783 0.0000 -16.8979 0.0000
# 2 43.3492 19.7969 32.1541 0.0000 -3.9487 0.0000
# 3 93.4783 32.1541 125.1497 0.0000 -14.4018 0.0000
# 4 0.0000 0.0000 0.0000 11.6163 0.0000 4.3985
# 5 -16.8979 -3.9487 -14.4018 0.0000 31.7499 0.0000
# 6 0.0000 0.0000 0.0000 4.3985 0.0000 24.7291
#
#
#
# Elastic Compliance Matrix: (Units=1/GPa)
#
#
# Indices 1 2 3 4 5 6 
#
# 1 0.015537 -0.025975 -0.004592 0.000000 0.002956 0.000000
# 2 -0.025975 0.130126 -0.014518 0.000000 -0.004226 0.000000
# 3 -0.004592 -0.014518 0.015468 0.000000 0.002767 0.000000
# 4 0.000000 0.000000 0.000000 0.092303 0.000000 -0.016417
# 5 0.002956 -0.004226 0.002767 0.000000 0.033799 0.000000
# 6 0.000000 0.000000 0.000000 -0.016417 0.000000 0.043358
#
#
# Mechanical properties :
#
#
# Convention : Reuss Voigt Hill
#
# Bulk Modulus (GPa) = 14.09166 72.28671 43.18918
# Shear Modulus (GPa) = 11.25079 23.19478 17.22278
#
# Velocity S-wave (km/s) = 2.54861 3.65937 3.15329
# Velocity P-wave (km/s) = 4.09830 7.71932 6.17997
#
# Compressibility (1/GPa) = 0.07096395
#
# Stress axis : x y z
#
# Youngs Moduli (GPa) = 64.36156 7.68487 64.64791
#
# Poissons Ratio (x) = 0.19961 0.29684
# Poissons Ratio (y) = 1.67176 0.93854
# Poissons Ratio (z) = 0.29552 0.11157
#
# Static dielectric constant tensor:
#      x y z
#    x 1.569990 0.000000 -0.006220 
#    y 0.000000 1.580910 0.000000 
#    z -0.006220 0.000000 1.581490 
# 
# From -- ./inp_files/324175.got.cif
#   From: 2010.05.17/outbox.cif.g08.bks.cpg/sg12_163_cif.got.tgz:324175.got - 2010.06.03 13:09:07.
