data_PCOD9191085
_publ_section_title
;
Structure prediction by ZEFSAII (Michael W. Deem and Ramdas Pophale) SiO2 
 PCOD9191085
Probable space group: C 2/M
;
_chemical_formula_sum "Si O2"
_cell_formula_units_Z 48
_cell_length_a 11.412028
_cell_length_b 22.654784
_cell_length_c 15.873191
_cell_angle_alpha 90.000000
_cell_angle_beta 145.424485
_cell_angle_gamma 90.000000
_cell_volume 2328.877726
_symmetry_space_group_name_H-M "C 2/M"
_symmetry_group_IT_number 12
_symmetry_cell_setting 'monoclinic'
loop_
_space_group_symop_operation_xyz
x,y,z
-x,y,-z
-x,-y,-z
x,-y,z
1/2+x,1/2+y,z
1/2-x,1/2+y,-z
1/2-x,1/2-y,-z
1/2+x,1/2-y,z
loop_
_atom_site_type_symbol
_atom_site_label
_atom_site_fract_x
_atom_site_fract_y
_atom_site_fract_z
Si Si1 0.380628 0.434929 0.148346
Si Si2 0.599088 0.405114 0.640472
Si Si3 0.979957 0.651824 0.090057
Si Si4 0.767722 0.626057 0.341539
Si Si5 0.078147 0.797759 0.379873
Si Si6 0.332481 0.731405 0.834384
O O1 0.293185 0.500000 0.078557
O O2 0.401570 0.430900 0.263874
O O3 0.604578 0.426633 0.238709
O O4 0.236940 0.381689 0.027612
O O5 0.500000 0.435432 0.500000
O O6 0.468984 0.344434 0.574517
O O7 0.837259 0.388506 0.765601
O O8 0.042916 0.719688 0.149118
O O9 0.000000 0.651972 0.000000
O O10 0.665933 0.664124 0.356197
O O11 0.764602 0.674440 0.266266
O O12 0.000000 0.607997 0.500000
O O13 0.250000 0.750000 0.500000
O O14 0.857089 0.766834 0.235609
O O15 0.500000 0.710870 0.000000
#
# Coordination Sequence:
#
# PCOD9191085 Si02
#       6
#     8   8   8   8   8   8
#     4  10  22  40  57  78 111 154 200 234 272 336
#     4   9  19  33  55  87 113 137 188 241 283 329
#     4   8  17  33  54  81 111 141 179 224 285 338
#     4  11  22  37  57  84 114 153 190 223 288 342
#     4  10  20  32  52  82 117 153 178 218 278 351
#     4  10  20  35  56  87 118 143 183 235 283 343
#
# _framework density 20.610786000000001
#
# number of rings (size 3 to 8) (size 9 to 14) (size 15 to 20)
#    0.000    2.333    1.667    3.000    4.667    6.333 
#    0.000    0.000    0.000    0.500    0.000    0.000 
#    0.000    0.000    0.000    0.000    0.000    0.000 
#
# Total GULP energy -133619.029389 kJ/mol
# GULP energy per Si atom -5567.459558 kJ/mol
# Density = 2.056387 g / cm^3
# Si number density = 20.610786 Si / 1000 Ang^3
#
#
#
# Elastic Constant Matrix: (Units=GPa)
#
#
# Indices 1 2 3 4 5 6 
#
# 1 32.6711 -8.9932 13.9488 0.0001 16.6678 0.0000
# 2 -8.9932 57.5146 18.8350 0.0000 12.7830 0.0000
# 3 13.9488 18.8350 115.6251 0.0003 27.4764 0.0000
# 4 0.0001 0.0000 0.0003 -2.9682 0.0001 -2.2950
# 5 16.6678 12.7830 27.4764 0.0001 28.3253 -0.0001
# 6 0.0000 0.0000 0.0000 -2.2950 -0.0001 0.9260
#
#
#
# Elastic Compliance Matrix: (Units=1/GPa)
#
#
# Indices 1 2 3 4 5 6 
#
# 1 0.056845 0.018129 0.000107 0.000000 -0.041735 0.000000
# 2 0.018129 0.025283 -0.001376 0.000000 -0.020743 0.000000
# 3 0.000107 -0.001376 0.011342 0.000001 -0.010444 0.000000
# 4 0.000000 0.000000 0.000001 -0.115522 -0.000001 -0.286320
# 5 -0.041735 -0.020743 -0.010444 -0.000001 0.079355 0.000001
# 6 0.000000 0.000000 0.000000 -0.286320 0.000001 0.370297
#
#
# Mechanical properties :
#
#
# Convention : Reuss Voigt Hill
#
# Bulk Modulus (GPa) = 7.86230 28.15466 18.00848
# Shear Modulus (GPa) = 11.46064 17.39130 14.42597
#
# Velocity S-wave (km/s) = 2.36063 2.90797 2.64848
# Velocity P-wave (km/s) = 3.35455 4.99648 4.25546
#
# Compressibility (1/GPa) = 0.12718931
#
# Stress axis : x y z
#
# Youngs Moduli (GPa) = 17.59169 39.55281 88.17020
#
# Poissons Ratio (x) = -0.71707 -0.00942
# Poissons Ratio (y) = -0.31893 0.12135
# Poissons Ratio (z) = -0.00188 0.05444
#
# Static dielectric constant tensor:
#      x y z
#    x 1.803530 0.000000 -0.012230 
#    y 0.000000 1.812500 0.000000 
#    z -0.012230 0.000000 1.794760 
# 
# From -- ./inp_files/135555.got.cif
#   From: 2010.05.17/outbox.cif.g08.bks.cpg/sg12_68_cif.got.tgz:135555.got - 2010.06.03 13:09:07.
