data_PCOD9191740
_publ_section_title
;
Structure prediction by ZEFSAII (Michael W. Deem and Ramdas Pophale) SiO2 
 PCOD9191740
Probable space group: C 2/M
;
_chemical_formula_sum "Si O2"
_cell_formula_units_Z 64
_cell_length_a 32.695738
_cell_length_b 8.719787
_cell_length_c 26.442768
_cell_angle_alpha 90.000000
_cell_angle_beta 150.724662
_cell_angle_gamma 90.000000
_cell_volume 3686.540813
_symmetry_space_group_name_H-M "C 2/M"
_symmetry_group_IT_number 12
_symmetry_cell_setting 'monoclinic'
loop_
_space_group_symop_operation_xyz
x,y,z
-x,y,-z
-x,-y,-z
x,-y,z
1/2+x,1/2+y,z
1/2-x,1/2+y,-z
1/2-x,1/2-y,-z
1/2+x,1/2-y,z
loop_
_atom_site_type_symbol
_atom_site_label
_atom_site_fract_x
_atom_site_fract_y
_atom_site_fract_z
Si Si1 0.136076 0.183455 0.921242
Si Si2 0.448202 0.684099 0.894349
Si Si3 0.511561 0.184058 0.170204
Si Si4 0.885991 0.685584 0.423124
Si Si5 0.732477 0.816076 0.320304
Si Si6 0.327782 0.185305 0.147601
Si Si7 0.075317 0.686313 0.648133
Si Si8 0.800806 0.315869 0.601600
O O1 0.132459 0.243866 0.859925
O O2 0.064553 0.255521 0.878595
O O3 0.128801 0.000000 0.914049
O O4 0.229306 0.224912 0.041376
O O5 0.446046 0.500000 0.889143
O O6 0.488911 0.749335 0.886977
O O7 0.353864 0.747528 0.794132
O O8 0.500000 0.728673 0.000000
O O9 0.601345 0.229937 0.291180
O O10 0.509786 0.000000 0.165560
O O11 0.880259 0.500000 0.419032
O O12 0.811396 0.756905 0.374394
O O13 0.885475 0.732426 0.363446
O O14 0.977697 0.730549 0.542833
O O15 0.736421 0.770134 0.383842
O O16 0.727583 0.000000 0.313064
O O17 0.374093 0.238088 0.248314
O O18 0.333846 0.000000 0.150900
O O19 0.076508 0.500000 0.649530
O O20 0.798052 0.500000 0.595753
O O21 0.750000 0.250000 0.500000
#
# Coordination Sequence:
#
# PCOD9191740 Si02
#       8
#     8   8   8   8   8   8   8   8
#     4  10  20  33  51  76 104 135 173 215 255 300
#     4  10  21  37  57  80 104 133 173 216 255 301
#     4  10  21  37  55  77 107 139 171 210 259 311
#     4   9  17  32  54  77 100 131 172 213 255 304
#     4  10  21  36  52  76 109 139 169 209 260 312
#     4   9  18  34  53  73 101 135 171 213 258 303
#     4   8  16  32  53  75 100 132 171 214 257 303
#     4   9  20  36  53  74 101 134 171 212 256 304
#
# _framework density 17.360448999999999
#
# number of rings (size 3 to 8) (size 9 to 14) (size 15 to 20)
#    0.000    2.625    0.000    3.000    0.000    6.500 
#    0.000    8.750    0.000    0.000    0.000    0.000 
#    0.000    0.000    0.000    0.000    0.000    0.000 
#
# Total GULP energy -178500.142359 kJ/mol
# GULP energy per Si atom -5578.129449 kJ/mol
# Density = 1.732094 g / cm^3
# Si number density = 17.360449 Si / 1000 Ang^3
#
#
#
# Elastic Constant Matrix: (Units=GPa)
#
#
# Indices 1 2 3 4 5 6 
#
# 1 182.7568 49.5099 126.0552 0.0000 10.4307 0.0000
# 2 49.5099 36.3878 44.1603 0.0000 -0.9942 0.0000
# 3 126.0552 44.1603 152.3513 0.0000 -25.6355 0.0000
# 4 0.0000 0.0000 0.0000 22.6198 0.0000 -0.0546
# 5 10.4307 -0.9942 -25.6355 0.0000 30.0697 0.0000
# 6 0.0000 0.0000 0.0000 -0.0546 0.0000 34.3994
#
#
#
# Elastic Compliance Matrix: (Units=1/GPa)
#
#
# Indices 1 2 3 4 5 6 
#
# 1 0.026028 -0.005998 -0.024925 0.000000 -0.030477 0.000000
# 2 -0.005998 0.046880 -0.009358 0.000000 -0.004347 0.000000
# 3 -0.024925 -0.009358 0.036544 0.000000 0.039492 0.000000
# 4 0.000000 0.000000 0.000000 0.044209 0.000000 0.000070
# 5 -0.030477 -0.004347 0.039492 0.000000 0.077353 0.000000
# 6 0.000000 0.000000 0.000000 0.000070 0.000000 0.029070
#
#
# Mechanical properties :
#
#
# Convention : Reuss Voigt Hill
#
# Bulk Modulus (GPa) = 34.61238 90.10518 62.35878
# Shear Modulus (GPa) = 14.27448 27.53582 20.90515
#
# Velocity S-wave (km/s) = 2.87059 3.98694 3.47390
# Velocity P-wave (km/s) = 5.56487 8.55625 7.21725
#
# Compressibility (1/GPa) = 0.02889140
#
# Stress axis : x y z
#
# Youngs Moduli (GPa) = 38.42029 21.33116 27.36398
#
# Poissons Ratio (x) = 0.12793 0.68205
# Poissons Ratio (y) = 0.23043 0.25606
# Poissons Ratio (z) = 0.95763 0.19961
#
# Static dielectric constant tensor:
#      x y z
#    x 1.561760 0.000000 -0.006320 
#    y 0.000000 1.586770 0.000000 
#    z -0.006320 0.000000 1.579500 
# 
# From -- ./inp_files/353559.got.cif
#   From: 2010.05.17/outbox.cif.g08.bks.cpg/sg12_177_cif.got.tgz:353559.got - 2010.06.03 13:09:07.
