data_PCOD9191098
_publ_section_title
;
Structure prediction by ZEFSAII (Michael W. Deem and Ramdas Pophale) SiO2 
 PCOD9191098
Probable space group: C 2/M
;
_chemical_formula_sum "Si O2"
_cell_formula_units_Z 64
_cell_length_a 11.610078
_cell_length_b 17.567566
_cell_length_c 16.901027
_cell_angle_alpha 90.000000
_cell_angle_beta 59.672580
_cell_angle_gamma 90.000000
_cell_volume 2975.418880
_symmetry_space_group_name_H-M "C 2/M"
_symmetry_group_IT_number 12
_symmetry_cell_setting 'monoclinic'
loop_
_space_group_symop_operation_xyz
x,y,z
-x,y,-z
-x,-y,-z
x,-y,z
1/2+x,1/2+y,z
1/2-x,1/2+y,-z
1/2-x,1/2-y,-z
1/2+x,1/2-y,z
loop_
_atom_site_type_symbol
_atom_site_label
_atom_site_fract_x
_atom_site_fract_y
_atom_site_fract_z
Si Si1 0.265318 0.409270 0.261470
Si Si2 0.992494 0.409053 0.909354
Si Si3 0.011264 0.592767 0.586809
Si Si4 0.840578 0.276602 0.895663
Si Si5 0.701690 0.592782 0.447244
Si Si6 0.562725 0.407318 0.651573
Si Si7 0.221362 0.907457 0.260911
Si Si8 0.412376 0.701874 0.110575
O O1 0.263840 0.500000 0.259018
O O2 0.112056 0.382218 0.315889
O O3 0.324455 0.384681 0.325996
O O4 0.364411 0.378242 0.161554
O O5 0.973794 0.500000 0.911263
O O6 0.878943 0.364802 0.900285
O O7 0.136552 0.387541 0.823928
O O8 0.000000 0.387315 0.000000
O O9 0.008117 0.500000 0.586483
O O10 0.000000 0.618050 0.500000
O O11 0.153341 0.614204 0.571066
O O12 0.735949 0.264091 0.859892
O O13 0.986052 0.237814 0.859658
O O14 0.750000 0.250000 0.000000
O O15 0.690841 0.500000 0.447680
O O16 0.597055 0.617846 0.550387
O O17 0.700047 0.619416 0.358007
O O18 0.565322 0.500000 0.648290
O O19 0.416551 0.384397 0.732624
O O20 0.223366 0.000000 0.260747
O O21 0.500000 0.698586 0.000000
#
# Coordination Sequence:
#
# PCOD9191098 Si02
#       8
#     8   8   8   8   8   8   8   8
#     4  10  20  32  52  86 122 151 188 237 292 351
#     4  10  21  37  59  89 122 157 193 239 295 346
#     4   9  15  26  45  71 108 151 189 231 284 340
#     4  10  22  43  65  85 113 154 203 244 284 345
#     4   9  15  25  43  68 106 152 191 232 280 334
#     4   9  16  28  45  71 113 156 188 230 289 345
#     4   9  18  28  44  76 113 149 190 233 281 341
#     4  10  23  41  63  85 112 155 197 241 291 345
#
# _framework density 21.509577
#
# number of rings (size 3 to 8) (size 9 to 14) (size 15 to 20)
#    0.000    2.500    1.250    1.500    1.750    5.250 
#    0.000    4.375    0.000    0.000    0.000    5.250 
#    0.000    0.000    0.000    0.000    0.000    0.000 
#
# Total GULP energy -178230.858676 kJ/mol
# GULP energy per Si atom -5569.714334 kJ/mol
# Density = 2.146062 g / cm^3
# Si number density = 21.509577 Si / 1000 Ang^3
#
#
#
# Elastic Constant Matrix: (Units=GPa)
#
#
# Indices 1 2 3 4 5 6 
#
# 1 127.0258 23.7950 34.9588 0.0000 -25.9679 0.0000
# 2 23.7950 26.3988 25.7778 0.0000 -9.4105 0.0000
# 3 34.9588 25.7778 85.3927 0.0000 -27.4165 0.0000
# 4 0.0000 0.0000 0.0000 1.9625 0.0000 -8.7993
# 5 -25.9679 -9.4105 -27.4165 0.0000 33.5632 0.0000
# 6 0.0000 0.0000 0.0000 -8.7993 0.0000 21.9704
#
#
#
# Elastic Compliance Matrix: (Units=1/GPa)
#
#
# Indices 1 2 3 4 5 6 
#
# 1 0.010479 -0.007093 -0.000250 0.000000 0.005915 0.000000
# 2 -0.007093 0.058665 -0.015299 0.000000 -0.001536 0.000000
# 3 -0.000250 -0.015299 0.020322 0.000000 0.012117 0.000000
# 4 0.000000 0.000000 0.000000 -0.640352 0.000000 -0.256465
# 5 0.005915 -0.001536 0.012117 0.000000 0.043838 0.000000
# 6 0.000000 0.000000 0.000000 -0.256465 0.000000 -0.057200
#
#
# Mechanical properties :
#
#
# Convention : Reuss Voigt Hill
#
# Bulk Modulus (GPa) = 22.63345 45.32007 33.97676
# Shear Modulus (GPa) = -9.91598 21.78493 5.93447
#
# Velocity S-wave (km/s) = -2.14943 3.18591 1.66282
# Velocity P-wave (km/s) = 2.09411 5.88632 4.41781
#
# Compressibility (1/GPa) = 0.04418240
#
# Stress axis : x y z
#
# Youngs Moduli (GPa) = 95.42863 17.04580 49.20871
#
# Poissons Ratio (x) = 0.12091 0.01229
# Poissons Ratio (y) = 0.67689 0.75285
# Poissons Ratio (z) = 0.02383 0.26078
#
# Static dielectric constant tensor:
#      x y z
#    x 1.815310 0.000000 0.014800 
#    y 0.000000 1.796440 0.000000 
#    z 0.014800 0.000000 1.760230 
# 
# From -- ./inp_files/265047.got.cif
#   From: 2010.05.17/outbox.cif.g08.bks.cpg/sg12_133_cif.got.tgz:265047.got - 2010.06.03 13:09:07.
