data_PCOD9191838
_publ_section_title
;
Structure prediction by ZEFSAII (Michael W. Deem and Ramdas Pophale) SiO2 
 PCOD9191838
Probable space group: C 2/M
;
_chemical_formula_sum "Si O2"
_cell_formula_units_Z 64
_cell_length_a 32.376357
_cell_length_b 9.260163
_cell_length_c 24.357343
_cell_angle_alpha 90.000000
_cell_angle_beta 28.271545
_cell_angle_gamma 90.000000
_cell_volume 3458.875008
_symmetry_space_group_name_H-M "C 2/M"
_symmetry_group_IT_number 12
_symmetry_cell_setting 'monoclinic'
loop_
_space_group_symop_operation_xyz
x,y,z
-x,y,-z
-x,-y,-z
x,-y,z
1/2+x,1/2+y,z
1/2-x,1/2+y,-z
1/2-x,1/2-y,-z
1/2+x,1/2-y,z
loop_
_atom_site_type_symbol
_atom_site_label
_atom_site_fract_x
_atom_site_fract_y
_atom_site_fract_z
Si Si1 0.179437 0.827662 0.155516
Si Si2 0.334104 0.172825 0.509606
Si Si3 0.029975 0.670376 0.735234
Si Si4 0.905821 0.173830 0.632671
Si Si5 0.779403 0.328143 0.697412
Si Si6 0.904478 0.827925 0.135390
Si Si7 0.644252 0.671501 0.069599
Si Si8 0.837435 0.670522 0.320635
O O1 0.112635 0.789226 0.282145
O O2 0.147160 0.795319 0.131719
O O3 0.195134 0.000000 0.139774
O O4 0.270485 0.744558 0.056058
O O5 0.425606 0.211915 0.374734
O O6 0.322631 0.205964 0.587352
O O7 0.255670 0.251205 0.569865
O O8 0.323240 0.000000 0.515949
O O9 0.007753 0.500000 0.759793
O O10 0.104460 0.691828 0.693563
O O11 0.944905 0.761726 0.847838
O O12 0.829539 0.242143 0.685354
O O13 0.000000 0.222633 0.500000
O O14 0.902698 0.000000 0.631345
O O15 0.787932 0.500000 0.696741
O O16 0.676476 0.294911 0.810580
O O17 0.887422 0.738854 0.210333
O O18 0.897888 0.000000 0.155114
O O19 0.000000 0.798889 0.000000
O O20 0.647258 0.500000 0.058785
O O21 0.824580 0.500000 0.327867
#
# Coordination Sequence:
#
# PCOD9191838 Si02
#       8
#     8   8   8   8   8   8   8   8
#     4   9  20  40  58  77 111 145 178 225 278 329
#     4   9  19  36  55  75 109 149 180 216 267 324
#     4  10  21  35  53  80 112 143 177 221 272 322
#     4  10  22  38  58  82 111 147 183 226 282 334
#     4   9  19  35  54  81 110 140 183 226 270 324
#     4   9  19  37  58  77 106 147 183 222 271 327
#     4  10  21  36  58  84 106 141 187 227 271 326
#     4  10  20  33  51  79 110 140 178 224 269 317
#
# _framework density 18.503126000000002
#
# number of rings (size 3 to 8) (size 9 to 14) (size 15 to 20)
#    0.000    2.500    0.000    1.875    1.750    6.000 
#    0.000    2.500    0.000    0.000    0.000    0.000 
#    0.000    0.000    0.000    0.000    0.000    0.000 
#
# Total GULP energy -178554.651001 kJ/mol
# GULP energy per Si atom -5579.832844 kJ/mol
# Density = 1.846101 g / cm^3
# Si number density = 18.503126 Si / 1000 Ang^3
#
#
#
# Elastic Constant Matrix: (Units=GPa)
#
#
# Indices 1 2 3 4 5 6 
#
# 1 34.9868 13.8501 16.4749 0.0048 3.4399 -0.0009
# 2 13.8501 9.6797 18.4805 0.0027 3.9762 -0.0014
# 3 16.4749 18.4805 92.2787 0.0048 7.9993 -0.0045
# 4 0.0048 0.0027 0.0048 21.9363 -0.0049 -3.9868
# 5 3.4399 3.9762 7.9993 -0.0049 15.6345 0.0022
# 6 -0.0009 -0.0014 -0.0045 -3.9868 0.0022 30.1862
#
#
#
# Elastic Compliance Matrix: (Units=1/GPa)
#
#
# Indices 1 2 3 4 5 6 
#
# 1 0.076409 -0.139564 0.013278 -0.000001 0.011890 -0.000003
# 2 -0.139564 0.433445 -0.057547 -0.000019 -0.050086 0.000008
# 3 0.013278 -0.057547 0.019856 0.000000 0.001555 0.000001
# 4 -0.000001 -0.000019 0.000000 0.046708 0.000019 0.006169
# 5 0.011890 -0.050086 0.001555 0.000019 0.073288 -0.000005
# 6 -0.000003 0.000008 0.000001 0.006169 -0.000005 0.033942
#
#
# Mechanical properties :
#
#
# Convention : Reuss Voigt Hill
#
# Bulk Modulus (GPa) = 6.17111 26.06180 16.11646
# Shear Modulus (GPa) = 4.52354 19.42738 11.97546
#
# Velocity S-wave (km/s) = 1.56526 3.24381 2.54680
# Velocity P-wave (km/s) = 2.57083 5.30522 4.16861
#
# Compressibility (1/GPa) = 0.16204535
#
# Stress axis : x y z
#
# Youngs Moduli (GPa) = 13.08738 2.30710 50.36220
#
# Poissons Ratio (x) = 0.32199 -0.66870
# Poissons Ratio (y) = 1.82653 2.89817
# Poissons Ratio (z) = -0.17377 0.13277
#
# Static dielectric constant tensor:
#      x y z
#    x 1.630460 0.000000 0.019950 
#    y 0.000000 1.609760 0.000000 
#    z 0.019950 0.000000 1.638650 
# 
# From -- ./inp_files/353340.got.cif
#   From: 2010.05.17/outbox.cif.g08.bks.cpg/sg12_177_cif.got.tgz:353340.got - 2010.06.03 13:09:07.
