data_PCOD9191307
_publ_section_title
;
Structure prediction by ZEFSAII (Michael W. Deem and Ramdas Pophale) SiO2 
 PCOD9191307
Probable space group: C 2/M
;
_chemical_formula_sum "Si O2"
_cell_formula_units_Z 64
_cell_length_a 9.752007
_cell_length_b 22.483698
_cell_length_c 25.254522
_cell_angle_alpha 90.000000
_cell_angle_beta 42.053140
_cell_angle_gamma 90.000000
_cell_volume 3709.016173
_symmetry_space_group_name_H-M "C 2/M"
_symmetry_group_IT_number 12
_symmetry_cell_setting 'monoclinic'
loop_
_space_group_symop_operation_xyz
x,y,z
-x,y,-z
-x,-y,-z
x,-y,z
1/2+x,1/2+y,z
1/2-x,1/2+y,-z
1/2-x,1/2-y,-z
1/2+x,1/2-y,z
loop_
_atom_site_type_symbol
_atom_site_label
_atom_site_fract_x
_atom_site_fract_y
_atom_site_fract_z
Si Si1 0.842807 0.566918 0.496968
Si Si2 0.465758 0.617191 0.340522
Si Si3 0.942707 0.571005 0.737671
Si Si4 0.589030 0.571995 0.758683
Si Si5 0.758645 0.133689 0.576967
Si Si6 0.916481 0.571759 0.192468
Si Si7 0.118828 0.571889 0.914612
Si Si8 0.766570 0.733081 0.556875
O O1 0.874288 0.500000 0.467378
O O2 0.625455 0.574075 0.588417
O O3 0.848254 0.612561 0.447058
O O4 0.000000 0.576984 0.500000
O O5 0.372770 0.600165 0.309832
O O6 0.705545 0.605756 0.265368
O O7 0.389883 0.682271 0.380263
O O8 0.952297 0.500000 0.730308
O O9 0.150066 0.597819 0.654389
O O10 0.929708 0.585001 0.803720
O O11 0.754844 0.590768 0.754647
O O12 0.596442 0.500000 0.750455
O O13 0.358838 0.588120 0.842818
O O14 0.734360 0.203704 0.594583
O O15 0.000000 0.121779 0.500000
O O16 0.875053 0.500000 0.204881
O O17 0.977631 0.587347 0.114913
O O18 0.114985 0.500000 0.918945
O O19 0.000000 0.595204 0.000000
O O20 0.750000 0.750000 0.500000
O O21 0.000000 0.713271 0.500000
#
# Coordination Sequence:
#
# PCOD9191307 Si02
#       8
#     8   8   8   8   8   8   8   8
#     4  11  21  31  47  69  89 118 164 209 249 293
#     4  11  19  33  50  66  92 126 168 210 252 293
#     4  10  20  33  48  70 102 132 164 209 252 295
#     4   9  18  31  50  76 102 130 163 203 251 296
#     4  11  23  36  48  65  93 130 171 212 261 299
#     4   9  18  31  50  75 101 131 163 199 245 295
#     4   8  14  28  50  75 104 134 161 190 232 296
#     4  11  25  39  50  67  92 129 171 220 266 301
#
# _framework density 17.255248999999999
#
# number of rings (size 3 to 8) (size 9 to 14) (size 15 to 20)
#    0.000    2.000    1.250    4.125    3.500    4.000 
#    0.000    0.625    0.000    3.750    0.000    0.000 
#    0.000   16.000    0.000    0.000    0.000    0.000 
#
# Total GULP energy -178482.312960 kJ/mol
# GULP energy per Si atom -5577.572280 kJ/mol
# Density = 1.721598 g / cm^3
# Si number density = 17.255249 Si / 1000 Ang^3
#
#
#
# Elastic Constant Matrix: (Units=GPa)
#
#
# Indices 1 2 3 4 5 6 
#
# 1 98.4626 23.1581 33.0182 -0.0001 21.9308 0.0012
# 2 23.1581 50.9784 15.7896 0.0004 4.1549 -0.0002
# 3 33.0182 15.7896 87.1275 -0.0004 24.1299 0.0000
# 4 -0.0001 0.0004 -0.0004 10.8198 0.0003 -4.3410
# 5 21.9308 4.1549 24.1299 0.0003 21.2303 -0.0004
# 6 0.0012 -0.0002 0.0000 -4.3410 -0.0004 11.0341
#
#
#
# Elastic Compliance Matrix: (Units=1/GPa)
#
#
# Indices 1 2 3 4 5 6 
#
# 1 0.014611 -0.005274 -0.001003 0.000000 -0.012921 -0.000002
# 2 -0.005274 0.022688 -0.003491 -0.000001 0.004975 0.000001
# 3 -0.001003 -0.003491 0.017533 0.000001 -0.018208 0.000000
# 4 0.000000 -0.000001 0.000001 0.109746 -0.000002 0.043176
# 5 -0.012921 0.004975 -0.018208 -0.000002 0.080171 0.000004
# 6 -0.000002 0.000001 0.000000 0.043176 0.000004 0.107614
#
#
# Mechanical properties :
#
#
# Convention : Reuss Voigt Hill
#
# Bulk Modulus (GPa) = 28.33129 42.27779 35.30454
# Shear Modulus (GPa) = 13.03230 19.59037 16.31133
#
# Velocity S-wave (km/s) = 2.75119 3.37312 3.07790
# Velocity P-wave (km/s) = 5.15235 6.30279 5.75638
#
# Compressibility (1/GPa) = 0.03529666
#
# Stress axis : x y z
#
# Youngs Moduli (GPa) = 68.44335 44.07712 57.03568
#
# Poissons Ratio (x) = 0.23244 0.05719
# Poissons Ratio (y) = 0.36094 0.19911
# Poissons Ratio (z) = 0.06863 0.15387
#
# Static dielectric constant tensor:
#      x y z
#    x 1.652060 0.000000 0.010230 
#    y 0.000000 1.592430 0.000000 
#    z 0.010230 0.000000 1.582150 
# 
# From -- ./inp_files/333740.got.cif
#   From: 2010.05.17/outbox.cif.g08.bks.cpg/sg12_167_cif.got.tgz:333740.got - 2010.06.03 13:09:07.
