data_PCOD9191243
_publ_section_title
;
Structure prediction by ZEFSAII (Michael W. Deem and Ramdas Pophale) SiO2 
 PCOD9191243
Probable space group: C 2/M
;
_chemical_formula_sum "Si O2"
_cell_formula_units_Z 32
_cell_length_a 16.322080
_cell_length_b 22.765289
_cell_length_c 4.903498
_cell_angle_alpha 90.000000
_cell_angle_beta 96.451131
_cell_angle_gamma 90.000000
_cell_volume 1810.489447
_symmetry_space_group_name_H-M "C 2/M"
_symmetry_group_IT_number 12
_symmetry_cell_setting 'monoclinic'
loop_
_space_group_symop_operation_xyz
x,y,z
-x,y,-z
-x,-y,-z
x,-y,z
1/2+x,1/2+y,z
1/2-x,1/2+y,-z
1/2-x,1/2-y,-z
1/2+x,1/2-y,z
loop_
_atom_site_type_symbol
_atom_site_label
_atom_site_fract_x
_atom_site_fract_y
_atom_site_fract_z
Si Si1 0.277589 0.314377 0.109446
Si Si2 0.057566 0.759422 0.765239
Si Si3 0.677912 0.843852 0.593610
Si Si4 0.058706 0.434045 0.262975
O O1 0.390933 0.203634 0.335424
O O2 0.250000 0.250000 0.000000
O O3 0.375874 0.309289 0.132565
O O4 0.244229 0.319792 0.402332
O O5 0.269955 0.858148 0.113929
O O6 0.000000 0.780245 0.500000
O O7 0.000000 0.743296 0.000000
O O8 0.631459 0.893877 0.404659
O O9 0.085687 0.500000 0.187661
O O10 0.000000 0.439490 0.500000
O O11 0.000000 0.409526 0.000000
#
# Coordination Sequence:
#
# PCOD9191243 Si02
#       4
#     8   8   8   8
#     4  10  20  33  46  68  98 128 162 200 235 282
#     4  11  20  31  48  71 100 131 165 198 236 287
#     4  11  20  33  50  68  97 134 163 191 241 287
#     4  10  21  35  50  72  99 126 163 205 236 273
#
# _framework density 17.674779999999998
#
# number of rings (size 3 to 8) (size 9 to 14) (size 15 to 20)
#    0.000    1.500    0.000    9.750    0.000    4.000 
#    0.000    0.000    0.000    0.000    0.000    0.000 
#    0.000   20.000    0.000    0.000    0.000    0.000 
#
# Total GULP energy -89173.015467 kJ/mol
# GULP energy per Si atom -5573.313467 kJ/mol
# Density = 1.763455 g / cm^3
# Si number density = 17.674780 Si / 1000 Ang^3
#
#
#
# Elastic Constant Matrix: (Units=GPa)
#
#
# Indices 1 2 3 4 5 6 
#
# 1 109.1090 28.0904 48.5270 0.0000 14.5117 0.0000
# 2 28.0904 41.2574 12.3220 0.0000 11.2211 0.0000
# 3 48.5270 12.3220 130.7025 0.0000 7.1942 0.0000
# 4 0.0000 0.0000 0.0000 21.4101 0.0000 8.0434
# 5 14.5117 11.2211 7.1942 0.0000 55.3408 0.0000
# 6 0.0000 0.0000 0.0000 8.0434 0.0000 30.5803
#
#
#
# Elastic Compliance Matrix: (Units=1/GPa)
#
#
# Indices 1 2 3 4 5 6 
#
# 1 0.013040 -0.007276 -0.004078 0.000000 -0.001414 0.000000
# 2 -0.007276 0.030325 0.000076 0.000000 -0.004251 0.000000
# 3 -0.004078 0.000076 0.009165 0.000000 -0.000138 0.000000
# 4 0.000000 0.000000 0.000000 0.051828 0.000000 -0.013632
# 5 -0.001414 -0.004251 -0.000138 0.000000 0.019320 0.000000
# 6 0.000000 0.000000 0.000000 -0.013632 0.000000 0.036286
#
#
# Mechanical properties :
#
#
# Convention : Reuss Voigt Hill
#
# Bulk Modulus (GPa) = 33.35983 50.99419 42.17701
# Shear Modulus (GPa) = 25.97242 34.27488 30.12365
#
# Velocity S-wave (km/s) = 3.83751 4.40841 4.13283
# Velocity P-wave (km/s) = 6.20891 7.40447 6.83289
#
# Compressibility (1/GPa) = 0.02997617
#
# Stress axis : x y z
#
# Youngs Moduli (GPa) = 76.68712 32.97584 109.10729
#
# Poissons Ratio (x) = 0.23993 0.44491
# Poissons Ratio (y) = 0.55797 -0.00834
# Poissons Ratio (z) = 0.31271 -0.00252
#
# Static dielectric constant tensor:
#      x y z
#    x 1.652970 0.000000 0.009940 
#    y 0.000000 1.654360 0.000000 
#    z 0.009940 0.000000 1.698390 
# 
# From -- ./inp_files/11019.got.cif
#   From: 2010.05.17/outbox.cif.g08.bks.cpg/sg12_6_cif.got.tgz:11019.got - 2010.06.03 13:09:07.
