data_PCOD9191904
_publ_section_title
;
Structure prediction by ZEFSAII (Michael W. Deem and Ramdas Pophale) SiO2 
 PCOD9191904
Probable space group: C 2/M
;
_chemical_formula_sum "Si O2"
_cell_formula_units_Z 48
_cell_length_a 24.076981
_cell_length_b 7.482689
_cell_length_c 11.016724
_cell_angle_alpha 90.000000
_cell_angle_beta 96.314952
_cell_angle_gamma 90.000000
_cell_volume 1972.736101
_symmetry_space_group_name_H-M "C 2/M"
_symmetry_group_IT_number 12
_symmetry_cell_setting 'monoclinic'
loop_
_space_group_symop_operation_xyz
x,y,z
-x,y,-z
-x,-y,-z
x,-y,z
1/2+x,1/2+y,z
1/2-x,1/2+y,-z
1/2-x,1/2-y,-z
1/2+x,1/2-y,z
loop_
_atom_site_type_symbol
_atom_site_label
_atom_site_fract_x
_atom_site_fract_y
_atom_site_fract_z
Si Si1 0.564295 0.716216 0.258783
Si Si2 0.375081 0.718193 0.977033
Si Si3 0.322909 0.793633 0.601596
Si Si4 0.765067 0.202489 0.835037
Si Si5 0.938457 0.212315 0.230784
Si Si6 0.831858 0.284651 0.338395
O O1 0.565227 0.500000 0.266931
O O2 0.587301 0.765081 0.130685
O O3 0.610325 0.785109 0.363199
O O4 0.501149 0.780601 0.261313
O O5 0.372227 0.500000 0.979296
O O6 0.311628 0.782391 0.935651
O O7 0.405939 0.783552 0.104528
O O8 0.296259 0.697691 0.710936
O O9 0.311224 0.720638 0.464737
O O10 0.305808 0.000000 0.604948
O O11 0.706195 0.286832 0.781791
O O12 0.755175 0.000000 0.873138
O O13 0.896085 0.241396 0.330544
O O14 0.944186 0.000000 0.212918
O O15 0.826173 0.500000 0.337792
#
# Coordination Sequence:
#
# PCOD9191904 Si02
#       6
#     8   8   8   8   8   8
#     4   9  18  34  55  76 100 131 168 209 251 295
#     4   8  15  31  55  78  98 125 165 210 251 292
#     4  10  20  34  53  76 101 130 168 211 252 293
#     4   9  18  35  57  76  98 131 168 205 250 301
#     4  10  20  33  52  77 102 133 171 206 243 295
#     4  10  22  36  49  72 107 140 164 199 254 302
#
# _framework density 24.331689000000001
#
# number of rings (size 3 to 8) (size 9 to 14) (size 15 to 20)
#    0.000    2.667    0.000    2.500    0.000    6.000 
#    0.000    6.667    0.000    5.000    0.000    0.000 
#    0.000    0.000    0.000    0.000    0.000    0.000 
#
# Total GULP energy -134141.282570 kJ/mol
# GULP energy per Si atom -5589.220107 kJ/mol
# Density = 2.427631 g / cm^3
# Si number density = 24.331689 Si / 1000 Ang^3
#
#
#
# Elastic Constant Matrix: (Units=GPa)
#
#
# Indices 1 2 3 4 5 6 
#
# 1 129.5347 11.7517 19.2811 0.0000 18.9455 0.0000
# 2 11.7517 84.7447 8.5819 0.0000 2.5305 0.0000
# 3 19.2811 8.5819 80.5306 0.0000 6.4354 0.0000
# 4 0.0000 0.0000 0.0000 10.9573 0.0000 -0.4789
# 5 18.9455 2.5305 6.4354 0.0000 32.4000 0.0000
# 6 0.0000 0.0000 0.0000 -0.4789 0.0000 18.8074
#
#
#
# Elastic Compliance Matrix: (Units=1/GPa)
#
#
# Indices 1 2 3 4 5 6 
#
# 1 0.008732 -0.000906 -0.001617 0.000000 -0.004714 0.000000
# 2 -0.000906 0.012038 -0.001050 0.000000 -0.000202 0.000000
# 3 -0.001617 -0.001050 0.013042 0.000000 -0.001563 0.000000
# 4 0.000000 0.000000 0.000000 0.091365 0.000000 0.002326
# 5 -0.004714 -0.000202 -0.001563 0.000000 0.033947 0.000000
# 6 0.000000 0.000000 0.000000 0.002326 0.000000 0.053230
#
#
# Mechanical properties :
#
#
# Convention : Reuss Voigt Hill
#
# Bulk Modulus (GPa) = 37.50226 41.55994 39.53110
# Shear Modulus (GPa) = 21.89243 29.44596 25.66919
#
# Velocity S-wave (km/s) = 3.00284 3.48255 3.25155
# Velocity P-wave (km/s) = 5.24110 5.76962 5.51170
#
# Compressibility (1/GPa) = 0.02666506
#
# Stress axis : x y z
#
# Youngs Moduli (GPa) = 114.51602 83.06913 76.67746
#
# Poissons Ratio (x) = 0.07529 0.12402
# Poissons Ratio (y) = 0.10379 0.08049
# Poissons Ratio (z) = 0.18522 0.08720
#
# Static dielectric constant tensor:
#      x y z
#    x 1.947190 0.000000 0.025190 
#    y 0.000000 1.949010 0.000000 
#    z 0.025190 0.000000 1.927490 
# 
# From -- ./inp_files/172080.got.cif
#   From: 2010.05.17/outbox.cif.g08.bks.cpg/sg12_87_cif.got.tgz:172080.got - 2010.06.03 13:09:07.
