data_PCOD9191563
_publ_section_title
;
Structure prediction by ZEFSAII (Michael W. Deem and Ramdas Pophale) SiO2 
 PCOD9191563
Probable space group: C 2/M
;
_chemical_formula_sum "Si O2"
_cell_formula_units_Z 56
_cell_length_a 18.963403
_cell_length_b 7.527881
_cell_length_c 23.412994
_cell_angle_alpha 90.000000
_cell_angle_beta 52.955761
_cell_angle_gamma 90.000000
_cell_volume 2667.728945
_symmetry_space_group_name_H-M "C 2/M"
_symmetry_group_IT_number 12
_symmetry_cell_setting 'monoclinic'
loop_
_space_group_symop_operation_xyz
x,y,z
-x,y,-z
-x,-y,-z
x,-y,z
1/2+x,1/2+y,z
1/2-x,1/2+y,-z
1/2-x,1/2-y,-z
1/2+x,1/2-y,z
loop_
_atom_site_type_symbol
_atom_site_label
_atom_site_fract_x
_atom_site_fract_y
_atom_site_fract_z
Si Si1 0.346948 0.787296 0.428625
Si Si2 0.189997 0.705149 0.289810
Si Si3 0.522911 0.714640 0.859210
Si Si4 0.164074 0.212783 0.004931
Si Si5 0.493216 0.781848 0.569210
Si Si6 0.321401 0.282415 0.131861
Si Si7 0.843338 0.707708 0.301671
O O1 0.250000 0.750000 0.500000
O O2 0.423273 0.722643 0.433958
O O3 0.352970 0.719320 0.360742
O O4 0.358405 0.000000 0.420213
O O5 0.171001 0.500000 0.285297
O O6 0.238361 0.781391 0.210220
O O7 0.264136 0.709151 0.303338
O O8 0.098372 0.780563 0.357593
O O9 0.522288 0.500000 0.858135
O O10 0.425088 0.779426 0.921298
O O11 0.590501 0.768277 0.876523
O O12 0.567319 0.773745 0.778536
O O13 0.154065 0.000000 0.005369
O O14 0.250000 0.250000 0.000000
O O15 0.175450 0.279009 0.934654
O O16 0.500000 0.725882 0.500000
O O17 0.492384 0.000000 0.568866
O O18 0.318934 0.500000 0.133252
O O19 0.821035 0.500000 0.316540
#
# Coordination Sequence:
#
# PCOD9191563 Si02
#       7
#     8   8   8   8   8   8   8
#     4  10  21  35  52  76 103 132 167 206 250 297
#     4   9  17  32  55  76  95 128 171 208 245 293
#     4   9  18  34  55  74  94 130 176 209 241 296
#     4  10  20  33  50  74 103 132 166 211 258 300
#     4   9  17  30  50  74  97 125 165 206 237 279
#     4   8  15  30  53  75  93 123 170 213 242 282
#     4  10  20  33  51  77 106 130 157 203 258 303
#
# _framework density 20.991638999999999
#
# number of rings (size 3 to 8) (size 9 to 14) (size 15 to 20)
#    0.000    2.714    0.000    2.571    0.000    5.714 
#    0.000    6.429    0.000    6.857    0.000    0.000 
#    0.000    0.000    0.000    0.000    0.000    0.000 
#
# Total GULP energy -156312.129347 kJ/mol
# GULP energy per Si atom -5582.576048 kJ/mol
# Density = 2.094386 g / cm^3
# Si number density = 20.991639 Si / 1000 Ang^3
#
#
#
# Elastic Constant Matrix: (Units=GPa)
#
#
# Indices 1 2 3 4 5 6 
#
# 1 128.8636 -10.0874 127.7981 0.0002 -2.2831 -0.0001
# 2 -10.0874 50.0434 -7.4315 0.0006 -0.0613 -0.0005
# 3 127.7981 -7.4315 209.7180 0.0001 -7.2291 -0.0001
# 4 0.0002 0.0006 0.0001 11.4511 0.0000 1.3178
# 5 -2.2831 -0.0613 -7.2291 0.0000 43.6442 0.0001
# 6 -0.0001 -0.0005 -0.0001 1.3178 0.0001 14.9512
#
#
#
# Elastic Compliance Matrix: (Units=1/GPa)
#
#
# Indices 1 2 3 4 5 6 
#
# 1 0.019895 0.002215 -0.012078 0.000000 -0.000957 0.000000
# 2 0.002215 0.020336 -0.000628 -0.000001 0.000040 0.000001
# 3 -0.012078 -0.000628 0.012154 0.000000 0.001380 0.000000
# 4 0.000000 -0.000001 0.000000 0.088223 0.000000 -0.007776
# 5 -0.000957 0.000040 0.001380 0.000000 0.023091 0.000000
# 6 0.000000 0.000001 0.000000 -0.007776 0.000000 0.067570
#
#
# Mechanical properties :
#
#
# Convention : Reuss Voigt Hill
#
# Bulk Modulus (GPa) = 31.84368 67.68705 49.76537
# Shear Modulus (GPa) = 19.03190 32.56567 25.79879
#
# Velocity S-wave (km/s) = 3.01432 3.94301 3.50952
# Velocity P-wave (km/s) = 5.22661 7.28317 6.33885
#
# Compressibility (1/GPa) = 0.03140340
#
# Stress axis : x y z
#
# Youngs Moduli (GPa) = 50.26489 49.17384 82.27986
#
# Poissons Ratio (x) = -0.10894 0.99376
# Poissons Ratio (y) = -0.11136 0.05168
# Poissons Ratio (z) = 0.60709 0.03088
#
# Static dielectric constant tensor:
#      x y z
#    x 1.709250 0.000000 0.002090 
#    y 0.000000 1.841200 0.000000 
#    z 0.002090 0.000000 1.745370 
# 
# From -- ./inp_files/342283.got.cif
#   From: 2010.05.17/outbox.cif.g08.bks.cpg/sg12_172_cif.got.tgz:342283.got - 2010.06.03 13:09:07.
