data_PCOD9191279
_publ_section_title
;
Structure prediction by ZEFSAII (Michael W. Deem and Ramdas Pophale) SiO2 
 PCOD9191279
Probable space group: C 2/M
;
_chemical_formula_sum "Si O2"
_cell_formula_units_Z 56
_cell_length_a 30.136950
_cell_length_b 8.351049
_cell_length_c 14.095518
_cell_angle_alpha 90.000000
_cell_angle_beta 76.988154
_cell_angle_gamma 90.000000
_cell_volume 3456.404510
_symmetry_space_group_name_H-M "C 2/M"
_symmetry_group_IT_number 12
_symmetry_cell_setting 'monoclinic'
loop_
_space_group_symop_operation_xyz
x,y,z
-x,y,-z
-x,-y,-z
x,-y,z
1/2+x,1/2+y,z
1/2-x,1/2+y,-z
1/2-x,1/2-y,-z
1/2+x,1/2-y,z
loop_
_atom_site_type_symbol
_atom_site_label
_atom_site_fract_x
_atom_site_fract_y
_atom_site_fract_z
Si Si1 0.144417 0.807308 0.754469
Si Si2 0.784370 0.190989 0.770856
Si Si3 0.449663 0.304768 0.134401
Si Si4 0.805297 0.693984 0.081944
Si Si5 0.447964 0.693312 0.914780
Si Si6 0.356643 0.190894 0.869334
Si Si7 0.766334 0.808523 0.390396
O O1 0.092174 0.749742 0.780001
O O2 0.163937 0.760331 0.847841
O O3 0.182717 0.748401 0.662307
O O4 0.143343 0.000000 0.747598
O O5 0.745836 0.245108 0.865928
O O6 0.833048 0.246519 0.785468
O O7 0.767361 0.255026 0.677891
O O8 0.783420 0.000000 0.767333
O O9 0.449776 0.500000 0.134529
O O10 0.500754 0.254635 0.136728
O O11 0.441152 0.257141 0.028480
O O12 0.806810 0.500000 0.082453
O O13 0.825802 0.751012 0.972877
O O14 0.446531 0.500000 0.913815
O O15 0.407838 0.756730 0.868230
O O16 0.354711 0.000000 0.869343
O O17 0.750000 0.750000 0.500000
O O18 0.767604 0.000000 0.390157
#
# Coordination Sequence:
#
# PCOD9191279 Si02
#       7
#     8   8   8   8   8   8   8
#     4   9  16  28  48  69  90 120 157 192 226 267
#     4  10  20  33  48  65  88 121 159 193 228 273
#     4   8  14  26  44  66  89 119 161 198 224 258
#     4   9  18  29  41  62  92 124 156 190 225 265
#     4   9  16  27  44  63  89 126 162 193 224 260
#     4  11  20  29  41  64  96 127 158 190 227 270
#     4  10  20  34  52  73  95 118 147 189 236 280
#
# _framework density 16.201806999999999
#
# number of rings (size 3 to 8) (size 9 to 14) (size 15 to 20)
#    0.000    2.571    1.429    2.571    0.000    1.714 
#    0.000    2.143    0.000    0.000    0.000    1.000 
#    0.000    8.000    0.000    0.000    0.000    0.000 
#
# Total GULP energy -156005.628383 kJ/mol
# GULP energy per Si atom -5571.629585 kJ/mol
# Density = 1.616493 g / cm^3
# Si number density = 16.201807 Si / 1000 Ang^3
#
#
#
# Elastic Constant Matrix: (Units=GPa)
#
#
# Indices 1 2 3 4 5 6 
#
# 1 152.0673 22.2528 70.1876 0.0000 -4.1113 0.0000
# 2 22.2528 17.4545 15.1776 0.0000 -0.6620 0.0000
# 3 70.1876 15.1776 85.9377 0.0000 -10.1554 0.0000
# 4 0.0000 0.0000 0.0000 18.8318 0.0000 3.7659
# 5 -4.1113 -0.6620 -10.1554 0.0000 13.4912 0.0000
# 6 0.0000 0.0000 0.0000 3.7659 0.0000 21.3842
#
#
#
# Elastic Compliance Matrix: (Units=1/GPa)
#
#
# Indices 1 2 3 4 5 6 
#
# 1 0.011467 -0.007404 -0.008439 0.000000 -0.003221 0.000000
# 2 -0.007404 0.072948 -0.007332 0.000000 -0.004196 0.000000
# 3 -0.008439 -0.007332 0.021379 0.000000 0.013161 0.000000
# 4 0.000000 0.000000 0.000000 0.055040 0.000000 -0.009693
# 5 -0.003221 -0.004196 0.013161 0.000000 0.082842 0.000000
# 6 0.000000 0.000000 0.000000 -0.009693 0.000000 0.048470
#
#
# Mechanical properties :
#
#
# Convention : Reuss Voigt Hill
#
# Bulk Modulus (GPa) = 16.82260 52.29952 34.56106
# Shear Modulus (GPa) = 13.95436 20.59755 17.27596
#
# Velocity S-wave (km/s) = 2.93795 3.56941 3.26896
# Velocity P-wave (km/s) = 4.68128 7.02408 5.96876
#
# Compressibility (1/GPa) = 0.05944383
#
# Stress axis : x y z
#
# Youngs Moduli (GPa) = 87.20409 13.70845 46.77551
#
# Poissons Ratio (x) = 0.10150 0.39472
# Poissons Ratio (y) = 0.64566 0.34297
# Poissons Ratio (z) = 0.73589 0.10051
#
# Static dielectric constant tensor:
#      x y z
#    x 1.579930 0.000000 -0.034030 
#    y 0.000000 1.552390 0.000000 
#    z -0.034030 0.000000 1.525590 
# 
# From -- ./inp_files/247786.got.cif
#   From: 2010.05.17/outbox.cif.g08.bks.cpg/sg12_124_cif.got.tgz:247786.got - 2010.06.03 13:09:07.
