data_PCOD9191140
_publ_section_title
;
Structure prediction by ZEFSAII (Michael W. Deem and Ramdas Pophale) SiO2 
 PCOD9191140
Probable space group: C 2/M
;
_chemical_formula_sum "Si O2"
_cell_formula_units_Z 58
_cell_length_a 17.615582
_cell_length_b 7.768246
_cell_length_c 17.340475
_cell_angle_alpha 90.000000
_cell_angle_beta 105.792644
_cell_angle_gamma 90.000000
_cell_volume 2283.337999
_symmetry_space_group_name_H-M "C 2/M"
_symmetry_group_IT_number 12
_symmetry_cell_setting 'monoclinic'
loop_
_space_group_symop_operation_xyz
x,y,z
-x,y,-z
-x,-y,-z
x,-y,z
1/2+x,1/2+y,z
1/2-x,1/2+y,-z
1/2-x,1/2-y,-z
1/2+x,1/2-y,z
loop_
_atom_site_type_symbol
_atom_site_label
_atom_site_fract_x
_atom_site_fract_y
_atom_site_fract_z
Si Si1 0.241069 0.288872 0.389548
Si Si2 0.998235 0.201659 0.669557
Si Si3 0.189497 0.200917 0.099994
Si Si4 0.414512 0.187395 0.058759
Si Si5 0.651060 0.801632 0.788282
Si Si6 0.884883 0.802201 0.514315
Si Si7 0.500000 0.500000 0.000000
Si Si8 0.121866 0.298317 0.229360
O O1 0.238127 0.500000 0.395937
O O2 0.181280 0.208412 0.435770
O O3 0.330477 0.229353 0.430511
O O4 0.200560 0.243493 0.298011
O O5 0.961612 0.273327 0.578948
O O6 0.948872 0.272286 0.729116
O O7 0.090482 0.223681 0.710646
O O8 0.980402 0.000000 0.662388
O O9 0.162640 0.301720 0.017496
O O10 0.265290 0.276814 0.164344
O O11 0.121928 0.204440 0.147471
O O12 0.203328 0.000000 0.083801
O O13 0.461896 0.349700 0.043996
O O14 0.452596 0.000000 0.058923
O O15 0.393187 0.201104 0.141865
O O16 0.664516 0.000000 0.769692
O O17 0.902728 0.000000 0.497559
O O18 0.125629 0.500000 0.213760
#
# Coordination Sequence:
#
# PCOD9191140 Si02
#       8
#     8   8   8   8   8   8   2   8
#     4   8  14  26  45  70 106 143 180 226 282 342
#     4  10  20  32  54  83 113 146 187 238 290 345
#     4  11  23  42  62  83 113 154 198 243 292 348
#     4  11  25  44  66  93 124 158 196 240 291 353
#     4  10  24  42  61  82 112 153 196 240 291 348
#     4   8  14  26  44  72 105 141 181 226 281 342
#     4  12  26  44  68 102 124 152 192 244 304 342
#     4  10  20  33  53  83 114 148 188 238 292 347
#
# _framework density 25.401409000000001
#
# number of rings (size 3 to 8) (size 9 to 14) (size 15 to 20)
#    0.000    2.207    0.690    1.862    2.897    2.207 
#    0.000    0.000    0.000    0.828    0.000    5.793 
#    0.000    0.000    0.000    0.000    0.000    0.000 
#
# Total GULP energy -161795.833589 kJ/mol
# GULP energy per Si atom -5579.166675 kJ/mol
# Density = 2.534359 g / cm^3
# Si number density = 25.401409 Si / 1000 Ang^3
#
#
#
# Elastic Constant Matrix: (Units=GPa)
#
#
# Indices 1 2 3 4 5 6 
#
# 1 65.9968 16.8555 52.9103 0.0000 27.7880 0.0000
# 2 16.8555 106.8317 -5.3116 0.0000 -5.9039 0.0000
# 3 52.9103 -5.3116 125.4831 0.0000 42.2525 0.0000
# 4 0.0000 0.0000 0.0000 10.2517 0.0000 6.7603
# 5 27.7880 -5.9039 42.2525 0.0000 66.0391 0.0000
# 6 0.0000 0.0000 0.0000 6.7603 0.0000 20.0705
#
#
#
# Elastic Compliance Matrix: (Units=1/GPa)
#
#
# Indices 1 2 3 4 5 6 
#
# 1 0.026284 -0.004918 -0.009456 0.000000 -0.005449 0.000000
# 2 -0.004918 0.010329 0.001916 0.000000 0.001767 0.000000
# 3 -0.009456 0.001916 0.013562 0.000000 -0.004527 0.000000
# 4 0.000000 0.000000 0.000000 0.125397 0.000000 -0.042237
# 5 -0.005449 0.001767 -0.004527 0.000000 0.020490 0.000000
# 6 0.000000 0.000000 0.000000 -0.042237 0.000000 0.064051
#
#
# Mechanical properties :
#
#
# Convention : Reuss Voigt Hill
#
# Bulk Modulus (GPa) = 39.59049 47.46888 43.52968
# Shear Modulus (GPa) = 17.03876 34.86276 25.95076
#
# Velocity S-wave (km/s) = 2.59275 3.70871 3.19976
# Velocity P-wave (km/s) = 4.95812 6.08830 5.55204
#
# Compressibility (1/GPa) = 0.02525859
#
# Stress axis : x y z
#
# Youngs Moduli (GPa) = 38.04649 96.81091 73.73749
#
# Poissons Ratio (x) = 0.47614 0.69725
# Poissons Ratio (y) = 0.18712 -0.14128
# Poissons Ratio (z) = 0.35976 -0.18549
#
# Static dielectric constant tensor:
#      x y z
#    x 2.073320 0.000000 0.088900 
#    y 0.000000 2.038750 0.000000 
#    z 0.088900 0.000000 2.038840 
# 
# From -- ./inp_files/314287.got.cif
#   From: 2010.05.17/outbox.cif.g08.bks.cpg/sg12_158_cif.got.tgz:314287.got - 2010.06.03 13:09:07.
