data_PCOD9191395
_publ_section_title
;
Structure prediction by ZEFSAII (Michael W. Deem and Ramdas Pophale) SiO2 
 PCOD9191395
Probable space group: C 2/M
;
_chemical_formula_sum "Si O2"
_cell_formula_units_Z 56
_cell_length_a 37.610824
_cell_length_b 8.285299
_cell_length_c 10.436363
_cell_angle_alpha 90.000000
_cell_angle_beta 130.640997
_cell_angle_gamma 90.000000
_cell_volume 2467.747152
_symmetry_space_group_name_H-M "C 2/M"
_symmetry_group_IT_number 12
_symmetry_cell_setting 'monoclinic'
loop_
_space_group_symop_operation_xyz
x,y,z
-x,y,-z
-x,-y,-z
x,-y,z
1/2+x,1/2+y,z
1/2-x,1/2+y,-z
1/2-x,1/2-y,-z
1/2+x,1/2-y,z
loop_
_atom_site_type_symbol
_atom_site_label
_atom_site_fract_x
_atom_site_fract_y
_atom_site_fract_z
Si Si1 0.114025 0.807190 0.350096
Si Si2 0.201791 0.318614 0.439821
Si Si3 0.649273 0.819709 0.050117
Si Si4 0.096940 0.193606 0.588242
Si Si5 0.536656 0.697145 0.976609
Si Si6 0.301268 0.812444 0.086106
Si Si7 0.944797 0.814773 0.251972
O O1 0.169089 0.769247 0.466461
O O2 0.091814 0.745472 0.430940
O O3 0.084978 0.750047 0.158008
O O4 0.108976 0.000000 0.340007
O O5 0.209666 0.500000 0.503939
O O6 0.250000 0.250000 0.500000
O O7 0.170178 0.316645 0.238548
O O8 0.629080 0.000000 0.977284
O O9 0.691443 0.798088 0.049465
O O10 0.608936 0.692317 0.925924
O O11 0.151598 0.228211 0.749828
O O12 0.062403 0.255370 0.621151
O O13 0.090494 0.000000 0.572875
O O14 0.535990 0.500000 0.965503
O O15 0.500000 0.742355 0.000000
O O16 0.529485 0.756349 0.813625
O O17 0.304373 0.000000 0.130063
O O18 0.250000 0.750000 0.000000
O O19 0.960555 0.000000 0.302957
#
# Coordination Sequence:
#
# PCOD9191395 Si02
#       7
#     8   8   8   8   8   8   8
#     4  10  20  36  55  77 109 143 177 224 273 315
#     4  11  23  36  52  76 106 141 181 222 268 319
#     4   9  19  34  50  69  98 133 171 217 261 302
#     4   9  19  33  50  73 102 137 175 218 266 309
#     4   9  17  31  55  84 109 137 175 218 266 322
#     4  10  20  33  49  71  99 135 177 219 263 311
#     4   9  16  31  54  76 100 134 174 210 251 311
#
# _framework density 22.692761999999998
#
# number of rings (size 3 to 8) (size 9 to 14) (size 15 to 20)
#    0.000    2.429    1.429    0.857    2.000    1.714 
#    0.000    0.714    0.000    6.000    0.000    0.000 
#    0.000    5.714    0.000    0.000    0.000    0.000 
#
# Total GULP energy -156016.447005 kJ/mol
# GULP energy per Si atom -5572.015964 kJ/mol
# Density = 2.264111 g / cm^3
# Si number density = 22.692762 Si / 1000 Ang^3
#
#
#
# Elastic Constant Matrix: (Units=GPa)
#
#
# Indices 1 2 3 4 5 6 
#
# 1 162.0068 12.0485 46.1638 0.0000 -23.2493 0.0000
# 2 12.0485 14.3766 10.8479 0.0000 -1.8571 0.0000
# 3 46.1638 10.8479 48.2220 0.0000 -19.5765 0.0000
# 4 0.0000 0.0000 0.0000 6.6154 0.0000 -4.0492
# 5 -23.2493 -1.8571 -19.5765 0.0000 43.0890 0.0000
# 6 0.0000 0.0000 0.0000 -4.0492 0.0000 12.7928
#
#
#
# Elastic Compliance Matrix: (Units=1/GPa)
#
#
# Indices 1 2 3 4 5 6 
#
# 1 0.008554 -0.001449 -0.007375 0.000000 0.001202 0.000000
# 2 -0.001449 0.085339 -0.020397 0.000000 -0.006371 0.000000
# 3 -0.007375 -0.020397 0.037292 0.000000 0.012084 0.000000
# 4 0.000000 0.000000 0.000000 0.187485 0.000000 0.059343
# 5 0.001202 -0.006371 0.012084 0.000000 0.029072 0.000000
# 6 0.000000 0.000000 0.000000 0.059343 0.000000 0.096952
#
#
# Mechanical properties :
#
#
# Convention : Reuss Voigt Hill
#
# Bulk Modulus (GPa) = 13.74685 40.30287 27.02486
# Shear Modulus (GPa) = 9.48072 22.86911 16.17491
#
# Velocity S-wave (km/s) = 2.04620 3.17798 2.67269
# Velocity P-wave (km/s) = 3.41373 5.59150 4.63241
#
# Compressibility (1/GPa) = 0.07274394
#
# Stress axis : x y z
#
# Youngs Moduli (GPa) = 116.89777 11.71792 26.81525
#
# Poissons Ratio (x) = 0.01698 0.19777
# Poissons Ratio (y) = 0.16937 0.54695
# Poissons Ratio (z) = 0.86215 0.23901
#
# Static dielectric constant tensor:
#      x y z
#    x 1.946660 0.000000 -0.026600 
#    y 0.000000 1.849040 0.000000 
#    z -0.026600 0.000000 1.875600 
# 
# From -- ./inp_files/187746.got.cif
#   From: 2010.05.17/outbox.cif.g08.bks.cpg/sg12_94_cif.got.tgz:187746.got - 2010.06.03 13:09:07.
