data_PCOD9191191
_publ_section_title
;
Structure prediction by ZEFSAII (Michael W. Deem and Ramdas Pophale) SiO2 
 PCOD9191191
Probable space group: C 2/M
;
_chemical_formula_sum "Si O2"
_cell_formula_units_Z 48
_cell_length_a 12.844778
_cell_length_b 19.543827
_cell_length_c 9.800664
_cell_angle_alpha 90.000000
_cell_angle_beta 120.719889
_cell_angle_gamma 90.000000
_cell_volume 2115.076149
_symmetry_space_group_name_H-M "C 2/M"
_symmetry_group_IT_number 12
_symmetry_cell_setting 'monoclinic'
loop_
_space_group_symop_operation_xyz
x,y,z
-x,y,-z
-x,-y,-z
x,-y,z
1/2+x,1/2+y,z
1/2-x,1/2+y,-z
1/2-x,1/2-y,-z
1/2+x,1/2-y,z
loop_
_atom_site_type_symbol
_atom_site_label
_atom_site_fract_x
_atom_site_fract_y
_atom_site_fract_z
Si Si1 0.380471 0.145813 0.295641
Si Si2 0.626635 0.849720 0.299550
Si Si3 0.500000 0.748939 0.000000
Si Si4 0.357972 0.706714 0.379978
Si Si5 0.143153 0.500000 0.713592
Si Si6 0.332408 0.647382 0.064976
Si Si7 0.938163 0.500000 0.810907
Si Si8 0.394366 0.500000 0.038217
O O1 0.517603 0.154540 0.335499
O O2 0.342189 0.212198 0.352064
O O3 0.366888 0.073343 0.364149
O O4 0.294208 0.142351 0.102932
O O5 0.577758 0.798221 0.149540
O O6 0.762437 0.824690 0.422130
O O7 0.631588 0.928579 0.253580
O O8 0.416160 0.699386 0.035212
O O9 0.500000 0.692732 0.500000
O O10 0.322478 0.675715 0.209507
O O11 0.041489 0.500000 0.763331
O O12 0.272103 0.500000 0.869667
O O13 0.391121 0.571898 0.113655
O O14 0.000000 0.500000 0.000000
O O15 0.500000 0.500000 0.000000
#
# Coordination Sequence:
#
# PCOD9191191 Si02
#       8
#     8   8   4   8   4   8   4   4
#     4  10  20  41  64  91 121 155 209 269 311 357
#     4  11  22  36  61  90 121 157 204 257 310 359
#     4  12  18  34  66  92 118 152 200 264 308 354
#     4  12  26  40  59  92 129 170 204 246 316 385
#     4   8  20  34  59  90 119 147 199 265 310 347
#     4  11  22  38  61  95 125 158 207 260 310 365
#     4  10  20  32  56  93 121 147 197 256 313 357
#     4  10  20  34  60  93 126 159 199 252 314 364
#
# _framework density 22.694219
#
# number of rings (size 3 to 8) (size 9 to 14) (size 15 to 20)
#    0.000    1.333    5.000    1.500    4.667    0.667 
#    0.000    2.083    0.000    0.000    0.000    0.000 
#    0.000    0.000    0.000    0.000    0.000    0.000 
#
# Total GULP energy -134271.055402 kJ/mol
# GULP energy per Si atom -5594.627308 kJ/mol
# Density = 2.264257 g / cm^3
# Si number density = 22.694219 Si / 1000 Ang^3
#
#
#
# Elastic Constant Matrix: (Units=GPa)
#
#
# Indices 1 2 3 4 5 6 
#
# 1 106.4057 72.8889 11.9059 0.0000 17.8356 0.0000
# 2 72.8889 222.7943 29.6343 0.0000 6.8610 0.0000
# 3 11.9059 29.6343 71.1234 0.0000 12.8038 0.0000
# 4 0.0000 0.0000 0.0000 20.4436 0.0000 2.2537
# 5 17.8356 6.8610 12.8038 0.0000 32.8693 0.0000
# 6 0.0000 0.0000 0.0000 2.2537 0.0000 24.3483
#
#
#
# Elastic Compliance Matrix: (Units=1/GPa)
#
#
# Indices 1 2 3 4 5 6 
#
# 1 0.013347 -0.004260 0.000736 0.000000 -0.006640 0.000000
# 2 -0.004260 0.006113 -0.002173 0.000000 0.001882 0.000000
# 3 0.000736 -0.002173 0.015951 0.000000 -0.006159 0.000000
# 4 0.000000 0.000000 0.000000 0.049419 0.000000 -0.004574
# 5 -0.006640 0.001882 -0.006159 0.000000 0.036033 0.000000
# 6 0.000000 0.000000 0.000000 -0.004574 0.000000 0.041494
#
#
# Mechanical properties :
#
#
# Convention : Reuss Voigt Hill
#
# Bulk Modulus (GPa) = 41.63634 69.90907 55.77271
# Shear Modulus (GPa) = 27.50937 34.59184 31.05061
#
# Velocity S-wave (km/s) = 3.48541 3.90841 3.70295
# Velocity P-wave (km/s) = 5.88081 7.15816 6.55069
#
# Compressibility (1/GPa) = 0.02401748
#
# Stress axis : x y z
#
# Youngs Moduli (GPa) = 74.92516 163.58167 62.69199
#
# Poissons Ratio (x) = 0.69684 -0.04614
# Poissons Ratio (y) = 0.31917 0.13622
# Poissons Ratio (z) = -0.05515 0.35543
#
# Static dielectric constant tensor:
#      x y z
#    x 1.848490 0.000000 -0.003070 
#    y 0.000000 1.887320 0.000000 
#    z -0.003070 0.000000 1.864740 
# 
# From -- ./inp_files/133462.got.cif
#   From: 2010.05.17/outbox.cif.g08.bks.cpg/sg12_67_cif.got.tgz:133462.got - 2010.06.03 13:09:07.
