data_PCOD9191898
_publ_section_title
;
Structure prediction by ZEFSAII (Michael W. Deem and Ramdas Pophale) SiO2 
 PCOD9191898
Probable space group: C 2/M
;
_chemical_formula_sum "Si O2"
_cell_formula_units_Z 40
_cell_length_a 23.674674
_cell_length_b 8.691145
_cell_length_c 11.728675
_cell_angle_alpha 90.000000
_cell_angle_beta 107.073992
_cell_angle_gamma 90.000000
_cell_volume 2306.929942
_symmetry_space_group_name_H-M "C 2/M"
_symmetry_group_IT_number 12
_symmetry_cell_setting 'monoclinic'
loop_
_space_group_symop_operation_xyz
x,y,z
-x,y,-z
-x,-y,-z
x,-y,z
1/2+x,1/2+y,z
1/2-x,1/2+y,-z
1/2-x,1/2-y,-z
1/2+x,1/2-y,z
loop_
_atom_site_type_symbol
_atom_site_label
_atom_site_fract_x
_atom_site_fract_y
_atom_site_fract_z
Si Si1 0.326441 0.816278 0.935979
Si Si2 0.090149 0.312986 0.610037
Si Si3 0.299005 0.185721 0.181184
Si Si4 0.031258 0.313866 0.342106
Si Si5 0.943751 0.815783 0.891497
O O1 0.265599 0.757426 0.844169
O O2 0.383771 0.745054 0.912154
O O3 0.329488 0.000000 0.930151
O O4 0.321997 0.774349 0.067596
O O5 0.090690 0.500000 0.610751
O O6 0.152217 0.261650 0.698776
O O7 0.074064 0.266334 0.471870
O O8 0.034974 0.268377 0.657811
O O9 0.294017 0.000000 0.183416
O O10 0.032507 0.500000 0.335478
O O11 0.048638 0.244719 0.232071
O O12 0.942811 0.000000 0.890237
O O13 0.000000 0.763907 0.000000
#
# Coordination Sequence:
#
# PCOD9191898 Si02
#       5
#     8   8   8   8   8
#     4  10  20  33  52  77 101 130 169 206 243 293
#     4   8  15  30  54  79 101 130 165 203 247 294
#     4   9  17  32  53  76 103 132 163 203 250 294
#     4   9  17  32  54  78 102 129 167 206 242 294
#     4  11  23  36  50  72 103 134 163 202 252 297
#
# _framework density 17.339061999999998
#
# number of rings (size 3 to 8) (size 9 to 14) (size 15 to 20)
#    0.000    2.600    0.000    3.600    0.000    4.000 
#    0.000    5.000    0.000    0.000    0.000    0.000 
#    0.000    0.000    0.000    0.000    0.000    0.000 
#
# Total GULP energy -111564.498607 kJ/mol
# GULP energy per Si atom -5578.224930 kJ/mol
# Density = 1.729960 g / cm^3
# Si number density = 17.339062 Si / 1000 Ang^3
#
#
#
# Elastic Constant Matrix: (Units=GPa)
#
#
# Indices 1 2 3 4 5 6 
#
# 1 163.9877 41.0369 110.0440 0.0000 10.6461 0.0000
# 2 41.0369 23.2310 34.9685 0.0000 0.9420 0.0000
# 3 110.0440 34.9685 126.7282 0.0000 14.1306 0.0000
# 4 0.0000 0.0000 0.0000 20.4122 0.0000 1.1133
# 5 10.6461 0.9420 14.1306 0.0000 34.0505 0.0000
# 6 0.0000 0.0000 0.0000 1.1133 0.0000 -7.5105
#
#
#
# Elastic Compliance Matrix: (Units=1/GPa)
#
#
# Indices 1 2 3 4 5 6 
#
# 1 0.016658 -0.013169 -0.010791 0.000000 -0.000366 0.000000
# 2 -0.013169 0.085526 -0.012959 0.000000 0.007129 0.000000
# 3 -0.010791 -0.012959 0.021411 0.000000 -0.005153 0.000000
# 4 0.000000 0.000000 0.000000 0.048597 0.000000 0.007203
# 5 -0.000366 0.007129 -0.005153 0.000000 0.031424 0.000000
# 6 0.000000 0.000000 0.000000 0.007203 0.000000 -0.132078
#
#
# Mechanical properties :
#
#
# Convention : Reuss Voigt Hill
#
# Bulk Modulus (GPa) = 20.09719 76.22730 48.16224
# Shear Modulus (GPa) = 30.87152 17.91696 24.39424
#
# Velocity S-wave (km/s) = 4.22413 3.21803 3.75493
# Velocity P-wave (km/s) = 5.95037 7.60696 6.82908
#
# Compressibility (1/GPa) = 0.04975820
#
# Stress axis : x y z
#
# Youngs Moduli (GPa) = 60.03050 11.69236 46.70425
#
# Poissons Ratio (x) = 0.15397 0.50397
# Poissons Ratio (y) = 0.79053 0.60525
# Poissons Ratio (z) = 0.64776 0.15152
#
# Static dielectric constant tensor:
#      x y z
#    x 1.562730 0.000000 0.020650 
#    y 0.000000 1.582480 0.000000 
#    z 0.020650 0.000000 1.584260 
# 
# From -- ./inp_files/151748.got.cif
#   From: 2010.05.17/outbox.cif.g08.bks.cpg/sg12_76_cif.got.tgz:151748.got - 2010.06.03 13:09:07.
