data_PCOD9191385
_publ_section_title
;
Structure prediction by ZEFSAII (Michael W. Deem and Ramdas Pophale) SiO2 
 PCOD9191385
Probable space group: C 2/M
;
_chemical_formula_sum "Si O2"
_cell_formula_units_Z 64
_cell_length_a 17.100500
_cell_length_b 29.232741
_cell_length_c 14.723763
_cell_angle_alpha 90.000000
_cell_angle_beta 149.430565
_cell_angle_gamma 90.000000
_cell_volume 3743.331580
_symmetry_space_group_name_H-M "C 2/M"
_symmetry_group_IT_number 12
_symmetry_cell_setting 'monoclinic'
loop_
_space_group_symop_operation_xyz
x,y,z
-x,y,-z
-x,-y,-z
x,-y,z
1/2+x,1/2+y,z
1/2-x,1/2+y,-z
1/2-x,1/2-y,-z
1/2+x,1/2-y,z
loop_
_atom_site_type_symbol
_atom_site_label
_atom_site_fract_x
_atom_site_fract_y
_atom_site_fract_z
Si Si1 0.318101 0.218916 0.426086
Si Si2 0.187280 0.052047 0.083475
Si Si3 0.187280 0.947953 0.291086
Si Si4 0.316236 0.181210 0.921033
Si Si5 0.315921 0.636474 0.040982
Si Si6 0.683763 0.818790 0.288560
Si Si7 0.181899 0.281083 0.789883
Si Si8 0.315921 0.636474 0.590859
O O1 0.253053 0.269158 0.382560
O O2 0.294629 0.211602 0.294628
O O3 0.500000 0.217837 0.626935
O O4 0.235108 0.179540 0.399182
O O5 0.234714 0.062871 0.234714
O O6 0.235406 0.000000 0.110637
O O7 0.238459 0.090483 0.064190
O O8 0.000000 0.052406 0.895914
O O9 0.238459 0.909517 0.412727
O O10 0.235405 0.000000 0.360175
O O11 0.253784 0.144574 0.929591
O O12 0.273216 0.171727 0.773216
O O13 0.246947 0.230842 0.876454
O O14 0.500000 0.183948 0.110498
O O15 0.500000 0.635538 0.231104
O O16 0.264892 0.679540 0.928966
O O17 0.746216 0.855426 0.422024
#
# Coordination Sequence:
#
# PCOD9191385 Si02
#       8
#     8   8   8   8   8   8   8   8
#     4  10  20  33  49  71 101 133 164 199 238 284
#     4   8  15  29  49  74 102 128 155 190 234 285
#     4   8  15  29  49  74 102 128 155 190 234 285
#     4  10  21  36  51  67  93 130 169 206 242 283
#     4  11  20  30  50  76 100 127 161 201 244 290
#     4  10  21  36  51  67  93 130 169 206 242 283
#     4  10  20  33  49  71 101 133 164 199 238 284
#     4  11  20  30  50  76 100 127 161 201 244 290
#
# _framework density 17.097069000000001
#
# number of rings (size 3 to 8) (size 9 to 14) (size 15 to 20)
#    0.000    2.250    0.000    4.500    0.000    4.000 
#    0.000    0.000    0.000    3.750    0.000   14.000 
#    0.000    0.000    0.000    0.000    0.000    0.000 
#
# Total GULP energy -178639.283802 kJ/mol
# GULP energy per Si atom -5582.477619 kJ/mol
# Density = 1.705816 g / cm^3
# Si number density = 17.097069 Si / 1000 Ang^3
#
#
#
# Elastic Constant Matrix: (Units=GPa)
#
#
# Indices 1 2 3 4 5 6 
#
# 1 83.4391 62.7943 15.8331 0.0000 -11.0907 0.0000
# 2 62.7943 104.2052 32.7585 0.0000 -30.4857 0.0000
# 3 15.8331 32.7585 54.7964 0.0000 -17.9811 0.0000
# 4 0.0000 0.0000 0.0000 21.0715 0.0000 -8.1088
# 5 -11.0907 -30.4857 -17.9811 0.0000 21.3459 0.0000
# 6 0.0000 0.0000 0.0000 -8.1088 0.0000 29.0606
#
#
#
# Elastic Compliance Matrix: (Units=1/GPa)
#
#
# Indices 1 2 3 4 5 6 
#
# 1 0.024208 -0.018663 -0.000631 0.000000 -0.014608 0.000000
# 2 -0.018663 0.031223 -0.002519 0.000000 0.032773 0.000000
# 3 -0.000631 -0.002519 0.025774 0.000000 0.017786 0.000000
# 4 0.000000 0.000000 0.000000 0.053166 0.000000 0.014835
# 5 -0.014608 0.032773 0.017786 0.000000 0.101045 0.000000
# 6 0.000000 0.000000 0.000000 0.014835 0.000000 0.038550
#
#
# Mechanical properties :
#
#
# Convention : Reuss Voigt Hill
#
# Bulk Modulus (GPa) = 26.61098 51.69027 39.15063
# Shear Modulus (GPa) = 15.14607 23.03260 19.08934
#
# Velocity S-wave (km/s) = 2.97961 3.67436 3.34507
# Velocity P-wave (km/s) = 5.23793 6.94984 6.15370
#
# Compressibility (1/GPa) = 0.03757847
#
# Stress axis : x y z
#
# Youngs Moduli (GPa) = 41.30796 32.02804 38.79913
#
# Poissons Ratio (x) = 0.59775 0.02449
# Poissons Ratio (y) = 0.77094 0.09773
# Poissons Ratio (z) = 0.02607 0.08067
#
# Static dielectric constant tensor:
#      x y z
#    x 1.589070 0.000000 -0.007390 
#    y 0.000000 1.557420 0.000000 
#    z -0.007390 0.000000 1.581800 
# 
# From -- ./inp_files/228527.got.cif
#   From: 2010.05.17/outbox.cif.g08.bks.cpg/sg12_115_cif.got.tgz:228527.got - 2010.06.03 13:09:07.
