data_PCOD9191199
_publ_section_title
;
Structure prediction by ZEFSAII (Michael W. Deem and Ramdas Pophale) SiO2 
 PCOD9191199
Probable space group: C 2/M
;
_chemical_formula_sum "Si O2"
_cell_formula_units_Z 56
_cell_length_a 12.481775
_cell_length_b 23.966823
_cell_length_c 12.404588
_cell_angle_alpha 90.000000
_cell_angle_beta 126.833066
_cell_angle_gamma 90.000000
_cell_volume 2970.081685
_symmetry_space_group_name_H-M "C 2/M"
_symmetry_group_IT_number 12
_symmetry_cell_setting 'monoclinic'
loop_
_space_group_symop_operation_xyz
x,y,z
-x,y,-z
-x,-y,-z
x,-y,z
1/2+x,1/2+y,z
1/2-x,1/2+y,-z
1/2-x,1/2-y,-z
1/2+x,1/2-y,z
loop_
_atom_site_type_symbol
_atom_site_label
_atom_site_fract_x
_atom_site_fract_y
_atom_site_fract_z
Si Si1 0.105614 0.062721 0.727218
Si Si2 0.843112 0.439209 0.436222
Si Si3 0.185393 0.091269 0.535620
Si Si4 0.272097 0.793926 0.659962
Si Si5 0.717647 0.674305 0.875782
Si Si6 0.153244 0.678832 0.633616
Si Si7 0.084233 0.712131 0.828945
O O1 0.176297 0.069123 0.652214
O O2 0.159082 0.112224 0.834648
O O3 0.949062 0.072563 0.606241
O O4 0.126110 0.000000 0.779870
O O5 0.788343 0.500000 0.370456
O O6 0.810988 0.431071 0.543485
O O7 0.786480 0.382152 0.351797
O O8 0.000000 0.439826 0.500000
O O9 0.191539 0.158458 0.547682
O O10 0.251663 0.809013 0.773535
O O11 0.222571 0.730847 0.616352
O O12 0.427575 0.798654 0.727549
O O13 0.614302 0.721612 0.855010
O O14 0.846712 0.681723 0.028877
O O15 0.151346 0.690958 0.759353
O O16 0.000000 0.678582 0.500000
#
# Coordination Sequence:
#
# PCOD9191199 Si02
#       7
#     8   8   8   8   8   8   8
#     4  10  20  36  58  85 114 144 182 226 277 334
#     4  10  20  34  49  72 110 150 181 213 264 327
#     4  10  20  33  56  87 114 145 177 230 284 332
#     4  10  20  32  58  82 111 140 180 232 283 327
#     4   9  21  36  56  80 107 147 190 222 273 329
#     4  10  22  33  51  84 111 142 184 226 276 328
#     4  10  20  38  54  78 114 145 182 231 275 327
#
# _framework density 18.854700000000001
#
# number of rings (size 3 to 8) (size 9 to 14) (size 15 to 20)
#    0.000    2.143    0.000    3.857    8.000    1.143 
#    0.000    0.714    0.000    8.571    0.000    2.000 
#    0.000    0.000    0.000    0.000    0.000    0.000 
#
# Total GULP energy -156206.804055 kJ/mol
# GULP energy per Si atom -5578.814431 kJ/mol
# Density = 1.881179 g / cm^3
# Si number density = 18.854700 Si / 1000 Ang^3
#
#
#
# Elastic Constant Matrix: (Units=GPa)
#
#
# Indices 1 2 3 4 5 6 
#
# 1 59.5574 13.9463 6.5375 0.0000 -4.2814 0.0000
# 2 13.9463 195.7232 42.2337 0.0000 0.2672 0.0000
# 3 6.5375 42.2337 45.4491 0.0000 -3.3616 0.0000
# 4 0.0000 0.0000 0.0000 3.1946 0.0000 -24.1062
# 5 -4.2814 0.2672 -3.3616 0.0000 12.4291 0.0000
# 6 0.0000 0.0000 0.0000 -24.1062 0.0000 -12.2763
#
#
#
# Elastic Compliance Matrix: (Units=1/GPa)
#
#
# Indices 1 2 3 4 5 6 
#
# 1 0.017568 -0.001009 -0.001164 0.000000 0.005759 0.000000
# 2 -0.001009 0.006487 -0.006040 0.000000 -0.002121 0.000000
# 3 -0.001164 -0.006040 0.028330 0.000000 0.007391 0.000000
# 4 0.000000 0.000000 0.000000 0.019790 0.000000 -0.038861
# 5 0.005759 -0.002121 0.007391 0.000000 0.084484 0.000000
# 6 0.000000 0.000000 0.000000 -0.038861 0.000000 -0.005150
#
#
# Mechanical properties :
#
#
# Convention : Reuss Voigt Hill
#
# Bulk Modulus (GPa) = 27.80869 47.35165 37.58017
# Shear Modulus (GPa) = 27.78981 16.53696 22.16338
#
# Velocity S-wave (km/s) = 3.84330 2.96476 3.43225
# Velocity P-wave (km/s) = 5.87159 6.07357 5.97343
#
# Compressibility (1/GPa) = 0.03595998
#
# Stress axis : x y z
#
# Youngs Moduli (GPa) = 56.92030 154.14536 35.29878
#
# Poissons Ratio (x) = 0.15546 0.04109
# Poissons Ratio (y) = 0.05741 0.21321
# Poissons Ratio (z) = 0.06625 0.93107
#
# Static dielectric constant tensor:
#      x y z
#    x 1.672150 0.000000 -0.021920 
#    y 0.000000 1.696090 0.000000 
#    z -0.021920 0.000000 1.631660 
# 
# From -- ./inp_files/135495.got.cif
#   From: 2010.05.17/outbox.cif.g08.bks.cpg/sg12_68_cif.got.tgz:135495.got - 2010.06.03 13:09:07.
