data_PCOD9191628
_publ_section_title
;
Structure prediction by ZEFSAII (Michael W. Deem and Ramdas Pophale) SiO2 
 PCOD9191628
Probable space group: C 2/M
;
_chemical_formula_sum "Si O2"
_cell_formula_units_Z 56
_cell_length_a 21.574721
_cell_length_b 7.581622
_cell_length_c 18.856189
_cell_angle_alpha 90.000000
_cell_angle_beta 121.228285
_cell_angle_gamma 90.000000
_cell_volume 2637.438996
_symmetry_space_group_name_H-M "C 2/M"
_symmetry_group_IT_number 12
_symmetry_cell_setting 'monoclinic'
loop_
_space_group_symop_operation_xyz
x,y,z
-x,y,-z
-x,-y,-z
x,-y,z
1/2+x,1/2+y,z
1/2-x,1/2+y,-z
1/2-x,1/2-y,-z
1/2+x,1/2-y,z
loop_
_atom_site_type_symbol
_atom_site_label
_atom_site_fract_x
_atom_site_fract_y
_atom_site_fract_z
Si Si1 0.638605 0.715795 0.269838
Si Si2 0.790260 0.715490 0.290776
Si Si3 0.919254 0.291243 0.462976
Si Si4 0.336204 0.289942 0.557928
Si Si5 0.237268 0.713698 0.884643
Si Si6 0.369581 0.205815 0.055028
Si Si7 0.479975 0.299027 0.911554
O O1 0.633873 0.500000 0.267900
O O2 0.718394 0.765423 0.290688
O O3 0.633019 0.775723 0.348079
O O4 0.580301 0.778357 0.177002
O O5 0.791614 0.500000 0.291407
O O6 0.861337 0.781560 0.372581
O O7 0.783042 0.772294 0.205564
O O8 0.924165 0.500000 0.451417
O O9 0.883152 0.273224 0.518995
O O10 0.000000 0.217974 0.500000
O O11 0.341836 0.500000 0.561782
O O12 0.250000 0.250000 0.500000
O O13 0.238741 0.500000 0.887521
O O14 0.178301 0.773199 0.907572
O O15 0.316192 0.775571 0.956228
O O16 0.444705 0.300417 0.086116
O O17 0.385438 0.000000 0.076122
O O18 0.455227 0.500000 0.912858
O O19 0.500000 0.216256 0.000000
#
# Coordination Sequence:
#
# PCOD9191628 Si02
#       7
#     8   8   8   8   8   8   8
#     4   9  18  32  55  82 105 140 188 233 271 321
#     4   9  16  32  56  79 104 138 187 232 267 324
#     4  10  21  37  59  86 115 148 188 238 292 343
#     4  11  21  37  60  84 115 151 191 237 286 340
#     4   9  18  33  55  75  99 145 189 216 259 333
#     4  10  20  33  50  78 112 139 170 225 283 321
#     4  10  20  35  56  78 102 141 189 225 264 329
#
# _framework density 21.232718999999999
#
# number of rings (size 3 to 8) (size 9 to 14) (size 15 to 20)
#    0.000    2.286    1.429    1.714    0.000    4.571 
#    0.000    3.571    0.000    0.000    0.000    0.000 
#    0.000    0.000    0.000    0.000    0.000    0.000 
#
# Total GULP energy -156332.760388 kJ/mol
# GULP energy per Si atom -5583.312871 kJ/mol
# Density = 2.118439 g / cm^3
# Si number density = 21.232719 Si / 1000 Ang^3
#
#
#
# Elastic Constant Matrix: (Units=GPa)
#
#
# Indices 1 2 3 4 5 6 
#
# 1 115.8975 -10.2872 68.5376 0.0000 18.9876 0.0000
# 2 -10.2872 46.0754 -9.7292 0.0000 3.3676 -0.0001
# 3 68.5376 -9.7292 177.0451 0.0000 2.6372 0.0000
# 4 0.0000 0.0000 0.0000 17.5170 0.0000 -8.8029
# 5 18.9876 3.3676 2.6372 0.0000 32.5873 0.0000
# 6 0.0000 -0.0001 0.0000 -8.8029 0.0000 20.7481
#
#
#
# Elastic Compliance Matrix: (Units=1/GPa)
#
#
# Indices 1 2 3 4 5 6 
#
# 1 0.012843 0.002406 -0.004730 0.000000 -0.007349 0.000000
# 2 0.002406 0.022593 0.000366 0.000000 -0.003766 0.000000
# 3 -0.004730 0.000366 0.007468 0.000000 0.002114 0.000000
# 4 0.000000 0.000000 0.000000 0.072558 0.000000 0.030784
# 5 -0.007349 -0.003766 0.002114 0.000000 0.035187 0.000000
# 6 0.000000 0.000000 0.000000 0.030784 0.000000 0.061258
#
#
# Mechanical properties :
#
#
# Convention : Reuss Voigt Hill
#
# Bulk Modulus (GPa) = 25.64859 48.45114 37.04986
# Shear Modulus (GPa) = 21.85130 33.53693 27.69411
#
# Velocity S-wave (km/s) = 3.21149 3.97859 3.61545
# Velocity P-wave (km/s) = 5.08503 6.63131 5.90897
#
# Compressibility (1/GPa) = 0.03898850
#
# Stress axis : x y z
#
# Youngs Moduli (GPa) = 77.86275 44.26085 133.90366
#
# Poissons Ratio (x) = -0.10648 0.63338
# Poissons Ratio (y) = -0.18732 -0.04906
# Poissons Ratio (z) = 0.36830 -0.01621
#
# Static dielectric constant tensor:
#      x y z
#    x 1.751950 0.000000 -0.015560 
#    y 0.000000 1.785560 0.000000 
#    z -0.015560 0.000000 1.770660 
# 
# From -- ./inp_files/281759.got.cif
#   From: 2010.05.17/outbox.cif.g08.bks.cpg/sg12_141_cif.got.tgz:281759.got - 2010.06.03 13:09:07.
