data_PCOD9191796
_publ_section_title
;
Structure prediction by ZEFSAII (Michael W. Deem and Ramdas Pophale) SiO2 
 PCOD9191796
Probable space group: C 2/M
;
_chemical_formula_sum "Si O2"
_cell_formula_units_Z 56
_cell_length_a 8.670206
_cell_length_b 18.564048
_cell_length_c 28.893810
_cell_angle_alpha 90.000000
_cell_angle_beta 139.161438
_cell_angle_gamma 90.000000
_cell_volume 3041.152040
_symmetry_space_group_name_H-M "C 2/M"
_symmetry_group_IT_number 12
_symmetry_cell_setting 'monoclinic'
loop_
_space_group_symop_operation_xyz
x,y,z
-x,y,-z
-x,-y,-z
x,-y,z
1/2+x,1/2+y,z
1/2-x,1/2+y,-z
1/2-x,1/2-y,-z
1/2+x,1/2-y,z
loop_
_atom_site_type_symbol
_atom_site_label
_atom_site_fract_x
_atom_site_fract_y
_atom_site_fract_z
Si Si1 0.145942 0.917176 0.136467
Si Si2 0.265192 0.658603 0.427873
Si Si3 0.354763 0.164484 0.271006
Si Si4 0.095457 0.680208 0.569919
Si Si5 0.806331 0.830417 0.997122
Si Si6 0.463279 0.916344 0.856267
Si Si7 0.493140 0.673545 0.273892
O O1 0.250778 0.882133 0.206162
O O2 0.347281 0.914603 0.142516
O O3 0.081474 0.000000 0.129463
O O4 0.925231 0.873428 0.066192
O O5 0.500000 0.619485 0.500000
O O6 0.355064 0.735176 0.428000
O O7 0.089991 0.630636 0.348126
O O8 0.099480 0.672632 0.434593
O O9 0.412600 0.244642 0.265623
O O10 0.162385 0.172744 0.267766
O O11 0.341363 0.649967 0.645440
O O12 0.000000 0.649480 0.500000
O O13 0.581920 0.872235 0.925219
O O14 0.750000 0.750000 0.000000
O O15 0.000000 0.828078 0.000000
O O16 0.227809 0.877175 0.785713
O O17 0.423041 0.000000 0.859319
#
# Coordination Sequence:
#
# PCOD9191796 Si02
#       7
#     8   8   8   8   8   8   8
#     4  10  21  37  56  77 104 139 175 212 257 308
#     4   9  16  26  43  69 100 132 167 210 258 304
#     4  10  20  33  51  77 107 138 174 217 261 307
#     4   9  16  26  43  69 100 132 167 210 258 304
#     4  10  21  37  57  81 107 134 169 212 256 304
#     4  10  21  37  56  77 104 139 175 212 257 308
#     4  10  20  33  51  77 107 138 174 217 261 307
#
# _framework density 18.414073999999999
#
# number of rings (size 3 to 8) (size 9 to 14) (size 15 to 20)
#    0.000    2.286    0.000    3.857    0.000    9.143 
#    0.000    0.000    0.000    3.429    0.000    0.000 
#    0.000    0.000    0.000    0.000    0.000    0.000 
#
# Total GULP energy -156169.109603 kJ/mol
# GULP energy per Si atom -5577.468200 kJ/mol
# Density = 1.837216 g / cm^3
# Si number density = 18.414074 Si / 1000 Ang^3
#
#
#
# Elastic Constant Matrix: (Units=GPa)
#
#
# Indices 1 2 3 4 5 6 
#
# 1 21.9017 22.2946 34.2493 0.0000 -8.8314 0.0000
# 2 22.2946 104.5071 87.4852 0.0000 -4.1822 0.0000
# 3 34.2493 87.4852 205.6747 -0.0005 -12.6562 0.0000
# 4 0.0000 0.0000 -0.0005 -9.0484 -0.0001 1.4721
# 5 -8.8314 -4.1822 -12.6562 -0.0001 32.1329 0.0000
# 6 0.0000 0.0000 0.0000 1.4721 0.0000 21.2921
#
#
#
# Elastic Compliance Matrix: (Units=1/GPa)
#
#
# Indices 1 2 3 4 5 6 
#
# 1 0.072419 -0.008598 -0.007426 0.000000 0.015859 0.000000
# 2 -0.008598 0.015891 -0.005479 0.000000 -0.002453 0.000000
# 3 -0.007426 -0.005479 0.008465 0.000000 0.000580 0.000000
# 4 0.000000 0.000000 0.000000 -0.109288 0.000000 0.007556
# 5 0.015859 -0.002453 0.000580 0.000000 0.035389 0.000000
# 6 0.000000 0.000000 0.000000 0.007556 0.000000 0.046443
#
#
# Mechanical properties :
#
#
# Convention : Reuss Voigt Hill
#
# Bulk Modulus (GPa) = 18.59805 68.90463 43.75134
# Shear Modulus (GPa) = 38.38863 21.41227 29.90045
#
# Velocity S-wave (km/s) = 4.57085 3.41372 4.03399
# Velocity P-wave (km/s) = 6.16269 7.28277 6.74602
#
# Compressibility (1/GPa) = 0.05376908
#
# Stress axis : x y z
#
# Youngs Moduli (GPa) = 13.80863 62.92883 118.13781
#
# Poissons Ratio (x) = 0.54105 0.87731
# Poissons Ratio (y) = 0.11872 0.64722
# Poissons Ratio (z) = 0.10255 0.34476
#
# Static dielectric constant tensor:
#      x y z
#    x 1.624620 0.000000 0.004510 
#    y 0.000000 1.591750 0.000000 
#    z 0.004510 0.000000 1.673720 
# 
# From -- ./inp_files/313736.got.cif
#   From: 2010.05.17/outbox.cif.g08.bks.cpg/sg12_157_cif.got.tgz:313736.got - 2010.06.03 13:09:07.
