data_PCOD9191326
_publ_section_title
;
Structure prediction by ZEFSAII (Michael W. Deem and Ramdas Pophale) SiO2 
 PCOD9191326
Probable space group: C 2/M
;
_chemical_formula_sum "Si O2"
_cell_formula_units_Z 56
_cell_length_a 27.756552
_cell_length_b 8.657089
_cell_length_c 16.251954
_cell_angle_alpha 90.000000
_cell_angle_beta 51.016349
_cell_angle_gamma 90.000000
_cell_volume 3035.609469
_symmetry_space_group_name_H-M "C 2/M"
_symmetry_group_IT_number 12
_symmetry_cell_setting 'monoclinic'
loop_
_space_group_symop_operation_xyz
x,y,z
-x,y,-z
-x,-y,-z
x,-y,z
1/2+x,1/2+y,z
1/2-x,1/2+y,-z
1/2-x,1/2-y,-z
1/2+x,1/2-y,z
loop_
_atom_site_type_symbol
_atom_site_label
_atom_site_fract_x
_atom_site_fract_y
_atom_site_fract_z
Si Si1 0.004784 0.816236 0.622066
Si Si2 0.472089 0.813211 0.834726
Si Si3 0.404738 0.185786 0.602780
Si Si4 0.263056 0.185903 0.742763
Si Si5 0.786499 0.815285 0.383428
Si Si6 0.360586 0.813769 0.062294
Si Si7 0.910113 0.314145 0.187466
O O1 0.992249 0.761409 0.727766
O O2 0.947497 0.760530 0.626902
O O3 0.065256 0.738786 0.515822
O O4 0.010682 0.000000 0.611123
O O5 0.522679 0.773045 0.850221
O O6 0.472437 0.000000 0.825181
O O7 0.404373 0.765551 0.940014
O O8 0.333142 0.233118 0.687048
O O9 0.408959 0.000000 0.604042
O O10 0.245650 0.233678 0.668105
O O11 0.208975 0.250852 0.858819
O O12 0.260623 0.000000 0.748348
O O13 0.750000 0.750000 0.500000
O O14 0.856550 0.754091 0.302732
O O15 0.786591 0.000000 0.386495
O O16 0.394224 0.764308 0.111535
O O17 0.358417 0.000000 0.064833
O O18 0.905841 0.500000 0.193451
#
# Coordination Sequence:
#
# PCOD9191326 Si02
#       7
#     8   8   8   8   8   8   8
#     4  11  23  37  55  84 112 136 175 228 275 318
#     4  10  20  35  56  80 110 146 184 221 265 322
#     4  10  20  39  62  80 104 142 180 218 274 332
#     4   9  20  36  56  78 105 141 178 217 268 324
#     4  10  20  33  48  75 110 142 178 218 262 316
#     4   9  18  34  56  82 109 142 183 224 264 313
#     4   9  18  33  53  77 107 144 183 222 263 310
#
# _framework density 18.447695
#
# number of rings (size 3 to 8) (size 9 to 14) (size 15 to 20)
#    0.000    2.286    0.000    3.429    2.000    4.571 
#    0.000    0.714    0.000    4.286    0.000    0.000 
#    0.000    0.000    0.000    0.000    0.000    0.000 
#
# Total GULP energy -156275.907428 kJ/mol
# GULP energy per Si atom -5581.282408 kJ/mol
# Density = 1.840571 g / cm^3
# Si number density = 18.447695 Si / 1000 Ang^3
#
#
#
# Elastic Constant Matrix: (Units=GPa)
#
#
# Indices 1 2 3 4 5 6 
#
# 1 46.7796 13.7422 33.3784 0.0000 -21.0156 -0.0001
# 2 13.7422 21.6162 13.4461 -0.0001 -5.5350 -0.0003
# 3 33.3784 13.4461 95.8547 0.0000 -17.0275 -0.0001
# 4 0.0000 -0.0001 0.0000 29.5894 0.0000 -2.8176
# 5 -21.0156 -5.5350 -17.0275 0.0000 30.3892 0.0000
# 6 -0.0001 -0.0003 -0.0001 -2.8176 0.0000 19.5814
#
#
#
# Elastic Compliance Matrix: (Units=1/GPa)
#
#
# Indices 1 2 3 4 5 6 
#
# 1 0.041547 -0.015714 -0.008515 0.000000 0.021099 0.000000
# 2 -0.015714 0.057574 -0.002967 0.000000 -0.002043 0.000001
# 3 -0.008515 -0.002967 0.014073 0.000000 0.001456 0.000000
# 4 0.000000 0.000000 0.000000 0.034265 0.000000 0.004930
# 5 0.021099 -0.002043 0.001456 0.000000 0.047941 0.000000
# 6 0.000000 0.000001 0.000000 0.004930 0.000000 0.051778
#
#
# Mechanical properties :
#
#
# Convention : Reuss Voigt Hill
#
# Bulk Modulus (GPa) = 17.00652 31.70931 24.35792
# Shear Modulus (GPa) = 15.56801 22.82427 19.19614
#
# Velocity S-wave (km/s) = 2.90815 3.52126 3.22929
# Velocity P-wave (km/s) = 4.52937 5.81020 5.20930
#
# Compressibility (1/GPa) = 0.05880096
#
# Stress axis : x y z
#
# Youngs Moduli (GPa) = 24.06892 17.36896 71.06054
#
# Poissons Ratio (x) = 0.27293 0.60511
# Poissons Ratio (y) = 0.37821 0.21086
# Poissons Ratio (z) = 0.20496 0.05154
#
# Static dielectric constant tensor:
#      x y z
#    x 1.633520 0.000000 -0.006100 
#    y 0.000000 1.623690 0.000000 
#    z -0.006100 0.000000 1.627740 
# 
# From -- ./inp_files/295086.got.cif
#   From: 2010.05.17/outbox.cif.g08.bks.cpg/sg12_148_cif.got.tgz:295086.got - 2010.06.03 13:09:07.
