data_PCOD9191801
_publ_section_title
;
Structure prediction by ZEFSAII (Michael W. Deem and Ramdas Pophale) SiO2 
 PCOD9191801
Probable space group: C 2/M
;
_chemical_formula_sum "Si O2"
_cell_formula_units_Z 64
_cell_length_a 30.729566
_cell_length_b 7.674571
_cell_length_c 14.840804
_cell_angle_alpha 90.000000
_cell_angle_beta 129.704813
_cell_angle_gamma 90.000000
_cell_volume 2692.710134
_symmetry_space_group_name_H-M "C 2/M"
_symmetry_group_IT_number 12
_symmetry_cell_setting 'monoclinic'
loop_
_space_group_symop_operation_xyz
x,y,z
-x,y,-z
-x,-y,-z
x,-y,z
1/2+x,1/2+y,z
1/2-x,1/2+y,-z
1/2-x,1/2-y,-z
1/2+x,1/2-y,z
loop_
_atom_site_type_symbol
_atom_site_label
_atom_site_fract_x
_atom_site_fract_y
_atom_site_fract_z
Si Si1 0.787320 0.703292 0.429802
Si Si2 0.958382 0.300477 0.870057
Si Si3 0.312169 0.204314 0.933998
Si Si4 0.335829 0.701029 0.764679
Si Si5 0.312104 0.290107 0.257521
Si Si6 0.011171 0.789886 0.413173
Si Si7 0.906649 0.707841 0.627745
Si Si8 0.108669 0.210191 0.794992
O O1 0.782406 0.500000 0.447130
O O2 0.723656 0.776417 0.352779
O O3 0.804510 0.714584 0.346924
O O4 0.842797 0.779544 0.551540
O O5 0.978646 0.500000 0.884690
O O6 0.893677 0.298111 0.818878
O O7 0.950145 0.219984 0.759916
O O8 0.000000 0.220155 0.000000
O O9 0.328625 0.297175 0.863279
O O10 0.247282 0.249392 0.870832
O O11 0.313058 0.000000 0.913537
O O12 0.353836 0.238911 0.070775
O O13 0.342132 0.500000 0.744920
O O14 0.317445 0.500000 0.275281
O O15 0.362464 0.228804 0.260079
O O16 0.955921 0.731148 0.284934
O O17 0.000000 0.729546 0.500000
O O18 0.067302 0.734277 0.436163
O O19 0.013170 0.000000 0.418714
O O20 0.902543 0.500000 0.636998
O O21 0.108425 0.000000 0.790319
#
# Coordination Sequence:
#
# PCOD9191801 Si02
#       8
#     8   8   8   8   8   8   8   8
#     4   9  19  36  58  84 115 148 188 239 293 345
#     4  10  23  42  62  86 119 156 193 240 291 345
#     4  10  20  33  53  81 112 149 192 236 287 348
#     4  10  21  38  60  86 115 148 188 239 293 345
#     4   9  18  33  53  79 112 151 192 235 288 346
#     4  10  22  39  58  83 116 154 195 240 290 343
#     4  10  22  40  61  86 117 155 197 242 292 345
#     4  10  20  33  51  77 111 150 193 242 290 341
#
# _framework density 23.767878
#
# number of rings (size 3 to 8) (size 9 to 14) (size 15 to 20)
#    0.000    2.250    0.000    1.875    1.750    5.000 
#    0.000    0.000    0.000    0.000    0.000    0.000 
#    0.000    0.000    0.000    0.000    0.000    0.000 
#
# Total GULP energy -178786.633893 kJ/mol
# GULP energy per Si atom -5587.082309 kJ/mol
# Density = 2.371378 g / cm^3
# Si number density = 23.767878 Si / 1000 Ang^3
#
#
#
# Elastic Constant Matrix: (Units=GPa)
#
#
# Indices 1 2 3 4 5 6 
#
# 1 111.9826 1.0596 33.2586 0.0000 7.3097 0.0000
# 2 1.0596 48.8227 6.2144 0.0000 2.0877 0.0000
# 3 33.2586 6.2144 145.5636 0.0000 16.8620 0.0000
# 4 0.0000 0.0000 0.0000 9.1180 0.0000 -4.7199
# 5 7.3097 2.0877 16.8620 0.0000 35.1575 0.0000
# 6 0.0000 0.0000 0.0000 -4.7199 0.0000 16.5023
#
#
#
# Elastic Compliance Matrix: (Units=1/GPa)
#
#
# Indices 1 2 3 4 5 6 
#
# 1 0.009614 0.000100 -0.002084 0.000000 -0.001005 0.000000
# 2 0.000100 0.020619 -0.000803 0.000000 -0.000860 0.000000
# 3 -0.002084 -0.000803 0.007756 0.000000 -0.003239 0.000000
# 4 0.000000 0.000000 0.000000 0.128733 0.000000 0.036819
# 5 -0.001005 -0.000860 -0.003239 0.000000 0.030257 0.000000
# 6 0.000000 0.000000 0.000000 0.036819 0.000000 0.071129
#
#
# Mechanical properties :
#
#
# Convention : Reuss Voigt Hill
#
# Bulk Modulus (GPa) = 30.85279 43.04825 36.95052
# Shear Modulus (GPa) = 17.57553 29.87798 23.72675
#
# Velocity S-wave (km/s) = 2.72226 3.54937 3.16297
# Velocity P-wave (km/s) = 4.78435 5.91174 5.37767
#
# Compressibility (1/GPa) = 0.03241198
#
# Stress axis : x y z
#
# Youngs Moduli (GPa) = 104.01850 48.49864 128.93995
#
# Poissons Ratio (x) = -0.00483 0.26876
# Poissons Ratio (y) = -0.01036 0.10360
# Poissons Ratio (z) = 0.21681 0.03897
#
# Static dielectric constant tensor:
#      x y z
#    x 1.883130 0.000000 -0.001800 
#    y 0.000000 1.901970 0.000000 
#    z -0.001800 0.000000 1.943660 
# 
# From -- ./inp_files/249692.got.cif
#   From: 2010.05.17/outbox.cif.g08.bks.cpg/sg12_125_cif.got.tgz:249692.got - 2010.06.03 13:09:07.
