data_PCOD9191024
_publ_section_title
;
Structure prediction by ZEFSAII (Michael W. Deem and Ramdas Pophale) SiO2 
 PCOD9191024
Probable space group: C 2/M
;
_chemical_formula_sum "Si O2"
_cell_formula_units_Z 64
_cell_length_a 31.103289
_cell_length_b 7.723594
_cell_length_c 14.563049
_cell_angle_alpha 90.000000
_cell_angle_beta 129.199089
_cell_angle_gamma 90.000000
_cell_volume 2711.154633
_symmetry_space_group_name_H-M "C 2/M"
_symmetry_group_IT_number 12
_symmetry_cell_setting 'monoclinic'
loop_
_space_group_symop_operation_xyz
x,y,z
-x,y,-z
-x,-y,-z
x,-y,z
1/2+x,1/2+y,z
1/2-x,1/2+y,-z
1/2-x,1/2-y,-z
1/2+x,1/2-y,z
loop_
_atom_site_type_symbol
_atom_site_label
_atom_site_fract_x
_atom_site_fract_y
_atom_site_fract_z
Si Si1 0.890711 0.208828 0.702341
Si Si2 0.552422 0.298210 0.625352
Si Si3 0.588382 0.204309 0.859327
Si Si4 0.673379 0.700528 0.751757
Si Si5 0.685792 0.291494 0.239992
Si Si6 0.990524 0.790959 0.091710
Si Si7 0.793305 0.703052 0.941808
Si Si8 0.307493 0.796416 0.428068
O O1 0.863642 0.269856 0.761730
O O2 0.851446 0.259189 0.565914
O O3 0.954064 0.266306 0.779845
O O4 0.891232 0.000000 0.707233
O O5 0.500000 0.223224 0.500000
O O6 0.556000 0.500000 0.601569
O O7 0.548127 0.287376 0.729383
O O8 0.613284 0.218271 0.689611
O O9 0.563420 0.232235 0.926513
O O10 0.590086 0.000000 0.845062
O O11 0.651299 0.276411 0.936164
O O12 0.671972 0.500000 0.779400
O O13 0.731196 0.778565 0.869047
O O14 0.679628 0.703522 0.650032
O O15 0.680660 0.500000 0.222698
O O16 0.692110 0.217038 0.146944
O O17 0.744237 0.252219 0.369214
O O18 0.987828 0.000000 0.086079
O O19 0.000000 0.733151 0.000000
O O20 0.790202 0.500000 0.960210
O O21 0.308184 0.000000 0.408033
#
# Coordination Sequence:
#
# PCOD9191024 Si02
#       8
#     8   8   8   8   8   8   8   8
#     4  10  20  33  52  76 107 149 195 239 284 340
#     4  10  23  42  64  88 115 152 199 245 287 344
#     4  11  24  40  60  89 122 155 191 240 302 357
#     4   9  19  38  61  83 112 151 192 237 285 337
#     4   9  18  33  53  80 112 149 192 237 283 333
#     4  10  22  40  61  84 112 153 203 246 285 340
#     4   9  19  36  58  84 115 150 188 232 290 352
#     4  10  20  32  51  82 116 147 186 235 288 345
#
# _framework density 23.606176999999999
#
# number of rings (size 3 to 8) (size 9 to 14) (size 15 to 20)
#    0.000    2.250    0.000    1.875    1.750    5.000 
#    0.000    0.000    0.000    0.000    0.000    0.000 
#    0.000    0.000    0.000    0.000    0.000    0.000 
#
# Total GULP energy -178784.809447 kJ/mol
# GULP energy per Si atom -5587.025295 kJ/mol
# Density = 2.355245 g / cm^3
# Si number density = 23.606177 Si / 1000 Ang^3
#
#
#
# Elastic Constant Matrix: (Units=GPa)
#
#
# Indices 1 2 3 4 5 6 
#
# 1 124.9948 14.2484 45.9931 0.0000 23.4383 0.0000
# 2 14.2484 48.3392 9.0811 0.0000 7.8841 0.0000
# 3 45.9931 9.0811 150.0436 0.0000 27.3550 0.0000
# 4 0.0000 0.0000 0.0000 14.9958 0.0000 -6.3086
# 5 23.4383 7.8841 27.3550 0.0000 38.7348 0.0000
# 6 0.0000 0.0000 0.0000 -6.3086 0.0000 20.9113
#
#
#
# Elastic Compliance Matrix: (Units=1/GPa)
#
#
# Indices 1 2 3 4 5 6 
#
# 1 0.009750 -0.001816 -0.002147 0.000000 -0.004014 0.000000
# 2 -0.001816 0.021779 -0.000176 0.000000 -0.003210 0.000000
# 3 -0.002147 -0.000176 0.008138 0.000000 -0.004412 0.000000
# 4 0.000000 0.000000 0.000000 0.076379 0.000000 0.023042
# 5 -0.004014 -0.003210 -0.004412 0.000000 0.032014 0.000000
# 6 0.000000 0.000000 0.000000 0.023042 0.000000 0.054772
#
#
# Mechanical properties :
#
#
# Convention : Reuss Voigt Hill
#
# Bulk Modulus (GPa) = 31.85890 51.33587 41.59739
# Shear Modulus (GPa) = 22.56583 31.86540 27.21561
#
# Velocity S-wave (km/s) = 3.09516 3.67805 3.39912
# Velocity P-wave (km/s) = 5.12822 6.31121 5.75022
#
# Compressibility (1/GPa) = 0.03138840
#
# Stress axis : x y z
#
# Youngs Moduli (GPa) = 102.56425 45.91579 122.88178
#
# Poissons Ratio (x) = 0.08338 0.26383
# Poissons Ratio (y) = 0.18625 0.02167
# Poissons Ratio (z) = 0.22021 0.00810
#
# Static dielectric constant tensor:
#      x y z
#    x 1.909780 0.000000 0.020940 
#    y 0.000000 1.879300 0.000000 
#    z 0.020940 0.000000 1.916130 
# 
# From -- ./inp_files/250037.got.cif
#   From: 2010.05.17/outbox.cif.g08.bks.cpg/sg12_126_cif.got.tgz:250037.got - 2010.06.03 13:09:07.
