data_PCOD9191214
_publ_section_title
;
Structure prediction by ZEFSAII (Michael W. Deem and Ramdas Pophale) SiO2 
 PCOD9191214
Probable space group: C 2/M
;
_chemical_formula_sum "Si O2"
_cell_formula_units_Z 40
_cell_length_a 13.810841
_cell_length_b 12.881851
_cell_length_c 10.399607
_cell_angle_alpha 90.000000
_cell_angle_beta 79.150920
_cell_angle_gamma 90.000000
_cell_volume 1817.116200
_symmetry_space_group_name_H-M "C 2/M"
_symmetry_group_IT_number 12
_symmetry_cell_setting 'monoclinic'
loop_
_space_group_symop_operation_xyz
x,y,z
-x,y,-z
-x,-y,-z
x,-y,z
1/2+x,1/2+y,z
1/2-x,1/2+y,-z
1/2-x,1/2-y,-z
1/2+x,1/2-y,z
loop_
_atom_site_type_symbol
_atom_site_label
_atom_site_fract_x
_atom_site_fract_y
_atom_site_fract_z
Si Si1 0.926526 0.270073 0.898411
Si Si2 0.063201 0.500000 0.611234
Si Si3 0.925931 0.500000 0.897771
Si Si4 0.883895 0.118371 0.507825
Si Si5 0.722053 0.377909 0.188678
Si Si6 0.117817 0.711258 0.690710
O O1 0.877616 0.385806 0.913114
O O2 0.847134 0.180554 0.895297
O O3 0.004590 0.270566 0.760107
O O4 0.000000 0.254480 0.000000
O O5 0.124504 0.604945 0.607776
O O6 0.000000 0.500000 0.500000
O O7 0.992769 0.500000 0.753394
O O8 0.000000 0.500000 0.000000
O O9 0.833454 0.127837 0.659184
O O10 0.847018 0.195531 0.406910
O O11 0.000000 0.139075 0.500000
O O12 0.872764 0.000000 0.466408
O O13 0.741048 0.500000 0.156346
O O14 0.820353 0.313140 0.196319
#
# Coordination Sequence:
#
# PCOD9191214 Si02
#       6
#     8   4   4   8   8   8
#     4  10  22  40  65  87 116 160 207 249 298 361
#     4  10  20  32  60  92 117 153 204 251 295 354
#     4   8  18  38  58  82 115 157 196 245 301 352
#     4  10  20  37  59  85 121 161 192 239 301 364
#     4  11  23  40  61  89 124 158 196 249 309 357
#     4  11  21  39  60  89 125 158 197 247 304 366
#
# _framework density 22.012899999999998
#
# number of rings (size 3 to 8) (size 9 to 14) (size 15 to 20)
#    0.000    1.800    3.000    1.200    2.800    1.200 
#    1.800    0.000    0.000    0.000    0.000    0.000 
#    0.000    0.000    0.000    0.000    0.000    0.000 
#
# Total GULP energy -111765.705499 kJ/mol
# GULP energy per Si atom -5588.285275 kJ/mol
# Density = 2.196280 g / cm^3
# Si number density = 22.012900 Si / 1000 Ang^3
#
#
#
# Elastic Constant Matrix: (Units=GPa)
#
#
# Indices 1 2 3 4 5 6 
#
# 1 74.0902 35.4988 14.0289 0.0000 12.9657 0.0000
# 2 35.4988 146.8831 69.1654 0.0000 30.1941 0.0000
# 3 14.0289 69.1654 96.4496 0.0000 13.9015 0.0000
# 4 0.0000 0.0000 0.0000 41.8950 0.0000 9.8949
# 5 12.9657 30.1941 13.9015 0.0000 37.9927 0.0000
# 6 0.0000 0.0000 0.0000 9.8949 0.0000 27.0304
#
#
#
# Elastic Compliance Matrix: (Units=1/GPa)
#
#
# Indices 1 2 3 4 5 6 
#
# 1 0.015530 -0.003486 0.000640 0.000000 -0.002763 0.000000
# 2 -0.003486 0.012422 -0.007547 0.000000 -0.005921 0.000000
# 3 0.000640 -0.007547 0.015681 0.000000 0.000042 0.000000
# 4 0.000000 0.000000 0.000000 0.026128 0.000000 -0.009565
# 5 -0.002763 -0.005921 0.000042 0.000000 0.031954 0.000000
# 6 0.000000 0.000000 0.000000 -0.009565 0.000000 0.040497
#
#
# Mechanical properties :
#
#
# Convention : Reuss Voigt Hill
#
# Bulk Modulus (GPa) = 43.77410 61.64544 52.70977
# Shear Modulus (GPa) = 29.30574 34.63228 31.96901
#
# Velocity S-wave (km/s) = 3.65265 3.97075 3.81502
# Velocity P-wave (km/s) = 6.14150 7.00625 6.58808
#
# Compressibility (1/GPa) = 0.02284456
#
# Stress axis : x y z
#
# Youngs Moduli (GPa) = 64.39170 80.50383 63.77009
#
# Poissons Ratio (x) = 0.28067 -0.04078
# Poissons Ratio (y) = 0.22450 0.48130
# Poissons Ratio (z) = -0.04118 0.60759
#
# Static dielectric constant tensor:
#      x y z
#    x 1.876290 0.000000 -0.035790 
#    y 0.000000 1.802320 0.000000 
#    z -0.035790 0.000000 1.793860 
# 
# From -- ./inp_files/140519.got.cif
#   From: 2010.05.17/outbox.cif.g08.bks.cpg/sg12_71_cif.got.tgz:140519.got - 2010.06.03 13:09:07.
