data_PCOD9191967
_publ_section_title
;
Structure prediction by ZEFSAII (Michael W. Deem and Ramdas Pophale) SiO2 
 PCOD9191967
Probable space group: C 2/M
;
_chemical_formula_sum "Si O2"
_cell_formula_units_Z 56
_cell_length_a 30.654930
_cell_length_b 19.101385
_cell_length_c 5.119947
_cell_angle_alpha 90.000000
_cell_angle_beta 65.083762
_cell_angle_gamma 90.000000
_cell_volume 2718.953999
_symmetry_space_group_name_H-M "C 2/M"
_symmetry_group_IT_number 12
_symmetry_cell_setting 'monoclinic'
loop_
_space_group_symop_operation_xyz
x,y,z
-x,y,-z
-x,-y,-z
x,-y,z
1/2+x,1/2+y,z
1/2-x,1/2+y,-z
1/2-x,1/2-y,-z
1/2+x,1/2-y,z
loop_
_atom_site_type_symbol
_atom_site_label
_atom_site_fract_x
_atom_site_fract_y
_atom_site_fract_z
Si Si1 0.224588 0.073429 0.419966
Si Si2 0.272337 0.723124 0.721334
Si Si3 0.443342 0.580975 0.163391
Si Si4 0.137898 0.925239 0.013202
Si Si5 0.373843 0.304689 0.582898
Si Si6 0.178360 0.581428 0.573344
Si Si7 0.163756 0.676758 0.116527
O O1 0.234313 0.139837 0.225769
O O2 0.263568 0.079048 0.553503
O O3 0.234891 0.000000 0.258498
O O4 0.172084 0.073698 0.675094
O O5 0.250000 0.750000 0.500000
O O6 0.331919 0.718616 0.487384
O O7 0.212109 0.728417 0.052144
O O8 0.436101 0.500000 0.285702
O O9 0.417528 0.647977 0.365139
O O10 0.500000 0.591527 0.000000
O O11 0.416444 0.579275 0.952222
O O12 0.149143 0.859705 0.157986
O O13 0.145981 0.000000 0.126882
O O14 0.379589 0.232111 0.729158
O O15 0.162165 0.500000 0.637676
O O16 0.163763 0.619468 0.345382
O O17 0.163721 0.632860 0.850123
#
# Coordination Sequence:
#
# PCOD9191967 Si02
#       7
#     8   8   8   8   8   8   8
#     4  10  20  33  53  78 114 157 205 248 287 343
#     4  10  20  34  52  80 111 158 194 249 291 351
#     4  10  21  38  57  79 114 159 203 248 298 349
#     4  10  20  33  52  78 109 151 198 244 292 341
#     4  10  22  33  55  80 112 149 193 251 290 355
#     4  11  23  40  57  83 118 157 202 244 294 356
#     4  10  24  36  59  82 115 157 194 247 296 357
#
# _framework density 20.596153999999999
#
# number of rings (size 3 to 8) (size 9 to 14) (size 15 to 20)
#    0.857    1.000    2.857    0.857    6.000    1.714 
#    0.000    2.143    0.000    0.000    0.000    0.000 
#    0.000    3.429    0.000    0.000    0.000    0.000 
#
# Total GULP energy -155931.142161 kJ/mol
# GULP energy per Si atom -5568.969363 kJ/mol
# Density = 2.054928 g / cm^3
# Si number density = 20.596154 Si / 1000 Ang^3
#
#
#
# Elastic Constant Matrix: (Units=GPa)
#
#
# Indices 1 2 3 4 5 6 
#
# 1 78.7188 43.5669 44.1760 0.0000 -8.8559 0.0000
# 2 43.5669 188.4016 66.9745 0.0000 7.2244 0.0000
# 3 44.1760 66.9745 96.6136 0.0000 11.2616 0.0000
# 4 0.0000 0.0000 0.0000 41.7595 0.0000 3.9220
# 5 -8.8559 7.2244 11.2616 0.0000 29.8118 0.0000
# 6 0.0000 0.0000 0.0000 3.9220 0.0000 29.5040
#
#
#
# Elastic Compliance Matrix: (Units=1/GPa)
#
#
# Indices 1 2 3 4 5 6 
#
# 1 0.019799 -0.001765 -0.008959 0.000000 0.009693 0.000000
# 2 -0.001765 0.007202 -0.004101 0.000000 -0.000720 0.000000
# 3 -0.008959 -0.004101 0.018290 0.000000 -0.008577 0.000000
# 4 0.000000 0.000000 0.000000 0.024249 0.000000 -0.003224
# 5 0.009693 -0.000720 -0.008577 0.000000 0.039838 0.000000
# 6 0.000000 0.000000 0.000000 -0.003224 0.000000 0.034322
#
#
# Mechanical properties :
#
#
# Convention : Reuss Voigt Hill
#
# Bulk Modulus (GPa) = 63.94245 74.79652 69.36948
# Shear Modulus (GPa) = 28.00131 34.14949 31.07540
#
# Velocity S-wave (km/s) = 3.69120 4.07634 3.88854
# Velocity P-wave (km/s) = 7.01996 7.65179 7.34267
#
# Compressibility (1/GPa) = 0.01563906
#
# Stress axis : x y z
#
# Youngs Moduli (GPa) = 50.50861 138.85924 54.67558
#
# Poissons Ratio (x) = 0.24511 0.48984
# Poissons Ratio (y) = 0.08916 0.22423
# Poissons Ratio (z) = 0.45251 0.56948
#
# Static dielectric constant tensor:
#      x y z
#    x 1.787820 0.000000 -0.000110 
#    y 0.000000 1.809570 0.000000 
#    z -0.000110 0.000000 1.879750 
# 
# From -- ./inp_files/31989.got.cif
#   From: 2010.05.17/outbox.cif.g08.bks.cpg/sg12_16_cif.got.tgz:31989.got - 2010.06.03 13:09:07.
