data_PCOD9192552
_publ_section_title
;
Structure prediction by ZEFSAII (Michael W. Deem and Ramdas Pophale) SiO2 
 PCOD9192552
Probable space group: C 2/M
;
_chemical_formula_sum "Si O2"
_cell_formula_units_Z 42
_cell_length_a 22.745596
_cell_length_b 16.661088
_cell_length_c 12.387845
_cell_angle_alpha 90.000000
_cell_angle_beta 23.917159
_cell_angle_gamma 90.000000
_cell_volume 1903.253565
_symmetry_space_group_name_H-M "C 2/M"
_symmetry_group_IT_number 12
_symmetry_cell_setting 'monoclinic'
loop_
_space_group_symop_operation_xyz
x,y,z
-x,y,-z
-x,-y,-z
x,-y,z
1/2+x,1/2+y,z
1/2-x,1/2+y,-z
1/2-x,1/2-y,-z
1/2+x,1/2-y,z
loop_
_atom_site_type_symbol
_atom_site_label
_atom_site_fract_x
_atom_site_fract_y
_atom_site_fract_z
Si Si1 0.205191 0.092420 0.434434
Si Si2 0.000000 0.500000 0.500000
Si Si3 0.577252 0.351861 0.975492
Si Si4 0.638330 0.091443 0.613643
Si Si5 0.022008 0.657281 0.313836
Si Si6 0.735326 0.727585 0.205527
O O1 0.320226 0.117069 0.334670
O O2 0.207598 0.153804 0.332786
O O3 0.046829 0.099294 0.755123
O O4 0.232165 0.000000 0.359122
O O5 0.010860 0.571629 0.389591
O O6 0.500000 0.313874 0.000000
O O7 0.708924 0.404626 0.707748
O O8 0.649637 0.288272 0.932953
O O9 0.532591 0.144469 0.718719
O O10 0.586814 0.000000 0.705474
O O11 0.910383 0.719940 0.554698
O O12 0.184883 0.690224 0.031881
#
# Coordination Sequence:
#
# PCOD9192552 Si02
#       6
#     8   2   8   8   8   8
#     4  10  20  33  57  95 143 176 207 249 305 382
#     4  12  28  52  76  92 116 164 218 290 326 372
#     4   9  18  31  55  87 137 179 212 243 302 380
#     4   9  18  34  58  94 131 177 218 252 303 382
#     4  11  25  44  70  93 126 165 219 265 330 371
#     4  11  23  40  64 101 130 169 204 262 316 393
#
# _framework density 22.067474000000001
#
# number of rings (size 3 to 8) (size 9 to 14) (size 15 to 20)
#    0.000    1.905    2.857    0.571    4.000    5.333 
#    0.000    1.905    0.000    1.143    0.000    0.000 
#    0.000    0.000    0.000    0.000    0.000    0.000 
#
# Total GULP energy -117105.998801 kJ/mol
# GULP energy per Si atom -5576.476133 kJ/mol
# Density = 2.201725 g / cm^3
# Si number density = 22.067474 Si / 1000 Ang^3
#
#
#
# Elastic Constant Matrix: (Units=GPa)
#
#
# Indices 1 2 3 4 5 6 
#
# 1 61.4726 52.3741 16.9104 0.0008 6.9352 0.0000
# 2 52.3741 151.3687 65.1885 0.0002 9.9975 0.0000
# 3 16.9104 65.1885 115.1238 0.0012 1.0618 0.0002
# 4 0.0008 0.0002 0.0012 37.0120 -0.0008 18.0488
# 5 6.9352 9.9975 1.0618 -0.0008 14.4989 0.0000
# 6 0.0000 0.0000 0.0002 18.0488 0.0000 29.0240
#
#
#
# Elastic Compliance Matrix: (Units=1/GPa)
#
#
# Indices 1 2 3 4 5 6 
#
# 1 0.023692 -0.008396 0.001326 -0.000001 -0.005640 0.000001
# 2 -0.008396 0.012204 -0.005640 0.000000 -0.003986 0.000000
# 3 0.001326 -0.005640 0.011663 0.000000 0.002401 0.000000
# 4 -0.000001 0.000000 0.000000 0.038778 0.000002 -0.024114
# 5 -0.005640 -0.003986 0.002401 0.000002 0.074241 -0.000001
# 6 0.000001 0.000000 0.000000 -0.024114 -0.000001 0.049450
#
#
# Mechanical properties :
#
#
# Convention : Reuss Voigt Hill
#
# Bulk Modulus (GPa) = 45.16967 66.32344 55.74655
# Shear Modulus (GPa) = 20.59068 29.00644 24.79856
#
# Velocity S-wave (km/s) = 3.05795 3.62946 3.35589
# Velocity P-wave (km/s) = 5.74294 6.90536 6.35080
#
# Compressibility (1/GPa) = 0.02213875
#
# Stress axis : x y z
#
# Youngs Moduli (GPa) = 42.20746 81.94136 85.74006
#
# Poissons Ratio (x) = 0.68801 -0.11371
# Poissons Ratio (y) = 0.35439 0.48360
# Poissons Ratio (z) = -0.05598 0.46217
#
# Static dielectric constant tensor:
#      x y z
#    x 1.820440 0.000000 -0.000560 
#    y 0.000000 1.754830 0.000000 
#    z -0.000560 0.000000 1.841230 
# 
# From -- ./inp_files/177012.got.cif
#   From: 2010.05.17/outbox.cif.g08.bks.cpg/sg12_89_cif.got.tgz:177012.got - 2010.06.03 13:09:07.
