data_PCOD9192788
_publ_section_title
;
Structure prediction by ZEFSAII (Michael W. Deem and Ramdas Pophale) SiO2 
 PCOD9192788
Probable space group: C 2/M
;
_chemical_formula_sum "Si O2"
_cell_formula_units_Z 48
_cell_length_a 18.712656
_cell_length_b 10.015702
_cell_length_c 24.314923
_cell_angle_alpha 90.000000
_cell_angle_beta 29.068912
_cell_angle_gamma 90.000000
_cell_volume 2214.124078
_symmetry_space_group_name_H-M "C 2/M"
_symmetry_group_IT_number 12
_symmetry_cell_setting 'monoclinic'
loop_
_space_group_symop_operation_xyz
x,y,z
-x,y,-z
-x,-y,-z
x,-y,z
1/2+x,1/2+y,z
1/2-x,1/2+y,-z
1/2-x,1/2-y,-z
1/2+x,1/2-y,z
loop_
_atom_site_type_symbol
_atom_site_label
_atom_site_fract_x
_atom_site_fract_y
_atom_site_fract_z
Si Si1 0.441810 0.845348 0.286600
Si Si2 0.020879 0.648174 0.550266
Si Si3 0.938786 0.150867 0.388415
Si Si4 0.795715 0.150304 0.055868
Si Si5 0.031971 0.656437 0.851457
Si Si6 0.756136 0.250195 0.791910
O O1 0.399750 0.745817 0.363705
O O2 0.620858 0.841639 0.163890
O O3 0.394846 0.808318 0.256444
O O4 0.403032 0.000000 0.324570
O O5 0.086464 0.500000 0.514024
O O6 0.098718 0.769467 0.530112
O O7 0.860031 0.649811 0.687388
O O8 0.000000 0.673475 0.500000
O O9 0.118175 0.150168 0.269933
O O10 0.885740 0.000000 0.420284
O O11 0.816199 0.181510 0.106829
O O12 0.844886 0.000000 0.010197
O O13 0.888697 0.255426 0.958910
O O14 0.994717 0.500000 0.873952
O O15 0.142304 0.683662 0.827370
#
# Coordination Sequence:
#
# PCOD9192788 Si02
#       6
#     8   8   8   8   8   8
#     4   9  19  35  52  70 102 144 179 212 251 303
#     4   9  18  34  58  82 103 131 168 209 257 315
#     4   9  18  32  53  78 104 132 166 211 256 302
#     4  10  20  34  51  73 102 139 181 218 254 298
#     4  11  22  34  50  75 107 142 178 213 256 303
#     4   9  20  33  53  76 105 134 171 213 260 307
#
# _framework density 21.679002000000001
#
# number of rings (size 3 to 8) (size 9 to 14) (size 15 to 20)
#    1.000    1.500    0.000    2.500    0.000    7.000 
#    0.000    0.000    0.000    1.000    0.000    0.000 
#    0.000    0.000    0.000    0.000    0.000    0.000 
#
# Total GULP energy -133912.211446 kJ/mol
# GULP energy per Si atom -5579.675477 kJ/mol
# Density = 2.162966 g / cm^3
# Si number density = 21.679002 Si / 1000 Ang^3
#
#
#
# Elastic Constant Matrix: (Units=GPa)
#
#
# Indices 1 2 3 4 5 6 
#
# 1 74.1789 36.5950 14.7887 0.0005 15.7552 0.0001
# 2 36.5950 124.7147 31.5527 0.0003 26.9433 0.0000
# 3 14.7887 31.5527 69.8911 0.0009 13.8964 0.0000
# 4 0.0005 0.0003 0.0009 9.6542 -0.0001 12.2110
# 5 15.7552 26.9433 13.8964 -0.0001 41.2239 0.0000
# 6 0.0001 0.0000 0.0000 12.2110 0.0000 4.3604
#
#
#
# Elastic Compliance Matrix: (Units=1/GPa)
#
#
# Indices 1 2 3 4 5 6 
#
# 1 0.016276 -0.003773 -0.001066 0.000000 -0.003395 -0.000001
# 2 -0.003773 0.010939 -0.003221 0.000000 -0.004622 0.000000
# 3 -0.001066 -0.003221 0.016601 0.000001 -0.003084 -0.000002
# 4 0.000000 0.000000 0.000001 -0.040746 -0.000001 0.114108
# 5 -0.003395 -0.004622 -0.003084 -0.000001 0.029616 0.000001
# 6 -0.000001 0.000000 -0.000002 0.114108 0.000001 -0.090216
#
#
# Mechanical properties :
#
#
# Convention : Reuss Voigt Hill
#
# Bulk Modulus (GPa) = 36.10573 48.29528 42.20051
# Shear Modulus (GPa) = -155.37234 23.43759 -65.96737
#
# Velocity S-wave (km/s) = -8.47497 3.29161 -5.52225
# Velocity P-wave (km/s) = 8.89247 6.06399 4.59913
#
# Compressibility (1/GPa) = 0.02769643
#
# Stress axis : x y z
#
# Youngs Moduli (GPa) = 61.44123 91.41836 60.23832
#
# Poissons Ratio (x) = 0.34489 0.06419
# Poissons Ratio (y) = 0.23180 0.19404
# Poissons Ratio (z) = 0.06547 0.29447
#
# Static dielectric constant tensor:
#      x y z
#    x 1.804770 0.000000 -0.028900 
#    y 0.000000 1.755580 0.000000 
#    z -0.028900 0.000000 1.799940 
# 
# From -- ./inp_files/341902.got.cif
#   From: 2010.05.17/outbox.cif.g08.bks.cpg/sg12_171_cif.got.tgz:341902.got - 2010.06.03 13:09:07.
