data_PCOD9192243
_publ_section_title
;
Structure prediction by ZEFSAII (Michael W. Deem and Ramdas Pophale) SiO2 
 PCOD9192243
Probable space group: C 2/M
;
_chemical_formula_sum "Si O2"
_cell_formula_units_Z 40
_cell_length_a 13.511591
_cell_length_b 18.784812
_cell_length_c 15.097934
_cell_angle_alpha 90.000000
_cell_angle_beta 151.460196
_cell_angle_gamma 90.000000
_cell_volume 1830.834075
_symmetry_space_group_name_H-M "C 2/M"
_symmetry_group_IT_number 12
_symmetry_cell_setting 'monoclinic'
loop_
_space_group_symop_operation_xyz
x,y,z
-x,y,-z
-x,-y,-z
x,-y,z
1/2+x,1/2+y,z
1/2-x,1/2+y,-z
1/2-x,1/2-y,-z
1/2+x,1/2-y,z
loop_
_atom_site_type_symbol
_atom_site_label
_atom_site_fract_x
_atom_site_fract_y
_atom_site_fract_z
Si Si1 0.253397 0.866135 0.480242
Si Si2 0.781443 0.500000 0.200094
Si Si3 0.598665 0.782648 0.983195
Si Si4 0.811523 0.635353 0.108585
Si Si5 0.777674 0.000000 0.641038
Si Si6 0.343742 0.261383 0.451937
O O1 0.444238 0.885840 0.693581
O O2 0.370912 0.820894 0.497201
O O3 0.125132 0.810400 0.437627
O O4 0.139983 0.930075 0.343660
O O5 0.723122 0.569581 0.096000
O O6 0.695299 0.500000 0.232592
O O7 0.030651 0.500000 0.419925
O O8 0.713432 0.843044 0.014814
O O9 0.393321 0.764459 0.765062
O O10 0.500000 0.803191 0.000000
O O11 0.733843 0.709806 0.092915
O O12 0.500000 0.284881 0.500000
#
# Coordination Sequence:
#
# PCOD9192243 Si02
#       6
#     8   4   8   8   4   8
#     4   9  19  34  53  82 107 138 176 222 266 321
#     4   9  18  32  57  81 109 139 169 222 274 323
#     4  10  20  33  54  77 107 144 179 221 264 312
#     4   9  19  36  53  79 109 137 178 221 268 321
#     4   9  18  30  56  84 109 136 171 217 279 322
#     4  10  20  33  54  77 108 141 183 222 261 311
#
# _framework density 21.847964999999999
#
# number of rings (size 3 to 8) (size 9 to 14) (size 15 to 20)
#    0.000    2.600    0.000    1.200    8.400    1.600 
#    0.000    2.500    0.000    0.000    0.000    0.000 
#    0.000    0.000    0.000    0.000    0.000    0.000 
#
# Total GULP energy -111382.449359 kJ/mol
# GULP energy per Si atom -5569.122468 kJ/mol
# Density = 2.179824 g / cm^3
# Si number density = 21.847965 Si / 1000 Ang^3
#
#
#
# Elastic Constant Matrix: (Units=GPa)
#
#
# Indices 1 2 3 4 5 6 
#
# 1 135.8836 74.6069 23.3130 0.0000 -28.8455 0.0000
# 2 74.6069 157.8417 34.5811 0.0000 -31.3944 0.0000
# 3 23.3130 34.5811 79.7923 0.0003 -9.4282 0.0005
# 4 0.0000 0.0000 0.0003 22.7095 0.0002 -2.2019
# 5 -28.8455 -31.3944 -9.4282 0.0002 40.2929 0.0003
# 6 0.0000 0.0000 0.0005 -2.2019 0.0003 20.5549
#
#
#
# Elastic Compliance Matrix: (Units=1/GPa)
#
#
# Indices 1 2 3 4 5 6 
#
# 1 0.010596 -0.003964 -0.000871 0.000000 0.004294 0.000000
# 2 -0.003964 0.009559 -0.002509 0.000000 0.004023 0.000000
# 3 -0.000871 -0.002509 0.013956 0.000000 0.000687 0.000000
# 4 0.000000 0.000000 0.000000 0.044497 0.000000 0.004767
# 5 0.004294 0.004023 0.000687 0.000000 0.031188 0.000000
# 6 0.000000 0.000000 0.000000 0.004767 0.000000 0.049161
#
#
# Mechanical properties :
#
#
# Convention : Reuss Voigt Hill
#
# Bulk Modulus (GPa) = 51.48442 70.94662 61.21552
# Shear Modulus (GPa) = 27.75954 32.77921 30.26937
#
# Velocity S-wave (km/s) = 3.56838 3.87761 3.72621
# Velocity P-wave (km/s) = 6.37133 7.25198 6.82587
#
# Compressibility (1/GPa) = 0.01942335
#
# Stress axis : x y z
#
# Youngs Moduli (GPa) = 94.37108 104.61369 71.65578
#
# Poissons Ratio (x) = 0.41467 0.06239
# Poissons Ratio (y) = 0.37407 0.17980
# Poissons Ratio (z) = 0.08217 0.26250
#
# Static dielectric constant tensor:
#      x y z
#    x 1.810580 0.000000 0.033150 
#    y 0.000000 1.829140 0.000000 
#    z 0.033150 0.000000 1.951840 
# 
# From -- ./inp_files/87674.got.cif
#   From: 2010.05.17/outbox.cif.g08.bks.cpg/sg12_44_cif.got.tgz:87674.got - 2010.06.03 13:09:07.
