data_PCOD9192447
_publ_section_title
;
Structure prediction by ZEFSAII (Michael W. Deem and Ramdas Pophale) SiO2 
 PCOD9192447
Probable space group: C 2/M
;
_chemical_formula_sum "Si O2"
_cell_formula_units_Z 64
_cell_length_a 26.290790
_cell_length_b 11.892669
_cell_length_c 10.586753
_cell_angle_alpha 90.000000
_cell_angle_beta 87.182085
_cell_angle_gamma 90.000000
_cell_volume 3306.132754
_symmetry_space_group_name_H-M "C 2/M"
_symmetry_group_IT_number 12
_symmetry_cell_setting 'monoclinic'
loop_
_space_group_symop_operation_xyz
x,y,z
-x,y,-z
-x,-y,-z
x,-y,z
1/2+x,1/2+y,z
1/2-x,1/2+y,-z
1/2-x,1/2-y,-z
1/2+x,1/2-y,z
loop_
_atom_site_type_symbol
_atom_site_label
_atom_site_fract_x
_atom_site_fract_y
_atom_site_fract_z
Si Si1 0.369562 0.208965 0.343098
Si Si2 0.798561 0.627423 0.814288
Si Si3 0.684231 0.372287 0.850245
Si Si4 0.044695 0.873083 0.591714
Si Si5 0.617905 0.719005 0.074136
Si Si6 0.440788 0.127011 0.120617
Si Si7 0.511032 0.672449 0.142281
Si Si8 0.221310 0.371657 0.481334
O O1 0.337343 0.289757 0.253414
O O2 0.408116 0.288439 0.415939
O O3 0.405266 0.134853 0.248547
O O4 0.330262 0.140745 0.431995
O O5 0.811847 0.500000 0.853807
O O6 0.742630 0.655939 0.875506
O O7 0.841473 0.714200 0.848902
O O8 0.791001 0.627567 0.665230
O O9 0.683840 0.500000 0.802034
O O10 0.648450 0.362186 0.976534
O O11 0.000000 0.839965 0.500000
O O12 0.021738 0.874877 0.737709
O O13 0.060668 0.000000 0.557960
O O14 0.571300 0.662908 0.154689
O O15 0.589731 0.806798 0.983979
O O16 0.491528 0.198322 0.141644
O O17 0.450502 0.000000 0.085576
O O18 0.500000 0.629582 0.000000
O O19 0.243367 0.500000 0.506326
O O20 0.250000 0.250000 0.500000
#
# Coordination Sequence:
#
# PCOD9192447 Si02
#       8
#     8   8   8   8   8   8   8   8
#     4  10  20  36  60  82 112 152 193 239 291 352
#     4  10  21  36  55  81 115 152 192 241 298 359
#     4  10  20  36  57  81 111 151 194 240 295 357
#     4  10  22  38  58  83 115 156 198 246 301 361
#     4  10  20  33  56  82 112 148 184 238 297 350
#     4   9  18  34  55  81 110 142 186 231 280 347
#     4   9  20  35  54  83 112 146 191 243 289 352
#     4  11  23  40  63  90 121 157 204 252 294 354
#
# _framework density 19.357963000000002
#
# number of rings (size 3 to 8) (size 9 to 14) (size 15 to 20)
#    0.000    2.125    1.250    2.250    1.750    4.000 
#    0.000    0.625    0.000    1.875    0.000    0.000 
#    0.000    0.000    0.000    0.000    0.000    0.000 
#
# Total GULP energy -178395.573265 kJ/mol
# GULP energy per Si atom -5574.861665 kJ/mol
# Density = 1.931390 g / cm^3
# Si number density = 19.357963 Si / 1000 Ang^3
#
#
#
# Elastic Constant Matrix: (Units=GPa)
#
#
# Indices 1 2 3 4 5 6 
#
# 1 89.7979 27.2383 11.6517 0.0000 -13.4987 0.0000
# 2 27.2383 87.1696 7.7310 0.0000 5.0705 0.0000
# 3 11.6517 7.7310 40.9022 0.0000 -11.6674 0.0000
# 4 0.0000 0.0000 0.0000 -12.2931 0.0000 0.1503
# 5 -13.4987 5.0705 -11.6674 0.0000 35.3575 0.0000
# 6 0.0000 0.0000 0.0000 0.1503 0.0000 9.4842
#
#
#
# Elastic Compliance Matrix: (Units=1/GPa)
#
#
# Indices 1 2 3 4 5 6 
#
# 1 0.013450 -0.004376 -0.001502 0.000000 0.005267 0.000000
# 2 -0.004376 0.013321 -0.002531 0.000000 -0.004416 0.000000
# 3 -0.001502 -0.002531 0.027923 0.000000 0.009004 0.000000
# 4 0.000000 0.000000 0.000000 -0.081331 0.000000 0.001289
# 5 0.005267 -0.004416 0.009004 0.000000 0.033898 0.000000
# 6 0.000000 0.000000 0.000000 0.001289 0.000000 0.105418
#
#
# Mechanical properties :
#
#
# Convention : Reuss Voigt Hill
#
# Bulk Modulus (GPa) = 26.40185 34.56796 30.48490
# Shear Modulus (GPa) = 35.18104 17.92630 26.55367
#
# Velocity S-wave (km/s) = 4.26772 3.04640 3.70769
# Velocity P-wave (km/s) = 6.16059 5.50182 5.84050
#
# Compressibility (1/GPa) = 0.03787613
#
# Stress axis : x y z
#
# Youngs Moduli (GPa) = 74.34892 75.07161 35.81264
#
# Poissons Ratio (x) = 0.32851 0.05379
# Poissons Ratio (y) = 0.32535 0.09064
# Poissons Ratio (z) = 0.11167 0.19000
#
# Static dielectric constant tensor:
#      x y z
#    x 1.689450 0.000000 -0.029160 
#    y 0.000000 1.682840 0.000000 
#    z -0.029160 0.000000 1.676050 
# 
# From -- ./inp_files/182099.got.cif
#   From: 2010.05.17/outbox.cif.g08.bks.cpg/sg12_92_cif.got.tgz:182099.got - 2010.06.03 13:09:07.
