data_PCOD9192271
_publ_section_title
;
Structure prediction by ZEFSAII (Michael W. Deem and Ramdas Pophale) SiO2 
 PCOD9192271
Probable space group: C 2/M
;
_chemical_formula_sum "Si O2"
_cell_formula_units_Z 60
_cell_length_a 27.399503
_cell_length_b 18.844129
_cell_length_c 5.738428
_cell_angle_alpha 90.000000
_cell_angle_beta 73.327229
_cell_angle_gamma 90.000000
_cell_volume 2838.301916
_symmetry_space_group_name_H-M "C 2/M"
_symmetry_group_IT_number 12
_symmetry_cell_setting 'monoclinic'
loop_
_space_group_symop_operation_xyz
x,y,z
-x,y,-z
-x,-y,-z
x,-y,z
1/2+x,1/2+y,z
1/2-x,1/2+y,-z
1/2-x,1/2-y,-z
1/2+x,1/2-y,z
loop_
_atom_site_type_symbol
_atom_site_label
_atom_site_fract_x
_atom_site_fract_y
_atom_site_fract_z
Si Si1 0.089288 0.079129 0.152162
Si Si2 0.440185 0.084923 0.084195
Si Si3 0.740178 0.189702 0.203168
Si Si4 0.933704 0.797254 0.452800
Si Si5 0.500000 0.362351 0.000000
Si Si6 0.825253 0.205471 0.475768
Si Si7 0.700679 0.418275 0.116845
Si Si8 0.060055 0.361513 0.413824
O O1 0.076700 0.138062 0.360084
O O2 0.149921 0.083797 0.022136
O O3 0.080604 0.000000 0.259420
O O4 0.049369 0.091744 0.999899
O O5 0.419016 0.110678 0.364426
O O6 0.438156 0.000000 0.083549
O O7 0.500000 0.107723 0.000000
O O8 0.418427 0.112417 0.865440
O O9 0.786459 0.198042 0.319412
O O10 0.688652 0.217998 0.389874
O O11 0.750000 0.250000 0.000000
O O12 0.749308 0.113002 0.078175
O O13 0.983358 0.813294 0.236018
O O14 0.884969 0.794696 0.346787
O O15 0.936295 0.723156 0.580129
O O16 0.812352 0.138853 0.663581
O O17 0.706563 0.500000 0.184862
O O18 0.000000 0.383403 0.500000
#
# Coordination Sequence:
#
# PCOD9192271 Si02
#       8
#     8   8   8   8   4   8   8   8
#     4  10  22  38  53  77 117 160 204 247 292 346
#     4   9  18  33  55  80 106 138 182 238 300 358
#     4   9  17  34  59  84 108 137 178 230 287 353
#     4  11  24  36  53  79 111 154 202 249 295 346
#     4  12  23  34  54  74 113 162 214 252 295 336
#     4   9  19  36  55  81 111 145 186 232 288 350
#     4   9  18  33  56  86 115 145 186 237 286 346
#     4  10  20  33  54  81 114 147 191 245 295 352
#
# _framework density 21.139402
#
# number of rings (size 3 to 8) (size 9 to 14) (size 15 to 20)
#    0.000    2.267    0.000    2.600    4.667    3.733 
#    0.000    2.667    0.000    1.600    0.000    0.000 
#    0.000    0.000    0.000    0.000    0.000    0.000 
#
# Total GULP energy -167199.173400 kJ/mol
# GULP energy per Si atom -5573.305780 kJ/mol
# Density = 2.109129 g / cm^3
# Si number density = 21.139402 Si / 1000 Ang^3
#
#
#
# Elastic Constant Matrix: (Units=GPa)
#
#
# Indices 1 2 3 4 5 6 
#
# 1 58.5087 23.4520 9.0414 0.0000 6.6936 0.0000
# 2 23.4520 112.7182 51.7005 0.0000 5.4553 0.0000
# 3 9.0414 51.7005 78.9033 0.0000 14.7168 0.0000
# 4 0.0000 0.0000 0.0000 23.1397 0.0000 3.1978
# 5 6.6936 5.4553 14.7168 0.0000 30.3109 0.0000
# 6 0.0000 0.0000 0.0000 3.1978 0.0000 24.5125
#
#
#
# Elastic Compliance Matrix: (Units=1/GPa)
#
#
# Indices 1 2 3 4 5 6 
#
# 1 0.019125 -0.004472 0.001514 0.000000 -0.004154 0.000000
# 2 -0.004472 0.013833 -0.009095 0.000000 0.002914 0.000000
# 3 0.001514 -0.009095 0.020030 0.000000 -0.008423 0.000000
# 4 0.000000 0.000000 0.000000 0.044009 0.000000 -0.005741
# 5 -0.004154 0.002914 -0.008423 0.000000 0.037474 0.000000
# 6 0.000000 0.000000 0.000000 -0.005741 0.000000 0.041545
#
#
# Mechanical properties :
#
#
# Convention : Reuss Voigt Hill
#
# Bulk Modulus (GPa) = 34.62406 46.50201 40.56303
# Shear Modulus (GPa) = 23.83788 26.65503 25.24646
#
# Velocity S-wave (km/s) = 3.36170 3.55479 3.45959
# Velocity P-wave (km/s) = 5.61092 6.23653 5.93198
#
# Compressibility (1/GPa) = 0.02888165
#
# Stress axis : x y z
#
# Youngs Moduli (GPa) = 52.28634 72.29268 49.92395
#
# Poissons Ratio (x) = 0.32333 -0.07557
# Poissons Ratio (y) = 0.23385 0.45404
# Poissons Ratio (z) = -0.07915 0.65748
#
# Static dielectric constant tensor:
#      x y z
#    x 1.788210 0.000000 0.024390 
#    y 0.000000 1.747940 0.000000 
#    z 0.024390 0.000000 1.808570 
# 
# From -- ./inp_files/32021.got.cif
#   From: 2010.05.17/outbox.cif.g08.bks.cpg/sg12_17_cif.got.tgz:32021.got - 2010.06.03 13:09:07.
