data_PCOD9192674
_publ_section_title
;
Structure prediction by ZEFSAII (Michael W. Deem and Ramdas Pophale) SiO2 
 PCOD9192674
Probable space group: C 2/M
;
_chemical_formula_sum "Si O2"
_cell_formula_units_Z 64
_cell_length_a 25.389843
_cell_length_b 7.725967
_cell_length_c 31.933044
_cell_angle_alpha 90.000000
_cell_angle_beta 149.448658
_cell_angle_gamma 90.000000
_cell_volume 3184.065947
_symmetry_space_group_name_H-M "C 2/M"
_symmetry_group_IT_number 12
_symmetry_cell_setting 'monoclinic'
loop_
_space_group_symop_operation_xyz
x,y,z
-x,y,-z
-x,-y,-z
x,-y,z
1/2+x,1/2+y,z
1/2-x,1/2+y,-z
1/2-x,1/2-y,-z
1/2+x,1/2-y,z
loop_
_atom_site_type_symbol
_atom_site_label
_atom_site_fract_x
_atom_site_fract_y
_atom_site_fract_z
Si Si1 0.983634 0.695748 0.258642
Si Si2 0.901610 0.709582 0.358772
Si Si3 0.377630 0.198207 0.477429
Si Si4 0.670296 0.208326 0.782388
Si Si5 0.151479 0.195852 0.306575
Si Si6 0.864746 0.792122 0.563486
Si Si7 0.174643 0.705690 0.231657
Si Si8 0.604927 0.791403 0.093157
O O1 0.955026 0.500000 0.229219
O O2 0.882142 0.779251 0.210968
O O3 0.053545 0.751520 0.267335
O O4 0.060971 0.712477 0.350890
O O5 0.907672 0.500000 0.361752
O O6 0.882922 0.771629 0.297741
O O7 0.797537 0.758137 0.312009
O O8 0.007962 0.774247 0.452799
O O9 0.265768 0.282539 0.390551
O O10 0.380128 0.202610 0.529568
O O11 0.378035 0.000000 0.460964
O O12 0.791394 0.246959 0.861239
O O13 0.657226 0.000000 0.773177
O O14 0.129992 0.210527 0.242823
O O15 0.170576 0.000000 0.333390
O O16 0.750000 0.750000 0.500000
O O17 0.879192 0.000000 0.570317
O O18 0.159504 0.500000 0.224242
O O19 0.124196 0.770732 0.153871
O O20 0.599005 0.000000 0.091261
O O21 0.500000 0.726634 0.000000
#
# Coordination Sequence:
#
# PCOD9192674 Si02
#       8
#     8   8   8   8   8   8   8   8
#     4  11  21  35  53  76 108 144 183 227 271 318
#     4   9  17  33  53  73 102 139 180 226 272 314
#     4  10  20  34  50  71 101 141 188 234 275 314
#     4   9  18  32  54  83 112 139 170 216 271 321
#     4  11  23  36  52  74 104 148 192 225 266 317
#     4  12  22  31  47  71 102 141 188 238 278 312
#     4  10  21  37  55  77 107 140 175 219 270 323
#     4   9  19  37  62  89 112 135 167 211 265 324
#
# _framework density 20.100088
#
# number of rings (size 3 to 8) (size 9 to 14) (size 15 to 20)
#    0.000    1.875    2.500    2.250    0.000    3.250 
#    0.000    2.500    0.000    0.750    0.000    0.000 
#    0.000    0.000    0.000    0.000    0.000    0.000 
#
# Total GULP energy -178415.641403 kJ/mol
# GULP energy per Si atom -5575.488794 kJ/mol
# Density = 2.005434 g / cm^3
# Si number density = 20.100088 Si / 1000 Ang^3
#
#
#
# Elastic Constant Matrix: (Units=GPa)
#
#
# Indices 1 2 3 4 5 6 
#
# 1 157.2907 -2.1582 66.9067 0.0000 5.1789 -0.0019
# 2 -2.1582 41.4610 -6.9971 -0.0002 0.7639 -0.0108
# 3 66.9067 -6.9971 88.8739 0.0002 22.0050 -0.0002
# 4 0.0000 -0.0002 0.0002 13.8538 0.0003 4.2875
# 5 5.1789 0.7639 22.0050 0.0003 17.7646 -0.0002
# 6 -0.0019 -0.0108 -0.0002 4.2875 -0.0002 23.1855
#
#
#
# Elastic Compliance Matrix: (Units=1/GPa)
#
#
# Indices 1 2 3 4 5 6 
#
# 1 0.010453 -0.001402 -0.010443 0.000000 0.009949 0.000000
# 2 -0.001402 0.024938 0.004591 -0.000003 -0.006351 0.000012
# 3 -0.010443 0.004591 0.027074 0.000000 -0.030689 0.000001
# 4 0.000000 -0.000003 0.000000 0.076564 -0.000001 -0.014158
# 5 0.009949 -0.006351 -0.030689 -0.000001 0.091679 -0.000001
# 6 0.000000 0.000012 0.000001 -0.014158 -0.000001 0.045748
#
#
# Mechanical properties :
#
#
# Convention : Reuss Voigt Hill
#
# Bulk Modulus (GPa) = 20.85185 44.79206 32.82196
# Shear Modulus (GPa) = 16.28935 26.28573 21.28754
#
# Velocity S-wave (km/s) = 2.84986 3.62019 3.25788
# Velocity P-wave (km/s) = 4.60711 6.30930 5.52416
#
# Compressibility (1/GPa) = 0.04795736
#
# Stress axis : x y z
#
# Youngs Moduli (GPa) = 95.66698 40.09968 36.93637
#
# Poissons Ratio (x) = 0.05620 0.38572
# Poissons Ratio (y) = 0.13408 -0.16957
# Poissons Ratio (z) = 0.99903 -0.18409
#
# Static dielectric constant tensor:
#      x y z
#    x 1.705460 0.000000 0.051050 
#    y 0.000000 1.766340 0.000000 
#    z 0.051050 0.000000 1.712950 
# 
# From -- ./inp_files/382535.got.cif
#   From: 2010.05.17/outbox.cif.g08.bks.cpg/sg12_192_cif.got.tgz:382535.got - 2010.06.03 13:09:07.
