data_PCOD9192911
_publ_section_title
;
Structure prediction by ZEFSAII (Michael W. Deem and Ramdas Pophale) SiO2 
 PCOD9192911
Probable space group: C 2/M
;
_chemical_formula_sum "Si O2"
_cell_formula_units_Z 40
_cell_length_a 14.948708
_cell_length_b 7.678497
_cell_length_c 27.556083
_cell_angle_alpha 90.000000
_cell_angle_beta 142.485246
_cell_angle_gamma 90.000000
_cell_volume 1926.150399
_symmetry_space_group_name_H-M "C 2/M"
_symmetry_group_IT_number 12
_symmetry_cell_setting 'monoclinic'
loop_
_space_group_symop_operation_xyz
x,y,z
-x,y,-z
-x,-y,-z
x,-y,z
1/2+x,1/2+y,z
1/2-x,1/2+y,-z
1/2-x,1/2-y,-z
1/2+x,1/2-y,z
loop_
_atom_site_type_symbol
_atom_site_label
_atom_site_fract_x
_atom_site_fract_y
_atom_site_fract_z
Si Si1 0.091055 0.797244 0.494215
Si Si2 0.272023 0.296810 0.929381
Si Si3 0.785199 0.710984 0.202981
Si Si4 0.476075 0.711566 0.103336
Si Si5 0.412268 0.705077 0.616337
O O1 0.266422 0.786209 0.577039
O O2 0.066431 0.723181 0.429383
O O3 0.000000 0.720016 0.500000
O O4 0.046625 0.000000 0.471971
O O5 0.309239 0.500000 0.938620
O O6 0.249531 0.223249 0.866264
O O7 0.121231 0.280365 0.894526
O O8 0.397159 0.226846 0.019461
O O9 0.789456 0.500000 0.203449
O O10 0.645856 0.761974 0.175837
O O11 0.940473 0.770576 0.289999
O O12 0.466441 0.500000 0.100264
O O13 0.380315 0.500000 0.598492
#
# Coordination Sequence:
#
# PCOD9192911 Si02
#       5
#     8   8   8   8   8
#     4   9  19  38  60  77  99 134 168 200 248 307
#     4   9  18  33  52  73  99 135 176 213 252 299
#     4  10  20  34  52  73 103 140 171 204 251 305
#     4   9  18  33  52  74 100 133 175 217 253 293
#     4  10  21  35  53  80 107 129 164 211 251 296
#
# _framework density 20.766808999999999
#
# number of rings (size 3 to 8) (size 9 to 14) (size 15 to 20)
#    0.000    2.600    0.000    1.200    0.000    6.800 
#    0.000    6.000    0.000    6.000    0.000    0.000 
#    0.000    0.000    0.000    0.000    0.000    0.000 
#
# Total GULP energy -111589.007144 kJ/mol
# GULP energy per Si atom -5579.450357 kJ/mol
# Density = 2.071954 g / cm^3
# Si number density = 20.766809 Si / 1000 Ang^3
#
#
#
# Elastic Constant Matrix: (Units=GPa)
#
#
# Indices 1 2 3 4 5 6 
#
# 1 108.2764 -2.2875 38.0534 0.0000 16.7904 0.0000
# 2 -2.2875 37.8439 -11.5999 0.0000 -6.0926 0.0000
# 3 38.0534 -11.5999 59.1478 0.0000 19.8418 0.0000
# 4 0.0000 0.0000 0.0000 20.5074 0.0000 4.1694
# 5 16.7904 -6.0926 19.8418 0.0000 14.8846 0.0000
# 6 0.0000 0.0000 0.0000 4.1694 0.0000 14.3635
#
#
#
# Elastic Compliance Matrix: (Units=1/GPa)
#
#
# Indices 1 2 3 4 5 6 
#
# 1 0.012390 -0.002215 -0.006174 0.000000 -0.006653 0.000000
# 2 -0.002215 0.028984 0.004145 0.000000 0.008837 0.000000
# 3 -0.006174 0.004145 0.033983 0.000000 -0.036640 0.000000
# 4 0.000000 0.000000 0.000000 0.051821 0.000000 -0.015043
# 5 -0.006653 0.008837 -0.036640 0.000000 0.127148 0.000000
# 6 0.000000 0.000000 0.000000 -0.015043 0.000000 0.073988
#
#
# Mechanical properties :
#
#
# Convention : Reuss Voigt Hill
#
# Bulk Modulus (GPa) = 14.95465 28.17778 21.56622
# Shear Modulus (GPa) = 13.92403 22.02455 17.97429
#
# Velocity S-wave (km/s) = 2.59220 3.26016 2.94518
# Velocity P-wave (km/s) = 4.02196 5.26969 4.68753
#
# Compressibility (1/GPa) = 0.06686884
#
# Stress axis : x y z
#
# Youngs Moduli (GPa) = 80.70791 34.50234 29.42658
#
# Poissons Ratio (x) = 0.07641 0.18168
# Poissons Ratio (y) = 0.17874 -0.12196
# Poissons Ratio (z) = 0.49828 -0.14300
#
# Static dielectric constant tensor:
#      x y z
#    x 1.753100 0.000000 -0.014920 
#    y 0.000000 1.799130 0.000000 
#    z -0.014920 0.000000 1.710860 
# 
# From -- ./inp_files/211203.got.cif
#   From: 2010.05.17/outbox.cif.g08.bks.cpg/sg12_106_cif.got.tgz:211203.got - 2010.06.03 13:09:07.
