data_PCOD9192864
_publ_section_title
;
Structure prediction by ZEFSAII (Michael W. Deem and Ramdas Pophale) SiO2 
 PCOD9192864
Probable space group: C 2/M
;
_chemical_formula_sum "Si O2"
_cell_formula_units_Z 64
_cell_length_a 9.277289
_cell_length_b 28.271958
_cell_length_c 14.881499
_cell_angle_alpha 90.000000
_cell_angle_beta 75.638064
_cell_angle_gamma 90.000000
_cell_volume 3781.242616
_symmetry_space_group_name_H-M "C 2/M"
_symmetry_group_IT_number 12
_symmetry_cell_setting 'monoclinic'
loop_
_space_group_symop_operation_xyz
x,y,z
-x,y,-z
-x,-y,-z
x,-y,z
1/2+x,1/2+y,z
1/2-x,1/2+y,-z
1/2-x,1/2-y,-z
1/2+x,1/2-y,z
loop_
_atom_site_type_symbol
_atom_site_label
_atom_site_fract_x
_atom_site_fract_y
_atom_site_fract_z
Si Si1 0.528914 0.801772 0.723422
Si Si2 0.141205 0.945059 0.356736
Si Si3 0.211106 0.945026 0.551930
Si Si4 0.876216 0.644479 0.593469
Si Si5 0.299322 0.356854 0.768420
Si Si6 0.399758 0.700570 0.303711
Si Si7 0.823628 0.321137 0.037755
Si Si8 0.239210 0.217347 0.871774
O O1 0.452281 0.842092 0.675778
O O2 0.675690 0.823768 0.741791
O O3 0.564908 0.753147 0.666422
O O4 0.411901 0.784039 0.815999
O O5 0.207958 0.934515 0.445421
O O6 0.201144 0.908293 0.275473
O O7 0.961545 0.940061 0.391605
O O8 0.172343 0.000000 0.331891
O O9 0.317019 0.908549 0.586654
O O10 0.253163 0.000000 0.557793
O O11 0.729090 0.677007 0.617124
O O12 0.000000 0.655290 0.500000
O O13 0.456299 0.332275 0.723051
O O14 0.257428 0.355457 0.879671
O O15 0.344835 0.705924 0.208052
O O16 0.808366 0.268313 0.082909
O O17 0.737006 0.318340 0.956222
O O18 0.000000 0.331525 0.000000
#
# Coordination Sequence:
#
# PCOD9192864 Si02
#       8
#     8   8   8   8   8   8   8   8
#     4  11  21  37  52  77 118 152 189 225 265 325
#     4   9  19  36  61  87 107 135 184 234 280 334
#     4   9  18  38  63  85 107 133 178 242 290 324
#     4  11  23  37  53  81 112 147 185 227 272 333
#     4  12  20  34  57  82 109 151 180 227 282 326
#     4  11  21  37  53  76 115 156 189 221 265 325
#     4  11  20  31  55  83 112 146 187 230 278 323
#     4  10  20  34  51  79 114 145 188 233 270 312
#
# _framework density 16.925653000000001
#
# number of rings (size 3 to 8) (size 9 to 14) (size 15 to 20)
#    0.000    1.500    5.000    2.250    1.750    0.750 
#    0.000    1.875    0.000    0.375    0.000    2.625 
#    0.000    0.000    0.000    0.000    0.000    0.000 
#
# Total GULP energy -178458.496801 kJ/mol
# GULP energy per Si atom -5576.828025 kJ/mol
# Density = 1.688713 g / cm^3
# Si number density = 16.925653 Si / 1000 Ang^3
#
#
#
# Elastic Constant Matrix: (Units=GPa)
#
#
# Indices 1 2 3 4 5 6 
#
# 1 74.2141 28.2019 18.4958 0.0000 -8.0033 0.0000
# 2 28.2019 89.2032 43.0803 0.0000 0.7398 0.0000
# 3 18.4958 43.0803 52.1798 0.0000 -12.9766 0.0000
# 4 0.0000 0.0000 0.0000 25.8892 0.0000 -5.2533
# 5 -8.0033 0.7398 -12.9766 0.0000 26.5286 0.0000
# 6 0.0000 0.0000 0.0000 -5.2533 0.0000 23.2353
#
#
#
# Elastic Compliance Matrix: (Units=1/GPa)
#
#
# Indices 1 2 3 4 5 6 
#
# 1 0.015944 -0.004851 -0.000475 0.000000 0.004713 0.000000
# 2 -0.004851 0.022307 -0.019600 0.000000 -0.011673 0.000000
# 3 -0.000475 -0.019600 0.040548 0.000000 0.020238 0.000000
# 4 0.000000 0.000000 0.000000 0.040483 0.000000 0.009153
# 5 0.004713 -0.011673 0.020238 0.000000 0.049342 0.000000
# 6 0.000000 0.000000 0.000000 0.009153 0.000000 0.045107
#
#
# Mechanical properties :
#
#
# Convention : Reuss Voigt Hill
#
# Bulk Modulus (GPa) = 34.54523 43.90591 39.22557
# Shear Modulus (GPa) = 18.29948 23.51856 20.90902
#
# Velocity S-wave (km/s) = 3.29168 3.73167 3.51856
# Velocity P-wave (km/s) = 5.90772 6.67562 6.30338
#
# Compressibility (1/GPa) = 0.02894756
#
# Stress axis : x y z
#
# Youngs Moduli (GPa) = 62.71778 44.82986 24.66222
#
# Poissons Ratio (x) = 0.21746 0.01171
# Poissons Ratio (y) = 0.30422 0.48338
# Poissons Ratio (z) = 0.02978 0.87867
#
# Static dielectric constant tensor:
#      x y z
#    x 1.599950 0.000000 0.005450 
#    y 0.000000 1.555710 0.000000 
#    z 0.005450 0.000000 1.601940 
# 
# From -- ./inp_files/199788.got.cif
#   From: 2010.05.17/outbox.cif.g08.bks.cpg/sg12_100_cif.got.tgz:199788.got - 2010.06.03 13:09:07.
