data_PCOD9192668
_publ_section_title
;
Structure prediction by ZEFSAII (Michael W. Deem and Ramdas Pophale) SiO2 
 PCOD9192668
Probable space group: C 2/M
;
_chemical_formula_sum "Si O2"
_cell_formula_units_Z 64
_cell_length_a 23.700947
_cell_length_b 8.918218
_cell_length_c 21.339538
_cell_angle_alpha 90.000000
_cell_angle_beta 60.194046
_cell_angle_gamma 90.000000
_cell_volume 3913.860145
_symmetry_space_group_name_H-M "C 2/M"
_symmetry_group_IT_number 12
_symmetry_cell_setting 'monoclinic'
loop_
_space_group_symop_operation_xyz
x,y,z
-x,y,-z
-x,-y,-z
x,-y,z
1/2+x,1/2+y,z
1/2-x,1/2+y,-z
1/2-x,1/2-y,-z
1/2+x,1/2-y,z
loop_
_atom_site_type_symbol
_atom_site_label
_atom_site_fract_x
_atom_site_fract_y
_atom_site_fract_z
Si Si1 0.269626 0.327340 0.086342
Si Si2 0.562901 0.319417 0.654217
Si Si3 0.176543 0.682238 0.244614
Si Si4 0.944626 0.182039 0.483653
Si Si5 0.146912 0.327174 0.058055
Si Si6 0.215234 0.819770 0.580467
Si Si7 0.441055 0.181345 0.784030
Si Si8 0.810251 0.819622 0.625436
O O1 0.286685 0.500000 0.086923
O O2 0.238241 0.268353 0.167942
O O3 0.208791 0.323070 0.071319
O O4 0.329227 0.249346 0.018588
O O5 0.556398 0.500000 0.660723
O O6 0.546508 0.268011 0.592421
O O7 0.638538 0.283477 0.623432
O O8 0.511030 0.245955 0.728948
O O9 0.178063 0.500000 0.248310
O O10 0.111252 0.722184 0.241601
O O11 0.179725 0.756223 0.310560
O O12 0.874090 0.220162 0.549419
O O13 0.000000 0.237679 0.500000
O O14 0.947924 0.000000 0.480910
O O15 0.132875 0.500000 0.052091
O O16 0.088521 0.264956 0.133052
O O17 0.250000 0.750000 0.500000
O O18 0.250125 0.753947 0.622409
O O19 0.221730 0.000000 0.574152
O O20 0.442549 0.000000 0.785045
O O21 0.804352 0.000000 0.629983
#
# Coordination Sequence:
#
# PCOD9192668 Si02
#       8
#     8   8   8   8   8   8   8   8
#     4   8  14  25  42  64  94 131 165 195 230 280
#     4  10  20  34  50  70  95 127 164 201 244 290
#     4   9  18  32  47  70 105 136 162 198 245 291
#     4   9  17  30  47  68  96 125 154 192 236 282
#     4   8  14  25  41  64  96 130 162 196 234 278
#     4  11  22  38  56  72  94 124 163 211 253 290
#     4   9  18  31  47  71 104 135 162 199 244 290
#     4  11  21  34  52  73  96 127 167 205 246 292
#
# _framework density 16.352143000000002
#
# number of rings (size 3 to 8) (size 9 to 14) (size 15 to 20)
#    0.000    2.625    1.250    3.000    0.000    3.500 
#    0.000    2.500    0.000    2.625    0.000    0.875 
#    0.000    7.000    0.000    0.000    0.000    0.000 
#
# Total GULP energy -178281.876715 kJ/mol
# GULP energy per Si atom -5571.308647 kJ/mol
# Density = 1.631492 g / cm^3
# Si number density = 16.352143 Si / 1000 Ang^3
#
#
#
# Elastic Constant Matrix: (Units=GPa)
#
#
# Indices 1 2 3 4 5 6 
#
# 1 65.1220 20.9628 22.2381 0.0000 -22.9108 0.0000
# 2 20.9628 27.7816 30.0071 0.0003 -12.0459 -0.0002
# 3 22.2381 30.0071 105.9231 0.0000 -35.3252 0.0000
# 4 0.0000 0.0003 0.0000 28.4416 0.0000 -1.9038
# 5 -22.9108 -12.0459 -35.3252 0.0000 19.4417 0.0001
# 6 0.0000 -0.0002 0.0000 -1.9038 0.0001 19.7868
#
#
#
# Elastic Compliance Matrix: (Units=1/GPa)
#
#
# Indices 1 2 3 4 5 6 
#
# 1 0.043129 -0.024259 0.024756 0.000000 0.080776 -0.000001
# 2 -0.024259 0.067011 -0.024307 -0.000001 -0.031233 0.000001
# 3 0.024756 -0.024307 0.040189 0.000000 0.087136 -0.000001
# 4 0.000000 -0.000001 0.000000 0.035388 0.000000 0.003405
# 5 0.080776 -0.031233 0.087136 0.000000 0.285597 -0.000002
# 6 -0.000001 0.000001 -0.000001 0.003405 -0.000002 0.050866
#
#
# Mechanical properties :
#
#
# Convention : Reuss Voigt Hill
#
# Bulk Modulus (GPa) = 9.73616 38.36031 24.04824
# Shear Modulus (GPa) = 8.27764 21.90859 15.09312
#
# Velocity S-wave (km/s) = 2.25236 3.66430 3.04140
# Velocity P-wave (km/s) = 3.56807 6.43526 5.20306
#
# Compressibility (1/GPa) = 0.10270991
#
# Stress axis : x y z
#
# Youngs Moduli (GPa) = 23.18629 14.92284 24.88241
#
# Poissons Ratio (x) = 0.36201 -0.61599
# Poissons Ratio (y) = 0.56247 0.60482
# Poissons Ratio (z) = -0.57400 0.36273
#
# Static dielectric constant tensor:
#      x y z
#    x 1.533890 0.000000 -0.009990 
#    y 0.000000 1.553280 0.000000 
#    z -0.009990 0.000000 1.559600 
# 
# From -- ./inp_files/323635.got.cif
#   From: 2010.05.17/outbox.cif.g08.bks.cpg/sg12_162_cif.got.tgz:323635.got - 2010.06.03 13:09:07.
