data_PCOD9192233
_publ_section_title
;
Structure prediction by ZEFSAII (Michael W. Deem and Ramdas Pophale) SiO2 
 PCOD9192233
Probable space group: C 2/M
;
_chemical_formula_sum "Si O2"
_cell_formula_units_Z 56
_cell_length_a 14.292031
_cell_length_b 30.669212
_cell_length_c 14.591887
_cell_angle_alpha 90.000000
_cell_angle_beta 150.658476
_cell_angle_gamma 90.000000
_cell_volume 3134.128604
_symmetry_space_group_name_H-M "C 2/M"
_symmetry_group_IT_number 12
_symmetry_cell_setting 'monoclinic'
loop_
_space_group_symop_operation_xyz
x,y,z
-x,y,-z
-x,-y,-z
x,-y,z
1/2+x,1/2+y,z
1/2-x,1/2+y,-z
1/2-x,1/2-y,-z
1/2+x,1/2-y,z
loop_
_atom_site_type_symbol
_atom_site_label
_atom_site_fract_x
_atom_site_fract_y
_atom_site_fract_z
Si Si1 0.195022 0.951235 0.607868
Si Si2 0.052698 0.114709 0.341406
Si Si3 0.840170 0.705473 0.117123
Si Si4 0.859162 0.279619 0.462554
Si Si5 0.293966 0.184552 0.650806
Si Si6 0.213405 0.627853 0.192712
Si Si7 0.526331 0.651554 0.129967
O O1 0.147952 0.927202 0.471912
O O2 0.307835 0.916903 0.766480
O O3 0.000000 0.954417 0.500000
O O4 0.273676 0.000000 0.664584
O O5 0.184024 0.156501 0.479832
O O6 0.852192 0.121281 0.224934
O O7 0.038137 0.114368 0.219128
O O8 0.995666 0.711313 0.330389
O O9 0.976215 0.680659 0.160770
O O10 0.750000 0.750000 0.000000
O O11 0.662220 0.678283 0.001999
O O12 0.746064 0.235605 0.388270
O O13 0.710886 0.317127 0.303635
O O14 0.000000 0.270219 0.500000
O O15 0.209137 0.163912 0.670838
O O16 0.000000 0.642960 0.000000
O O17 0.500000 0.639429 0.000000
#
# Coordination Sequence:
#
# PCOD9192233 Si02
#       7
#     8   8   8   8   8   8   8
#     4   8  16  33  58  85 114 145 173 213 282 353
#     4  10  20  37  56  80 111 147 185 229 283 339
#     4  12  23  36  56  78 104 145 193 244 291 329
#     4  12  23  38  53  74 109 149 195 242 283 325
#     4  11  21  36  55  75 109 145 187 236 285 340
#     4  10  20  33  53  86 114 145 182 223 280 346
#     4  12  24  39  54  77 107 148 203 242 278 327
#
# _framework density 17.867805000000001
#
# number of rings (size 3 to 8) (size 9 to 14) (size 15 to 20)
#    0.000    1.286    4.286    4.286    0.000    2.000 
#    0.000    0.000    0.000    0.429    0.000    0.000 
#    0.000    7.429    0.000    0.000    0.000    0.000 
#
# Total GULP energy -155956.660484 kJ/mol
# GULP energy per Si atom -5569.880732 kJ/mol
# Density = 1.782714 g / cm^3
# Si number density = 17.867805 Si / 1000 Ang^3
#
#
#
# Elastic Constant Matrix: (Units=GPa)
#
#
# Indices 1 2 3 4 5 6 
#
# 1 108.0808 27.7272 38.3435 0.0000 -11.2161 0.0000
# 2 27.7272 33.2783 6.0859 0.0000 -27.9400 0.0000
# 3 38.3435 6.0859 85.5349 0.0000 -9.9217 0.0000
# 4 0.0000 0.0000 0.0000 -0.8194 0.0000 10.7501
# 5 -11.2161 -27.9400 -9.9217 0.0000 37.3101 0.0000
# 6 0.0000 0.0000 0.0000 10.7501 0.0000 7.2131
#
#
#
# Elastic Compliance Matrix: (Units=1/GPa)
#
#
# Indices 1 2 3 4 5 6 
#
# 1 0.017387 -0.028056 -0.007872 0.000000 -0.017877 0.000000
# 2 -0.028056 0.126352 0.014017 0.000000 0.089913 0.000000
# 3 -0.007872 0.014017 0.015648 0.000000 0.012291 0.000000
# 4 0.000000 0.000000 0.000000 -0.059379 0.000000 0.088496
# 5 -0.017877 0.089913 0.012291 0.000000 0.092029 0.000000
# 6 0.000000 0.000000 0.000000 0.088496 0.000000 0.006746
#
#
# Mechanical properties :
#
#
# Convention : Reuss Voigt Hill
#
# Bulk Modulus (GPa) = 8.65318 41.24525 24.94922
# Shear Modulus (GPa) = 17.78548 19.05659 18.42103
#
# Velocity S-wave (km/s) = 3.15841 3.26932 3.21434
# Velocity P-wave (km/s) = 4.26076 6.11432 5.26968
#
# Compressibility (1/GPa) = 0.11556444
#
# Stress axis : x y z
#
# Youngs Moduli (GPa) = 57.51262 7.91440 63.90446
#
# Poissons Ratio (x) = 0.22205 0.50304
# Poissons Ratio (y) = 1.61360 -0.89572
# Poissons Ratio (z) = 0.45273 -0.11093
#
# Static dielectric constant tensor:
#      x y z
#    x 1.704270 0.000000 -0.062370 
#    y 0.000000 1.629890 0.000000 
#    z -0.062370 0.000000 1.664450 
# 
# From -- ./inp_files/219359.got.cif
#   From: 2010.05.17/outbox.cif.g08.bks.cpg/sg12_110_cif.got.tgz:219359.got - 2010.06.03 13:09:07.
