data_PCOD9192456
_publ_section_title
;
Structure prediction by ZEFSAII (Michael W. Deem and Ramdas Pophale) SiO2 
 PCOD9192456
Probable space group: C 2/M
;
_chemical_formula_sum "Si O2"
_cell_formula_units_Z 58
_cell_length_a 23.018879
_cell_length_b 7.743608
_cell_length_c 17.501229
_cell_angle_alpha 90.000000
_cell_angle_beta 101.481586
_cell_angle_gamma 90.000000
_cell_volume 3057.152884
_symmetry_space_group_name_H-M "C 2/M"
_symmetry_group_IT_number 12
_symmetry_cell_setting 'monoclinic'
loop_
_space_group_symop_operation_xyz
x,y,z
-x,y,-z
-x,-y,-z
x,-y,z
1/2+x,1/2+y,z
1/2-x,1/2+y,-z
1/2-x,1/2-y,-z
1/2+x,1/2-y,z
loop_
_atom_site_type_symbol
_atom_site_label
_atom_site_fract_x
_atom_site_fract_y
_atom_site_fract_z
Si Si1 0.937479 0.291242 0.764494
Si Si2 0.348479 0.300329 0.045556
Si Si3 0.697461 0.292786 0.428663
Si Si4 0.500000 0.500000 0.500000
Si Si5 0.301632 0.700594 0.741470
Si Si6 0.062454 0.702137 0.411938
Si Si7 0.981872 0.298971 0.076995
Si Si8 0.735075 0.200277 0.105129
O O1 0.933025 0.500000 0.765960
O O2 0.872544 0.219694 0.766380
O O3 0.952721 0.251274 0.680565
O O4 0.984120 0.228480 0.839996
O O5 0.359095 0.500000 0.067323
O O6 0.411385 0.210206 0.066463
O O7 0.297260 0.230590 0.088579
O O8 0.319127 0.287819 0.953892
O O9 0.689520 0.500000 0.422700
O O10 0.750000 0.250000 0.500000
O O11 0.713153 0.231167 0.346873
O O12 0.634189 0.214518 0.435463
O O13 0.533682 0.345503 0.458419
O O14 0.285298 0.500000 0.740417
O O15 0.271682 0.786553 0.806461
O O16 0.045498 0.500000 0.421460
O O17 0.000027 0.500000 0.078591
O O18 0.000000 0.219541 0.000000
O O19 0.732449 0.000000 0.081428
#
# Coordination Sequence:
#
# PCOD9192456 Si02
#       8
#     8   8   8   2   8   8   8   8
#     4   9  19  35  56  83 116 152 189 235 291 338
#     4  10  21  35  52  77 106 143 187 231 281 327
#     4  10  20  37  60  90 122 154 194 246 304 362
#     4  12  22  40  64  90 122 156 210 250 292 386
#     4  10  20  33  56  85 111 143 185 233 281 339
#     4  10  21  39  63  91 122 161 203 252 307 364
#     4  10  20  34  54  81 111 147 190 230 279 336
#     4  10  20  35  54  75 106 145 185 228 279 340
#
# _framework density 18.971900000000002
#
# number of rings (size 3 to 8) (size 9 to 14) (size 15 to 20)
#    0.000    2.069    0.690    2.690    0.966    5.241 
#    0.000    1.379    3.034    3.310    0.000    0.000 
#    0.000    0.000    0.000    0.000    0.000    0.000 
#
# Total GULP energy -161523.017335 kJ/mol
# GULP energy per Si atom -5569.759218 kJ/mol
# Density = 1.892872 g / cm^3
# Si number density = 18.971900 Si / 1000 Ang^3
#
#
#
# Elastic Constant Matrix: (Units=GPa)
#
#
# Indices 1 2 3 4 5 6 
#
# 1 73.3732 10.6355 84.4067 0.0000 3.9825 0.0000
# 2 10.6355 66.8345 23.6101 0.0000 -13.5437 0.0000
# 3 84.4067 23.6101 143.3116 0.0000 0.1563 0.0000
# 4 0.0000 0.0000 0.0000 20.9134 0.0000 -6.9383
# 5 3.9825 -13.5437 0.1563 0.0000 32.8512 0.0000
# 6 0.0000 0.0000 0.0000 -6.9383 0.0000 29.2719
#
#
#
# Elastic Compliance Matrix: (Units=1/GPa)
#
#
# Indices 1 2 3 4 5 6 
#
# 1 0.043195 0.001253 -0.025642 0.000000 -0.004598 0.000000
# 2 0.001253 0.017476 -0.003625 0.000000 0.007070 0.000000
# 3 -0.025642 -0.003625 0.022676 0.000000 0.001506 0.000000
# 4 0.000000 0.000000 0.000000 0.051897 0.000000 0.012301
# 5 -0.004598 0.007070 0.001506 0.000000 0.033905 0.000000
# 6 0.000000 0.000000 0.000000 0.012301 0.000000 0.037078
#
#
# Mechanical properties :
#
#
# Convention : Reuss Voigt Hill
#
# Bulk Modulus (GPa) = 36.60452 57.86932 47.23692
# Shear Modulus (GPa) = 18.42561 27.59845 23.01203
#
# Velocity S-wave (km/s) = 3.11980 3.81819 3.48653
# Velocity P-wave (km/s) = 5.68449 7.07156 6.41562
#
# Compressibility (1/GPa) = 0.02731903
#
# Stress axis : x y z
#
# Youngs Moduli (GPa) = 23.15097 57.22068 44.10001
#
# Poissons Ratio (x) = -0.07169 1.13081
# Poissons Ratio (y) = -0.02901 0.15985
# Poissons Ratio (z) = 0.59364 0.20741
#
# Static dielectric constant tensor:
#      x y z
#    x 1.624970 0.000000 -0.010640 
#    y 0.000000 1.681590 0.000000 
#    z -0.010640 0.000000 1.669330 
# 
# From -- ./inp_files/237744.got.cif
#   From: 2010.05.17/outbox.cif.g08.bks.cpg/sg12_119_cif.got.tgz:237744.got - 2010.06.03 13:09:07.
