data_PCOD9192584
_publ_section_title
;
Structure prediction by ZEFSAII (Michael W. Deem and Ramdas Pophale) SiO2 
 PCOD9192584
Probable space group: C 2/M
;
_chemical_formula_sum "Si O2"
_cell_formula_units_Z 50
_cell_length_a 28.299594
_cell_length_b 7.586218
_cell_length_c 13.221574
_cell_angle_alpha 90.000000
_cell_angle_beta 52.412275
_cell_angle_gamma 90.000000
_cell_volume 2249.284028
_symmetry_space_group_name_H-M "C 2/M"
_symmetry_group_IT_number 12
_symmetry_cell_setting 'monoclinic'
loop_
_space_group_symop_operation_xyz
x,y,z
-x,y,-z
-x,-y,-z
x,-y,z
1/2+x,1/2+y,z
1/2-x,1/2+y,-z
1/2-x,1/2-y,-z
1/2+x,1/2-y,z
loop_
_atom_site_type_symbol
_atom_site_label
_atom_site_fract_x
_atom_site_fract_y
_atom_site_fract_z
Si Si1 0.627482 0.707809 0.778152
Si Si2 0.259249 0.204806 0.661862
Si Si3 0.883950 0.296363 0.429328
Si Si4 0.000000 0.000000 0.500000
Si Si5 0.774929 0.290194 0.077549
Si Si6 0.592993 0.788975 0.040532
Si Si7 0.010176 0.285220 0.334500
O O1 0.631270 0.500000 0.754881
O O2 0.694682 0.779066 0.713547
O O3 0.604312 0.790852 0.705568
O O4 0.588725 0.733457 0.929544
O O5 0.319109 0.284542 0.536426
O O6 0.261853 0.215311 0.779850
O O7 0.257279 0.000000 0.633395
O O8 0.880602 0.500000 0.466097
O O9 0.941254 0.224052 0.411991
O O10 0.034185 0.841206 0.390008
O O11 0.775319 0.500000 0.089799
O O12 0.750000 0.250000 0.000000
O O13 0.842679 0.223764 0.003457
O O14 0.542572 0.742445 0.186431
O O15 0.595034 0.000000 0.036942
O O16 0.014255 0.500000 0.345864
#
# Coordination Sequence:
#
# PCOD9192584 Si02
#       7
#     8   8   8   2   8   8   8
#     4  10  20  33  59  91 124 156 197 250 302 361
#     4   9  19  36  55  83 120 160 198 246 301 360
#     4  10  21  38  60  85 122 161 203 244 301 370
#     4  12  26  44  68  88 124 156 210 256 316 364
#     4  10  20  35  56  83 112 151 198 251 302 358
#     4   9  20  40  61  82 118 159 200 242 305 367
#     4  10  24  45  66  91 122 163 207 255 307 369
#
# _framework density 22.229296000000001
#
# number of rings (size 3 to 8) (size 9 to 14) (size 15 to 20)
#    0.000    2.240    0.000    1.680    2.240    3.840 
#    2.880    8.000    0.000    0.000    0.000    0.000 
#    0.000    0.000    0.000    0.000    0.000    0.000 
#
# Total GULP energy -139269.050796 kJ/mol
# GULP energy per Si atom -5570.762032 kJ/mol
# Density = 2.217870 g / cm^3
# Si number density = 22.229296 Si / 1000 Ang^3
#
#
#
# Elastic Constant Matrix: (Units=GPa)
#
#
# Indices 1 2 3 4 5 6 
#
# 1 40.0222 -0.4735 20.4323 0.0000 13.6839 0.0000
# 2 -0.4735 72.0018 15.8133 0.0000 -14.1502 0.0000
# 3 20.4323 15.8133 102.9292 0.0000 -2.6178 0.0000
# 4 0.0000 0.0000 0.0000 26.6956 0.0000 6.3726
# 5 13.6839 -14.1502 -2.6178 0.0000 26.5590 0.0000
# 6 0.0000 0.0000 0.0000 6.3726 0.0000 2.6274
#
#
#
# Elastic Compliance Matrix: (Units=1/GPa)
#
#
# Indices 1 2 3 4 5 6 
#
# 1 0.035556 -0.002140 -0.007242 0.000000 -0.020173 0.000000
# 2 -0.002140 0.016145 -0.001813 0.000000 0.009526 0.000000
# 3 -0.007242 -0.001813 0.011531 0.000000 0.003902 0.000000
# 4 0.000000 0.000000 0.000000 0.088975 0.000000 -0.215804
# 5 -0.020173 0.009526 0.003902 0.000000 0.053506 0.000000
# 6 0.000000 0.000000 0.000000 -0.215804 0.000000 0.904021
#
#
# Mechanical properties :
#
#
# Convention : Reuss Voigt Hill
#
# Bulk Modulus (GPa) = 24.48597 31.83303 28.15950
# Shear Modulus (GPa) = 4.36400 23.12181 13.74291
#
# Velocity S-wave (km/s) = 1.40265 3.22863 2.48913
# Velocity P-wave (km/s) = 3.69626 5.31509 4.57780
#
# Compressibility (1/GPa) = 0.04083971
#
# Stress axis : x y z
#
# Youngs Moduli (GPa) = 28.12500 61.93973 86.72363
#
# Poissons Ratio (x) = 0.13256 0.62808
# Poissons Ratio (y) = 0.06019 0.15725
# Poissons Ratio (z) = 0.20369 0.11231
#
# Static dielectric constant tensor:
#      x y z
#    x 1.865450 0.000000 -0.009070 
#    y 0.000000 1.777010 0.000000 
#    z -0.009070 0.000000 1.829350 
# 
# From -- ./inp_files/179836.got.cif
#   From: 2010.05.17/outbox.cif.g08.bks.cpg/sg12_90_cif.got.tgz:179836.got - 2010.06.03 13:09:07.
