data_PCOD9192655
_publ_section_title
;
Structure prediction by ZEFSAII (Michael W. Deem and Ramdas Pophale) SiO2 
 PCOD9192655
Probable space group: C 2/M
;
_chemical_formula_sum "Si O2"
_cell_formula_units_Z 64
_cell_length_a 29.371312
_cell_length_b 8.530624
_cell_length_c 16.204715
_cell_angle_alpha 90.000000
_cell_angle_beta 90.140428
_cell_angle_gamma 90.000000
_cell_volume 4060.170204
_symmetry_space_group_name_H-M "C 2/M"
_symmetry_group_IT_number 12
_symmetry_cell_setting 'monoclinic'
loop_
_space_group_symop_operation_xyz
x,y,z
-x,y,-z
-x,-y,-z
x,-y,z
1/2+x,1/2+y,z
1/2-x,1/2+y,-z
1/2-x,1/2-y,-z
1/2+x,1/2-y,z
loop_
_atom_site_type_symbol
_atom_site_label
_atom_site_fract_x
_atom_site_fract_y
_atom_site_fract_z
Si Si1 0.607868 0.812353 0.164345
Si Si2 0.698286 0.812324 0.906912
Si Si3 0.051347 0.808122 0.681327
Si Si4 0.106753 0.187723 0.841711
Si Si5 0.698496 0.312173 0.092744
Si Si6 0.444671 0.681491 0.498621
Si Si7 0.054283 0.809879 0.320896
Si Si8 0.947222 0.310467 0.999298
O O1 0.659059 0.753728 0.150193
O O2 0.585389 0.749145 0.247392
O O3 0.578136 0.759491 0.084633
O O4 0.607320 0.000000 0.165401
O O5 0.658406 0.745374 0.850473
O O6 0.749847 0.766674 0.883228
O O7 0.695398 0.000000 0.908153
O O8 0.690666 0.751431 0.000103
O O9 0.082066 0.757625 0.757916
O O10 0.067470 0.750498 0.590974
O O11 0.998496 0.762778 0.693561
O O12 0.051810 0.000000 0.678450
O O13 0.106023 0.000000 0.842839
O O14 0.079082 0.248270 0.920998
O O15 0.695965 0.500000 0.090663
O O16 0.500000 0.679507 0.500000
O O17 0.429448 0.500000 0.498199
O O18 0.431198 0.748691 0.587583
O O19 0.055007 0.000000 0.322806
O O20 0.946001 0.500000 0.001804
O O21 0.000000 0.260744 0.000000
#
# Coordination Sequence:
#
# PCOD9192655 Si02
#       8
#     8   8   8   8   8   8   8   8
#     4  11  21  31  45  66  95 127 153 188 232 273
#     4  10  20  34  50  68  91 117 148 191 239 280
#     4   8  15  27  44  70  97 121 156 196 229 264
#     4  11  20  29  46  70  94 123 156 192 227 269
#     4  10  20  34  52  69  86 114 154 196 233 274
#     4   7  11  23  44  67  90 118 153 194 234 265
#     4   9  16  28  48  69  92 124 160 195 226 267
#     4  10  21  34  44  58  89 131 164 188 222 268
#
# _framework density 15.762886999999999
#
# number of rings (size 3 to 8) (size 9 to 14) (size 15 to 20)
#    0.000    2.500    1.250    3.750    0.000    2.250 
#    0.000    0.625    0.000    4.875    0.000    0.875 
#    0.000    0.000    0.000    0.000    0.000    0.000 
#
# Total GULP energy -178356.862927 kJ/mol
# GULP energy per Si atom -5573.651966 kJ/mol
# Density = 1.572701 g / cm^3
# Si number density = 15.762887 Si / 1000 Ang^3
#
#
#
# Elastic Constant Matrix: (Units=GPa)
#
#
# Indices 1 2 3 4 5 6 
#
# 1 112.6045 20.4598 79.1792 0.0000 -4.3988 0.0000
# 2 20.4598 14.8722 20.1761 0.0000 -2.9184 0.0000
# 3 79.1792 20.1761 149.4248 0.0000 -12.7120 0.0000
# 4 0.0000 0.0000 0.0000 6.5228 0.0000 -0.4056
# 5 -4.3988 -2.9184 -12.7120 0.0000 10.2520 0.0000
# 6 0.0000 0.0000 0.0000 -0.4056 0.0000 20.8339
#
#
#
# Elastic Compliance Matrix: (Units=1/GPa)
#
#
# Indices 1 2 3 4 5 6 
#
# 1 0.016237 -0.013644 -0.007266 0.000000 -0.005927 0.000000
# 2 -0.013644 0.094864 -0.004226 0.000000 0.015911 0.000000
# 3 -0.007266 -0.004226 0.012013 0.000000 0.010575 0.000000
# 4 0.000000 0.000000 0.000000 0.153494 0.000000 0.002989
# 5 -0.005927 0.015911 0.010575 0.000000 0.112641 0.000000
# 6 0.000000 0.000000 0.000000 0.002989 0.000000 0.048057
#
#
# Mechanical properties :
#
#
# Convention : Reuss Voigt Hill
#
# Bulk Modulus (GPa) = 13.72801 57.39240 35.56020
# Shear Modulus (GPa) = 9.76833 17.99416 13.88125
#
# Velocity S-wave (km/s) = 2.49209 3.38235 2.97076
# Velocity P-wave (km/s) = 4.12415 7.19323 5.86307
#
# Compressibility (1/GPa) = 0.07284376
#
# Stress axis : x y z
#
# Youngs Moduli (GPa) = 61.58676 10.54136 83.24490
#
# Poissons Ratio (x) = 0.14382 0.60486
# Poissons Ratio (y) = 0.84026 0.35178
# Poissons Ratio (z) = 0.44749 0.04455
#
# Static dielectric constant tensor:
#      x y z
#    x 1.515830 0.000000 0.010070 
#    y 0.000000 1.536610 0.000000 
#    z 0.010070 0.000000 1.535340 
# 
# From -- ./inp_files/248454.got.cif
#   From: 2010.05.17/outbox.cif.g08.bks.cpg/sg12_125_cif.got.tgz:248454.got - 2010.06.03 13:09:07.
