data_PCOD9192284
_publ_section_title
;
Structure prediction by ZEFSAII (Michael W. Deem and Ramdas Pophale) SiO2 
 PCOD9192284
Probable space group: C 2/M
;
_chemical_formula_sum "Si O2"
_cell_formula_units_Z 64
_cell_length_a 31.422421
_cell_length_b 7.443801
_cell_length_c 11.964611
_cell_angle_alpha 90.000000
_cell_angle_beta 94.105077
_cell_angle_gamma 90.000000
_cell_volume 2791.369583
_symmetry_space_group_name_H-M "C 2/M"
_symmetry_group_IT_number 12
_symmetry_cell_setting 'monoclinic'
loop_
_space_group_symop_operation_xyz
x,y,z
-x,y,-z
-x,-y,-z
x,-y,z
1/2+x,1/2+y,z
1/2-x,1/2+y,-z
1/2-x,1/2-y,-z
1/2+x,1/2-y,z
loop_
_atom_site_type_symbol
_atom_site_label
_atom_site_fract_x
_atom_site_fract_y
_atom_site_fract_z
Si Si1 0.561181 0.780855 0.576533
Si Si2 0.541792 0.285755 0.073743
Si Si3 0.702302 0.707329 0.853606
Si Si4 0.972987 0.284222 0.667724
Si Si5 0.368593 0.707251 0.999200
Si Si6 0.154658 0.282195 0.625786
Si Si7 0.205620 0.280561 0.178250
Si Si8 0.794229 0.286177 0.569829
O O1 0.520769 0.723278 0.642788
O O2 0.555099 0.725224 0.445267
O O3 0.606203 0.723970 0.635496
O O4 0.560940 0.000000 0.575976
O O5 0.542482 0.500000 0.057813
O O6 0.539530 0.260744 0.207720
O O7 0.585745 0.214489 0.027205
O O8 0.500000 0.216507 0.000000
O O9 0.705026 0.500000 0.890786
O O10 0.688033 0.712441 0.722277
O O11 0.750124 0.781909 0.870612
O O12 0.662463 0.791331 0.912582
O O13 0.972761 0.500000 0.663588
O O14 0.376471 0.500000 0.034260
O O15 0.337060 0.714588 0.887790
O O16 0.156538 0.500000 0.630948
O O17 0.168883 0.222322 0.505572
O O18 0.205857 0.500000 0.174793
O O19 0.206125 0.216348 0.305493
O O20 0.799353 0.500000 0.580608
O O21 0.750000 0.250000 0.500000
#
# Coordination Sequence:
#
# PCOD9192284 Si02
#       8
#     8   8   8   8   8   8   8   8
#     4   8  17  34  56  84 113 141 176 227 279 324
#     4  10  23  41  57  79 114 149 182 226 278 328
#     4  10  21  38  57  80 112 147 188 232 275 322
#     4   9  18  36  61  83 108 142 182 226 276 328
#     4  10  23  40  58  80 108 148 190 227 275 330
#     4  10  20  33  54  82 113 147 182 222 273 329
#     4  10  21  37  58  84 112 142 183 235 277 321
#     4  10  20  34  53  80 113 146 178 218 270 323
#
# _framework density 22.927813
#
# number of rings (size 3 to 8) (size 9 to 14) (size 15 to 20)
#    0.000    2.375    1.250    1.125    3.500    2.250 
#    0.000    1.875    0.000    0.000    0.000    0.000 
#    0.000    0.000    0.000    0.000    0.000    0.000 
#
# Total GULP energy -178649.616330 kJ/mol
# GULP energy per Si atom -5582.800510 kJ/mol
# Density = 2.287563 g / cm^3
# Si number density = 22.927813 Si / 1000 Ang^3
#
#
#
# Elastic Constant Matrix: (Units=GPa)
#
#
# Indices 1 2 3 4 5 6 
#
# 1 139.0375 1.4964 21.2096 0.0000 -4.4930 0.0000
# 2 1.4964 73.8154 -5.1600 0.0000 -3.3605 0.0000
# 3 21.2096 -5.1600 92.5330 0.0000 -16.5229 0.0000
# 4 0.0000 0.0000 0.0000 -16.3942 0.0000 38.6896
# 5 -4.4930 -3.3605 -16.5229 0.0000 31.1258 0.0000
# 6 0.0000 0.0000 0.0000 38.6896 0.0000 -33.6449
#
#
#
# Elastic Compliance Matrix: (Units=1/GPa)
#
#
# Indices 1 2 3 4 5 6 
#
# 1 0.007459 -0.000263 -0.001698 0.000000 0.000147 0.000000
# 2 -0.000263 0.013731 0.001197 0.000000 0.002080 0.000000
# 3 -0.001698 0.001197 0.012419 0.000000 0.006477 0.000000
# 4 0.000000 0.000000 0.000000 0.035592 0.000000 0.040928
# 5 0.000147 0.002080 0.006477 0.000000 0.035812 0.000000
# 6 0.000000 0.000000 0.000000 0.040928 0.000000 0.017343
#
#
# Mechanical properties :
#
#
# Convention : Reuss Voigt Hill
#
# Bulk Modulus (GPa) = 31.17039 37.83086 34.50063
# Shear Modulus (GPa) = 37.15329 15.40666 26.27997
#
# Velocity S-wave (km/s) = 4.02984 2.59504 3.38924
# Velocity P-wave (km/s) = 5.93948 5.05121 5.51326
#
# Compressibility (1/GPa) = 0.03208172
#
# Stress axis : x y z
#
# Youngs Moduli (GPa) = 134.06755 72.82761 80.51855
#
# Poissons Ratio (x) = 0.01917 0.13673
# Poissons Ratio (y) = 0.03529 -0.09642
# Poissons Ratio (z) = 0.22766 -0.08721
#
# Static dielectric constant tensor:
#      x y z
#    x 1.847630 0.000000 -0.032860 
#    y 0.000000 1.882990 0.000000 
#    z -0.032860 0.000000 1.852100 
# 
# From -- ./inp_files/187422.got.cif
#   From: 2010.05.17/outbox.cif.g08.bks.cpg/sg12_94_cif.got.tgz:187422.got - 2010.06.03 13:09:07.
