data_PCOD9192309
_publ_section_title
;
Structure prediction by ZEFSAII (Michael W. Deem and Ramdas Pophale) SiO2 
 PCOD9192309
Probable space group: C 2/M
;
_chemical_formula_sum "Si O2"
_cell_formula_units_Z 64
_cell_length_a 22.286015
_cell_length_b 9.612807
_cell_length_c 20.038326
_cell_angle_alpha 90.000000
_cell_angle_beta 59.141420
_cell_angle_gamma 90.000000
_cell_volume 3685.122806
_symmetry_space_group_name_H-M "C 2/M"
_symmetry_group_IT_number 12
_symmetry_cell_setting 'monoclinic'
loop_
_space_group_symop_operation_xyz
x,y,z
-x,y,-z
-x,-y,-z
x,-y,z
1/2+x,1/2+y,z
1/2-x,1/2+y,-z
1/2-x,1/2-y,-z
1/2+x,1/2-y,z
loop_
_atom_site_type_symbol
_atom_site_label
_atom_site_fract_x
_atom_site_fract_y
_atom_site_fract_z
Si Si1 0.292936 0.335361 0.307344
Si Si2 0.437742 0.845466 0.432622
Si Si3 0.659806 0.658607 0.423100
Si Si4 0.216377 0.164045 0.079056
Si Si5 0.055926 0.844919 0.202640
Si Si6 0.909924 0.245114 0.670972
Si Si7 0.233988 0.653993 0.195319
Si Si8 0.075210 0.339165 0.719817
O O1 0.293635 0.500000 0.323373
O O2 0.228156 0.255382 0.378773
O O3 0.279773 0.323327 0.235263
O O4 0.363092 0.256853 0.288035
O O5 0.394374 0.728495 0.495250
O O6 0.520819 0.823168 0.393152
O O7 0.422762 0.837886 0.362128
O O8 0.418389 0.000000 0.468149
O O9 0.677380 0.500000 0.430891
O O10 0.622755 0.661382 0.371691
O O11 0.132010 0.179908 0.127746
O O12 0.241769 0.229994 0.134542
O O13 0.231871 0.000000 0.066429
O O14 0.250000 0.250000 0.000000
O O15 0.067500 0.839666 0.276293
O O16 0.998964 0.728906 0.218396
O O17 0.031412 0.000000 0.198439
O O18 0.846392 0.340326 0.733255
O O19 0.248165 0.500000 0.159626
O O20 0.081364 0.500000 0.737648
#
# Coordination Sequence:
#
# PCOD9192309 Si02
#       8
#     8   8   8   8   8   8   8   8
#     4  10  21  37  56  74  96 131 172 214 258 303
#     4  10  21  34  48  69  98 132 170 212 262 314
#     4  11  22  33  48  71  99 131 169 215 264 311
#     4  10  20  33  54  84 116 145 167 196 240 290
#     4   9  18  33  53  77 104 134 168 204 245 296
#     4   9  18  31  51  74  99 130 168 210 256 307
#     4   9  18  33  54  79 104 132 168 207 249 300
#     4  10  21  36  54  74  97 130 172 216 257 299
#
# _framework density 17.367128000000001
#
# number of rings (size 3 to 8) (size 9 to 14) (size 15 to 20)
#    0.000    2.250    0.000    2.625    0.000   13.000 
#    0.000    0.000    0.000    0.750    0.000    5.250 
#    0.000    0.000    0.000    0.000    0.000    0.000 
#
# Total GULP energy -178485.132921 kJ/mol
# GULP energy per Si atom -5577.660404 kJ/mol
# Density = 1.732760 g / cm^3
# Si number density = 17.367128 Si / 1000 Ang^3
#
#
#
# Elastic Constant Matrix: (Units=GPa)
#
#
# Indices 1 2 3 4 5 6 
#
# 1 76.0386 52.6257 10.4943 0.0000 -11.6047 0.0000
# 2 52.6257 161.0026 56.1297 0.0000 -10.5687 -0.0001
# 3 10.4943 56.1297 70.6104 0.0000 -10.7817 0.0000
# 4 0.0000 0.0000 0.0000 15.6514 0.0000 -3.5293
# 5 -11.6047 -10.5687 -10.7817 0.0000 9.0700 0.0000
# 6 0.0000 -0.0001 0.0000 -3.5293 0.0000 17.8003
#
#
#
# Elastic Compliance Matrix: (Units=1/GPa)
#
#
# Indices 1 2 3 4 5 6 
#
# 1 0.021706 -0.007793 0.007114 0.000000 0.027148 0.000000
# 2 -0.007793 0.011430 -0.009061 0.000000 -0.007423 0.000000
# 3 0.007114 -0.009061 0.024540 0.000000 0.027714 0.000000
# 4 0.000000 0.000000 0.000000 0.066882 0.000000 0.013261
# 5 0.027148 -0.007423 0.027714 0.000000 0.169282 0.000000
# 6 0.000000 0.000000 0.000000 0.013261 0.000000 0.058808
#
#
# Mechanical properties :
#
#
# Convention : Reuss Voigt Hill
#
# Bulk Modulus (GPa) = 26.18119 60.68344 43.43231
# Shear Modulus (GPa) = 12.99175 21.06449 17.02812
#
# Velocity S-wave (km/s) = 2.73805 3.48644 3.13466
# Velocity P-wave (km/s) = 5.01036 7.15712 6.17771
#
# Compressibility (1/GPa) = 0.03819537
#
# Stress axis : x y z
#
# Youngs Moduli (GPa) = 46.07017 87.48905 40.75038
#
# Poissons Ratio (x) = 0.68180 -0.28990
# Poissons Ratio (y) = 0.35902 0.36925
# Poissons Ratio (z) = -0.32775 0.79276
#
# Static dielectric constant tensor:
#      x y z
#    x 1.583100 0.000000 0.003490 
#    y 0.000000 1.600020 0.000000 
#    z 0.003490 0.000000 1.571630 
# 
# From -- ./inp_files/319776.got.cif
#   From: 2010.05.17/outbox.cif.g08.bks.cpg/sg12_160_cif.got.tgz:319776.got - 2010.06.03 13:09:07.
