data_PCOD9192613
_publ_section_title
;
Structure prediction by ZEFSAII (Michael W. Deem and Ramdas Pophale) SiO2 
 PCOD9192613
Probable space group: C 2/M
;
_chemical_formula_sum "Si O2"
_cell_formula_units_Z 56
_cell_length_a 9.456864
_cell_length_b 23.907352
_cell_length_c 15.136680
_cell_angle_alpha 90.000000
_cell_angle_beta 63.695924
_cell_angle_gamma 90.000000
_cell_volume 3067.875269
_symmetry_space_group_name_H-M "C 2/M"
_symmetry_group_IT_number 12
_symmetry_cell_setting 'monoclinic'
loop_
_space_group_symop_operation_xyz
x,y,z
-x,y,-z
-x,-y,-z
x,-y,z
1/2+x,1/2+y,z
1/2-x,1/2+y,-z
1/2-x,1/2-y,-z
1/2+x,1/2-y,z
loop_
_atom_site_type_symbol
_atom_site_label
_atom_site_fract_x
_atom_site_fract_y
_atom_site_fract_z
Si Si1 0.330359 0.060055 0.499846
Si Si2 0.729379 0.846581 0.347674
Si Si3 0.650639 0.715690 0.392584
Si Si4 0.933928 0.752458 0.932866
Si Si5 0.914210 0.370443 0.112040
Si Si6 0.074846 0.624358 0.685125
Si Si7 0.431912 0.332769 0.776091
O O1 0.500000 0.054974 0.500000
O O2 0.271227 0.116133 0.563559
O O3 0.351678 0.073264 0.390955
O O4 0.247749 0.000000 0.536462
O O5 0.705003 0.780653 0.374919
O O6 0.590043 0.862117 0.318153
O O7 0.900241 0.861986 0.262309
O O8 0.500000 0.710291 0.500000
O O9 0.592075 0.692911 0.314108
O O10 0.804947 0.676527 0.364426
O O11 0.953016 0.781462 0.835632
O O12 0.022097 0.693479 0.904229
O O13 0.750000 0.750000 0.000000
O O14 0.000000 0.784419 0.000000
O O15 0.724668 0.366983 0.154540
O O16 0.944093 0.389227 0.205362
O O17 0.000000 0.395313 0.000000
#
# Coordination Sequence:
#
# PCOD9192613 Si02
#       7
#     8   8   8   8   8   8   8
#     4   9  19  37  57  80 106 133 174 226 271 316
#     4  11  21  31  53  81 106 139 177 217 263 322
#     4  11  21  33  50  75 114 146 174 208 260 326
#     4  11  20  31  47  69 105 151 186 216 252 305
#     4  10  20  34  47  69 105 143 178 216 261 304
#     4  10  21  34  54  78 105 144 181 214 262 319
#     4  11  21  32  47  73 109 148 177 214 258 307
#
# _framework density 18.253675000000001
#
# number of rings (size 3 to 8) (size 9 to 14) (size 15 to 20)
#    0.000    1.571    2.857    5.571    2.000    1.714 
#    0.000    0.000    0.000   11.143    0.000    0.000 
#    0.000    5.143    0.000    0.000    0.000    0.000 
#
# Total GULP energy -155876.717803 kJ/mol
# GULP energy per Si atom -5567.025636 kJ/mol
# Density = 1.821213 g / cm^3
# Si number density = 18.253675 Si / 1000 Ang^3
#
#
#
# Elastic Constant Matrix: (Units=GPa)
#
#
# Indices 1 2 3 4 5 6 
#
# 1 114.1247 13.2931 52.4470 0.0000 -7.6223 0.0000
# 2 13.2931 24.1015 -7.9734 0.0000 -2.8319 0.0000
# 3 52.4470 -7.9734 107.3170 0.0000 -3.2601 0.0000
# 4 0.0000 0.0000 0.0000 0.9649 0.0000 -6.2338
# 5 -7.6223 -2.8319 -3.2601 0.0000 34.6460 0.0000
# 6 0.0000 0.0000 0.0000 -6.2338 0.0000 -7.4425
#
#
#
# Elastic Compliance Matrix: (Units=1/GPa)
#
#
# Indices 1 2 3 4 5 6 
#
# 1 0.013244 -0.009492 -0.007133 0.000000 0.001467 0.000000
# 2 -0.009492 0.049841 0.008426 0.000000 0.002779 0.000000
# 3 -0.007133 0.008426 0.013442 0.000000 0.000384 0.000000
# 4 0.000000 0.000000 0.000000 0.161646 0.000000 -0.135395
# 5 0.001467 0.002779 0.000384 0.000000 0.029449 0.000000
# 6 0.000000 0.000000 0.000000 -0.135395 0.000000 -0.020957
#
#
# Mechanical properties :
#
#
# Convention : Reuss Voigt Hill
#
# Bulk Modulus (GPa) = 16.63097 40.11962 28.37529
# Shear Modulus (GPa) = 17.66119 18.15211 17.90665
#
# Velocity S-wave (km/s) = 3.11391 3.15689 3.13547
# Velocity P-wave (km/s) = 4.69674 5.94261 5.35602
#
# Compressibility (1/GPa) = 0.06012879
#
# Stress axis : x y z
#
# Youngs Moduli (GPa) = 75.50531 20.06389 74.39350
#
# Poissons Ratio (x) = 0.19045 0.53067
# Poissons Ratio (y) = 0.71672 -0.62687
# Poissons Ratio (z) = 0.53860 -0.16907
#
# Static dielectric constant tensor:
#      x y z
#    x 1.663770 0.000000 0.027180 
#    y 0.000000 1.598450 0.000000 
#    z 0.027180 0.000000 1.717210 
# 
# From -- ./inp_files/200538.got.cif
#   From: 2010.05.17/outbox.cif.g08.bks.cpg/sg12_101_cif.got.tgz:200538.got - 2010.06.03 13:09:07.
