data_PCOD9192995
_publ_section_title
;
Structure prediction by ZEFSAII (Michael W. Deem and Ramdas Pophale) SiO2 
 PCOD9192995
Probable space group: C 2/M
;
_chemical_formula_sum "Si O2"
_cell_formula_units_Z 48
_cell_length_a 18.937723
_cell_length_b 8.714473
_cell_length_c 18.996450
_cell_angle_alpha 90.000000
_cell_angle_beta 118.832760
_cell_angle_gamma 90.000000
_cell_volume 2746.381431
_symmetry_space_group_name_H-M "C 2/M"
_symmetry_group_IT_number 12
_symmetry_cell_setting 'monoclinic'
loop_
_space_group_symop_operation_xyz
x,y,z
-x,y,-z
-x,-y,-z
x,-y,z
1/2+x,1/2+y,z
1/2-x,1/2+y,-z
1/2-x,1/2-y,-z
1/2+x,1/2-y,z
loop_
_atom_site_type_symbol
_atom_site_label
_atom_site_fract_x
_atom_site_fract_y
_atom_site_fract_z
Si Si1 0.009711 0.315302 0.336058
Si Si2 0.587308 0.822427 0.580890
Si Si3 0.333223 0.317802 0.511071
Si Si4 0.583725 0.321197 0.084773
Si Si5 0.492160 0.686199 0.172247
Si Si6 0.331573 0.685534 0.008192
O O1 0.013321 0.500000 0.340922
O O2 0.092246 0.249268 0.408067
O O3 0.935582 0.267411 0.351839
O O4 0.999201 0.257470 0.252135
O O5 0.500000 0.819113 0.500000
O O6 0.647936 0.729777 0.560700
O O7 0.613661 0.000000 0.595851
O O8 0.332264 0.500000 0.516705
O O9 0.250000 0.250000 0.500000
O O10 0.604709 0.500000 0.105930
O O11 0.561138 0.257914 0.150440
O O12 0.500000 0.319877 0.000000
O O13 0.648438 0.255422 0.061288
O O14 0.496930 0.500000 0.178769
O O15 0.406884 0.724699 0.094753
O O16 0.328430 0.500000 0.003450
O O17 0.250000 0.750000 0.000000
#
# Coordination Sequence:
#
# PCOD9192995 Si02
#       6
#     8   8   8   8   8   8
#     4  10  20  34  52  75 103 132 163 202 247 294
#     4   8  16  32  51  71  98 131 165 199 239 291
#     4  11  21  34  54  77 101 129 164 204 245 291
#     4   7  12  26  47  67  89 123 164 199 233 282
#     4   9  17  31  51  72  94 126 168 206 239 284
#     4   9  17  30  49  72  97 125 160 201 246 294
#
# _framework density 17.477544000000002
#
# number of rings (size 3 to 8) (size 9 to 14) (size 15 to 20)
#    0.000    3.000    0.000    5.000    0.000    4.333 
#    0.000    2.500    0.000    9.000    0.000    0.000 
#    0.000    0.000    0.000    0.000    0.000    0.000 
#
# Total GULP energy -133627.529671 kJ/mol
# GULP energy per Si atom -5567.813736 kJ/mol
# Density = 1.743776 g / cm^3
# Si number density = 17.477544 Si / 1000 Ang^3
#
#
#
# Elastic Constant Matrix: (Units=GPa)
#
#
# Indices 1 2 3 4 5 6 
#
# 1 151.4320 47.6964 70.1483 0.0000 -43.5182 0.0000
# 2 47.6964 50.8858 37.7361 0.0000 -13.1018 0.0000
# 3 70.1483 37.7361 120.6680 0.0000 -46.9124 0.0000
# 4 0.0000 0.0000 0.0000 23.6214 0.0000 -3.6353
# 5 -43.5182 -13.1018 -46.9124 0.0000 32.1594 0.0000
# 6 0.0000 0.0000 0.0000 -3.6353 0.0000 28.8277
#
#
#
# Elastic Compliance Matrix: (Units=1/GPa)
#
#
# Indices 1 2 3 4 5 6 
#
# 1 0.013864 -0.009831 0.001736 0.000000 0.017288 0.000000
# 2 -0.009831 0.032673 -0.010395 0.000000 -0.015156 0.000000
# 3 0.001736 -0.010395 0.022629 0.000000 0.031124 0.000000
# 4 0.000000 0.000000 0.000000 0.043172 0.000000 0.005444
# 5 0.017288 -0.015156 0.031124 0.000000 0.093717 0.000000
# 6 0.000000 0.000000 0.000000 0.005444 0.000000 0.035375
#
#
# Mechanical properties :
#
#
# Convention : Reuss Voigt Hill
#
# Bulk Modulus (GPa) = 31.06921 70.46083 50.76502
# Shear Modulus (GPa) = 17.29268 28.08205 22.68737
#
# Velocity S-wave (km/s) = 3.14892 4.01278 3.60681
# Velocity P-wave (km/s) = 5.57101 7.86590 6.81574
#
# Compressibility (1/GPa) = 0.03218620
#
# Stress axis : x y z
#
# Youngs Moduli (GPa) = 72.12784 30.60614 44.19130
#
# Poissons Ratio (x) = 0.30090 -0.07671
# Poissons Ratio (y) = 0.70911 0.45935
# Poissons Ratio (z) = -0.12520 0.31814
#
# Static dielectric constant tensor:
#      x y z
#    x 1.604390 0.000000 -0.038760 
#    y 0.000000 1.592240 0.000000 
#    z -0.038760 0.000000 1.605120 
# 
# From -- ./inp_files/273692.got.cif
#   From: 2010.05.17/outbox.cif.g08.bks.cpg/sg12_137_cif.got.tgz:273692.got - 2010.06.03 13:09:07.
