data_PCOD9192819
_publ_section_title
;
Structure prediction by ZEFSAII (Michael W. Deem and Ramdas Pophale) SiO2 
 PCOD9192819
Probable space group: C 2/M
;
_chemical_formula_sum "Si O2"
_cell_formula_units_Z 56
_cell_length_a 19.471201
_cell_length_b 8.887887
_cell_length_c 27.429309
_cell_angle_alpha 90.000000
_cell_angle_beta 41.541485
_cell_angle_gamma 90.000000
_cell_volume 3147.935795
_symmetry_space_group_name_H-M "C 2/M"
_symmetry_group_IT_number 12
_symmetry_cell_setting 'monoclinic'
loop_
_space_group_symop_operation_xyz
x,y,z
-x,y,-z
-x,-y,-z
x,-y,z
1/2+x,1/2+y,z
1/2-x,1/2+y,-z
1/2-x,1/2-y,-z
1/2+x,1/2-y,z
loop_
_atom_site_type_symbol
_atom_site_label
_atom_site_fract_x
_atom_site_fract_y
_atom_site_fract_z
Si Si1 0.673239 0.681511 0.580468
Si Si2 0.964619 0.316229 0.073392
Si Si3 0.857057 0.669195 0.949918
Si Si4 0.742045 0.180565 0.756972
Si Si5 0.521586 0.166153 0.214088
Si Si6 0.315331 0.675040 0.315131
Si Si7 0.055595 0.323948 0.304090
O O1 0.669212 0.500000 0.580039
O O2 0.750000 0.750000 0.500000
O O3 0.712934 0.721668 0.614297
O O4 0.557908 0.747672 0.632594
O O5 0.961765 0.500000 0.075702
O O6 0.854084 0.269972 0.156303
O O7 0.056715 0.263715 0.060111
O O8 0.000000 0.271704 0.000000
O O9 0.836945 0.500000 0.978626
O O10 0.907330 0.662739 0.870187
O O11 0.750000 0.750000 0.000000
O O12 0.723745 0.235159 0.711175
O O13 0.851636 0.245196 0.716697
O O14 0.743846 0.000000 0.756963
O O15 0.438333 0.295816 0.251276
O O16 0.581126 0.184938 0.232869
O O17 0.468050 0.000000 0.245528
O O18 0.289894 0.500000 0.322369
O O19 0.047810 0.500000 0.321898
#
# Coordination Sequence:
#
# PCOD9192819 Si02
#       7
#     8   8   8   8   8   8   8
#     4  10  21  39  63  91 119 149 183 224 275 334
#     4   9  19  35  53  75 107 148 191 237 288 337
#     4  10  20  34  51  74 105 140 184 234 285 339
#     4  11  21  36  58  81 113 153 194 236 284 341
#     4   9  18  35  54  74 105 145 187 231 281 333
#     4  10  20  35  58  85 112 143 185 228 273 329
#     4  10  21  36  57  84 115 148 187 234 281 331
#
# _framework density 17.789435999999998
#
# number of rings (size 3 to 8) (size 9 to 14) (size 15 to 20)
#    0.000    2.143    1.429    1.714    2.000    2.857 
#    0.000    0.714    0.000    6.429    0.000    0.000 
#    0.000    0.000    0.000    0.000    0.000    0.000 
#
# Total GULP energy -155963.579582 kJ/mol
# GULP energy per Si atom -5570.127842 kJ/mol
# Density = 1.774895 g / cm^3
# Si number density = 17.789436 Si / 1000 Ang^3
#
#
#
# Elastic Constant Matrix: (Units=GPa)
#
#
# Indices 1 2 3 4 5 6 
#
# 1 143.0097 50.8908 77.9155 0.0000 3.0515 0.0001
# 2 50.8908 56.1664 38.4160 0.0000 5.2709 0.0000
# 3 77.9155 38.4160 110.1412 0.0000 15.8614 0.0000
# 4 0.0000 0.0000 0.0000 22.9881 0.0000 -3.7552
# 5 3.0515 5.2709 15.8614 0.0000 23.2448 0.0000
# 6 0.0001 0.0000 0.0000 -3.7552 0.0000 31.1813
#
#
#
# Elastic Compliance Matrix: (Units=1/GPa)
#
#
# Indices 1 2 3 4 5 6 
#
# 1 0.013953 -0.007704 -0.007953 0.000000 0.005342 0.000000
# 2 -0.007704 0.027638 -0.003807 0.000000 -0.002658 0.000000
# 3 -0.007953 -0.003807 0.017475 0.000000 -0.010017 0.000000
# 4 0.000000 0.000000 0.000000 0.044374 0.000000 0.005344
# 5 0.005342 -0.002658 -0.010017 0.000000 0.049757 0.000000
# 6 0.000000 0.000000 0.000000 0.005344 0.000000 0.032714
#
#
# Mechanical properties :
#
#
# Convention : Reuss Voigt Hill
#
# Bulk Modulus (GPa) = 49.65533 71.52909 60.59221
# Shear Modulus (GPa) = 21.59334 24.95583 23.27459
#
# Velocity S-wave (km/s) = 3.48779 3.74952 3.62102
# Velocity P-wave (km/s) = 6.64778 7.68383 7.18450
#
# Compressibility (1/GPa) = 0.02013883
#
# Stress axis : x y z
#
# Youngs Moduli (GPa) = 71.66905 36.18174 57.22301
#
# Poissons Ratio (x) = 0.27876 0.45507
# Poissons Ratio (y) = 0.55217 0.21784
# Poissons Ratio (z) = 0.56996 0.13774
#
# Static dielectric constant tensor:
#      x y z
#    x 1.607210 0.000000 0.025930 
#    y 0.000000 1.667620 0.000000 
#    z 0.025930 0.000000 1.598320 
# 
# From -- ./inp_files/363022.got.cif
#   From: 2010.05.17/outbox.cif.g08.bks.cpg/sg12_182_cif.got.tgz:363022.got - 2010.06.03 13:09:07.
