data_PCOD9192261
_publ_section_title
;
Structure prediction by ZEFSAII (Michael W. Deem and Ramdas Pophale) SiO2 
 PCOD9192261
Probable space group: C 2/M
;
_chemical_formula_sum "Si O2"
_cell_formula_units_Z 56
_cell_length_a 9.258091
_cell_length_b 28.485116
_cell_length_c 14.686881
_cell_angle_alpha 90.000000
_cell_angle_beta 51.112453
_cell_angle_gamma 90.000000
_cell_volume 3014.813612
_symmetry_space_group_name_H-M "C 2/M"
_symmetry_group_IT_number 12
_symmetry_cell_setting 'monoclinic'
loop_
_space_group_symop_operation_xyz
x,y,z
-x,y,-z
-x,-y,-z
x,-y,z
1/2+x,1/2+y,z
1/2-x,1/2+y,-z
1/2-x,1/2-y,-z
1/2+x,1/2-y,z
loop_
_atom_site_type_symbol
_atom_site_label
_atom_site_fract_x
_atom_site_fract_y
_atom_site_fract_z
Si Si1 0.039678 0.555703 0.751606
Si Si2 0.168782 0.098959 0.862614
Si Si3 0.820326 0.604108 0.135157
Si Si4 0.471339 0.553877 0.245553
Si Si5 0.442164 0.299421 0.129420
Si Si6 0.666285 0.943168 0.499427
Si Si7 0.794048 0.291898 0.127322
O O1 0.997051 0.500000 0.770309
O O2 0.168935 0.569135 0.784431
O O3 0.129628 0.567935 0.618686
O O4 0.861158 0.588980 0.836533
O O5 0.165497 0.059440 0.785688
O O6 0.153451 0.149891 0.820273
O O7 0.000000 0.093593 0.000000
O O8 0.642323 0.586364 0.151082
O O9 0.786373 0.657639 0.178396
O O10 0.000000 0.601154 0.000000
O O11 0.526450 0.500000 0.234242
O O12 0.361375 0.571334 0.377859
O O13 0.624452 0.291349 0.120854
O O14 0.305213 0.254473 0.185398
O O15 0.500000 0.302342 0.000000
O O16 0.500000 0.926065 0.500000
O O17 0.667085 0.000000 0.492473
O O18 0.000000 0.292769 0.000000
#
# Coordination Sequence:
#
# PCOD9192261 Si02
#       7
#     8   8   8   8   8   8   8
#     4  11  23  37  56  81 112 153 194 232 275 326
#     4  11  22  33  53  84 115 147 189 224 275 348
#     4  11  24  37  53  83 122 151 183 224 283 347
#     4  11  21  37  57  78 113 153 187 234 276 323
#     4  10  20  33  54  80 108 146 188 228 277 331
#     4   9  18  36  58  79 103 140 199 249 272 307
#     4  10  20  34  54  78 110 147 184 230 277 329
#
# _framework density 18.574945
#
# number of rings (size 3 to 8) (size 9 to 14) (size 15 to 20)
#    0.000    1.571    2.857    3.429    8.000    4.000 
#    0.000    2.143    0.000    0.000    0.000    6.000 
#    0.000    0.000    0.000    0.000    0.000    0.000 
#
# Total GULP energy -155993.749100 kJ/mol
# GULP energy per Si atom -5571.205325 kJ/mol
# Density = 1.853267 g / cm^3
# Si number density = 18.574945 Si / 1000 Ang^3
#
#
#
# Elastic Constant Matrix: (Units=GPa)
#
#
# Indices 1 2 3 4 5 6 
#
# 1 72.3701 24.5255 4.9334 0.0000 3.0482 0.0000
# 2 24.5255 104.4212 22.0952 0.0000 -4.3058 0.0000
# 3 4.9334 22.0952 64.3696 0.0000 4.1203 0.0000
# 4 0.0000 0.0000 0.0000 -3.4619 0.0000 4.3981
# 5 3.0482 -4.3058 4.1203 0.0000 25.2562 0.0000
# 6 0.0000 0.0000 0.0000 4.3981 0.0000 30.0274
#
#
#
# Elastic Compliance Matrix: (Units=1/GPa)
#
#
# Indices 1 2 3 4 5 6 
#
# 1 0.015167 -0.003724 0.000277 0.000000 -0.002511 0.000000
# 2 -0.003724 0.011383 -0.003815 0.000000 0.003012 0.000000
# 3 0.000277 -0.003815 0.017045 0.000000 -0.003465 0.000000
# 4 0.000000 0.000000 0.000000 -0.243538 0.000000 0.035671
# 5 -0.002511 0.003012 -0.003465 0.000000 0.040976 0.000000
# 6 0.000000 0.000000 0.000000 0.035671 0.000000 0.028078
#
#
# Mechanical properties :
#
#
# Convention : Reuss Voigt Hill
#
# Bulk Modulus (GPa) = 34.39929 38.25214 36.32572
# Shear Modulus (GPa) = -46.87143 23.00479 -11.93332
#
# Velocity S-wave (km/s) = -5.02876 3.52303 -2.53739
# Velocity P-wave (km/s) = 3.89340 6.09812 3.31878
#
# Compressibility (1/GPa) = 0.02907036
#
# Stress axis : x y z
#
# Youngs Moduli (GPa) = 65.93318 87.85267 58.66753
#
# Poissons Ratio (x) = 0.32719 -0.01623
# Poissons Ratio (y) = 0.24556 0.22379
# Poissons Ratio (z) = -0.01824 0.33512
#
# Static dielectric constant tensor:
#      x y z
#    x 1.630760 0.000000 -0.014770 
#    y 0.000000 1.680900 0.000000 
#    z -0.014770 0.000000 1.631460 
# 
# From -- ./inp_files/185116.got.cif
#   From: 2010.05.17/outbox.cif.g08.bks.cpg/sg12_93_cif.got.tgz:185116.got - 2010.06.03 13:09:07.
