data_PCOD9192056
_publ_section_title
;
Structure prediction by ZEFSAII (Michael W. Deem and Ramdas Pophale) SiO2 
 PCOD9192056
Probable space group: C 2/M
;
_chemical_formula_sum "Si O2"
_cell_formula_units_Z 64
_cell_length_a 24.465714
_cell_length_b 8.493755
_cell_length_c 29.517208
_cell_angle_alpha 90.000000
_cell_angle_beta 149.112759
_cell_angle_gamma 90.000000
_cell_volume 3148.811055
_symmetry_space_group_name_H-M "C 2/M"
_symmetry_group_IT_number 12
_symmetry_cell_setting 'monoclinic'
loop_
_space_group_symop_operation_xyz
x,y,z
-x,y,-z
-x,-y,-z
x,-y,z
1/2+x,1/2+y,z
1/2-x,1/2+y,-z
1/2-x,1/2-y,-z
1/2+x,1/2-y,z
loop_
_atom_site_type_symbol
_atom_site_label
_atom_site_fract_x
_atom_site_fract_y
_atom_site_fract_z
Si Si1 0.376769 0.689062 0.024810
Si Si2 0.954278 0.186306 0.345354
Si Si3 0.724001 0.690130 0.716099
Si Si4 0.438710 0.309701 0.910549
Si Si5 0.689838 0.813766 0.501806
Si Si6 0.201436 0.690527 0.329691
Si Si7 0.039019 0.688807 0.826394
Si Si8 0.158929 0.690583 0.821694
O O1 0.375581 0.500000 0.025703
O O2 0.484140 0.739900 0.075633
O O3 0.380550 0.752449 0.078136
O O4 0.274802 0.735839 0.922874
O O5 0.889228 0.240363 0.343604
O O6 0.875224 0.222942 0.247759
O O7 0.065209 0.270213 0.413806
O O8 0.974793 0.000000 0.363590
O O9 0.724624 0.500000 0.716643
O O10 0.821561 0.745497 0.817276
O O11 0.746896 0.744178 0.681000
O O12 0.432079 0.500000 0.906987
O O13 0.500000 0.260817 0.000000
O O14 0.750000 0.750000 0.500000
O O15 0.738944 0.744329 0.582829
O O16 0.702312 0.000000 0.510843
O O17 0.200799 0.500000 0.328667
O O18 0.079291 0.746691 0.246416
O O19 0.038480 0.500000 0.827727
O O20 0.076482 0.732226 0.802985
O O21 0.157347 0.500000 0.813648
#
# Coordination Sequence:
#
# PCOD9192056 Si02
#       8
#     8   8   8   8   8   8   8   8
#     4  10  20  33  52  82 120 159 204 255 308 364
#     4  11  24  42  64  92 123 159 204 254 308 366
#     4  10  22  40  62  89 123 163 207 256 310 365
#     4  10  20  34  54  81 118 166 213 259 309 361
#     4  12  26  45  70  98 126 159 200 249 306 371
#     4  10  21  40  64  91 125 164 207 258 312 367
#     4  10  20  35  58  84 116 158 203 250 305 367
#     4  10  21  37  57  85 120 162 207 255 312 369
#
# _framework density 20.325132
#
# number of rings (size 3 to 8) (size 9 to 14) (size 15 to 20)
#    0.000    1.625    1.250    3.375    0.000    5.750 
#    0.000    2.500    0.000    0.000    0.000    0.000 
#    0.000    0.000    0.000    0.000    0.000    0.000 
#
# Total GULP energy -178829.404684 kJ/mol
# GULP energy per Si atom -5588.418896 kJ/mol
# Density = 2.027887 g / cm^3
# Si number density = 20.325132 Si / 1000 Ang^3
#
#
#
# Elastic Constant Matrix: (Units=GPa)
#
#
# Indices 1 2 3 4 5 6 
#
# 1 114.2377 14.5328 45.9951 0.0001 14.7334 0.0016
# 2 14.5328 5.2946 2.7738 0.0003 5.0287 0.0025
# 3 45.9951 2.7738 87.5744 0.0000 0.5626 0.0002
# 4 0.0001 0.0003 0.0000 34.1846 0.0000 -19.1345
# 5 14.7334 5.0287 0.5626 0.0000 36.6935 0.0001
# 6 0.0016 0.0025 0.0002 -19.1345 0.0001 -159.2029
#
#
#
# Elastic Compliance Matrix: (Units=1/GPa)
#
#
# Indices 1 2 3 4 5 6 
#
# 1 0.017503 -0.042975 -0.007825 0.000000 -0.001018 -0.000001
# 2 -0.042975 0.326643 0.012403 0.000000 -0.027699 0.000005
# 3 -0.007825 0.012403 0.015128 0.000000 0.001210 0.000000
# 4 0.000000 0.000000 0.000000 0.027409 0.000000 -0.003294
# 5 -0.001018 -0.027699 0.001210 0.000000 0.031439 0.000000
# 6 -0.000001 0.000005 0.000000 -0.003294 0.000000 -0.005885
#
#
# Mechanical properties :
#
#
# Convention : Reuss Voigt Hill
#
# Bulk Modulus (GPa) = 3.54009 37.07891 20.30950
# Shear Modulus (GPa) = 8.57354 -8.07796 0.24779
#
# Velocity S-wave (km/s) = 2.05605 -1.99574 0.34954
# Velocity P-wave (km/s) = 2.71698 3.60164 3.19013
#
# Compressibility (1/GPa) = 0.28247904
#
# Stress axis : x y z
#
# Youngs Moduli (GPa) = 57.13445 3.06145 66.10293
#
# Poissons Ratio (x) = 0.13157 0.51724
# Poissons Ratio (y) = 2.45537 -0.81987
# Poissons Ratio (z) = 0.44707 -0.03797
#
# Static dielectric constant tensor:
#      x y z
#    x 1.742660 0.000000 0.015280 
#    y 0.000000 1.693620 0.000000 
#    z 0.015280 0.000000 1.706190 
# 
# From -- ./inp_files/382430.got.cif
#   From: 2010.05.17/outbox.cif.g08.bks.cpg/sg12_192_cif.got.tgz:382430.got - 2010.06.03 13:09:07.
