data_PCOD9192414
_publ_section_title
;
Structure prediction by ZEFSAII (Michael W. Deem and Ramdas Pophale) SiO2 
 PCOD9192414
Probable space group: C 2/M
;
_chemical_formula_sum "Si O2"
_cell_formula_units_Z 48
_cell_length_a 13.223852
_cell_length_b 23.337920
_cell_length_c 8.294187
_cell_angle_alpha 90.000000
_cell_angle_beta 88.121008
_cell_angle_gamma 90.000000
_cell_volume 2558.352416
_symmetry_space_group_name_H-M "C 2/M"
_symmetry_group_IT_number 12
_symmetry_cell_setting 'monoclinic'
loop_
_space_group_symop_operation_xyz
x,y,z
-x,y,-z
-x,-y,-z
x,-y,z
1/2+x,1/2+y,z
1/2-x,1/2+y,-z
1/2-x,1/2-y,-z
1/2+x,1/2-y,z
loop_
_atom_site_type_symbol
_atom_site_label
_atom_site_fract_x
_atom_site_fract_y
_atom_site_fract_z
Si Si1 0.381617 0.765457 0.501796
Si Si2 0.222486 0.829853 0.332936
Si Si3 0.186794 0.323125 0.160548
Si Si4 0.644803 0.934258 0.621811
Si Si5 0.575362 0.933359 0.250553
Si Si6 0.380947 0.708803 0.988443
O O1 0.500000 0.771790 0.500000
O O2 0.326041 0.793005 0.352195
O O3 0.348779 0.699910 0.529839
O O4 0.342109 0.799849 0.660933
O O5 0.260770 0.893631 0.352554
O O6 0.164248 0.819623 0.171164
O O7 0.138669 0.386154 0.149363
O O8 0.139405 0.276748 0.038681
O O9 0.307035 0.317443 0.127337
O O10 0.615005 0.931099 0.434028
O O11 0.543681 0.917993 0.727543
O O12 0.666920 0.000000 0.658453
O O13 0.584217 0.000000 0.196528
O O14 0.500000 0.699050 0.000000
#
# Coordination Sequence:
#
# PCOD9192414 Si02
#       6
#     8   8   8   8   8   8
#     4  10  20  33  55  87 113 140 184 235 285 337
#     4  10  20  34  55  80 109 149 188 228 279 330
#     4  10  20  36  58  80 114 148 185 228 285 338
#     4   9  17  32  55  86 117 144 177 227 288 336
#     4   9  17  31  57  88 116 143 174 225 288 343
#     4  10  24  40  54  78 112 157 193 229 277 328
#
# _framework density 18.762073999999998
#
# number of rings (size 3 to 8) (size 9 to 14) (size 15 to 20)
#    0.000    2.333    1.667    2.000    0.000   14.667 
#    0.000    0.833    0.000    5.000    0.000    0.000 
#    0.000    0.000    0.000    0.000    0.000    0.000 
#
# Total GULP energy -133865.373853 kJ/mol
# GULP energy per Si atom -5577.723911 kJ/mol
# Density = 1.871937 g / cm^3
# Si number density = 18.762074 Si / 1000 Ang^3
#
#
#
# Elastic Constant Matrix: (Units=GPa)
#
#
# Indices 1 2 3 4 5 6 
#
# 1 152.6574 42.6575 48.6938 0.0000 1.5333 0.0000
# 2 42.6575 104.7086 28.7853 0.0000 -10.7000 0.0000
# 3 48.6938 28.7853 55.7756 0.0000 2.4449 0.0000
# 4 0.0000 0.0000 0.0000 15.1674 0.0000 -4.6213
# 5 1.5333 -10.7000 2.4449 0.0000 26.9177 0.0000
# 6 0.0000 0.0000 0.0000 -4.6213 0.0000 29.7348
#
#
#
# Elastic Compliance Matrix: (Units=1/GPa)
#
#
# Indices 1 2 3 4 5 6 
#
# 1 0.009380 -0.001915 -0.007172 0.000000 -0.000644 0.000000
# 2 -0.001915 0.012223 -0.004873 0.000000 0.005411 0.000000
# 3 -0.007172 -0.004873 0.026880 0.000000 -0.003970 0.000000
# 4 0.000000 0.000000 0.000000 0.069208 0.000000 0.010756
# 5 -0.000644 0.005411 -0.003970 0.000000 0.039698 0.000000
# 6 0.000000 0.000000 0.000000 0.010756 0.000000 0.035302
#
#
# Mechanical properties :
#
#
# Convention : Reuss Voigt Hill
#
# Bulk Modulus (GPa) = 48.63571 61.49055 55.06313
# Shear Modulus (GPa) = 21.98118 27.23099 24.60609
#
# Velocity S-wave (km/s) = 3.42654 3.81384 3.62537
# Velocity P-wave (km/s) = 6.45241 7.22764 6.85100
#
# Compressibility (1/GPa) = 0.02056102
#
# Stress axis : x y z
#
# Youngs Moduli (GPa) = 106.60832 81.81118 37.20277
#
# Poissons Ratio (x) = 0.15671 0.26683
# Poissons Ratio (y) = 0.20421 0.18130
# Poissons Ratio (z) = 0.76463 0.39868
#
# Static dielectric constant tensor:
#      x y z
#    x 1.644650 0.000000 -0.009300 
#    y 0.000000 1.680540 0.000000 
#    z -0.009300 0.000000 1.738090 
# 
# From -- ./inp_files/51995.got.cif
#   From: 2010.05.17/outbox.cif.g08.bks.cpg/sg12_26_cif.got.tgz:51995.got - 2010.06.03 13:09:07.
