data_PCOD9192542
_publ_section_title
;
Structure prediction by ZEFSAII (Michael W. Deem and Ramdas Pophale) SiO2 
 PCOD9192542
Probable space group: C 2/M
;
_chemical_formula_sum "Si O2"
_cell_formula_units_Z 56
_cell_length_a 16.506959
_cell_length_b 21.118241
_cell_length_c 9.860858
_cell_angle_alpha 90.000000
_cell_angle_beta 123.171192
_cell_angle_gamma 90.000000
_cell_volume 2877.302229
_symmetry_space_group_name_H-M "C 2/M"
_symmetry_group_IT_number 12
_symmetry_cell_setting 'monoclinic'
loop_
_space_group_symop_operation_xyz
x,y,z
-x,y,-z
-x,-y,-z
x,-y,z
1/2+x,1/2+y,z
1/2-x,1/2+y,-z
1/2-x,1/2-y,-z
1/2+x,1/2-y,z
loop_
_atom_site_type_symbol
_atom_site_label
_atom_site_fract_x
_atom_site_fract_y
_atom_site_fract_z
Si Si1 0.096617 0.175284 0.400970
Si Si2 0.737228 0.815831 0.907091
Si Si3 0.191212 0.646232 0.316359
Si Si4 0.402990 0.814667 0.482134
Si Si5 0.951353 0.932393 0.307888
Si Si6 0.781266 0.571538 0.908501
Si Si7 0.388392 0.274950 0.874803
O O1 0.193058 0.147269 0.556550
O O2 0.074181 0.242645 0.449644
O O3 0.128064 0.189355 0.278798
O O4 0.005602 0.129514 0.306868
O O5 0.673542 0.811019 0.711673
O O6 0.846164 0.820557 0.950961
O O7 0.750000 0.750000 0.000000
O O8 0.698808 0.872926 0.964100
O O9 0.137956 0.652467 0.415466
O O10 0.172475 0.588786 0.195313
O O11 0.164136 0.708185 0.202360
O O12 0.500000 0.841922 0.500000
O O13 0.836057 0.926589 0.210775
O O14 0.000000 0.936982 0.500000
O O15 0.972586 0.000000 0.256068
O O16 0.808103 0.500000 0.974414
O O17 0.500000 0.260916 0.000000
#
# Coordination Sequence:
#
# PCOD9192542 Si02
#       7
#     8   8   8   8   8   8   8
#     4  11  19  36  58  88 128 165 200 253 304 371
#     4  12  23  40  61  96 129 166 207 263 318 376
#     4  11  21  40  59  86 127 158 214 253 304 377
#     4  11  24  38  63  93 125 162 213 270 320 363
#     4  10  20  33  57  92 126 165 204 239 303 396
#     4  11  24  41  65  93 128 169 209 258 322 383
#     4  11  22  35  58  92 126 164 203 256 313 366
#
# _framework density 19.462675999999998
#
# number of rings (size 3 to 8) (size 9 to 14) (size 15 to 20)
#    0.000    1.000    5.714    2.143    6.000    0.000 
#    0.000    1.429    0.000    7.286    0.000    0.000 
#    0.000    0.000    0.000    0.000    0.000    0.000 
#
# Total GULP energy -155901.497287 kJ/mol
# GULP energy per Si atom -5567.910617 kJ/mol
# Density = 1.941838 g / cm^3
# Si number density = 19.462676 Si / 1000 Ang^3
#
#
#
# Elastic Constant Matrix: (Units=GPa)
#
#
# Indices 1 2 3 4 5 6 
#
# 1 79.0204 28.4344 25.5828 0.0000 -17.3318 0.0000
# 2 28.4344 105.8624 34.2299 0.0000 -22.8347 0.0000
# 3 25.5828 34.2299 77.6892 0.0000 -11.7018 0.0000
# 4 0.0000 0.0000 0.0000 16.6735 0.0000 -0.2389
# 5 -17.3318 -22.8347 -11.7018 0.0000 35.0462 0.0000
# 6 0.0000 0.0000 0.0000 -0.2389 0.0000 30.1562
#
#
#
# Elastic Compliance Matrix: (Units=1/GPa)
#
#
# Indices 1 2 3 4 5 6 
#
# 1 0.015647 -0.001923 -0.003505 0.000000 0.005315 0.000000
# 2 -0.001923 0.012523 -0.004000 0.000000 0.005873 0.000000
# 3 -0.003505 -0.004000 0.015936 0.000000 0.000982 0.000000
# 4 0.000000 0.000000 0.000000 0.059982 0.000000 0.000475
# 5 0.005315 0.005873 0.000982 0.000000 0.035316 0.000000
# 6 0.000000 0.000000 0.000000 0.000475 0.000000 0.033164
#
#
# Mechanical properties :
#
#
# Convention : Reuss Voigt Hill
#
# Bulk Modulus (GPa) = 39.60227 48.78514 44.19370
# Shear Modulus (GPa) = 25.01981 27.99685 26.50833
#
# Velocity S-wave (km/s) = 3.58932 3.79686 3.69454
# Velocity P-wave (km/s) = 6.12940 6.65897 6.39967
#
# Compressibility (1/GPa) = 0.02525108
#
# Stress axis : x y z
#
# Youngs Moduli (GPa) = 63.90845 79.85404 62.75088
#
# Poissons Ratio (x) = 0.15357 0.21992
# Poissons Ratio (y) = 0.12291 0.25098
# Poissons Ratio (z) = 0.22398 0.31939
#
# Static dielectric constant tensor:
#      x y z
#    x 1.613380 0.000000 -0.158070 
#    y 0.000000 1.832360 0.000000 
#    z -0.158070 0.000000 1.647660 
# 
# From -- ./inp_files/77625.got.cif
#   From: 2010.05.17/outbox.cif.g08.bks.cpg/sg12_39_cif.got.tgz:77625.got - 2010.06.03 13:09:07.
