data_PCOD9192514
_publ_section_title
;
Structure prediction by ZEFSAII (Michael W. Deem and Ramdas Pophale) SiO2 
 PCOD9192514
Probable space group: C 2/M
;
_chemical_formula_sum "Si O2"
_cell_formula_units_Z 48
_cell_length_a 8.668554
_cell_length_b 19.344623
_cell_length_c 15.737507
_cell_angle_alpha 90.000000
_cell_angle_beta 128.046942
_cell_angle_gamma 90.000000
_cell_volume 2078.245182
_symmetry_space_group_name_H-M "C 2/M"
_symmetry_group_IT_number 12
_symmetry_cell_setting 'monoclinic'
loop_
_space_group_symop_operation_xyz
x,y,z
-x,y,-z
-x,-y,-z
x,-y,z
1/2+x,1/2+y,z
1/2-x,1/2+y,-z
1/2-x,1/2-y,-z
1/2+x,1/2-y,z
loop_
_atom_site_type_symbol
_atom_site_label
_atom_site_fract_x
_atom_site_fract_y
_atom_site_fract_z
Si Si1 0.588155 0.654403 0.228811
Si Si2 0.031177 0.273119 0.609518
Si Si3 0.827808 0.396831 0.640602
Si Si4 0.262764 0.925504 0.139281
Si Si5 0.272471 0.080724 0.941627
Si Si6 0.568908 0.612444 0.399341
O O1 0.735707 0.718728 0.292490
O O2 0.650224 0.628354 0.158086
O O3 0.637287 0.604568 0.325875
O O4 0.354491 0.641606 0.146135
O O5 0.950561 0.195919 0.593320
O O6 0.000000 0.292768 0.500000
O O7 0.915287 0.323592 0.634296
O O8 0.652353 0.406185 0.649034
O O9 0.720071 0.420105 0.517109
O O10 0.017888 0.427284 0.749270
O O11 0.256566 0.912500 0.037847
O O12 0.171316 0.000000 0.125063
O O13 0.219039 0.000000 0.899840
O O14 0.500000 0.088724 0.000000
#
# Coordination Sequence:
#
# PCOD9192514 Si02
#       6
#     8   8   8   8   8   8
#     4  11  22  34  62  90 117 152 204 241 290 349
#     4  11  19  35  58  88 120 156 199 234 287 351
#     4  10  20  33  57  85 119 154 197 237 290 344
#     4  10  22  40  60  84 117 155 197 243 295 350
#     4  10  21  41  67  89 113 151 199 246 296 351
#     4  11  20  34  56  88 118 156 195 242 285 347
#
# _framework density 23.096408
#
# number of rings (size 3 to 8) (size 9 to 14) (size 15 to 20)
#    0.000    1.500    3.333    3.500    0.000    1.333 
#    0.000    5.000    0.000   25.000    0.000    0.000 
#    0.000    0.000    0.000    0.000    0.000    0.000 
#
# Total GULP energy -133670.567985 kJ/mol
# GULP energy per Si atom -5569.606999 kJ/mol
# Density = 2.304384 g / cm^3
# Si number density = 23.096408 Si / 1000 Ang^3
#
#
#
# Elastic Constant Matrix: (Units=GPa)
#
#
# Indices 1 2 3 4 5 6 
#
# 1 62.1018 2.9943 14.9862 0.0000 12.5027 0.0000
# 2 2.9943 60.1625 32.2941 0.0000 6.3366 0.0000
# 3 14.9862 32.2941 114.4648 0.0000 33.4062 0.0000
# 4 0.0000 0.0000 0.0000 7.0448 0.0000 -7.0747
# 5 12.5027 6.3366 33.4062 0.0000 52.7898 0.0000
# 6 0.0000 0.0000 0.0000 -7.0747 0.0000 12.2160
#
#
#
# Elastic Compliance Matrix: (Units=1/GPa)
#
#
# Indices 1 2 3 4 5 6 
#
# 1 0.017066 0.000218 -0.001360 0.000000 -0.003208 0.000000
# 2 0.000218 0.019676 -0.005980 0.000000 0.001371 0.000000
# 3 -0.001360 -0.005980 0.012631 0.000000 -0.006953 0.000000
# 4 0.000000 0.000000 0.000000 0.339264 0.000000 0.196480
# 5 -0.003208 0.001371 -0.006953 0.000000 0.023938 0.000000
# 6 0.000000 0.000000 0.000000 0.196480 0.000000 0.195648
#
#
# Mechanical properties :
#
#
# Convention : Reuss Voigt Hill
#
# Bulk Modulus (GPa) = 28.46543 37.47535 32.97039
# Shear Modulus (GPa) = 7.88424 26.84041 17.36233
#
# Velocity S-wave (km/s) = 1.84960 3.41266 2.74475
# Velocity P-wave (km/s) = 4.11251 5.63819 4.93467
#
# Compressibility (1/GPa) = 0.03513033
#
# Stress axis : x y z
#
# Youngs Moduli (GPa) = 58.59609 50.82248 79.17218
#
# Poissons Ratio (x) = -0.01110 0.10766
# Poissons Ratio (y) = -0.01280 0.47344
# Poissons Ratio (z) = 0.07968 0.30391
#
# Static dielectric constant tensor:
#      x y z
#    x 1.910910 0.000000 0.044110 
#    y 0.000000 1.901450 0.000000 
#    z 0.044110 0.000000 1.893230 
# 
# From -- ./inp_files/200214.got.cif
#   From: 2010.05.17/outbox.cif.g08.bks.cpg/sg12_101_cif.got.tgz:200214.got - 2010.06.03 13:09:07.
