data_PCOD9192203
_publ_section_title
;
Structure prediction by ZEFSAII (Michael W. Deem and Ramdas Pophale) SiO2 
 PCOD9192203
Probable space group: C 2/M
;
_chemical_formula_sum "Si O2"
_cell_formula_units_Z 32
_cell_length_a 14.343033
_cell_length_b 21.060689
_cell_length_c 15.142684
_cell_angle_alpha 90.000000
_cell_angle_beta 160.220846
_cell_angle_gamma 90.000000
_cell_volume 1547.893615
_symmetry_space_group_name_H-M "C 2/M"
_symmetry_group_IT_number 12
_symmetry_cell_setting 'monoclinic'
loop_
_space_group_symop_operation_xyz
x,y,z
-x,y,-z
-x,-y,-z
x,-y,z
1/2+x,1/2+y,z
1/2-x,1/2+y,-z
1/2-x,1/2-y,-z
1/2+x,1/2-y,z
loop_
_atom_site_type_symbol
_atom_site_label
_atom_site_fract_x
_atom_site_fract_y
_atom_site_fract_z
Si Si1 0.071827 0.428425 0.302153
Si Si2 0.409100 0.657789 0.182309
Si Si3 0.204115 0.225381 0.103035
Si Si4 0.317967 0.093065 0.258691
O O1 0.127332 0.500000 0.317696
O O2 0.344013 0.389251 0.572194
O O3 0.895942 0.435403 0.235041
O O4 0.873777 0.383215 0.067921
O O5 0.378626 0.716186 0.222388
O O6 0.432254 0.690860 0.105425
O O7 0.377319 0.167894 0.298236
O O8 0.000000 0.244947 0.000000
O O9 0.500000 0.068591 0.500000
O O10 0.000000 0.085749 0.000000
#
# Coordination Sequence:
#
# PCOD9192203 Si02
#       4
#     8   8   8   8
#     4  11  22  37  54  75 111 151 184 222 264 316
#     4  10  22  36  57  85 108 142 185 222 272 329
#     4   9  19  36  59  84 113 138 174 230 282 325
#     4  10  20  33  53  83 111 138 176 221 276 337
#
# _framework density 20.673255000000001
#
# number of rings (size 3 to 8) (size 9 to 14) (size 15 to 20)
#    0.000    2.000    0.000    5.250    0.000   14.000 
#    0.000    0.000    0.000    5.250    0.000    0.000 
#    0.000    0.000    0.000    0.000    0.000    0.000 
#
# Total GULP energy -89285.385246 kJ/mol
# GULP energy per Si atom -5580.336578 kJ/mol
# Density = 2.062620 g / cm^3
# Si number density = 20.673255 Si / 1000 Ang^3
#
#
#
# Elastic Constant Matrix: (Units=GPa)
#
#
# Indices 1 2 3 4 5 6 
#
# 1 60.9567 42.4643 -0.1502 0.0035 0.4245 0.0013
# 2 42.4643 146.3032 53.5021 0.0006 12.4620 -0.0003
# 3 -0.1502 53.5021 99.6376 0.0002 9.5202 0.0011
# 4 0.0035 0.0006 0.0002 -48.3410 0.0041 19.7269
# 5 0.4245 12.4620 9.5202 0.0041 15.4735 0.0012
# 6 0.0013 -0.0003 0.0011 19.7269 0.0012 3.5417
#
#
#
# Elastic Compliance Matrix: (Units=1/GPa)
#
#
# Indices 1 2 3 4 5 6 
#
# 1 0.022118 -0.008221 0.004115 -0.000001 0.003483 -0.000007
# 2 -0.008221 0.011838 -0.005822 0.000001 -0.005727 0.000004
# 3 0.004115 -0.005822 0.013527 -0.000001 -0.003746 -0.000001
# 4 -0.000001 0.000001 -0.000001 -0.006320 -0.000001 0.035204
# 5 0.003483 -0.005727 -0.003746 -0.000001 0.071448 -0.000018
# 6 -0.000007 0.000004 -0.000001 0.035204 -0.000018 0.086267
#
#
# Mechanical properties :
#
#
# Convention : Reuss Voigt Hill
#
# Bulk Modulus (GPa) = 36.19657 55.39221 45.79439
# Shear Modulus (GPa) = 21.93527 8.20694 15.07110
#
# Velocity S-wave (km/s) = 3.26090 1.99461 2.70296
# Velocity P-wave (km/s) = 5.63249 5.67071 5.65163
#
# Compressibility (1/GPa) = 0.02762693
#
# Stress axis : x y z
#
# Youngs Moduli (GPa) = 45.21171 84.47250 73.92770
#
# Poissons Ratio (x) = 0.69447 -0.30422
# Poissons Ratio (y) = 0.37170 0.43040
# Poissons Ratio (z) = -0.18605 0.49179
#
# Static dielectric constant tensor:
#      x y z
#    x 1.631950 0.000000 0.068590 
#    y 0.000000 1.788980 0.000000 
#    z 0.068590 0.000000 1.681700 
# 
# From -- ./inp_files/10490.got.cif
#   From: 2010.05.17/outbox.cif.g08.bks.cpg/sg12_6_cif.got.tgz:10490.got - 2010.06.03 13:09:07.
