data_PCOD9192957
_publ_section_title
;
Structure prediction by ZEFSAII (Michael W. Deem and Ramdas Pophale) SiO2 
 PCOD9192957
Probable space group: C 2/M
;
_chemical_formula_sum "Si O2"
_cell_formula_units_Z 48
_cell_length_a 31.880066
_cell_length_b 8.357296
_cell_length_c 18.611583
_cell_angle_alpha 90.000000
_cell_angle_beta 148.997958
_cell_angle_gamma 90.000000
_cell_volume 2554.073579
_symmetry_space_group_name_H-M "C 2/M"
_symmetry_group_IT_number 12
_symmetry_cell_setting 'monoclinic'
loop_
_space_group_symop_operation_xyz
x,y,z
-x,y,-z
-x,-y,-z
x,-y,z
1/2+x,1/2+y,z
1/2-x,1/2+y,-z
1/2-x,1/2-y,-z
1/2+x,1/2-y,z
loop_
_atom_site_type_symbol
_atom_site_label
_atom_site_fract_x
_atom_site_fract_y
_atom_site_fract_z
Si Si1 0.414278 0.806298 0.904810
Si Si2 0.321688 0.194797 0.906777
Si Si3 0.755352 0.190065 0.588974
Si Si4 0.660863 0.691467 0.584204
Si Si5 0.834092 0.693845 0.088697
Si Si6 0.005523 0.693098 0.590541
O O1 0.390981 0.756017 0.951595
O O2 0.340358 0.749224 0.747033
O O3 0.414987 0.000000 0.904923
O O4 0.500000 0.748528 0.000000
O O5 0.234657 0.245917 0.745526
O O6 0.320666 0.000000 0.906298
O O7 0.336351 0.249553 0.009209
O O8 0.750000 0.250000 0.500000
O O9 0.686199 0.255618 0.541420
O O10 0.751634 0.000000 0.584702
O O11 0.659140 0.500000 0.583915
O O12 0.575096 0.757093 0.485064
O O13 0.835133 0.500000 0.090043
O O14 0.912342 0.749276 0.249125
O O15 0.750000 0.750000 0.000000
O O16 0.008413 0.500000 0.593038
O O17 0.000000 0.750852 0.500000
#
# Coordination Sequence:
#
# PCOD9192957 Si02
#       6
#     8   8   8   8   8   8
#     4   9  18  34  56  81 109 142 181 225 275 331
#     4   8  16  32  52  74 100 133 174 217 262 313
#     4  11  22  37  57  81 112 147 184 227 277 331
#     4  10  20  36  57  79 104 138 183 229 274 326
#     4  10  20  34  52  74 103 139 178 219 264 316
#     4  10  21  35  52  79 113 145 178 221 273 325
#
# _framework density 18.793507999999999
#
# number of rings (size 3 to 8) (size 9 to 14) (size 15 to 20)
#    0.000    2.333    0.000    4.000    0.000    2.667 
#    0.000    6.667    0.000    0.000    0.000    0.000 
#    0.000    0.000    0.000    0.000    0.000    0.000 
#
# Total GULP energy -133957.583788 kJ/mol
# GULP energy per Si atom -5581.565991 kJ/mol
# Density = 1.875073 g / cm^3
# Si number density = 18.793508 Si / 1000 Ang^3
#
#
#
# Elastic Constant Matrix: (Units=GPa)
#
#
# Indices 1 2 3 4 5 6 
#
# 1 181.1563 27.8935 135.5712 0.0000 -11.0408 0.0000
# 2 27.8935 4.0336 15.1131 0.0000 3.0439 0.0000
# 3 135.5712 15.1131 134.8037 0.0000 4.1293 0.0000
# 4 0.0000 0.0000 0.0000 19.2342 0.0000 8.3433
# 5 -11.0408 3.0439 4.1293 0.0000 40.5272 0.0000
# 6 0.0000 0.0000 0.0000 8.3433 0.0000 24.1123
#
#
#
# Elastic Compliance Matrix: (Units=1/GPa)
#
#
# Indices 1 2 3 4 5 6 
#
# 1 -0.021377 0.134345 0.006946 0.000000 -0.016622 0.000000
# 2 0.134345 -0.384400 -0.094314 0.000000 0.075081 0.000000
# 3 0.006946 -0.094314 0.010765 0.000000 0.007879 0.000000
# 4 0.000000 0.000000 0.000000 0.061172 0.000000 -0.021167
# 5 -0.016622 0.075081 0.007879 0.000000 0.013705 0.000000
# 6 0.000000 0.000000 0.000000 -0.021167 0.000000 0.048797
#
#
# Mechanical properties :
#
#
# Convention : Reuss Voigt Hill
#
# Bulk Modulus (GPa) = -3.32163 75.23880 35.95859
# Shear Modulus (GPa) = -10.73779 26.20246 7.73233
#
# Velocity S-wave (km/s) = -2.39290 3.73799 2.03059
# Velocity P-wave (km/s) = 3.06690 7.66495 4.96717
#
# Compressibility (1/GPa) = -0.30105743
#
# Stress axis : x y z
#
# Youngs Moduli (GPa) = -46.77971 -2.60146 92.89285
#
# Poissons Ratio (x) = 0.34949 -0.64523
# Poissons Ratio (y) = 6.28462 8.76109
# Poissons Ratio (z) = 0.32493 -0.24535
#
# Static dielectric constant tensor:
#      x y z
#    x 1.624690 0.000000 -0.004080 
#    y 0.000000 1.644300 0.000000 
#    z -0.004080 0.000000 1.626150 
# 
# From -- ./inp_files/274098.got.cif
#   From: 2010.05.17/outbox.cif.g08.bks.cpg/sg12_138_cif.got.tgz:274098.got - 2010.06.03 13:09:07.
