data_PCOD9192768
_publ_section_title
;
Structure prediction by ZEFSAII (Michael W. Deem and Ramdas Pophale) SiO2 
 PCOD9192768
Probable space group: C 2/M
;
_chemical_formula_sum "Si O2"
_cell_formula_units_Z 64
_cell_length_a 10.812424
_cell_length_b 13.651251
_cell_length_c 20.132250
_cell_angle_alpha 90.000000
_cell_angle_beta 99.248832
_cell_angle_gamma 90.000000
_cell_volume 2932.951154
_symmetry_space_group_name_H-M "C 2/M"
_symmetry_group_IT_number 12
_symmetry_cell_setting 'monoclinic'
loop_
_space_group_symop_operation_xyz
x,y,z
-x,y,-z
-x,-y,-z
x,-y,z
1/2+x,1/2+y,z
1/2-x,1/2+y,-z
1/2-x,1/2-y,-z
1/2+x,1/2-y,z
loop_
_atom_site_type_symbol
_atom_site_label
_atom_site_fract_x
_atom_site_fract_y
_atom_site_fract_z
Si Si1 0.813890 0.111884 0.037763
Si Si2 0.801860 0.685896 0.667012
Si Si3 0.298316 0.107613 0.312676
Si Si4 0.848769 0.320809 0.868004
Si Si5 0.462279 0.114201 0.568404
Si Si6 0.899759 0.888205 0.894219
Si Si7 0.970415 0.323897 0.219175
Si Si8 0.872559 0.889011 0.243216
O O1 0.697970 0.168909 0.060504
O O2 0.951820 0.133855 0.080303
O O3 0.787578 0.000000 0.053116
O O4 0.834273 0.114524 0.960877
O O5 0.788246 0.801274 0.677909
O O6 0.847435 0.663825 0.597119
O O7 0.912178 0.648103 0.724397
O O8 0.678465 0.634764 0.686869
O O9 0.415693 0.117332 0.373669
O O10 0.356111 0.121326 0.244132
O O11 0.242450 0.000000 0.315162
O O12 0.844057 0.204871 0.851685
O O13 0.985704 0.349439 0.851693
O O14 0.745468 0.379315 0.817207
O O15 0.500000 0.155641 0.500000
O O16 0.428718 0.000000 0.556567
O O17 0.889531 0.000000 0.867931
O O18 0.950077 0.207157 0.228390
O O19 0.922405 0.000000 0.243258
#
# Coordination Sequence:
#
# PCOD9192768 Si02
#       8
#     8   8   8   8   8   8   8   8
#     4   9  18  33  53  74  94 124 161 196 237 286
#     4   9  18  33  52  74  98 129 165 203 246 286
#     4   9  18  33  50  70 100 132 163 200 243 289
#     4  11  19  29  50  76  96 121 158 199 240 283
#     4   9  17  30  50  75 102 134 169 203 240 284
#     4   9  19  35  52  71  98 127 158 196 238 286
#     4   9  20  33  47  71  98 125 159 198 243 290
#     4  10  20  34  51  72  97 126 161 200 240 289
#
# _framework density 21.821024999999999
#
# number of rings (size 3 to 8) (size 9 to 14) (size 15 to 20)
#    0.000    2.625    0.000    2.625    0.000    6.000 
#    0.000    5.000    0.000    6.375    0.000   11.375 
#    0.000    0.000    0.000    0.000    0.000    0.000 
#
# Total GULP energy -178366.342157 kJ/mol
# GULP energy per Si atom -5573.948192 kJ/mol
# Density = 2.177136 g / cm^3
# Si number density = 21.821025 Si / 1000 Ang^3
#
#
#
# Elastic Constant Matrix: (Units=GPa)
#
#
# Indices 1 2 3 4 5 6 
#
# 1 31.4813 10.5172 25.8302 0.0000 -25.1776 0.0000
# 2 10.5172 78.3842 20.1518 0.0000 -11.1407 0.0000
# 3 25.8302 20.1518 80.6280 0.0000 -44.9589 0.0000
# 4 0.0000 0.0000 0.0000 16.9917 0.0000 4.7712
# 5 -25.1776 -11.1407 -44.9589 0.0000 42.0387 0.0000
# 6 0.0000 0.0000 0.0000 4.7712 0.0000 14.6537
#
#
#
# Elastic Compliance Matrix: (Units=1/GPa)
#
#
# Indices 1 2 3 4 5 6 
#
# 1 0.061983 -0.003484 0.002970 0.000000 0.039375 0.000000
# 2 -0.003484 0.013830 -0.003618 0.000000 -0.002290 0.000000
# 3 0.002970 -0.003618 0.031741 0.000000 0.034766 0.000000
# 4 0.000000 0.000000 0.000000 0.064774 0.000000 -0.021091
# 5 0.039375 -0.002290 0.034766 0.000000 0.083944 0.000000
# 6 0.000000 0.000000 0.000000 -0.021091 0.000000 0.075109
#
#
# Mechanical properties :
#
#
# Convention : Reuss Voigt Hill
#
# Bulk Modulus (GPa) = 10.07142 33.72130 21.89636
# Shear Modulus (GPa) = 13.41410 23.66977 18.54193
#
# Velocity S-wave (km/s) = 2.48207 3.29709 2.91817
# Velocity P-wave (km/s) = 3.58326 5.47554 4.62716
#
# Compressibility (1/GPa) = 0.09929086
#
# Stress axis : x y z
#
# Youngs Moduli (GPa) = 16.13343 72.30859 31.50474
#
# Poissons Ratio (x) = 0.25190 -0.09356
# Poissons Ratio (y) = 0.05620 0.11397
# Poissons Ratio (z) = -0.04791 0.26158
#
# Static dielectric constant tensor:
#      x y z
#    x 1.853130 0.000000 -0.034090 
#    y 0.000000 1.807460 0.000000 
#    z -0.034090 0.000000 1.852470 
# 
# From -- ./inp_files/335185.got.cif
#   From: 2010.05.17/outbox.cif.g08.bks.cpg/sg12_168_cif.got.tgz:335185.got - 2010.06.03 13:09:07.
