data_PCOD9192925
_publ_section_title
;
Structure prediction by ZEFSAII (Michael W. Deem and Ramdas Pophale) SiO2 
 PCOD9192925
Probable space group: C 2/M
;
_chemical_formula_sum "Si O2"
_cell_formula_units_Z 64
_cell_length_a 21.003794
_cell_length_b 7.558981
_cell_length_c 25.157402
_cell_angle_alpha 90.000000
_cell_angle_beta 126.687342
_cell_angle_gamma 90.000000
_cell_volume 3202.957325
_symmetry_space_group_name_H-M "C 2/M"
_symmetry_group_IT_number 12
_symmetry_cell_setting 'monoclinic'
loop_
_space_group_symop_operation_xyz
x,y,z
-x,y,-z
-x,-y,-z
x,-y,z
1/2+x,1/2+y,z
1/2-x,1/2+y,-z
1/2-x,1/2-y,-z
1/2+x,1/2-y,z
loop_
_atom_site_type_symbol
_atom_site_label
_atom_site_fract_x
_atom_site_fract_y
_atom_site_fract_z
Si Si1 0.197903 0.785037 0.348262
Si Si2 0.916400 0.283226 0.227234
Si Si3 0.154227 0.204335 0.210624
Si Si4 0.680996 0.211907 0.508534
Si Si5 0.325991 0.710737 0.001003
Si Si6 0.560995 0.790121 0.366107
Si Si7 0.521211 0.204563 0.855953
Si Si8 0.766585 0.216970 0.857204
O O1 0.183557 0.719086 0.281525
O O2 0.279942 0.724380 0.417056
O O3 0.124836 0.733224 0.350232
O O4 0.197913 0.000000 0.347788
O O5 0.916824 0.500000 0.226914
O O6 0.949707 0.224356 0.186570
O O7 0.825564 0.229419 0.188847
O O8 0.977140 0.221588 0.302992
O O9 0.189525 0.280045 0.173987
O O10 0.058944 0.207921 0.163538
O O11 0.180526 0.000000 0.224440
O O12 0.750000 0.250000 0.500000
O O13 0.601679 0.282046 0.440271
O O14 0.672242 0.000000 0.508901
O O15 0.335499 0.500000 0.003733
O O16 0.405268 0.783969 0.067294
O O17 0.250000 0.750000 0.000000
O O18 0.307669 0.775711 0.932434
O O19 0.551239 0.000000 0.369158
O O20 0.500256 0.000000 0.837345
O O21 0.768335 0.000000 0.859315
#
# Coordination Sequence:
#
# PCOD9192925 Si02
#       8
#     8   8   8   8   8   8   8   8
#     4   9  16  26  42  67  98 126 156 199 245 286
#     4   9  16  29  50  73  94 125 166 202 236 287
#     4  10  20  34  52  73  99 134 170 203 244 296
#     4   8  14  23  37  63  96 124 153 194 242 287
#     4  11  21  36  57  79 102 130 167 208 251 298
#     4   9  15  25  45  69  93 125 162 199 241 290
#     4  11  21  35  55  77 102 130 165 208 252 296
#     4   9  19  35  53  72  97 131 168 200 242 305
#
# _framework density 19.981532999999999
#
# number of rings (size 3 to 8) (size 9 to 14) (size 15 to 20)
#    0.000    2.500    2.500    0.750    0.000    0.500 
#    0.000    3.750    0.000    0.750    0.000    5.250 
#    0.000    0.000    0.000   19.500    0.000   14.000 
#
# Total GULP energy -178450.710792 kJ/mol
# GULP energy per Si atom -5576.584712 kJ/mol
# Density = 1.993605 g / cm^3
# Si number density = 19.981533 Si / 1000 Ang^3
#
#
#
# Elastic Constant Matrix: (Units=GPa)
#
#
# Indices 1 2 3 4 5 6 
#
# 1 89.9674 -7.0534 62.2261 0.0000 0.6633 0.0000
# 2 -7.0534 48.6901 -6.4871 0.0000 -0.5913 0.0000
# 3 62.2261 -6.4871 189.0435 0.0000 19.0549 0.0000
# 4 0.0000 0.0000 0.0000 8.0730 0.0000 -0.9535
# 5 0.6633 -0.5913 19.0549 0.0000 26.6537 0.0000
# 6 0.0000 0.0000 0.0000 -0.9535 0.0000 11.2855
#
#
#
# Elastic Compliance Matrix: (Units=1/GPa)
#
#
# Indices 1 2 3 4 5 6 
#
# 1 0.014767 0.001494 -0.005147 0.000000 0.003345 0.000000
# 2 0.001494 0.020784 0.000193 0.000000 0.000286 0.000000
# 3 -0.005147 0.000193 0.007519 0.000000 -0.005243 0.000000
# 4 0.000000 0.000000 0.000000 0.125118 0.000000 0.010571
# 5 0.003345 0.000286 -0.005243 0.000000 0.041190 0.000000
# 6 0.000000 0.000000 0.000000 0.010571 0.000000 0.089502
#
#
# Mechanical properties :
#
#
# Convention : Reuss Voigt Hill
#
# Bulk Modulus (GPa) = 27.66267 47.23026 37.44646
# Shear Modulus (GPa) = 15.73071 27.80348 21.76709
#
# Velocity S-wave (km/s) = 2.80886 3.73427 3.30413
# Velocity P-wave (km/s) = 4.93901 6.50241 5.77387
#
# Compressibility (1/GPa) = 0.03614980
#
# Stress axis : x y z
#
# Youngs Moduli (GPa) = 67.71676 48.11482 132.99644
#
# Poissons Ratio (x) = -0.07189 0.68450
# Poissons Ratio (y) = -0.10118 -0.02560
# Poissons Ratio (z) = 0.34852 -0.00926
#
# Static dielectric constant tensor:
#      x y z
#    x 1.647970 0.000000 -0.001160 
#    y 0.000000 1.726450 0.000000 
#    z -0.001160 0.000000 1.742310 
# 
# From -- ./inp_files/345563.got.cif
#   From: 2010.05.17/outbox.cif.g08.bks.cpg/sg12_173_cif.got.tgz:345563.got - 2010.06.03 13:09:07.
