data_PCOD9192678
_publ_section_title
;
Structure prediction by ZEFSAII (Michael W. Deem and Ramdas Pophale) SiO2 
 PCOD9192678
Probable space group: C 2/M
;
_chemical_formula_sum "Si O2"
_cell_formula_units_Z 64
_cell_length_a 23.487176
_cell_length_b 8.728894
_cell_length_c 18.371709
_cell_angle_alpha 90.000000
_cell_angle_beta 95.982831
_cell_angle_gamma 90.000000
_cell_volume 3745.998395
_symmetry_space_group_name_H-M "C 2/M"
_symmetry_group_IT_number 12
_symmetry_cell_setting 'monoclinic'
loop_
_space_group_symop_operation_xyz
x,y,z
-x,y,-z
-x,-y,-z
x,-y,z
1/2+x,1/2+y,z
1/2-x,1/2+y,-z
1/2-x,1/2-y,-z
1/2+x,1/2-y,z
loop_
_atom_site_type_symbol
_atom_site_label
_atom_site_fract_x
_atom_site_fract_y
_atom_site_fract_z
Si Si1 0.687255 0.316418 0.980200
Si Si2 0.105507 0.184168 0.842116
Si Si3 0.308058 0.180436 0.600823
Si Si4 0.316730 0.815519 0.444204
Si Si5 0.869980 0.318096 0.885624
Si Si6 0.991712 0.814869 0.913546
Si Si7 0.841355 0.317131 0.289876
Si Si8 0.792400 0.182335 0.749160
O O1 0.689816 0.500000 0.980899
O O2 0.657929 0.265190 0.901080
O O3 0.750000 0.250000 0.000000
O O4 0.648173 0.260751 0.041312
O O5 0.116982 0.242853 0.762955
O O6 0.046749 0.232218 0.873514
O O7 0.105502 0.000000 0.841515
O O8 0.339429 0.217066 0.528416
O O9 0.241945 0.222211 0.574526
O O10 0.320852 0.273165 0.675582
O O11 0.313908 0.000000 0.616255
O O12 0.352756 0.781280 0.376483
O O13 0.303668 0.000000 0.440458
O O14 0.868283 0.500000 0.893270
O O15 0.933812 0.260952 0.877148
O O16 0.825331 0.265282 0.818288
O O17 0.986484 0.000000 0.909601
O O18 0.000000 0.774369 0.000000
O O19 0.844208 0.500000 0.282179
O O20 0.774919 0.272409 0.264484
O O21 0.794864 0.000000 0.759935
#
# Coordination Sequence:
#
# PCOD9192678 Si02
#       8
#     8   8   8   8   8   8   8   8
#     4  11  22  37  53  74 103 137 170 205 251 305
#     4  10  21  35  53  73  96 129 169 207 251 300
#     4   9  15  25  44  69  98 132 172 212 243 288
#     4   8  15  27  42  65 100 140 171 198 246 303
#     4  12  24  36  53  78 101 128 169 215 257 303
#     4  10  20  40  60  72  93 130 168 211 262 308
#     4   9  18  31  48  72 104 137 168 203 246 297
#     4  10  20  34  50  71 104 142 171 203 254 310
#
# _framework density 17.084897999999999
#
# number of rings (size 3 to 8) (size 9 to 14) (size 15 to 20)
#    0.000    2.125    1.250    3.750    0.000    6.750 
#    0.000    0.000    0.000    0.000    0.000    0.875 
#    0.000    7.000    0.000    0.000    0.000    0.000 
#
# Total GULP energy -178424.535051 kJ/mol
# GULP energy per Si atom -5575.766720 kJ/mol
# Density = 1.704601 g / cm^3
# Si number density = 17.084898 Si / 1000 Ang^3
#
#
#
# Elastic Constant Matrix: (Units=GPa)
#
#
# Indices 1 2 3 4 5 6 
#
# 1 54.2155 10.7807 11.8253 0.0000 -24.1303 0.0000
# 2 10.7807 27.0487 5.9888 0.0000 -7.1473 0.0000
# 3 11.8253 5.9888 79.9633 0.0000 -33.1632 0.0000
# 4 0.0000 0.0000 0.0000 29.8112 0.0000 -4.4229
# 5 -24.1303 -7.1473 -33.1632 0.0000 23.2324 0.0000
# 6 0.0000 0.0000 0.0000 -4.4229 0.0000 21.7979
#
#
#
# Elastic Compliance Matrix: (Units=1/GPa)
#
#
# Indices 1 2 3 4 5 6 
#
# 1 0.074284 -0.001332 0.051331 0.000000 0.150018 0.000000
# 2 -0.001332 0.041167 0.004394 0.000000 0.017553 0.000000
# 3 0.051331 0.004394 0.066809 0.000000 0.150033 0.000000
# 4 0.000000 0.000000 0.000000 0.034586 0.000000 0.007018
# 5 0.150018 0.017553 0.150033 0.000000 0.418424 0.000000
# 6 0.000000 0.000000 0.000000 0.007018 0.000000 0.047300
#
#
# Mechanical properties :
#
#
# Convention : Reuss Voigt Hill
#
# Bulk Modulus (GPa) = 3.43589 24.26855 13.85222
# Shear Modulus (GPa) = 7.45382 23.81049 15.63215
#
# Velocity S-wave (km/s) = 2.09100 3.73722 3.02813
# Velocity P-wave (km/s) = 2.80092 5.73219 4.51127
#
# Compressibility (1/GPa) = 0.29104529
#
# Stress axis : x y z
#
# Youngs Moduli (GPa) = 13.46194 24.29158 14.96804
#
# Poissons Ratio (x) = 0.03235 -0.76833
# Poissons Ratio (y) = 0.01793 -0.06576
# Poissons Ratio (z) = -0.69102 -0.10673
#
# Static dielectric constant tensor:
#      x y z
#    x 1.563350 0.000000 -0.019690 
#    y 0.000000 1.574110 0.000000 
#    z -0.019690 0.000000 1.623170 
# 
# From -- ./inp_files/281362.got.cif
#   From: 2010.05.17/outbox.cif.g08.bks.cpg/sg12_141_cif.got.tgz:281362.got - 2010.06.03 13:09:07.
