data_PCOD9192537
_publ_section_title
;
Structure prediction by ZEFSAII (Michael W. Deem and Ramdas Pophale) SiO2 
 PCOD9192537
Probable space group: C 2/M
;
_chemical_formula_sum "Si O2"
_cell_formula_units_Z 56
_cell_length_a 12.172660
_cell_length_b 14.076055
_cell_length_c 17.018541
_cell_angle_alpha 90.000000
_cell_angle_beta 120.592182
_cell_angle_gamma 90.000000
_cell_volume 2510.133508
_symmetry_space_group_name_H-M "C 2/M"
_symmetry_group_IT_number 12
_symmetry_cell_setting 'monoclinic'
loop_
_space_group_symop_operation_xyz
x,y,z
-x,y,-z
-x,-y,-z
x,-y,z
1/2+x,1/2+y,z
1/2-x,1/2+y,-z
1/2-x,1/2-y,-z
1/2+x,1/2-y,z
loop_
_atom_site_type_symbol
_atom_site_label
_atom_site_fract_x
_atom_site_fract_y
_atom_site_fract_z
Si Si1 0.875935 0.384634 0.000765
Si Si2 0.207027 0.847128 0.526029
Si Si3 0.388542 0.385207 0.181619
Si Si4 0.935349 0.812600 0.371356
Si Si5 0.010625 0.397120 0.375189
Si Si6 0.848993 0.387223 0.166717
Si Si7 0.571181 0.384558 0.107540
O O1 0.884031 0.500000 0.006891
O O2 0.746253 0.363549 0.908123
O O3 0.871283 0.348236 0.088122
O O4 0.000000 0.350882 0.000000
O O5 0.250000 0.750000 0.500000
O O6 0.171977 0.841442 0.605295
O O7 0.337468 0.903522 0.563291
O O8 0.068827 0.867877 0.437386
O O9 0.395720 0.500000 0.195556
O O10 0.400512 0.334592 0.269441
O O11 0.497534 0.355279 0.159322
O O12 0.961025 0.700061 0.396052
O O13 0.955220 0.500000 0.380879
O O14 0.966236 0.381399 0.268902
O O15 0.826273 0.500000 0.147489
O O16 0.717209 0.350909 0.156418
O O17 0.569351 0.500000 0.109892
O O18 0.500000 0.360461 0.000000
#
# Coordination Sequence:
#
# PCOD9192537 Si02
#       7
#     8   8   8   8   8   8   8
#     4   9  17  29  48  79 122 167 209 253 309 376
#     4   9  21  43  65  85 120 163 198 260 334 385
#     4  10  20  33  57  90 125 173 215 257 323 383
#     4  10  22  41  63  92 128 159 208 271 321 382
#     4  10  22  40  65  94 123 166 212 256 322 388
#     4   9  17  30  52  82 116 160 210 257 305 363
#     4   9  15  29  53  80 117 165 215 258 304 366
#
# _framework density 22.309569
#
# number of rings (size 3 to 8) (size 9 to 14) (size 15 to 20)
#    0.000    2.571    1.429    0.000    2.000    3.429 
#    0.000    7.857    0.000    0.000    0.000    0.000 
#    0.000    0.000    0.000    0.000    0.000    0.000 
#
# Total GULP energy -156284.849513 kJ/mol
# GULP energy per Si atom -5581.601768 kJ/mol
# Density = 2.225879 g / cm^3
# Si number density = 22.309569 Si / 1000 Ang^3
#
#
#
# Elastic Constant Matrix: (Units=GPa)
#
#
# Indices 1 2 3 4 5 6 
#
# 1 82.3037 -1.1445 18.6236 0.0000 -5.6105 0.0000
# 2 -1.1445 92.2789 7.6102 0.0000 3.3210 0.0000
# 3 18.6236 7.6102 91.8592 0.0000 -11.1448 0.0000
# 4 0.0000 0.0000 0.0000 23.9550 0.0000 7.8859
# 5 -5.6105 3.3210 -11.1448 0.0000 36.2849 0.0000
# 6 0.0000 0.0000 0.0000 7.8859 0.0000 11.4516
#
#
#
# Elastic Compliance Matrix: (Units=1/GPa)
#
#
# Indices 1 2 3 4 5 6 
#
# 1 0.012796 0.000320 -0.002477 0.000000 0.001189 0.000000
# 2 0.000320 0.010981 -0.001133 0.000000 -0.001303 0.000000
# 3 -0.002477 -0.001133 0.011891 0.000000 0.003373 0.000000
# 4 0.000000 0.000000 0.000000 0.053982 0.000000 -0.037174
# 5 0.001189 -0.001303 0.003373 0.000000 0.028899 0.000000
# 6 0.000000 0.000000 0.000000 -0.037174 0.000000 0.112923
#
#
# Mechanical properties :
#
#
# Convention : Reuss Voigt Hill
#
# Bulk Modulus (GPa) = 34.37607 35.18006 34.77807
# Shear Modulus (GPa) = 20.18184 30.42846 25.30515
#
# Velocity S-wave (km/s) = 3.01096 3.69713 3.37155
# Velocity P-wave (km/s) = 5.24690 5.83338 5.54790
#
# Compressibility (1/GPa) = 0.02909000
#
# Stress axis : x y z
#
# Youngs Moduli (GPa) = 78.14944 91.06625 84.09417
#
# Poissons Ratio (x) = -0.02916 0.20827
# Poissons Ratio (y) = -0.02502 0.09526
# Poissons Ratio (z) = 0.19354 0.10316
#
# Static dielectric constant tensor:
#      x y z
#    x 1.783520 0.000000 0.014920 
#    y 0.000000 1.885010 0.000000 
#    z 0.014920 0.000000 1.794790 
# 
# From -- ./inp_files/263449.got.cif
#   From: 2010.05.17/outbox.cif.g08.bks.cpg/sg12_132_cif.got.tgz:263449.got - 2010.06.03 13:09:07.
