data_PCOD9193318
_publ_section_title
;
Structure prediction by ZEFSAII (Michael W. Deem and Ramdas Pophale) SiO2 
 PCOD9193318
Probable space group: C 2/M
;
_chemical_formula_sum "Si O2"
_cell_formula_units_Z 64
_cell_length_a 23.008966
_cell_length_b 7.715317
_cell_length_c 17.640930
_cell_angle_alpha 90.000000
_cell_angle_beta 99.974726
_cell_angle_gamma 90.000000
_cell_volume 3084.306639
_symmetry_space_group_name_H-M "C 2/M"
_symmetry_group_IT_number 12
_symmetry_cell_setting 'monoclinic'
loop_
_space_group_symop_operation_xyz
x,y,z
-x,y,-z
-x,-y,-z
x,-y,z
1/2+x,1/2+y,z
1/2-x,1/2+y,-z
1/2-x,1/2-y,-z
1/2+x,1/2-y,z
loop_
_atom_site_type_symbol
_atom_site_label
_atom_site_fract_x
_atom_site_fract_y
_atom_site_fract_z
Si Si1 0.442271 0.296069 0.273076
Si Si2 0.593395 0.788523 0.041756
Si Si3 0.973968 0.790154 0.574650
Si Si4 0.726586 0.791078 0.078152
Si Si5 0.516525 0.209774 0.882853
Si Si6 0.337196 0.205228 0.542995
Si Si7 0.769466 0.701542 0.380290
Si Si8 0.810987 0.201801 0.228566
O O1 0.435578 0.500000 0.289576
O O2 0.484322 0.224284 0.348254
O O3 0.471920 0.277623 0.197933
O O4 0.376298 0.220158 0.253166
O O5 0.659449 0.726571 0.070665
O O6 0.545498 0.735636 0.093802
O O7 0.593643 0.000000 0.041825
O O8 0.567406 0.736352 0.953941
O O9 0.906057 0.737607 0.568195
O O10 0.000000 0.731669 0.500000
O O11 0.974602 0.000000 0.575203
O O12 0.770730 0.722366 0.152656
O O13 0.723845 0.000000 0.085308
O O14 0.750000 0.750000 0.000000
O O15 0.516902 0.000000 0.879887
O O16 0.295683 0.282007 0.598978
O O17 0.313150 0.271531 0.456074
O O18 0.325920 0.000000 0.541102
O O19 0.783265 0.500000 0.371508
O O20 0.778374 0.789746 0.301775
O O21 0.819980 0.000000 0.210044
#
# Coordination Sequence:
#
# PCOD9193318 Si02
#       8
#     8   8   8   8   8   8   8   8
#     4  10  21  35  51  76 108 138 173 220 271 317
#     4   8  16  32  52  74 101 134 173 214 258 312
#     4  10  21  37  56  76 104 144 182 219 267 320
#     4  10  20  34  53  77 105 138 177 220 266 317
#     4   9  17  32  54  75  99 136 176 214 261 317
#     4  10  21  37  58  83 110 140 176 220 267 318
#     4  10  21  37  58  83 110 141 177 217 264 318
#     4  10  21  36  54  77 108 145 182 222 269 320
#
# _framework density 20.750207
#
# number of rings (size 3 to 8) (size 9 to 14) (size 15 to 20)
#    0.000    2.375    0.000    3.000    0.000    5.250 
#    0.000    3.125    0.000    0.000    0.000    0.000 
#    0.000    0.000    0.000    0.000    0.000    0.000 
#
# Total GULP energy -178704.677794 kJ/mol
# GULP energy per Si atom -5584.521181 kJ/mol
# Density = 2.070298 g / cm^3
# Si number density = 20.750207 Si / 1000 Ang^3
#
#
#
# Elastic Constant Matrix: (Units=GPa)
#
#
# Indices 1 2 3 4 5 6 
#
# 1 176.2474 -3.0985 94.0223 0.0000 29.8539 0.0000
# 2 -3.0985 32.8688 -9.4187 0.0000 7.7516 0.0000
# 3 94.0223 -9.4187 157.3325 0.0000 12.5558 0.0000
# 4 0.0000 0.0000 0.0000 24.2568 0.0000 -12.6755
# 5 29.8539 7.7516 12.5558 0.0000 24.1353 0.0000
# 6 0.0000 0.0000 0.0000 -12.6755 0.0000 19.1541
#
#
#
# Elastic Compliance Matrix: (Units=1/GPa)
#
#
# Indices 1 2 3 4 5 6 
#
# 1 0.010271 0.002001 -0.005168 0.000000 -0.010660 0.000000
# 2 0.002001 0.034661 0.002050 0.000000 -0.014674 0.000000
# 3 -0.005168 0.002050 0.009504 0.000000 0.000790 0.000000
# 4 0.000000 0.000000 0.000000 0.063018 0.000000 0.041703
# 5 -0.010660 -0.014674 0.000790 0.000000 0.058920 0.000000
# 6 0.000000 0.000000 0.000000 0.041703 0.000000 0.079806
#
#
# Mechanical properties :
#
#
# Convention : Reuss Voigt Hill
#
# Bulk Modulus (GPa) = 19.15587 58.82878 38.99232
# Shear Modulus (GPa) = 18.12818 32.50548 25.31683
#
# Velocity S-wave (km/s) = 2.95894 3.96221 3.49675
# Velocity P-wave (km/s) = 4.57444 7.02458 5.92749
#
# Compressibility (1/GPa) = 0.05220333
#
# Stress axis : x y z
#
# Youngs Moduli (GPa) = 97.35741 28.85105 105.21953
#
# Poissons Ratio (x) = -0.05774 0.54375
# Poissons Ratio (y) = -0.19484 -0.21570
# Poissons Ratio (z) = 0.50312 -0.05915
#
# Static dielectric constant tensor:
#      x y z
#    x 1.726960 0.000000 0.026960 
#    y 0.000000 1.792080 0.000000 
#    z 0.026960 0.000000 1.709830 
# 
# From -- ./inp_files/281424.got.cif
#   From: 2010.05.17/outbox.cif.g08.bks.cpg/sg12_141_cif.got.tgz:281424.got - 2010.06.03 13:09:07.
