data_PCOD9193988
_publ_section_title
;
Structure prediction by ZEFSAII (Michael W. Deem and Ramdas Pophale) SiO2 
 PCOD9193988
Probable space group: C 2/M
;
_chemical_formula_sum "Si O2"
_cell_formula_units_Z 48
_cell_length_a 22.024501
_cell_length_b 24.227728
_cell_length_c 10.550559
_cell_angle_alpha 90.000000
_cell_angle_beta 155.607275
_cell_angle_gamma 90.000000
_cell_volume 2325.051118
_symmetry_space_group_name_H-M "C 2/M"
_symmetry_group_IT_number 12
_symmetry_cell_setting 'monoclinic'
loop_
_space_group_symop_operation_xyz
x,y,z
-x,y,-z
-x,-y,-z
x,-y,z
1/2+x,1/2+y,z
1/2-x,1/2+y,-z
1/2-x,1/2-y,-z
1/2+x,1/2-y,z
loop_
_atom_site_type_symbol
_atom_site_label
_atom_site_fract_x
_atom_site_fract_y
_atom_site_fract_z
Si Si1 0.571236 0.934627 0.998171
Si Si2 0.343852 0.353534 0.498580
Si Si3 0.381258 0.859846 0.468099
Si Si4 0.327705 0.702778 0.728094
Si Si5 0.622288 0.229459 0.948778
Si Si6 0.395885 0.347557 0.185304
O O1 0.460436 0.911768 0.681061
O O2 0.590835 0.000000 0.029278
O O3 0.500000 0.920366 0.000000
O O4 0.723495 0.901934 0.269272
O O5 0.368344 0.337884 0.691250
O O6 0.500762 0.365769 0.735329
O O7 0.267834 0.304228 0.269282
O O8 0.281503 0.829694 0.385870
O O9 0.506041 0.814509 0.677365
O O10 0.266424 0.872719 0.137926
O O11 0.250000 0.750000 0.500000
O O12 0.427522 0.739857 0.014158
O O13 0.635164 0.281462 0.880437
O O14 0.500000 0.360727 0.500000
#
# Coordination Sequence:
#
# PCOD9193988 Si02
#       6
#     8   8   8   8   8   8
#     4  10  20  39  64  88 111 136 177 240 301 348
#     4  10  20  34  55  83 117 151 185 227 280 336
#     4  10  20  34  54  85 116 149 187 229 279 332
#     4   9  16  27  47  78 115 143 174 216 269 335
#     4   9  19  31  53  82 115 157 192 222 269 324
#     4  11  23  37  52  79 119 159 194 227 269 324
#
# _framework density 20.644707
#
# number of rings (size 3 to 8) (size 9 to 14) (size 15 to 20)
#    0.000    2.167    1.667    3.000    0.000    9.333 
#    0.000    3.333    0.000    5.000    0.000    0.000 
#    0.000    0.000    0.000    0.000    0.000    0.000 
#
# Total GULP energy -133860.400239 kJ/mol
# GULP energy per Si atom -5577.516677 kJ/mol
# Density = 2.059772 g / cm^3
# Si number density = 20.644707 Si / 1000 Ang^3
#
#
#
# Elastic Constant Matrix: (Units=GPa)
#
#
# Indices 1 2 3 4 5 6 
#
# 1 20.4927 2.3693 -0.4843 0.0000 0.5565 0.0000
# 2 2.3693 66.8168 29.1031 0.0000 3.6175 0.0000
# 3 -0.4843 29.1031 156.2772 0.0000 -8.7125 0.0000
# 4 0.0000 0.0000 0.0000 13.3751 0.0000 3.9337
# 5 0.5565 3.6175 -8.7125 0.0000 33.9554 0.0000
# 6 0.0000 0.0000 0.0000 3.9337 0.0000 13.1427
#
#
#
# Elastic Compliance Matrix: (Units=1/GPa)
#
#
# Indices 1 2 3 4 5 6 
#
# 1 0.049045 -0.001924 0.000484 0.000000 -0.000475 0.000000
# 2 -0.001924 0.016584 -0.003237 0.000000 -0.002566 0.000000
# 3 0.000484 -0.003237 0.007124 0.000000 0.002165 0.000000
# 4 0.000000 0.000000 0.000000 0.081983 0.000000 -0.024538
# 5 -0.000475 -0.002566 0.002165 0.000000 0.030287 0.000000
# 6 0.000000 0.000000 0.000000 -0.024538 0.000000 0.083432
#
#
# Mechanical properties :
#
#
# Convention : Reuss Voigt Hill
#
# Bulk Modulus (GPa) = 15.77365 33.95144 24.86255
# Shear Modulus (GPa) = 16.72570 26.26789 21.49680
#
# Velocity S-wave (km/s) = 2.84943 3.57091 3.23038
# Velocity P-wave (km/s) = 4.29917 5.78646 5.09735
#
# Compressibility (1/GPa) = 0.06339686
#
# Stress axis : x y z
#
# Youngs Moduli (GPa) = 20.38960 60.30084 140.37147
#
# Poissons Ratio (x) = 0.11603 -0.06792
# Poissons Ratio (y) = 0.03923 0.45443
# Poissons Ratio (z) = -0.00987 0.19521
#
# Static dielectric constant tensor:
#      x y z
#    x 1.868840 0.000000 -0.001140 
#    y 0.000000 1.694190 0.000000 
#    z -0.001140 0.000000 1.861950 
# 
# From -- ./inp_files/185041.got.cif
#   From: 2010.05.17/outbox.cif.g08.bks.cpg/sg12_93_cif.got.tgz:185041.got - 2010.06.03 13:09:07.
