data_PCOD9193950
_publ_section_title
;
Structure prediction by ZEFSAII (Michael W. Deem and Ramdas Pophale) SiO2 
 PCOD9193950
Probable space group: C 2/M
;
_chemical_formula_sum "Si O2"
_cell_formula_units_Z 64
_cell_length_a 12.368833
_cell_length_b 11.752007
_cell_length_c 21.707890
_cell_angle_alpha 90.000000
_cell_angle_beta 75.111866
_cell_angle_gamma 90.000000
_cell_volume 3049.498842
_symmetry_space_group_name_H-M "C 2/M"
_symmetry_group_IT_number 12
_symmetry_cell_setting 'monoclinic'
loop_
_space_group_symop_operation_xyz
x,y,z
-x,y,-z
-x,-y,-z
x,-y,z
1/2+x,1/2+y,z
1/2-x,1/2+y,-z
1/2-x,1/2-y,-z
1/2+x,1/2-y,z
loop_
_atom_site_type_symbol
_atom_site_label
_atom_site_fract_x
_atom_site_fract_y
_atom_site_fract_z
Si Si1 0.885986 0.133236 0.490961
Si Si2 0.140199 0.873843 0.652053
Si Si3 0.103160 0.834033 0.290495
Si Si4 0.218476 0.293857 0.100658
Si Si5 0.391086 0.370653 0.977898
Si Si6 0.455536 0.871917 0.775297
Si Si7 0.174354 0.629533 0.821056
Si Si8 0.751826 0.367003 0.377191
O O1 0.877301 0.136648 0.419084
O O2 0.779264 0.165438 0.548261
O O3 0.000000 0.189535 0.500000
O O4 0.891857 0.000000 0.506245
O O5 0.188936 0.747008 0.659334
O O6 0.020085 0.881299 0.702743
O O7 0.196034 0.000000 0.654714
O O8 0.083795 0.702626 0.276506
O O9 0.208086 0.871869 0.233551
O O10 0.138254 0.866644 0.353956
O O11 0.137368 0.210102 0.074577
O O12 0.142951 0.362053 0.159739
O O13 0.304948 0.216332 0.126660
O O14 0.287287 0.364296 0.040481
O O15 0.408270 0.500000 0.954334
O O16 0.500000 0.334213 0.000000
O O17 0.570230 0.836176 0.793100
O O18 0.473103 0.000000 0.752890
O O19 0.152062 0.500000 0.845534
O O20 0.796253 0.500000 0.366483
#
# Coordination Sequence:
#
# PCOD9193950 Si02
#       8
#     8   8   8   8   8   8   8   8
#     4   9  17  34  60  85 112 151 194 236 286 351
#     4  11  22  37  59  87 116 148 193 243 290 347
#     4  11  22  36  57  81 108 148 193 234 287 355
#     4  10  20  35  57  83 111 150 191 228 281 341
#     4  10  20  34  54  83 118 151 186 230 276 329
#     4  10  22  39  58  82 114 149 188 242 297 339
#     4  10  20  36  56  78 106 143 190 238 284 341
#     4  11  22  38  61  86 115 153 193 236 293 354
#
# _framework density 20.987055000000002
#
# number of rings (size 3 to 8) (size 9 to 14) (size 15 to 20)
#    0.000    1.750    1.250    3.750    0.000    2.000 
#    0.000    0.000    0.000   16.500    0.000    0.000 
#    0.000    0.000    0.000    0.000    0.000    0.000 
#
# Total GULP energy -178213.792408 kJ/mol
# GULP energy per Si atom -5569.181013 kJ/mol
# Density = 2.093929 g / cm^3
# Si number density = 20.987055 Si / 1000 Ang^3
#
#
#
# Elastic Constant Matrix: (Units=GPa)
#
#
# Indices 1 2 3 4 5 6 
#
# 1 53.9819 38.4658 -11.4181 0.0000 -2.9548 0.0000
# 2 38.4658 103.0837 17.4070 0.0000 9.8920 0.0000
# 3 -11.4181 17.4070 40.7637 0.0000 -2.7083 0.0000
# 4 0.0000 0.0000 0.0000 -16.1825 0.0000 1.5561
# 5 -2.9548 9.8920 -2.7083 0.0000 32.7035 0.0000
# 6 0.0000 0.0000 0.0000 1.5561 0.0000 19.1938
#
#
#
# Elastic Compliance Matrix: (Units=1/GPa)
#
#
# Indices 1 2 3 4 5 6 
#
# 1 0.034830 -0.016905 0.017620 0.000000 0.009719 0.000000
# 2 -0.016905 0.019087 -0.013445 0.000000 -0.008414 0.000000
# 3 0.017620 -0.013445 0.035781 0.000000 0.008622 0.000000
# 4 0.000000 0.000000 0.000000 -0.061317 0.000000 0.004971
# 5 0.009719 -0.008414 0.008622 0.000000 0.034715 0.000000
# 6 0.000000 0.000000 0.000000 0.004971 0.000000 0.051697
#
#
# Mechanical properties :
#
#
# Convention : Reuss Voigt Hill
#
# Bulk Modulus (GPa) = 15.56676 31.85988 23.71332
# Shear Modulus (GPa) = 30.92841 17.36791 24.14816
#
# Velocity S-wave (km/s) = 3.84303 2.87984 3.39576
# Velocity P-wave (km/s) = 5.20819 5.12559 5.16706
#
# Compressibility (1/GPa) = 0.06423943
#
# Stress axis : x y z
#
# Youngs Moduli (GPa) = 28.71119 52.39276 27.94770
#
# Poissons Ratio (x) = 0.88569 -0.49245
# Poissons Ratio (y) = 0.48536 0.37574
# Poissons Ratio (z) = -0.50590 0.70440
#
# Static dielectric constant tensor:
#      x y z
#    x 1.785610 0.000000 -0.038010 
#    y 0.000000 1.777250 0.000000 
#    z -0.038010 0.000000 1.775590 
# 
# From -- ./inp_files/335615.got.cif
#   From: 2010.05.17/outbox.cif.g08.bks.cpg/sg12_168_cif.got.tgz:335615.got - 2010.06.03 13:09:07.
