data_PCOD9193169
_publ_section_title
;
Structure prediction by ZEFSAII (Michael W. Deem and Ramdas Pophale) SiO2 
 PCOD9193169
Probable space group: C 2/M
;
_chemical_formula_sum "Si O2"
_cell_formula_units_Z 64
_cell_length_a 16.911925
_cell_length_b 27.615905
_cell_length_c 12.122416
_cell_angle_alpha 90.000000
_cell_angle_beta 142.810569
_cell_angle_gamma 90.000000
_cell_volume 3422.184746
_symmetry_space_group_name_H-M "C 2/M"
_symmetry_group_IT_number 12
_symmetry_cell_setting 'monoclinic'
loop_
_space_group_symop_operation_xyz
x,y,z
-x,y,-z
-x,-y,-z
x,-y,z
1/2+x,1/2+y,z
1/2-x,1/2+y,-z
1/2-x,1/2-y,-z
1/2+x,1/2-y,z
loop_
_atom_site_type_symbol
_atom_site_label
_atom_site_fract_x
_atom_site_fract_y
_atom_site_fract_z
Si Si1 0.361838 0.555565 0.786575
Si Si2 0.807322 0.357318 0.072376
Si Si3 0.368087 0.943489 0.290077
Si Si4 0.135427 0.771617 0.198771
Si Si5 0.539825 0.830612 0.168495
Si Si6 0.031593 0.170243 0.657111
Si Si7 0.185865 0.737412 0.810218
Si Si8 0.300351 0.354825 0.566916
O O1 0.357752 0.500000 0.740532
O O2 0.249736 0.560935 0.753953
O O3 0.340373 0.595577 0.670028
O O4 0.500000 0.563137 0.000000
O O5 0.837278 0.410161 0.151566
O O6 0.825830 0.320294 0.195714
O O7 0.914651 0.339523 0.104602
O O8 0.663499 0.351642 0.858731
O O9 0.500000 0.928301 0.500000
O O10 0.382171 0.000000 0.275192
O O11 0.087758 0.725412 0.216364
O O12 0.223807 0.752482 0.195577
O O13 0.206488 0.812028 0.349593
O O14 0.000000 0.793403 0.000000
O O15 0.662428 0.859398 0.352669
O O16 0.500000 0.843459 0.000000
O O17 0.061866 0.227527 0.675063
O O18 0.000000 0.150630 0.500000
O O19 0.911124 0.161350 0.603691
O O20 0.250000 0.750000 0.000000
#
# Coordination Sequence:
#
# PCOD9193169 Si02
#       8
#     8   8   8   8   8   8   8   8
#     4  10  21  38  60  88 117 141 173 227 291 342
#     4  11  21  37  58  80 110 148 187 224 275 334
#     4  10  21  38  60  87 114 140 176 226 285 340
#     4  11  20  34  55  83 117 148 187 231 276 331
#     4  11  23  38  53  77 114 153 190 231 278 325
#     4  11  22  37  55  79 112 151 191 230 274 324
#     4  10  20  34  52  80 116 151 183 221 273 333
#     4  12  22  36  59  84 110 148 194 231 275 334
#
# _framework density 18.701504
#
# number of rings (size 3 to 8) (size 9 to 14) (size 15 to 20)
#    0.000    1.250    0.000    9.750    0.000    1.500 
#    0.000    0.000    0.000    4.500    0.000    0.000 
#    0.000    0.000    0.000    0.000    0.000    0.000 
#
# Total GULP energy -178788.943981 kJ/mol
# GULP energy per Si atom -5587.154499 kJ/mol
# Density = 1.865894 g / cm^3
# Si number density = 18.701504 Si / 1000 Ang^3
#
#
#
# Elastic Constant Matrix: (Units=GPa)
#
#
# Indices 1 2 3 4 5 6 
#
# 1 76.9158 10.9259 18.3455 0.0000 4.2267 0.0000
# 2 10.9259 55.5741 24.9476 0.0000 -19.4602 0.0000
# 3 18.3455 24.9476 97.4619 0.0000 -2.0453 0.0000
# 4 0.0000 0.0000 0.0000 26.7596 0.0000 8.8474
# 5 4.2267 -19.4602 -2.0453 0.0000 31.2503 0.0000
# 6 0.0000 0.0000 0.0000 8.8474 0.0000 16.7502
#
#
#
# Elastic Compliance Matrix: (Units=1/GPa)
#
#
# Indices 1 2 3 4 5 6 
#
# 1 0.014161 -0.003391 -0.001884 0.000000 -0.004150 0.000000
# 2 -0.003391 0.027339 -0.006001 0.000000 0.017091 0.000000
# 3 -0.001884 -0.006001 0.012095 0.000000 -0.002691 0.000000
# 4 0.000000 0.000000 0.000000 0.045277 0.000000 -0.023915
# 5 -0.004150 0.017091 -0.002691 0.000000 0.043028 0.000000
# 6 0.000000 0.000000 0.000000 -0.023915 0.000000 0.072333
#
#
# Mechanical properties :
#
#
# Convention : Reuss Voigt Hill
#
# Bulk Modulus (GPa) = 32.21574 37.59887 34.90730
# Shear Modulus (GPa) = 20.23208 26.66753 23.44981
#
# Velocity S-wave (km/s) = 3.29271 3.78028 3.54489
# Velocity P-wave (km/s) = 5.63201 6.26118 5.95491
#
# Compressibility (1/GPa) = 0.03104072
#
# Stress axis : x y z
#
# Youngs Moduli (GPa) = 70.61890 36.57747 82.68018
#
# Poissons Ratio (x) = 0.12405 0.15581
# Poissons Ratio (y) = 0.23949 0.49617
# Poissons Ratio (z) = 0.13308 0.21950
#
# Static dielectric constant tensor:
#      x y z
#    x 1.639640 0.000000 0.003250 
#    y 0.000000 1.667500 0.000000 
#    z 0.003250 0.000000 1.664100 
# 
# From -- ./inp_files/149793.got.cif
#   From: 2010.05.17/outbox.cif.g08.bks.cpg/sg12_75_cif.got.tgz:149793.got - 2010.06.03 13:09:07.
