data_PCOD9193189
_publ_section_title
;
Structure prediction by ZEFSAII (Michael W. Deem and Ramdas Pophale) SiO2 
 PCOD9193189
Probable space group: C 2/M
;
_chemical_formula_sum "Si O2"
_cell_formula_units_Z 64
_cell_length_a 32.442585
_cell_length_b 8.194358
_cell_length_c 25.140697
_cell_angle_alpha 90.000000
_cell_angle_beta 27.904953
_cell_angle_gamma 90.000000
_cell_volume 3127.946492
_symmetry_space_group_name_H-M "C 2/M"
_symmetry_group_IT_number 12
_symmetry_cell_setting 'monoclinic'
loop_
_space_group_symop_operation_xyz
x,y,z
-x,y,-z
-x,-y,-z
x,-y,z
1/2+x,1/2+y,z
1/2-x,1/2+y,-z
1/2-x,1/2-y,-z
1/2+x,1/2-y,z
loop_
_atom_site_type_symbol
_atom_site_label
_atom_site_fract_x
_atom_site_fract_y
_atom_site_fract_z
Si Si1 0.750098 0.804529 0.733447
Si Si2 0.442267 0.199912 0.014828
Si Si3 0.845224 0.190321 0.913399
Si Si4 0.593747 0.697609 0.369731
Si Si5 0.644001 0.196230 0.481990
Si Si6 0.847187 0.302897 0.406356
Si Si7 0.948630 0.305399 0.693659
Si Si8 0.024064 0.696651 0.144559
O O1 0.656466 0.744432 0.859740
O O2 0.828414 0.742283 0.681431
O O3 0.776378 0.762436 0.643529
O O4 0.748707 0.000000 0.739553
O O5 0.444638 0.000000 0.011310
O O6 0.500000 0.250641 0.000000
O O7 0.468139 0.253503 0.925657
O O8 0.911726 0.225906 0.788939
O O9 0.892577 0.262225 0.912264
O O10 0.835864 0.000000 0.933776
O O11 0.750000 0.250000 0.000000
O O12 0.500000 0.753497 0.500000
O O13 0.593422 0.500000 0.369591
O O14 0.605904 0.758385 0.296003
O O15 0.643592 0.250478 0.543203
O O16 0.548985 0.248599 0.567832
O O17 0.647981 0.000000 0.475950
O O18 0.850423 0.500000 0.401394
O O19 0.750000 0.250000 0.500000
O O20 0.931860 0.244248 0.276019
O O21 0.948264 0.500000 0.702161
O O22 0.020109 0.500000 0.147725
#
# Coordination Sequence:
#
# PCOD9193189 Si02
#       8
#     8   8   8   8   8   8   8   8
#     4  10  21  36  58  87 118 157 207 249 296 363
#     4   9  20  38  62  89 118 159 209 256 300 354
#     4  12  26  43  65  92 124 164 209 255 312 379
#     4  10  20  34  52  85 125 158 195 245 300 359
#     4  10  21  38  58  85 122 156 196 250 309 366
#     4  10  22  39  61  90 121 156 201 255 316 375
#     4  11  22  39  61  86 120 161 204 249 307 370
#     4  10  21  42  66  92 128 164 207 263 314 369
#
# _framework density 20.460706999999999
#
# number of rings (size 3 to 8) (size 9 to 14) (size 15 to 20)
#    0.000    1.750    2.500    1.500    3.500    2.250 
#    0.000    0.625    0.000    0.750    0.000    0.000 
#    0.000    0.000    0.000    0.000    0.000    0.000 
#
# Total GULP energy -178638.417798 kJ/mol
# GULP energy per Si atom -5582.450556 kJ/mol
# Density = 2.041414 g / cm^3
# Si number density = 20.460707 Si / 1000 Ang^3
#
#
#
# Elastic Constant Matrix: (Units=GPa)
#
#
# Indices 1 2 3 4 5 6 
#
# 1 164.2338 10.5829 97.8857 -0.0025 9.3601 0.0010
# 2 10.5829 11.1477 9.5383 -0.0033 -3.2697 0.0072
# 3 97.8857 9.5383 140.1463 -0.0054 3.6387 0.0094
# 4 -0.0025 -0.0033 -0.0054 21.7499 0.0042 3.0125
# 5 9.3601 -3.2697 3.6387 0.0042 38.6004 -0.0035
# 6 0.0010 0.0072 0.0094 3.0125 -0.0035 27.6606
#
#
#
# Elastic Compliance Matrix: (Units=1/GPa)
#
#
# Indices 1 2 3 4 5 6 
#
# 1 0.010796 -0.004820 -0.007151 -0.000001 -0.002352 0.000003
# 2 -0.004820 0.100410 -0.003728 0.000015 0.010025 -0.000025
# 3 -0.007151 -0.003728 0.012377 0.000002 0.000252 -0.000003
# 4 -0.000001 0.000015 0.000002 0.046681 -0.000004 -0.005084
# 5 -0.002352 0.010025 0.000252 -0.000004 0.027302 0.000001
# 6 0.000003 -0.000025 -0.000003 -0.005084 0.000001 0.036706
#
#
# Mechanical properties :
#
#
# Convention : Reuss Voigt Hill
#
# Bulk Modulus (GPa) = 10.84765 61.28241 36.06503
# Shear Modulus (GPa) = 16.86911 30.77024 23.81967
#
# Velocity S-wave (km/s) = 2.87446 3.88218 3.41569
# Velocity P-wave (km/s) = 4.04103 7.07894 5.76374
#
# Compressibility (1/GPa) = 0.09218589
#
# Stress axis : x y z
#
# Youngs Moduli (GPa) = 92.62919 9.95912 80.79255
#
# Poissons Ratio (x) = 0.04800 0.57777
# Poissons Ratio (y) = 0.44645 0.30118
# Poissons Ratio (z) = 0.66241 0.03713
#
# Static dielectric constant tensor:
#      x y z
#    x 1.752440 0.000000 -0.021240 
#    y 0.000000 1.719600 0.000010 
#    z -0.021240 0.000010 1.724680 
# 
# From -- ./inp_files/249994.got.cif
#   From: 2010.05.17/outbox.cif.g08.bks.cpg/sg12_125_cif.got.tgz:249994.got - 2010.06.03 13:09:07.
