data_PCOD9193284
_publ_section_title
;
Structure prediction by ZEFSAII (Michael W. Deem and Ramdas Pophale) SiO2 
 PCOD9193284
Probable space group: C 2/M
;
_chemical_formula_sum "Si O2"
_cell_formula_units_Z 44
_cell_length_a 5.470011
_cell_length_b 24.916674
_cell_length_c 14.881825
_cell_angle_alpha 90.000000
_cell_angle_beta 113.768017
_cell_angle_gamma 90.000000
_cell_volume 1856.279018
_symmetry_space_group_name_H-M "C 2/M"
_symmetry_group_IT_number 12
_symmetry_cell_setting 'monoclinic'
loop_
_space_group_symop_operation_xyz
x,y,z
-x,y,-z
-x,-y,-z
x,-y,z
1/2+x,1/2+y,z
1/2-x,1/2+y,-z
1/2-x,1/2-y,-z
1/2+x,1/2-y,z
loop_
_atom_site_type_symbol
_atom_site_label
_atom_site_fract_x
_atom_site_fract_y
_atom_site_fract_z
Si Si1 0.470213 0.889397 0.389135
Si Si2 0.028957 0.095425 0.793755
Si Si3 0.635344 0.772009 0.385588
Si Si4 0.717834 0.665348 0.969164
Si Si5 0.814684 0.500000 0.563037
Si Si6 0.131403 0.559675 0.890239
O O1 0.500000 0.884877 0.500000
O O2 0.158503 0.893618 0.318615
O O3 0.610165 0.835940 0.374031
O O4 0.607602 0.944514 0.378710
O O5 0.828697 0.065450 0.834098
O O6 0.097357 0.150421 0.855463
O O7 0.316010 0.067800 0.821919
O O8 0.750000 0.750000 0.500000
O O9 0.336166 0.749862 0.341499
O O10 0.500000 0.691112 0.000000
O O11 0.000000 0.692652 0.000000
O O12 0.787451 0.607988 0.030561
O O13 0.500000 0.500000 0.500000
O O14 0.000000 0.500000 0.500000
O O15 0.168005 0.500000 0.934097
#
# Coordination Sequence:
#
# PCOD9193284 Si02
#       6
#     8   8   8   8   4   8
#     4  11  24  43  61  86 125 161 204 239 300 358
#     4  10  22  34  52  79 109 150 193 235 288 347
#     4  10  21  39  67  88 104 146 199 265 307 331
#     4   8  16  31  49  74 103 138 191 235 287 328
#     4  10  26  40  56  78 116 168 198 226 276 362
#     4  10  20  34  53  76 108 150 201 243 279 333
#
# _framework density 23.703332
#
# number of rings (size 3 to 8) (size 9 to 14) (size 15 to 20)
#    0.000    2.182    1.818    0.545    5.091   10.909 
#    0.000    0.000    0.000    0.000    0.000    0.000 
#    0.000   39.273    0.000    0.000    0.000    0.000 
#
# Total GULP energy -122895.996156 kJ/mol
# GULP energy per Si atom -5586.181643 kJ/mol
# Density = 2.364938 g / cm^3
# Si number density = 23.703332 Si / 1000 Ang^3
#
#
#
# Elastic Constant Matrix: (Units=GPa)
#
#
# Indices 1 2 3 4 5 6 
#
# 1 202.0716 40.4969 39.0274 0.0000 39.0837 0.0000
# 2 40.4969 179.7407 18.3306 0.0000 20.7029 0.0000
# 3 39.0274 18.3306 122.9100 0.0000 31.5140 0.0000
# 4 0.0000 0.0000 0.0000 -168.4131 0.0000 -175.2555
# 5 39.0837 20.7029 31.5140 0.0000 40.7600 0.0000
# 6 0.0000 0.0000 0.0000 -175.2555 0.0000 -141.4583
#
#
#
# Elastic Compliance Matrix: (Units=1/GPa)
#
#
# Indices 1 2 3 4 5 6 
#
# 1 0.006198 -0.000749 -0.000536 0.000000 -0.005148 0.000000
# 2 -0.000749 0.006002 -0.000075 0.000000 -0.002273 0.000000
# 3 -0.000536 -0.000075 0.010197 0.000000 -0.007332 0.000000
# 4 0.000000 0.000000 0.000000 0.020528 0.000000 -0.025432
# 5 -0.005148 -0.002273 -0.007332 0.000000 0.036293 0.000000
# 6 0.000000 0.000000 0.000000 -0.025432 0.000000 0.024439
#
#
# Mechanical properties :
#
#
# Convention : Reuss Voigt Hill
#
# Bulk Modulus (GPa) = 50.81933 77.82577 64.32255
# Shear Modulus (GPa) = 44.27266 -26.69778 8.78744
#
# Velocity S-wave (km/s) = 4.32647 -3.35973 1.92751
# Velocity P-wave (km/s) = 6.81499 4.22542 5.67002
#
# Compressibility (1/GPa) = 0.01967755
#
# Stress axis : x y z
#
# Youngs Moduli (GPa) = 161.33866 166.62051 98.06425
#
# Poissons Ratio (x) = 0.12477 0.05260
# Poissons Ratio (y) = 0.12081 0.00731
# Poissons Ratio (z) = 0.08655 0.01243
#
# Static dielectric constant tensor:
#      x y z
#    x 1.884460 0.000000 -0.009810 
#    y 0.000000 1.940220 0.000000 
#    z -0.009810 0.000000 1.910850 
# 
# From -- ./inp_files/253687.got.cif
#   From: 2010.05.17/outbox.cif.g08.bks.cpg/sg12_127_cif.got.tgz:253687.got - 2010.06.03 13:09:07.
